26,27-Dinorergosta-5,23-dien-3-ol,(3beta)
  -OEChem-12152006593D

 74 77  0     1  0  0  0  0  0999 V2000
    6.7217    0.6038   -0.2930 O   0  0  0  0  0  0  0  0  0  0  0  0
    7.3873   -1.0456    1.1812 O   0  0  0  0  0  0  0  0  0  0  0  0
   -2.0011    0.1871    0.1228 C   0  0  1  0  0  0  0  0  0  0  0  0
   -1.0729   -1.0079    0.4180 C   0  0  2  0  0  0  0  0  0  0  0  0
    0.3060   -0.8803   -0.2373 C   0  0  1  0  0  0  0  0  0  0  0  0
    0.9928    0.4294    0.2482 C   0  0  1  0  0  0  0  0  0  0  0  0
   -3.2723   -0.2978    0.8615 C   0  0  2  0  0  0  0  0  0  0  0  0
   -1.3464    1.4389    0.7236 C   0  0  0  0  0  0  0  0  0  0  0  0
    2.4070    0.6273   -0.4314 C   0  0  2  0  0  0  0  0  0  0  0  0
   -1.9329   -2.2247    0.0902 C   0  0  0  0  0  0  0  0  0  0  0  0
    0.0617    1.6691    0.1477 C   0  0  0  0  0  0  0  0  0  0  0  0
   -3.3554   -1.7996    0.4996 C   0  0  0  0  0  0  0  0  0  0  0  0
    1.1836   -2.0945    0.1014 C   0  0  0  0  0  0  0  0  0  0  0  0
   -2.2816    0.4103   -1.3841 C   0  0  0  0  0  0  0  0  0  0  0  0
   -4.5612    0.4550    0.5648 C   0  0  1  0  0  0  0  0  0  0  0  0
    3.1999   -0.6872   -0.4345 C   0  0  0  0  0  0  0  0  0  0  0  0
    3.1948    1.6959    0.3840 C   0  0  0  0  0  0  0  0  0  0  0  0
    2.6362   -1.8811   -0.1809 C   0  0  0  0  0  0  0  0  0  0  0  0
    2.2653    1.1033   -1.8973 C   0  0  0  0  0  0  0  0  0  0  0  0
    4.6792   -0.6001   -0.7318 C   0  0  0  0  0  0  0  0  0  0  0  0
    4.6744    1.8029    0.0176 C   0  0  0  0  0  0  0  0  0  0  0  0
    5.3709    0.4515    0.1313 C   0  0  2  0  0  0  0  0  0  0  0  0
   -5.7830   -0.4202    0.9157 C   0  0  0  0  0  0  0  0  0  0  0  0
   -4.5792    1.7866    1.3256 C   0  0  0  0  0  0  0  0  0  0  0  0
   -7.0979    0.2455    0.6140 C   0  0  0  0  0  0  0  0  0  0  0  0
   -7.8528    0.1285   -0.4951 C   0  0  0  0  0  0  0  0  0  0  0  0
    7.6308   -0.2127    0.3185 C   0  0  0  0  0  0  0  0  0  0  0  0
   -7.4137   -0.7663   -1.6237 C   0  0  0  0  0  0  0  0  0  0  0  0
   -9.1624    0.8258   -0.7314 C   0  0  0  0  0  0  0  0  0  0  0  0
    9.0013    0.0567   -0.2249 C   0  0  0  0  0  0  0  0  0  0  0  0
   -0.8984   -1.0449    1.5069 H   0  0  0  0  0  0  0  0  0  0  0  0
    0.1896   -0.8515   -1.3264 H   0  0  0  0  0  0  0  0  0  0  0  0
    1.1738    0.2902    1.3267 H   0  0  0  0  0  0  0  0  0  0  0  0
   -3.0867   -0.2541    1.9459 H   0  0  0  0  0  0  0  0  0  0  0  0
   -1.9261    2.3394    0.5126 H   0  0  0  0  0  0  0  0  0  0  0  0
   -1.2757    1.3502    1.8149 H   0  0  0  0  0  0  0  0  0  0  0  0
   -1.6100   -3.1139    0.6412 H   0  0  0  0  0  0  0  0  0  0  0  0
   -1.8956   -2.4652   -0.9784 H   0  0  0  0  0  0  0  0  0  0  0  0
   -0.0430    1.9858   -0.8942 H   0  0  0  0  0  0  0  0  0  0  0  0
    0.5118    2.5138    0.6813 H   0  0  0  0  0  0  0  0  0  0  0  0
   -4.0042   -1.9977   -0.3603 H   0  0  0  0  0  0  0  0  0  0  0  0
   -3.7132   -2.3938    1.3474 H   0  0  0  0  0  0  0  0  0  0  0  0
    0.8365   -2.9593   -0.4768 H   0  0  0  0  0  0  0  0  0  0  0  0
    1.0828   -2.3611    1.1609 H   0  0  0  0  0  0  0  0  0  0  0  0
   -2.8570   -0.4069   -1.8305 H   0  0  0  0  0  0  0  0  0  0  0  0
   -2.8442    1.3367   -1.5452 H   0  0  0  0  0  0  0  0  0  0  0  0
   -1.3653    0.5057   -1.9728 H   0  0  0  0  0  0  0  0  0  0  0  0
   -4.6472    0.6809   -0.5032 H   0  0  0  0  0  0  0  0  0  0  0  0
    2.7391    2.6851    0.2570 H   0  0  0  0  0  0  0  0  0  0  0  0
    3.1297    1.4619    1.4554 H   0  0  0  0  0  0  0  0  0  0  0  0
    3.2542   -2.7758   -0.1763 H   0  0  0  0  0  0  0  0  0  0  0  0
    1.6250    0.4348   -2.4817 H   0  0  0  0  0  0  0  0  0  0  0  0
    3.2290    1.1491   -2.4154 H   0  0  0  0  0  0  0  0  0  0  0  0
    1.8419    2.1112   -1.9562 H   0  0  0  0  0  0  0  0  0  0  0  0
    4.8286   -0.3681   -1.7939 H   0  0  0  0  0  0  0  0  0  0  0  0
    5.1745   -1.5683   -0.5840 H   0  0  0  0  0  0  0  0  0  0  0  0
    4.7936    2.2069   -0.9954 H   0  0  0  0  0  0  0  0  0  0  0  0
    5.1681    2.5265    0.6781 H   0  0  0  0  0  0  0  0  0  0  0  0
    5.3299    0.1489    1.1870 H   0  0  0  0  0  0  0  0  0  0  0  0
   -5.7782   -1.3953    0.4264 H   0  0  0  0  0  0  0  0  0  0  0  0
   -5.7680   -0.6452    1.9911 H   0  0  0  0  0  0  0  0  0  0  0  0
   -3.8687    2.5009    0.9125 H   0  0  0  0  0  0  0  0  0  0  0  0
   -5.5525    2.2818    1.2538 H   0  0  0  0  0  0  0  0  0  0  0  0
   -4.3604    1.6479    2.3897 H   0  0  0  0  0  0  0  0  0  0  0  0
   -7.4700    0.8989    1.4022 H   0  0  0  0  0  0  0  0  0  0  0  0
   -6.3650   -1.0683   -1.5780 H   0  0  0  0  0  0  0  0  0  0  0  0
   -7.5363   -0.2457   -2.5804 H   0  0  0  0  0  0  0  0  0  0  0  0
   -8.0316   -1.6699   -1.6479 H   0  0  0  0  0  0  0  0  0  0  0  0
   -9.9598    0.0942   -0.8966 H   0  0  0  0  0  0  0  0  0  0  0  0
   -9.4485    1.4454    0.1249 H   0  0  0  0  0  0  0  0  0  0  0  0
   -9.0963    1.4775   -1.6084 H   0  0  0  0  0  0  0  0  0  0  0  0
    9.0216   -0.1504   -1.2977 H   0  0  0  0  0  0  0  0  0  0  0  0
    9.7233   -0.5989    0.2704 H   0  0  0  0  0  0  0  0  0  0  0  0
    9.2808    1.0946   -0.0274 H   0  0  0  0  0  0  0  0  0  0  0  0
  1 22  1  0  0  0  0
  1 27  1  0  0  0  0
  2 27  2  0  0  0  0
  3  4  1  0  0  0  0
  3  7  1  0  0  0  0
  3  8  1  0  0  0  0
  3 14  1  0  0  0  0
  4  5  1  0  0  0  0
  4 10  1  0  0  0  0
  4 31  1  0  0  0  0
  5  6  1  0  0  0  0
  5 13  1  0  0  0  0
  5 32  1  0  0  0  0
  6  9  1  0  0  0  0
  6 11  1  0  0  0  0
  6 33  1  0  0  0  0
  7 12  1  0  0  0  0
  7 15  1  0  0  0  0
  7 34  1  0  0  0  0
  8 11  1  0  0  0  0
  8 35  1  0  0  0  0
  8 36  1  0  0  0  0
  9 16  1  0  0  0  0
  9 17  1  0  0  0  0
  9 19  1  0  0  0  0
 10 12  1  0  0  0  0
 10 37  1  0  0  0  0
 10 38  1  0  0  0  0
 11 39  1  0  0  0  0
 11 40  1  0  0  0  0
 12 41  1  0  0  0  0
 12 42  1  0  0  0  0
 13 18  1  0  0  0  0
 13 43  1  0  0  0  0
 13 44  1  0  0  0  0
 14 45  1  0  0  0  0
 14 46  1  0  0  0  0
 14 47  1  0  0  0  0
 15 23  1  0  0  0  0
 15 24  1  0  0  0  0
 15 48  1  0  0  0  0
 16 18  2  0  0  0  0
 16 20  1  0  0  0  0
 17 21  1  0  0  0  0
 17 49  1  0  0  0  0
 17 50  1  0  0  0  0
 18 51  1  0  0  0  0
 19 52  1  0  0  0  0
 19 53  1  0  0  0  0
 19 54  1  0  0  0  0
 20 22  1  0  0  0  0
 20 55  1  0  0  0  0
 20 56  1  0  0  0  0
 21 22  1  0  0  0  0
 21 57  1  0  0  0  0
 21 58  1  0  0  0  0
 22 59  1  0  0  0  0
 23 25  1  0  0  0  0
 23 60  1  0  0  0  0
 23 61  1  0  0  0  0
 24 62  1  0  0  0  0
 24 63  1  0  0  0  0
 24 64  1  0  0  0  0
 25 26  2  0  0  0  0
 25 65  1  0  0  0  0
 26 28  1  0  0  0  0
 26 29  1  0  0  0  0
 27 30  1  0  0  0  0
 28 66  1  0  0  0  0
 28 67  1  0  0  0  0
 28 68  1  0  0  0  0
 29 69  1  0  0  0  0
 29 70  1  0  0  0  0
 29 71  1  0  0  0  0
 30 72  1  0  0  0  0
 30 73  1  0  0  0  0
 30 74  1  0  0  0  0
M  END
> <PUBCHEM_COMPOUND_CID>
22296440

> <PUBCHEM_CONFORMER_RMSD>
0.8

> <PUBCHEM_CONFORMER_DIVERSEORDER>
1
20
8
22
24
5
17
25
18
14
13
9
11
15
10
12
19
16
7
21
26
23
3
4
2
6

> <PUBCHEM_MMFF94_PARTIAL_CHARGES>
17
1 -0.43
13 0.14
16 -0.28
18 -0.29
2 -0.57
20 0.14
22 0.28
23 0.14
25 -0.29
26 -0.28
27 0.66
28 0.14
29 0.14
30 0.06
51 0.15
65 0.15
9 0.14

> <PUBCHEM_EFFECTIVE_ROTOR_COUNT>
7

> <PUBCHEM_PHARMACOPHORE_FEATURES>
7
1 2 acceptor
1 24 hydrophobe
3 26 28 29 hydrophobe
5 3 4 7 10 12 rings
6 3 4 5 6 8 11 rings
6 5 6 9 13 16 18 rings
6 9 16 17 20 21 22 rings

> <PUBCHEM_HEAVY_ATOM_COUNT>
30

> <PUBCHEM_ATOM_DEF_STEREO_COUNT>
8

> <PUBCHEM_ATOM_UDEF_STEREO_COUNT>
0

> <PUBCHEM_BOND_DEF_STEREO_COUNT>
0

> <PUBCHEM_BOND_UDEF_STEREO_COUNT>
0

> <PUBCHEM_ISOTOPIC_ATOM_COUNT>
0

> <PUBCHEM_COMPONENT_COUNT>
1

> <PUBCHEM_CACTVS_TAUTO_COUNT>
1

> <PUBCHEM_CONFORMER_ID>
0154377800000001

> <PUBCHEM_MMFF94_ENERGY>
88.1551

> <PUBCHEM_FEATURE_SELFOVERLAP>
35.618

> <PUBCHEM_SHAPE_FINGERPRINT>
10 15 18259989288449573360
106641 1 15410891872748912240
10674148 151 12973604447858974948
11181472 205 16153980245013952060
11578080 2 16879332417282285358
11719270 70 18413390926112060098
12107698 1 16443067209379913821
12236239 1 18041284348463756784
12741549 16 15213295340578039094
12838862 33 18411407419286718042
13811026 1 18342742875441176094
14117953 113 18334298668978571740
14251764 18 18411700976344022986
14251764 46 18410573985167294920
15131766 46 16590860401753812692
15142383 8 17458062672710846580
15183329 4 18060418015724889607
15301273 46 16805321089417302922
15439362 3 16590576710917277756
15461852 350 17632578274947106679
15840311 113 17749677376651619444
16087824 20 18336827495154078461
21033648 29 17917138507846501002
21150785 3 16487255474157505939
21267235 1 18409174312083295448
21403212 168 18334292063561742410
21792961 116 17894623721912486764
22224240 67 16559031593081593046
23559900 14 18269835487759020625
23569917 315 18336554901247089627
24771293 8 18201165364492114761
249057 3 18408606989283370180
335352 9 18412547630705118476
350125 39 18410578401280216832
3633792 109 18412264996250826609
4073 2 18115034133625290754
4093350 32 16988290768362640022
4325135 7 18131068234124870789
5028188 123 13334750028575655826
5104073 3 18336841779144115243
5381727 24 13901909995325162668
59755656 215 18409173190643364982
6009941 240 17531251681947604619
6081469 158 17967811626778166492
6691757 9 18201730573846468155

> <PUBCHEM_SHAPE_MULTIPOLES>
605.65
23.97
1.9
1.17
2.62
0.33
-0.31
-2.16
-1.85
-0.19
0.23
0.99
-0.15
-0.57

> <PUBCHEM_SHAPE_SELFOVERLAP>
1262.007

> <PUBCHEM_SHAPE_VOLUME>
343.5

> <PUBCHEM_COORDINATE_TYPE>
2
5
10

$$$$
