3034112
  -OEChem-07082406002D

 64 69  0     1  0  0  0  0  0999 V2000
    5.6993   -1.0603    0.0000 O   0  0  0  0  0  0  0  0  0  0  0  0
    8.3939   -1.6020    0.0000 O   0  0  0  0  0  0  0  0  0  0  0  0
    4.8614   -1.5881    0.0000 O   0  0  0  0  0  0  0  0  0  0  0  0
    7.4879   -3.1228    0.0000 O   0  0  0  0  0  0  0  0  0  0  0  0
    2.1359    3.0909    0.0000 O   0  0  0  0  0  0  0  0  0  0  0  0
   10.8247    0.3043    0.0000 O   0  0  0  0  0  0  0  0  0  0  0  0
    6.6098   -0.5535    0.0000 C   0  0  1  0  0  0  0  0  0  0  0  0
    5.7438   -0.0535    0.0000 C   0  0  1  0  0  0  0  0  0  0  0  0
    5.7438    0.9465    0.0000 C   0  0  1  0  0  0  0  0  0  0  0  0
    7.4758   -0.0535    0.0000 C   0  0  1  0  0  0  0  0  0  0  0  0
    6.5938   -1.5950    0.0000 C   0  0  1  0  0  0  0  0  0  0  0  0
    4.8498    1.4812    0.0000 C   0  0  1  0  0  0  0  0  0  0  0  0
    4.8498   -0.5882    0.0000 C   0  0  1  0  0  0  0  0  0  0  0  0
    6.6098    1.4465    0.0000 C   0  0  0  0  0  0  0  0  0  0  0  0
    7.4758    0.9465    0.0000 C   0  0  0  0  0  0  0  0  0  0  0  0
    3.9438    0.9673    0.0000 C   0  0  1  0  0  0  0  0  0  0  0  0
    3.9438   -0.0743    0.0000 C   0  0  0  0  0  0  0  0  0  0  0  0
    8.3858   -0.5604    0.0000 C   0  0  2  0  0  0  0  0  0  0  0  0
    6.3939   -1.1793    0.0000 C   0  0  0  0  0  0  0  0  0  0  0  0
    8.3419    0.4465    0.0000 C   0  0  0  0  0  0  0  0  0  0  0  0
    3.0000    1.5025    0.0000 C   0  0  0  0  0  0  0  0  0  0  0  0
    7.4918   -2.1228    0.0000 C   0  0  0  0  0  0  0  0  0  0  0  0
    5.7197    1.9744    0.0000 C   0  0  0  0  0  0  0  0  0  0  0  0
    4.8749    2.5659    0.0000 C   0  0  0  0  0  0  0  0  0  0  0  0
    9.2460   -0.0504    0.0000 C   0  0  0  0  0  0  0  0  0  0  0  0
    3.0000    2.5875    0.0000 C   0  0  0  0  0  0  0  0  0  0  0  0
    3.9438    3.1228    0.0000 C   0  0  0  0  0  0  0  0  0  0  0  0
    2.0000    1.4987    0.0000 C   0  0  0  0  0  0  0  0  0  0  0  0
    2.5033    0.6346    0.0000 C   0  0  0  0  0  0  0  0  0  0  0  0
    9.3390    0.9453    0.0000 C   0  0  0  0  0  0  0  0  0  0  0  0
   10.1642   -0.4465    0.0000 C   0  0  0  0  0  0  0  0  0  0  0  0
   10.3147    1.1645    0.0000 C   0  0  0  0  0  0  0  0  0  0  0  0
    6.4799    0.5215    0.0000 H   0  0  0  0  0  0  0  0  0  0  0  0
    6.1604   -2.3262    0.0000 H   0  0  0  0  0  0  0  0  0  0  0  0
    5.3909   -0.8909    0.0000 H   0  0  0  0  0  0  0  0  0  0  0  0
    7.0083    1.9214    0.0000 H   0  0  0  0  0  0  0  0  0  0  0  0
    6.2113    1.9214    0.0000 H   0  0  0  0  0  0  0  0  0  0  0  0
    8.0864    0.8388    0.0000 H   0  0  0  0  0  0  0  0  0  0  0  0
    7.6879    1.5291    0.0000 H   0  0  0  0  0  0  0  0  0  0  0  0
    3.2093    0.5395    0.0000 H   0  0  0  0  0  0  0  0  0  0  0  0
    3.3329    0.0318    0.0000 H   0  0  0  0  0  0  0  0  0  0  0  0
    3.7347   -0.6580    0.0000 H   0  0  0  0  0  0  0  0  0  0  0  0
    8.9257   -0.8652    0.0000 H   0  0  0  0  0  0  0  0  0  0  0  0
    5.8570   -1.4893    0.0000 H   0  0  0  0  0  0  0  0  0  0  0  0
    6.7040   -1.7162    0.0000 H   0  0  0  0  0  0  0  0  0  0  0  0
    6.9308   -0.8692    0.0000 H   0  0  0  0  0  0  0  0  0  0  0  0
    8.6519   -0.0905    0.0000 H   0  0  0  0  0  0  0  0  0  0  0  0
    8.8788    0.7565    0.0000 H   0  0  0  0  0  0  0  0  0  0  0  0
    8.0319    0.9834    0.0000 H   0  0  0  0  0  0  0  0  0  0  0  0
    6.0256    1.4351    0.0000 H   0  0  0  0  0  0  0  0  0  0  0  0
    6.2590    2.2803    0.0000 H   0  0  0  0  0  0  0  0  0  0  0  0
    5.4138    2.5138    0.0000 H   0  0  0  0  0  0  0  0  0  0  0  0
    5.4178    2.8654    0.0000 H   0  0  0  0  0  0  0  0  0  0  0  0
    4.3281   -1.9043    0.0000 H   0  0  0  0  0  0  0  0  0  0  0  0
    3.9510    3.7427    0.0000 H   0  0  0  0  0  0  0  0  0  0  0  0
    1.9976    2.1187    0.0000 H   0  0  0  0  0  0  0  0  0  0  0  0
    1.3800    1.4963    0.0000 H   0  0  0  0  0  0  0  0  0  0  0  0
    2.0024    0.8787    0.0000 H   0  0  0  0  0  0  0  0  0  0  0  0
    1.9652    0.9425    0.0000 H   0  0  0  0  0  0  0  0  0  0  0  0
    2.1954    0.0965    0.0000 H   0  0  0  0  0  0  0  0  0  0  0  0
    3.0415    0.3267    0.0000 H   0  0  0  0  0  0  0  0  0  0  0  0
    8.8735    1.3548    0.0000 H   0  0  0  0  0  0  0  0  0  0  0  0
   10.3001   -1.0514    0.0000 H   0  0  0  0  0  0  0  0  0  0  0  0
   10.5603    1.7338    0.0000 H   0  0  0  0  0  0  0  0  0  0  0  0
  7  1  1  1  0  0  0
  1 11  1  0  0  0  0
  2 18  1  0  0  0  0
  2 22  1  0  0  0  0
 13  3  1  6  0  0  0
  3 54  1  0  0  0  0
  4 22  2  0  0  0  0
  5 26  2  0  0  0  0
  6 31  1  0  0  0  0
  6 32  1  0  0  0  0
  7  8  1  0  0  0  0
  7 10  1  0  0  0  0
  7 11  1  0  0  0  0
  8  9  1  0  0  0  0
  8 13  1  0  0  0  0
  8 19  1  1  0  0  0
  9 12  1  0  0  0  0
  9 14  1  0  0  0  0
  9 33  1  6  0  0  0
 10 15  1  0  0  0  0
 10 18  1  0  0  0  0
 10 20  1  6  0  0  0
 11 22  1  0  0  0  0
 11 34  1  6  0  0  0
 12 16  1  0  0  0  0
 12 23  1  1  0  0  0
 12 24  1  0  0  0  0
 13 17  1  0  0  0  0
 13 35  1  0  0  0  0
 14 15  1  0  0  0  0
 14 36  1  0  0  0  0
 14 37  1  0  0  0  0
 15 38  1  0  0  0  0
 15 39  1  0  0  0  0
 16 17  1  0  0  0  0
 16 21  1  0  0  0  0
 16 40  1  6  0  0  0
 17 41  1  0  0  0  0
 17 42  1  0  0  0  0
 18 25  1  6  0  0  0
 18 43  1  0  0  0  0
 19 44  1  0  0  0  0
 19 45  1  0  0  0  0
 19 46  1  0  0  0  0
 20 47  1  0  0  0  0
 20 48  1  0  0  0  0
 20 49  1  0  0  0  0
 21 26  1  0  0  0  0
 21 28  1  0  0  0  0
 21 29  1  0  0  0  0
 23 50  1  0  0  0  0
 23 51  1  0  0  0  0
 23 52  1  0  0  0  0
 24 27  2  0  0  0  0
 24 53  1  0  0  0  0
 25 30  1  0  0  0  0
 25 31  2  0  0  0  0
 26 27  1  0  0  0  0
 27 55  1  0  0  0  0
 28 56  1  0  0  0  0
 28 57  1  0  0  0  0
 28 58  1  0  0  0  0
 29 59  1  0  0  0  0
 29 60  1  0  0  0  0
 29 61  1  0  0  0  0
 30 32  2  0  0  0  0
 30 62  1  0  0  0  0
 31 63  1  0  0  0  0
 32 64  1  0  0  0  0
M  END
> <PUBCHEM_COMPOUND_CID>
3034112

> <PUBCHEM_COMPOUND_CANONICALIZED>
1

> <PUBCHEM_CACTVS_COMPLEXITY>
925

> <PUBCHEM_CACTVS_HBOND_ACCEPTOR>
6

> <PUBCHEM_CACTVS_HBOND_DONOR>
1

> <PUBCHEM_CACTVS_ROTATABLE_BOND>
1

> <PUBCHEM_CACTVS_SUBSKEYS>
AAADcfB4OAAAAAAAAAAAAAAAEgAAASAAAAA0YIEABIAAAADRgAAAGgAACAAAD1SgmAIyDIAABkCIAqjSiAICCAAkIAAIiAFGCMgNNxYENQ6CWSCl4BEKKYPK7PzPgAAAAAAAAADAAAYAADAAAAAAAAAAAA==

> <PUBCHEM_IUPAC_OPENEYE_NAME>
(1S,2R,4S,7S,8S,11R,12R,17R,19R)-7-(3-furyl)-19-hydroxy-1,8,12,16,16-pentamethyl-3,6-dioxapentacyclo[9.8.0.02,4.02,8.012,17]nonadec-13-ene-5,15-dione

> <PUBCHEM_IUPAC_CAS_NAME>
(1S,2R,4S,7S,8S,11R,12R,17R,19R)-7-(3-furanyl)-19-hydroxy-1,8,12,16,16-pentamethyl-3,6-dioxapentacyclo[9.8.0.02,4.02,8.012,17]nonadec-13-ene-5,15-dione

> <PUBCHEM_IUPAC_NAME_MARKUP>
(1<I>S</I>,2<I>R</I>,4<I>S</I>,7<I>S</I>,8<I>S</I>,11<I>R</I>,12<I>R</I>,17<I>R</I>,19<I>R</I>)-7-(furan-3-yl)-19-hydroxy-1,8,12,16,16-pentamethyl-3,6-dioxapentacyclo[9.8.0.0<SUP>2,4</SUP>.0<SUP>2,8</SUP>.0<SUP>12,17</SUP>]nonadec-13-ene-5,15-dione

> <PUBCHEM_IUPAC_NAME>
(1S,2R,4S,7S,8S,11R,12R,17R,19R)-7-(furan-3-yl)-19-hydroxy-1,8,12,16,16-pentamethyl-3,6-dioxapentacyclo[9.8.0.02,4.02,8.012,17]nonadec-13-ene-5,15-dione

> <PUBCHEM_IUPAC_SYSTEMATIC_NAME>
(1S,2R,4S,7S,8S,11R,12R,17R,19R)-7-(furan-3-yl)-1,8,12,16,16-pentamethyl-19-oxidanyl-3,6-dioxapentacyclo[9.8.0.02,4.02,8.012,17]nonadec-13-ene-5,15-dione

> <PUBCHEM_IUPAC_TRADITIONAL_NAME>
(1S,2R,4S,7S,8S,11R,12R,17R,19R)-7-(3-furyl)-19-hydroxy-1,8,12,16,16-pentamethyl-3,6-dioxapentacyclo[9.8.0.02,4.02,8.012,17]nonadec-13-ene-5,15-quinone

> <PUBCHEM_IUPAC_INCHI>
InChI=1S/C26H32O6/c1-22(2)16-12-18(28)25(5)15(23(16,3)9-7-17(22)27)6-10-24(4)19(14-8-11-30-13-14)31-21(29)20-26(24,25)32-20/h7-9,11,13,15-16,18-20,28H,6,10,12H2,1-5H3/t15-,16+,18-,19+,20-,23-,24+,25+,26-/m1/s1

> <PUBCHEM_IUPAC_INCHIKEY>
HCEYJYMNIQHPPK-DXTZDJJUSA-N

> <PUBCHEM_XLOGP3_AA>
3.6

> <PUBCHEM_EXACT_MASS>
440.21988874

> <PUBCHEM_MOLECULAR_FORMULA>
C26H32O6

> <PUBCHEM_MOLECULAR_WEIGHT>
440.5

> <PUBCHEM_OPENEYE_CAN_SMILES>
CC1(C2CC(C3(C(C2(C=CC1=O)C)CCC4(C35C(O5)C(=O)OC4C6=COC=C6)C)C)O)C

> <PUBCHEM_OPENEYE_ISO_SMILES>
C[C@@]12CC[C@@H]3[C@]4(C=CC(=O)C([C@@H]4C[C@H]([C@]3([C@@]15[C@H](O5)C(=O)O[C@H]2C6=COC=C6)C)O)(C)C)C

> <PUBCHEM_CACTVS_TPSA>
89.3

> <PUBCHEM_MONOISOTOPIC_WEIGHT>
440.21988874

> <PUBCHEM_TOTAL_CHARGE>
0

> <PUBCHEM_HEAVY_ATOM_COUNT>
32

> <PUBCHEM_ATOM_DEF_STEREO_COUNT>
9

> <PUBCHEM_ATOM_UDEF_STEREO_COUNT>
0

> <PUBCHEM_BOND_DEF_STEREO_COUNT>
0

> <PUBCHEM_BOND_UDEF_STEREO_COUNT>
0

> <PUBCHEM_ISOTOPIC_ATOM_COUNT>
0

> <PUBCHEM_COMPONENT_COUNT>
1

> <PUBCHEM_CACTVS_TAUTO_COUNT>
-1

> <PUBCHEM_COORDINATE_TYPE>
1
5
255

> <PUBCHEM_BONDANNOTATIONS>
7  1  5
10  20  6
11  34  6
12  23  5
16  40  6
18  25  6
25  30  8
25  31  8
13  3  6
30  32  8
6  31  8
6  32  8
8  19  5
9  33  6

$$$$
