Ergost-7-en-3-ol
  -OEChem-12152006533D

 77 80  0     1  0  0  0  0  0999 V2000
    5.2285    3.6690    0.3231 O   0  0  0  0  0  0  0  0  0  0  0  0
   -0.2967   -1.1861   -0.2159 C   0  0  1  0  0  0  0  0  0  0  0  0
    0.4288   -0.4826    0.9504 C   0  0  2  0  0  0  0  0  0  0  0  0
    2.4966   -0.0888   -0.4906 C   0  0  2  0  0  0  0  0  0  0  0  0
    4.0506   -0.3400   -0.6561 C   0  0  2  0  0  0  0  0  0  0  0  0
   -1.7664   -0.8944    0.1749 C   0  0  2  0  0  0  0  0  0  0  0  0
    1.9302   -0.5856    0.8460 C   0  0  0  0  0  0  0  0  0  0  0  0
    0.1475   -0.5091   -1.5230 C   0  0  0  0  0  0  0  0  0  0  0  0
    1.6710   -0.5966   -1.7101 C   0  0  0  0  0  0  0  0  0  0  0  0
   -0.3369   -0.9703    2.1844 C   0  0  0  0  0  0  0  0  0  0  0  0
    4.7807   -0.0680    0.6966 C   0  0  2  0  0  0  0  0  0  0  0  0
   -1.7935   -1.0998    1.7054 C   0  0  0  0  0  0  0  0  0  0  0  0
   -2.8326   -1.7030   -0.5507 C   0  0  1  0  0  0  0  0  0  0  0  0
    4.6633    0.5853   -1.7460 C   0  0  0  0  0  0  0  0  0  0  0  0
   -0.0160   -2.7083   -0.2784 C   0  0  0  0  0  0  0  0  0  0  0  0
    4.2100   -0.9376    1.8304 C   0  0  0  0  0  0  0  0  0  0  0  0
    2.7143   -0.9799    1.8627 C   0  0  0  0  0  0  0  0  0  0  0  0
    4.7589    1.4253    1.0764 C   0  0  0  0  0  0  0  0  0  0  0  0
    4.3446   -1.8012   -1.0880 C   0  0  0  0  0  0  0  0  0  0  0  0
    4.6826    2.0640   -1.3672 C   0  0  0  0  0  0  0  0  0  0  0  0
    5.3638    2.2948   -0.0237 C   0  0  1  0  0  0  0  0  0  0  0  0
   -4.2348   -1.3250   -0.0264 C   0  0  0  0  0  0  0  0  0  0  0  0
   -2.7108   -1.4956   -2.0641 C   0  0  0  0  0  0  0  0  0  0  0  0
   -4.5580    0.1682   -0.1596 C   0  0  0  0  0  0  0  0  0  0  0  0
   -5.9683    0.5503    0.3507 C   0  0  1  0  0  0  0  0  0  0  0  0
   -6.2318    2.0837    0.3648 C   0  0  0  0  0  0  0  0  0  0  0  0
   -7.0119   -0.2404   -0.4516 C   0  0  0  0  0  0  0  0  0  0  0  0
   -6.1600    2.6905   -1.0415 C   0  0  0  0  0  0  0  0  0  0  0  0
   -7.5539    2.4811    1.0269 C   0  0  0  0  0  0  0  0  0  0  0  0
    0.2204    0.5992    0.8862 H   0  0  0  0  0  0  0  0  0  0  0  0
    2.3311    0.9965   -0.4609 H   0  0  0  0  0  0  0  0  0  0  0  0
   -1.9250    0.1750   -0.0173 H   0  0  0  0  0  0  0  0  0  0  0  0
   -0.1471    0.5482   -1.5257 H   0  0  0  0  0  0  0  0  0  0  0  0
   -0.2924   -0.9598   -2.4120 H   0  0  0  0  0  0  0  0  0  0  0  0
    1.9386   -0.0151   -2.5998 H   0  0  0  0  0  0  0  0  0  0  0  0
    1.9181   -1.6374   -1.9407 H   0  0  0  0  0  0  0  0  0  0  0  0
   -0.2519   -0.2679    3.0204 H   0  0  0  0  0  0  0  0  0  0  0  0
    0.0247   -1.9443    2.5331 H   0  0  0  0  0  0  0  0  0  0  0  0
    5.8402   -0.3426    0.5863 H   0  0  0  0  0  0  0  0  0  0  0  0
   -2.4267   -0.3468    2.1874 H   0  0  0  0  0  0  0  0  0  0  0  0
   -2.1808   -2.0855    1.9873 H   0  0  0  0  0  0  0  0  0  0  0  0
   -2.7074   -2.7743   -0.3494 H   0  0  0  0  0  0  0  0  0  0  0  0
    5.7001    0.2744   -1.9368 H   0  0  0  0  0  0  0  0  0  0  0  0
    4.1369    0.4657   -2.6994 H   0  0  0  0  0  0  0  0  0  0  0  0
   -0.4483   -3.2460    0.5717 H   0  0  0  0  0  0  0  0  0  0  0  0
   -0.4268   -3.1575   -1.1876 H   0  0  0  0  0  0  0  0  0  0  0  0
    1.0554   -2.9318   -0.2733 H   0  0  0  0  0  0  0  0  0  0  0  0
    4.5761   -0.5671    2.7957 H   0  0  0  0  0  0  0  0  0  0  0  0
    4.5808   -1.9656    1.7390 H   0  0  0  0  0  0  0  0  0  0  0  0
    2.2742   -1.3124    2.7980 H   0  0  0  0  0  0  0  0  0  0  0  0
    5.3258    1.5822    2.0035 H   0  0  0  0  0  0  0  0  0  0  0  0
    3.7422    1.7695    1.3028 H   0  0  0  0  0  0  0  0  0  0  0  0
    3.8012   -2.5307   -0.4794 H   0  0  0  0  0  0  0  0  0  0  0  0
    4.0748   -1.9741   -2.1355 H   0  0  0  0  0  0  0  0  0  0  0  0
    5.4135   -2.0289   -1.0014 H   0  0  0  0  0  0  0  0  0  0  0  0
    3.6669    2.4763   -1.3526 H   0  0  0  0  0  0  0  0  0  0  0  0
    5.2081    2.6353   -2.1428 H   0  0  0  0  0  0  0  0  0  0  0  0
    6.4350    2.0802   -0.1183 H   0  0  0  0  0  0  0  0  0  0  0  0
   -4.9600   -1.9231   -0.5887 H   0  0  0  0  0  0  0  0  0  0  0  0
   -4.3429   -1.6281    1.0216 H   0  0  0  0  0  0  0  0  0  0  0  0
   -2.5319   -0.4505   -2.3345 H   0  0  0  0  0  0  0  0  0  0  0  0
   -3.6427   -1.7952   -2.5590 H   0  0  0  0  0  0  0  0  0  0  0  0
   -1.9414   -2.1357   -2.5003 H   0  0  0  0  0  0  0  0  0  0  0  0
   -3.8466    0.7662    0.4176 H   0  0  0  0  0  0  0  0  0  0  0  0
   -4.4531    0.4647   -1.2084 H   0  0  0  0  0  0  0  0  0  0  0  0
    5.6747    3.8012    1.1770 H   0  0  0  0  0  0  0  0  0  0  0  0
   -6.0408    0.2120    1.3940 H   0  0  0  0  0  0  0  0  0  0  0  0
   -5.4307    2.5432    0.9598 H   0  0  0  0  0  0  0  0  0  0  0  0
   -6.9720   -1.3085   -0.2171 H   0  0  0  0  0  0  0  0  0  0  0  0
   -8.0300    0.0782   -0.2106 H   0  0  0  0  0  0  0  0  0  0  0  0
   -6.8689   -0.1230   -1.5307 H   0  0  0  0  0  0  0  0  0  0  0  0
   -6.9217    2.2708   -1.7059 H   0  0  0  0  0  0  0  0  0  0  0  0
   -5.1788    2.5385   -1.4996 H   0  0  0  0  0  0  0  0  0  0  0  0
   -6.3247    3.7732   -0.9970 H   0  0  0  0  0  0  0  0  0  0  0  0
   -8.4195    2.1829    0.4278 H   0  0  0  0  0  0  0  0  0  0  0  0
   -7.6455    2.0222    2.0167 H   0  0  0  0  0  0  0  0  0  0  0  0
   -7.6048    3.5676    1.1584 H   0  0  0  0  0  0  0  0  0  0  0  0
  1 21  1  0  0  0  0
  1 66  1  0  0  0  0
  2  3  1  0  0  0  0
  2  6  1  0  0  0  0
  2  8  1  0  0  0  0
  2 15  1  0  0  0  0
  3  7  1  0  0  0  0
  3 10  1  0  0  0  0
  3 30  1  0  0  0  0
  4  5  1  0  0  0  0
  4  7  1  0  0  0  0
  4  9  1  0  0  0  0
  4 31  1  0  0  0  0
  5 11  1  0  0  0  0
  5 14  1  0  0  0  0
  5 19  1  0  0  0  0
  6 12  1  0  0  0  0
  6 13  1  0  0  0  0
  6 32  1  0  0  0  0
  7 17  2  0  0  0  0
  8  9  1  0  0  0  0
  8 33  1  0  0  0  0
  8 34  1  0  0  0  0
  9 35  1  0  0  0  0
  9 36  1  0  0  0  0
 10 12  1  0  0  0  0
 10 37  1  0  0  0  0
 10 38  1  0  0  0  0
 11 16  1  0  0  0  0
 11 18  1  0  0  0  0
 11 39  1  0  0  0  0
 12 40  1  0  0  0  0
 12 41  1  0  0  0  0
 13 22  1  0  0  0  0
 13 23  1  0  0  0  0
 13 42  1  0  0  0  0
 14 20  1  0  0  0  0
 14 43  1  0  0  0  0
 14 44  1  0  0  0  0
 15 45  1  0  0  0  0
 15 46  1  0  0  0  0
 15 47  1  0  0  0  0
 16 17  1  0  0  0  0
 16 48  1  0  0  0  0
 16 49  1  0  0  0  0
 17 50  1  0  0  0  0
 18 21  1  0  0  0  0
 18 51  1  0  0  0  0
 18 52  1  0  0  0  0
 19 53  1  0  0  0  0
 19 54  1  0  0  0  0
 19 55  1  0  0  0  0
 20 21  1  0  0  0  0
 20 56  1  0  0  0  0
 20 57  1  0  0  0  0
 21 58  1  0  0  0  0
 22 24  1  0  0  0  0
 22 59  1  0  0  0  0
 22 60  1  0  0  0  0
 23 61  1  0  0  0  0
 23 62  1  0  0  0  0
 23 63  1  0  0  0  0
 24 25  1  0  0  0  0
 24 64  1  0  0  0  0
 24 65  1  0  0  0  0
 25 26  1  0  0  0  0
 25 27  1  0  0  0  0
 25 67  1  0  0  0  0
 26 28  1  0  0  0  0
 26 29  1  0  0  0  0
 26 68  1  0  0  0  0
 27 69  1  0  0  0  0
 27 70  1  0  0  0  0
 27 71  1  0  0  0  0
 28 72  1  0  0  0  0
 28 73  1  0  0  0  0
 28 74  1  0  0  0  0
 29 75  1  0  0  0  0
 29 76  1  0  0  0  0
 29 77  1  0  0  0  0
M  END
> <PUBCHEM_COMPOUND_CID>
21116218

> <PUBCHEM_CONFORMER_RMSD>
0.8

> <PUBCHEM_CONFORMER_DIVERSEORDER>
10
64
42
78
21
44
67
37
39
79
9
45
66
69
36
50
48
80
7
77
81
73
58
53
76
38
3
71
43
68
40
17
33
14
8
54
41
47
75
18
31
20
11
5
25
63
16
72
19
24
46
74
62
65
32
29
55
13
59
15
56
1
28
60
12
51
57
22
30
70
4
52
27
49
61
6
26
35
23
2
34

> <PUBCHEM_MMFF94_PARTIAL_CHARGES>
9
1 -0.68
16 0.14
17 -0.29
21 0.28
3 0.14
4 0.14
50 0.15
66 0.4
7 -0.28

> <PUBCHEM_EFFECTIVE_ROTOR_COUNT>
7

> <PUBCHEM_PHARMACOPHORE_FEATURES>
10
1 1 acceptor
1 1 donor
1 23 hydrophobe
1 27 hydrophobe
3 26 28 29 hydrophobe
5 13 22 24 25 26 hydrophobe
5 2 3 6 10 12 rings
6 2 3 4 7 8 9 rings
6 4 5 7 11 16 17 rings
6 5 11 14 18 20 21 rings

> <PUBCHEM_HEAVY_ATOM_COUNT>
29

> <PUBCHEM_ATOM_DEF_STEREO_COUNT>
7

> <PUBCHEM_ATOM_UDEF_STEREO_COUNT>
2

> <PUBCHEM_BOND_DEF_STEREO_COUNT>
0

> <PUBCHEM_BOND_UDEF_STEREO_COUNT>
0

> <PUBCHEM_ISOTOPIC_ATOM_COUNT>
0

> <PUBCHEM_COMPONENT_COUNT>
1

> <PUBCHEM_CACTVS_TAUTO_COUNT>
1

> <PUBCHEM_CONFORMER_ID>
0142353A0000000A

> <PUBCHEM_MMFF94_ENERGY>
90.8264

> <PUBCHEM_FEATURE_SELFOVERLAP>
50.94

> <PUBCHEM_SHAPE_FINGERPRINT>
10 15 14779547915318747447
10554248 39 17489593311952579135
10693767 8 13398639316155151188
11456790 92 17458897146798262720
11475781 23 16988835060376351209
117089 54 11676525918111741840
11991303 11 17132109187061860255
12035758 1 15357695314106085713
12236239 1 18040997332800152547
12422481 6 15864067633747425871
12633257 1 15864355795550502623
12661589 4 11097854056435147840
13533116 47 17676201334660935578
13690498 29 16843876689201890639
14211702 104 9295291664049281105
14251740 57 9511469918156829560
14251764 30 9151179744252970875
14664723 55 17773045151274897561
15082195 135 17418380194437625528
15183329 4 13973676214223063369
15188451 53 8790886259636611497
15238133 3 18409724080386446792
15352257 5 8935001473567193305
15392192 104 15864655906975496707
15475509 35 11025793223770195508
15840311 113 18114180800974950637
17913733 40 16732974307058178035
18222031 100 12679466391193558114
1979834 28 16298104276675493994
20281389 69 18335138679199274381
20567600 247 10447663395741394884
20715895 44 18343303656314637512
20775438 99 13398332599940458876
21033648 29 18115314491815181516
21424621 283 18333733528913491395
21521239 73 13470680439299005237
21637258 2 9799694779322295139
21641784 216 16630259047024159249
21792934 111 16081629129032727503
22122407 14 18262807387901462985
23559900 14 15267062614042848538
23569914 2 17834347437869671693
25122255 55 9727636133207732021
2748736 6 18342732980322050117
2838139 119 18337947905548943181
29717793 49 12463573976018102643
3472631 163 18412544340079635612
34797466 226 18272093816012263383
3633792 109 18059866026190709438
3680242 22 16515677879721405836
392239 28 15647056001607703927
4058900 60 17631463276490765719
4340502 62 16660358203530366826
465052 167 12107787406427244586
5104073 3 16878223168398789938
57724786 102 18040719203375950252
59682541 52 15841556223816098933
633830 44 18410568500684644310

> <PUBCHEM_SHAPE_MULTIPOLES>
590.94
17.68
2.86
1.91
23.79
2.29
-0.13
15.6
-0.06
0.02
0.18
-1.15
-0.45
-0.84

> <PUBCHEM_SHAPE_SELFOVERLAP>
1222.58

> <PUBCHEM_SHAPE_VOLUME>
337.8

> <PUBCHEM_COORDINATE_TYPE>
2
5
10

$$$$
