Helichrysetin
  -OEChem-12162008213D

 35 36  0     0  0  0  0  0  0999 V2000
   -2.2060    1.9465    1.0536 O   0  0  0  0  0  0  0  0  0  0  0  0
   -1.9824   -1.9075   -1.7982 O   0  0  0  0  0  0  0  0  0  0  0  0
   -5.5682   -1.4194    1.2996 O   0  0  0  0  0  0  0  0  0  0  0  0
   -0.8870    1.2481   -1.9802 O   0  0  0  0  0  0  0  0  0  0  0  0
    6.6260   -0.7881    1.1786 O   0  0  0  0  0  0  0  0  0  0  0  0
   -2.0846    0.0236   -0.3772 C   0  0  0  0  0  0  0  0  0  0  0  0
   -2.7091    0.7584    0.6141 C   0  0  0  0  0  0  0  0  0  0  0  0
   -2.5966   -1.1817   -0.8214 C   0  0  0  0  0  0  0  0  0  0  0  0
   -0.8325    0.5418   -0.9795 C   0  0  0  0  0  0  0  0  0  0  0  0
   -3.8866    0.2706    1.1808 C   0  0  0  0  0  0  0  0  0  0  0  0
   -3.7741   -1.6693   -0.2546 C   0  0  0  0  0  0  0  0  0  0  0  0
   -4.4192   -0.9433    0.7465 C   0  0  0  0  0  0  0  0  0  0  0  0
    2.9003    0.2180   -0.3491 C   0  0  0  0  0  0  0  0  0  0  0  0
    0.4562    0.1461   -0.3435 C   0  0  0  0  0  0  0  0  0  0  0  0
    1.5950    0.5713   -0.8844 C   0  0  0  0  0  0  0  0  0  0  0  0
    3.0173   -0.2262    0.9680 C   0  0  0  0  0  0  0  0  0  0  0  0
    4.0354    0.3239   -1.1528 C   0  0  0  0  0  0  0  0  0  0  0  0
    4.2694   -0.5643    1.4813 C   0  0  0  0  0  0  0  0  0  0  0  0
    5.2875   -0.0143   -0.6395 C   0  0  0  0  0  0  0  0  0  0  0  0
    5.4046   -0.4584    0.6775 C   0  0  0  0  0  0  0  0  0  0  0  0
   -2.6453    3.1242    0.3803 C   0  0  0  0  0  0  0  0  0  0  0  0
   -4.3901    0.8351    1.9619 H   0  0  0  0  0  0  0  0  0  0  0  0
   -4.1843   -2.6162   -0.5974 H   0  0  0  0  0  0  0  0  0  0  0  0
    0.3859   -0.5037    0.5200 H   0  0  0  0  0  0  0  0  0  0  0  0
    1.5962    1.1981   -1.7721 H   0  0  0  0  0  0  0  0  0  0  0  0
    2.1708   -0.3018    1.6439 H   0  0  0  0  0  0  0  0  0  0  0  0
    3.9636    0.6671   -2.1822 H   0  0  0  0  0  0  0  0  0  0  0  0
    4.3487   -0.9036    2.5107 H   0  0  0  0  0  0  0  0  0  0  0  0
    6.1682    0.0699   -1.2705 H   0  0  0  0  0  0  0  0  0  0  0  0
   -1.1993   -1.4402   -2.1305 H   0  0  0  0  0  0  0  0  0  0  0  0
   -3.7115    3.2892    0.5651 H   0  0  0  0  0  0  0  0  0  0  0  0
   -2.4598    3.0596   -0.6958 H   0  0  0  0  0  0  0  0  0  0  0  0
   -2.0867    3.9750    0.7800 H   0  0  0  0  0  0  0  0  0  0  0  0
   -5.7913   -2.2685    0.8811 H   0  0  0  0  0  0  0  0  0  0  0  0
    6.5210   -1.0743    2.1023 H   0  0  0  0  0  0  0  0  0  0  0  0
  1  7  1  0  0  0  0
  1 21  1  0  0  0  0
  2  8  1  0  0  0  0
  2 30  1  0  0  0  0
  3 12  1  0  0  0  0
  3 34  1  0  0  0  0
  4  9  2  0  0  0  0
  5 20  1  0  0  0  0
  5 35  1  0  0  0  0
  6  7  1  0  0  0  0
  6  8  2  0  0  0  0
  6  9  1  0  0  0  0
  7 10  2  0  0  0  0
  8 11  1  0  0  0  0
  9 14  1  0  0  0  0
 10 12  1  0  0  0  0
 10 22  1  0  0  0  0
 11 12  2  0  0  0  0
 11 23  1  0  0  0  0
 13 15  1  0  0  0  0
 13 16  2  0  0  0  0
 13 17  1  0  0  0  0
 14 15  2  0  0  0  0
 14 24  1  0  0  0  0
 15 25  1  0  0  0  0
 16 18  1  0  0  0  0
 16 26  1  0  0  0  0
 17 19  2  0  0  0  0
 17 27  1  0  0  0  0
 18 20  2  0  0  0  0
 18 28  1  0  0  0  0
 19 20  1  0  0  0  0
 19 29  1  0  0  0  0
 21 31  1  0  0  0  0
 21 32  1  0  0  0  0
 21 33  1  0  0  0  0
M  END
> <PUBCHEM_COMPOUND_CID>
6253344

> <PUBCHEM_CONFORMER_RMSD>
0.6

> <PUBCHEM_CONFORMER_DIVERSEORDER>
1
24
14
6
17
8
18
23
9
15
7
4
22
3
21
19
10
5
16
26
20
2
25
13
11
12

> <PUBCHEM_MMFF94_PARTIAL_CHARGES>
32
1 -0.36
10 -0.15
11 -0.15
12 0.08
13 0.03
14 -0.14
15 -0.18
16 -0.15
17 -0.15
18 -0.15
19 -0.15
2 -0.53
20 0.08
21 0.28
22 0.15
23 0.15
24 0.15
25 0.15
26 0.15
27 0.15
28 0.15
29 0.15
3 -0.53
30 0.45
34 0.45
35 0.45
4 -0.57
5 -0.53
6 0.09
7 0.08
8 0.08
9 0.47

> <PUBCHEM_EFFECTIVE_ROTOR_COUNT>
4

> <PUBCHEM_PHARMACOPHORE_FEATURES>
7
1 1 acceptor
1 2 donor
1 3 donor
1 4 acceptor
1 5 donor
6 13 16 17 18 19 20 rings
6 6 7 8 10 11 12 rings

> <PUBCHEM_HEAVY_ATOM_COUNT>
21

> <PUBCHEM_ATOM_DEF_STEREO_COUNT>
0

> <PUBCHEM_ATOM_UDEF_STEREO_COUNT>
0

> <PUBCHEM_BOND_DEF_STEREO_COUNT>
1

> <PUBCHEM_BOND_UDEF_STEREO_COUNT>
0

> <PUBCHEM_ISOTOPIC_ATOM_COUNT>
0

> <PUBCHEM_COMPONENT_COUNT>
1

> <PUBCHEM_CACTVS_TAUTO_COUNT>
57

> <PUBCHEM_CONFORMER_ID>
005F6B2000000001

> <PUBCHEM_MMFF94_ENERGY>
76.5974

> <PUBCHEM_FEATURE_SELFOVERLAP>
35.522

> <PUBCHEM_SHAPE_FINGERPRINT>
10 15 17989484139344184344
10014705 185 11959727183505189966
11045515 52 16371001931882604077
11315181 36 18260546719080187132
11370993 144 16200443450498793110
12107183 9 17687180894577374384
12236239 1 18114187444629941884
12596602 18 18333450958783729352
12633257 1 17560806584171205843
13544653 18 16298391261962986950
13583140 156 17774709871227293072
13668630 136 17240201032574587218
13675066 3 17132114637296203996
14178342 30 18338802195665292340
14341114 176 17561088007945873552
14849402 71 18267862969164779848
15183329 4 9367076584168063568
15188451 53 18130215077516287423
15209289 33 18335703857586783290
17780758 139 18409442579265333880
17844677 252 18273496771807180824
1813 80 17967828149148050628
19377110 9 18334293210803410828
19784866 240 17240489130253438383
200 152 16950280719402622140
20645477 56 17418374683730372308
20645477 70 16226040085989571754
21033648 29 16343414004083745808
21637258 2 17968939820424703683
22224240 67 16272218487961721607
22646028 1 17894629258167464276
23402539 116 17312818256350098244
23402655 69 11095882662155914848
23559900 14 17559141820229283565
2838139 119 13254253614365467979
2871803 45 15285354029294562688
312423 11 18040724666695903948
351380 3 18040434416752873562
465052 167 17822581598072939474
5104073 3 17987242325034329715
57724786 102 15339116879559776096
602551 16 18131067177874561662
633830 44 13398634948463489628
7970288 3 17748825245653794826

> <PUBCHEM_SHAPE_MULTIPOLES>
402.82
13.23
1.88
1.55
13.71
1.13
-0.19
-4.77
5.34
-3.09
0.06
0.12
-0.14
-0.98

> <PUBCHEM_SHAPE_SELFOVERLAP>
870.298

> <PUBCHEM_SHAPE_VOLUME>
221.7

> <PUBCHEM_COORDINATE_TYPE>
2
5
10

$$$$
