@<TRIPOS>MOLECULE
J01_24
42 45 1 0 0 
SMALL
USER_CHARGES


@<TRIPOS>ATOM
  1 C        1.2709     0.7487    -0.1300 C.ar  1 <1>  -0.1435 
  2 C       -0.0601     1.4457     0.0692 C.3   1 <1>   0.1435 
  3 H1      -0.0607     2.4069    -0.4572 H     1 <1>   0.0000 
  4 H2      -0.1909     1.6335     1.1422 H     1 <1>   0.0000 
  5 C       -1.2674     0.6730    -0.4435 C.3   1 <1>   0.0000 
  6 H1      -1.3095     0.7156    -1.5377 H     1 <1>   0.0000 
  7 H2      -2.1855     1.1470    -0.0773 H     1 <1>   0.0000 
  8 C       -1.1971    -0.7638     0.0355 C.3   1 <1>   0.0000 
  9 H1      -2.1178    -1.2906    -0.2456 H     1 <1>   0.0000 
 10 H2      -1.1665    -0.7638     1.1342 H     1 <1>   0.0000 
 11 C        0.0406    -1.4980    -0.5320 C.3   1 <1>   0.1435 
 12 C       -0.1989    -1.8535    -2.0168 C.3   1 <1>   0.0000 
 13 H1      -0.2489    -0.9605    -2.6493 H     1 <1>   0.0000 
 14 H2      -1.1357    -2.4080    -2.1442 H     1 <1>   0.0000 
 15 H3       0.6057    -2.4817    -2.4166 H     1 <1>   0.0000 
 16 C        0.1738    -2.8154     0.2691 C.3   1 <1>   0.0000 
 17 H1      -0.7711    -3.3720     0.2675 H     1 <1>   0.0000 
 18 H2       0.4439    -2.6183     1.3133 H     1 <1>   0.0000 
 19 H3       0.9340    -3.4848    -0.1470 H     1 <1>   0.0000 
 20 C        1.3132    -0.6393    -0.4252 C.ar  1 <1>  -0.1435 
 21 C        2.5638    -1.2408    -0.6641 C.ar  1 <1>  -0.1500 
 22 H        2.6319    -2.2933    -0.9309 H     1 <1>   0.1500 
 23 C        3.7505    -0.5164    -0.5853 C.ar  1 <1>  -0.1500 
 24 H        4.6908    -1.0264    -0.7855 H     1 <1>   0.1500 
 25 C        3.7294     0.8365    -0.2517 C.ar  1 <1>   0.0284 
 26 C        2.4915     1.4674    -0.0048 C.ar  1 <1>   0.0862 
 27 C        4.9713     1.5932    -0.1705 C.2   1 <1>   0.0483 
 28 C        5.0309     2.8931     0.0514 C.2   1 <1>  -0.1238 
 29 C        3.8324     3.6707     0.2920 C.2   1 <1>   0.5556 
 30 C        2.5366     2.8966     0.4217 C.2   1 <1>   0.4838 
 31 O        3.8484     4.8895     0.4016 O.2   1 <1>  -0.5700 
 32 O        1.5797     3.4754     0.9220 O.2   1 <1>  -0.5700 
 33 O        6.1948     0.9760    -0.3903 O.3   1 <1>  -0.3567 
 34 C        7.1483     2.0013    -0.0162 C.3   1 <1>   0.2800 
 35 C        6.4278     3.3612    -0.0085 C.3   1 <1>   0.1382 
 36 H1       7.9954     1.9670    -0.7095 H     1 <1>   0.0000 
 37 H2       7.5208     1.7534     0.9860 H     1 <1>   0.0000 
 38 C        6.7225     4.1721    -1.2662 C.3   1 <1>   0.0000 
 39 H1       7.7885     4.4172    -1.3226 H     1 <1>   0.0000 
 40 H2       6.1631     5.1137    -1.2659 H     1 <1>   0.0000 
 41 H3       6.4562     3.6244    -2.1775 H     1 <1>   0.0000 
 42 H2       6.7160     3.9373     0.8774 H     1 <1>   0.0000 
@<TRIPOS>BOND
  1   1   2  1   
  2   1  20  ar  
  3   1  26  ar  
  4   2   3  1   
  5   2   4  1   
  6   2   5  1   
  7   5   6  1   
  8   5   7  1   
  9   5   8  1   
 10   8   9  1   
 11   8  10  1   
 12   8  11  1   
 13  11  12  1   
 14  11  16  1   
 15  11  20  1   
 16  12  13  1   
 17  12  14  1   
 18  12  15  1   
 19  16  17  1   
 20  16  18  1   
 21  16  19  1   
 22  20  21  ar  
 23  21  22  1   
 24  21  23  ar  
 25  23  24  1   
 26  23  25  ar  
 27  25  26  ar  
 28  25  27  1   
 29  26  30  1   
 30  27  28  2   
 31  27  33  1   
 32  28  29  1   
 33  28  35  1   
 34  29  30  1   
 35  29  31  2   
 36  30  32  2   
 37  33  34  1   
 38  34  35  1   
 39  34  36  1   
 40  34  37  1   
 41  35  38  1   
 42  35  42  1   
 43  38  39  1   
 44  38  40  1   
 45  38  41  1   
@<TRIPOS>SUBSTRUCTURE
  1 <1>   0 RESIDUE 1 * * 1
# MOE 2007.09 (io_trps.svl 2007.09)
