@<TRIPOS>MOLECULE
J01_11
58 63 1 0 0 
SMALL
USER_CHARGES


@<TRIPOS>ATOM
  1 C        1.0993     0.4038     0.6951 C.ar  1 <1>   0.0825 
  2 C        0.1147     1.0280     1.4906 C.ar  1 <1>   0.0000 
  3 C        0.0906     2.4938     1.6517 C.ar  1 <1>   0.0000 
  4 C       -0.8364     0.2106     2.1207 C.ar  1 <1>   0.0825 
  5 O       -1.8183     0.7973     2.8753 O.3   1 <1>  -0.5325 
  6 H       -2.3971     0.1140     3.2492 H     1 <1>   0.4500 
  7 C       -0.8010    -1.1782     1.9883 C.ar  1 <1>  -0.1500 
  8 H       -1.5441    -1.7918     2.4881 H     1 <1>   0.1500 
  9 C        0.1936    -1.7734     1.2079 C.ar  1 <1>   0.0825 
 10 O        0.2088    -3.1345     1.0901 O.3   1 <1>  -0.5325 
 11 H       -0.4979    -3.5306     1.6238 H     1 <1>   0.4500 
 12 C        1.1475    -0.9881     0.5525 C.ar  1 <1>   0.0862 
 13 C        2.2074    -1.5577    -0.2959 C.2   1 <1>   0.4694 
 14 O        2.3873    -2.7569    -0.4608 O.2   1 <1>  -0.5700 
 15 C        3.0940    -0.6078    -0.9849 C.2   1 <1>  -0.1356 
 16 H        3.8309    -1.0353    -1.6529 H     1 <1>   0.1500 
 17 C        2.9483     0.7021    -0.7735 C.2   1 <1>   0.0483 
 18 C        3.7897     1.7144    -1.4411 C.ar  1 <1>   0.0284 
 19 O        1.9922     1.2398     0.0634 O.3   1 <1>  -0.1592 
 20 C        5.1610     1.5118    -1.6659 C.ar  1 <1>  -0.1500 
 21 H        5.6471     0.5909    -1.3513 H     1 <1>   0.1500 
 22 C        5.9407     2.4973    -2.2822 C.ar  1 <1>  -0.1500 
 23 H        6.9986     2.3111    -2.4413 H     1 <1>   0.1500 
 24 C        5.3507     3.6963    -2.6692 C.ar  1 <1>   0.0825 
 25 O        6.0751     4.6848    -3.2690 O.3   1 <1>  -0.5325 
 26 H        6.9893     4.3750    -3.3780 H     1 <1>   0.4500 
 27 C        3.9985     3.9246    -2.4493 C.ar  1 <1>  -0.1500 
 28 H        3.5449     4.8645    -2.7500 H     1 <1>   0.1500 
 29 C        3.2223     2.9387    -1.8360 C.ar  1 <1>  -0.1500 
 30 H        2.1646     3.1373    -1.6718 H     1 <1>   0.1500 
 31 C        0.9572     3.1537     2.5371 C.ar  1 <1>   0.0825 
 32 O        1.8444     2.4168     3.2780 O.3   1 <1>  -0.5325 
 33 C        0.9258     4.5405     2.6734 C.ar  1 <1>  -0.1500 
 34 H        1.5899     5.0561     3.3599 H     1 <1>   0.1500 
 35 C        0.0232     5.2906     1.9163 C.ar  1 <1>  -0.1500 
 36 H        0.0125     6.3726     2.0376 H     1 <1>   0.1500 
 37 C       -1.8059     5.4851     0.2380 C.2   1 <1>   0.0483 
 38 C       -0.8529     4.6685     1.0139 C.ar  1 <1>   0.0284 
 39 C       -0.8131     3.2692     0.8996 C.ar  1 <1>  -0.1500 
 40 H       -1.5019     2.7573     0.2293 H     1 <1>   0.1500 
 41 H        2.3237     3.0104     3.8782 H     1 <1>   0.4500 
 42 O       -2.3484     6.5423     0.9456 O.3   1 <1>  -0.1592 
 43 C       -3.2052     7.3947     0.2957 C.ar  1 <1>   0.0825 
 44 C       -3.5848     7.2341    -1.0394 C.ar  1 <1>   0.0862 
 45 C       -3.0402     6.0796    -1.7686 C.2   1 <1>   0.4694 
 46 O       -3.3332     5.7911    -2.9209 O.2   1 <1>  -0.5700 
 47 C       -2.0899     5.2241    -1.0411 C.2   1 <1>  -0.1356 
 48 H       -1.6562     4.4061    -1.6022 H     1 <1>   0.1500 
 49 C       -3.6915     8.4624     1.0508 C.ar  1 <1>  -0.1500 
 50 H       -3.3959     8.5845     2.0891 H     1 <1>   0.1500 
 51 C       -4.5579     9.3760     0.4653 C.ar  1 <1>   0.0825 
 52 O       -5.0064    10.4050     1.2398 O.3   1 <1>  -0.5325 
 53 H       -5.5989    10.9683     0.7150 H     1 <1>   0.4500 
 54 C       -4.9457     9.2404    -0.8646 C.ar  1 <1>  -0.1500 
 55 H       -5.6200     9.9632    -1.3125 H     1 <1>   0.1500 
 56 C       -4.4556     8.1662    -1.6161 C.ar  1 <1>   0.0825 
 57 O       -4.8353     8.0489    -2.9233 O.3   1 <1>  -0.5325 
 58 H       -5.4496     8.7607    -3.1631 H     1 <1>   0.4500 
@<TRIPOS>BOND
  1   1   2  ar  
  2   1  12  ar  
  3   1  19  1   
  4   2   3  1   
  5   2   4  ar  
  6   3  31  ar  
  7   3  39  ar  
  8   4   5  1   
  9   4   7  ar  
 10   5   6  1   
 11   7   8  1   
 12   7   9  ar  
 13   9  10  1   
 14   9  12  ar  
 15  10  11  1   
 16  12  13  1   
 17  13  14  2   
 18  13  15  1   
 19  15  16  1   
 20  15  17  2   
 21  17  18  1   
 22  17  19  1   
 23  18  20  ar  
 24  18  29  ar  
 25  20  21  1   
 26  20  22  ar  
 27  22  23  1   
 28  22  24  ar  
 29  24  25  1   
 30  24  27  ar  
 31  25  26  1   
 32  27  28  1   
 33  27  29  ar  
 34  29  30  1   
 35  31  32  1   
 36  31  33  ar  
 37  32  41  1   
 38  33  34  1   
 39  33  35  ar  
 40  35  36  1   
 41  35  38  ar  
 42  37  38  1   
 43  37  42  1   
 44  37  47  2   
 45  38  39  ar  
 46  39  40  1   
 47  42  43  1   
 48  43  44  ar  
 49  43  49  ar  
 50  44  45  1   
 51  44  56  ar  
 52  45  46  2   
 53  45  47  1   
 54  47  48  1   
 55  49  50  1   
 56  49  51  ar  
 57  51  52  1   
 58  51  54  ar  
 59  52  53  1   
 60  54  55  1   
 61  54  56  ar  
 62  56  57  1   
 63  57  58  1   
@<TRIPOS>SUBSTRUCTURE
  1 <1>   0 RESIDUE 1 * * 1
# MOE 2007.09 (io_trps.svl 2007.09)
