@<TRIPOS>MOLECULE
J01_08
39 39 1 0 0 
SMALL
USER_CHARGES


@<TRIPOS>ATOM
  1 C        1.0453     0.7832    -0.7727 C.3   1 <1>   0.5100 
  2 O        0.4232     1.2827     0.4161 O.3   1 <1>  -0.5600 
  3 C       -0.8915     0.7790     0.6397 C.3   1 <1>   0.2800 
  4 C       -0.8602    -0.7455     0.8021 C.3   1 <1>   0.2800 
  5 C       -0.2213    -1.3639    -0.4336 C.3   1 <1>   0.2800 
  6 C        1.1509    -0.7546    -0.7297 C.3   1 <1>   0.2800 
  7 S        2.7127     1.5305    -0.9467 S.3   1 <1>  -0.3710 
  8 H2       0.4614     1.0978    -1.6463 H     1 <1>   0.0000 
  9 H1      -1.5382     1.0429    -0.2083 H     1 <1>   0.0000 
 10 C       -1.4695     1.4493     1.8905 C.3   1 <1>   0.2800 
 11 O       -2.1756    -1.2939     0.9520 O.3   1 <1>  -0.6800 
 12 H2      -0.2862    -1.0303     1.6927 H     1 <1>   0.0000 
 13 H1      -0.8814    -1.2573    -1.3041 H     1 <1>   0.0000 
 14 O       -0.0594    -2.7718    -0.2388 O.3   1 <1>  -0.6800 
 15 O        1.6031    -1.3042    -1.9757 O.3   1 <1>  -0.6800 
 16 H2       1.8580    -1.0742     0.0471 H     1 <1>   0.0000 
 17 H1      -1.6085     2.5219     1.7173 H     1 <1>   0.0000 
 18 H2      -0.7938     1.3342     2.7452 H     1 <1>   0.0000 
 19 O       -2.7292     0.8569     2.2160 O.3   1 <1>  -0.6800 
 20 H       -3.0910     1.3804     2.9564 H     1 <1>   0.4000 
 21 H       -2.6586    -0.6450     1.5249 H     1 <1>   0.4000 
 22 H       -0.9222    -3.0874     0.1006 H     1 <1>   0.4000 
 23 H        1.4854    -2.2731    -1.8890 H     1 <1>   0.4000 
 24 C        2.2347     3.2265    -0.9146 C.2   1 <1>   0.5300 
 25 N        2.1632     3.8162     0.2388 N.2   1 <1>  -0.5130 
 26 C        1.9649     3.8591    -2.2689 C.3   1 <1>   0.1992 
 27 O        1.7443     5.1551     0.1091 O.3   1 <1>  -0.1207 
 28 C        3.2012     4.5586    -2.7572 C.2   1 <1>  -0.2882 
 29 H2       1.1160     4.5470    -2.1874 H     1 <1>   0.0000 
 30 H3       1.6761     3.0941    -2.9983 H     1 <1>   0.0000 
 31 C        3.2939     5.8797    -2.9553 C.2   1 <1>  -0.3000 
 32 H        4.0686     3.9356    -2.9683 H     1 <1>   0.1500 
 33 H1       4.2181     6.3234    -3.3149 H     1 <1>   0.1500 
 34 H2       2.4610     6.5491    -2.7645 H     1 <1>   0.1500 
 35 S        1.4075     5.7413     1.6099 S.o2  1 <1>   1.6674 
 36 O        0.5770     7.0905     1.2668 O.3   1 <1>  -0.6837 
 37 H       -0.3322     6.8461     0.9918 H     1 <1>   0.5000 
 38 O        2.6373     6.1488     2.2582 O.2   1 <1>  -0.6500 
 39 O        0.4476     4.8703     2.2615 O.2   1 <1>  -0.6500 
@<TRIPOS>BOND
  1   1   2  1   
  2   1   6  1   
  3   1   7  1   
  4   1   8  1   
  5   2   3  1   
  6   3   4  1   
  7   3   9  1   
  8   3  10  1   
  9   4   5  1   
 10   4  11  1   
 11   4  12  1   
 12   5   6  1   
 13   5  13  1   
 14   5  14  1   
 15   6  15  1   
 16   6  16  1   
 17   7  24  1   
 18  10  17  1   
 19  10  18  1   
 20  10  19  1   
 21  11  21  1   
 22  14  22  1   
 23  15  23  1   
 24  19  20  1   
 25  24  25  2   
 26  24  26  1   
 27  25  27  1   
 28  26  28  1   
 29  26  29  1   
 30  26  30  1   
 31  27  35  1   
 32  28  31  2   
 33  28  32  1   
 34  31  33  1   
 35  31  34  1   
 36  35  36  1   
 37  35  38  2   
 38  35  39  2   
 39  36  37  1   
@<TRIPOS>SUBSTRUCTURE
  1 <1>   0 RESIDUE 1 * * 1
# MOE 2007.09 (io_trps.svl 2007.09)
