@<TRIPOS>MOLECULE
J01_04
108 114 1 0 0 
SMALL
USER_CHARGES


@<TRIPOS>ATOM
  1 C        1.5890     1.6190     0.9170 C.3   1 <1>   0.0000 
  2 H1       2.5920     2.0570     0.9890 H     1 <1>   0.0000 
  3 H2       1.0040     2.3290     0.3200 H     1 <1>   0.0000 
  4 C        0.9550     1.4620     2.3110 C.3   1 <1>   0.0610 
  5 C        0.7000     2.8520     2.9220 C.3   1 <1>   0.0000 
  6 H2      -0.0020     3.4320     2.3120 H     1 <1>   0.0000 
  7 H3       1.6270     3.4310     3.0010 H     1 <1>   0.0000 
  8 C        1.8950     0.7300     3.2720 C.2   1 <1>   0.6590 
  9 O        1.5960    -0.1730     4.0370 O.2   1 <1>  -0.5700 
 10 O        3.1590     1.2000     3.2520 O.3   1 <1>  -0.6500 
 11 H        3.6300     0.6630     3.9230 H     1 <1>   0.5000 
 12 C       -0.3930     0.7060     2.2090 C.3   1 <1>   0.0000 
 13 H1      -1.1430     1.3570     1.7400 H     1 <1>   0.0000 
 14 H2      -0.7580     0.5110     3.2260 H     1 <1>   0.0000 
 15 C       -0.3130    -0.6310     1.4260 C.3   1 <1>   0.1380 
 16 H        0.3650    -1.2760     2.0040 H     1 <1>   0.0000 
 17 C        0.3350    -0.4460     0.0210 C.3   1 <1>   0.0000 
 18 C       -0.5710     0.3790    -0.9310 C.3   1 <1>   0.0000 
 19 H1      -0.8460     1.3500    -0.5110 H     1 <1>   0.0000 
 20 H2      -1.5030    -0.1380    -1.1720 H     1 <1>   0.0000 
 21 H3      -0.0590     0.5710    -1.8810 H     1 <1>   0.0000 
 22 C        1.6920     0.2910     0.1680 C.3   1 <1>   0.0000 
 23 H1       2.1290     0.4730    -0.8220 H     1 <1>   0.0000 
 24 H2       2.4050    -0.3530     0.7000 H     1 <1>   0.0000 
 25 C       -1.6250    -1.4250     1.3370 C.2   1 <1>  -0.2760 
 26 C       -1.6560    -2.5640     0.3210 C.3   1 <1>   0.1380 
 27 H       -2.1210    -2.1810    -0.5970 H     1 <1>   0.0000 
 28 C       -0.2280    -2.9910    -0.0450 C.3   1 <1>   0.0000 
 29 H1      -0.2320    -3.7920    -0.7910 H     1 <1>   0.0000 
 30 H2       0.2770    -3.3960     0.8410 H     1 <1>   0.0000 
 31 C        0.6040    -1.8370    -0.6250 C.3   1 <1>   0.0000 
 32 H1       0.4270    -1.7840    -1.7070 H     1 <1>   0.0000 
 33 H2       1.6600    -2.1190    -0.5220 H     1 <1>   0.0000 
 34 C       -2.6850    -1.1900     2.1230 C.2   1 <1>  -0.1360 
 35 C       -3.9220    -1.9990     2.0620 C.2   1 <1>   0.4950 
 36 O       -4.8660    -1.6340     2.7530 O.2   1 <1>  -0.5700 
 37 C       -3.9870    -3.1950     1.1030 C.3   1 <1>   0.0610 
 38 C       -2.5460    -3.7300     0.8440 C.3   1 <1>   0.0000 
 39 H       -2.1150    -4.0750     1.7950 H     1 <1>   0.0000 
 40 H       -4.3630    -2.7780     0.1560 H     1 <1>   0.0000 
 41 C       -4.9920    -4.3280     1.5450 C.3   1 <1>   0.0000 
 42 C       -4.6200    -4.8520     2.9560 C.3   1 <1>   0.0000 
 43 H1      -3.5840    -5.1940     3.0160 H     1 <1>   0.0000 
 44 H2      -5.2460    -5.6920     3.2700 H     1 <1>   0.0000 
 45 H3      -4.7460    -4.0720     3.7150 H     1 <1>   0.0000 
 46 C       -4.9370    -5.4590     0.4680 C.3   1 <1>   0.0000 
 47 H       -5.2180    -5.0080    -0.4970 H     1 <1>   0.0000 
 48 C       -3.5280    -6.0230     0.2890 C.3   1 <1>   0.0000 
 49 H1      -3.5320    -6.7960    -0.4890 H     1 <1>   0.0000 
 50 H2      -3.1810    -6.5130     1.2060 H     1 <1>   0.0000 
 51 C       -2.5540    -4.9260    -0.1210 C.3   1 <1>   0.0000 
 52 H1      -2.8050    -4.5810    -1.1320 H     1 <1>   0.0000 
 53 H2      -1.5570    -5.3770    -0.1780 H     1 <1>   0.0000 
 54 C       -6.4630    -3.8120     1.5660 C.3   1 <1>   0.0000 
 55 H1      -6.6840    -3.3040     0.6180 H     1 <1>   0.0000 
 56 H2      -6.6140    -3.0720     2.3560 H     1 <1>   0.0000 
 57 C       -7.5060    -4.9110     1.7850 C.3   1 <1>   0.0000 
 58 H1      -8.5030    -4.4590     1.7250 H     1 <1>   0.0000 
 59 H2      -7.4380    -5.3080     2.8050 H     1 <1>   0.0000 
 60 C       -7.3840    -6.0510     0.7750 C.3   1 <1>   0.2800 
 61 H1      -7.6490    -5.7040    -0.2280 H     1 <1>   0.0000 
 62 O       -8.2170    -7.1490     1.1410 O.3   1 <1>  -0.5600 
 63 C       -9.6130    -6.9920     0.8890 C.3   1 <1>   0.5600 
 64 H       -9.9190    -5.9510     1.0110 H     1 <1>   0.0000 
 65 C       -5.9490    -6.5840     0.7230 C.3   1 <1>   0.0000 
 66 H1      -5.8860    -7.3340    -0.0770 H     1 <1>   0.0000 
 67 H2      -5.7120    -7.1330     1.6430 H     1 <1>   0.0000 
 68 O      -10.3520    -7.7160     1.8820 O.3   1 <1>  -0.5600 
 69 C       -9.9740    -9.0840     2.0060 C.3   1 <1>   0.3410 
 70 H1     -10.8800    -9.6270     2.3030 H     1 <1>   0.0000 
 71 C       -8.9750    -9.3420     3.1270 C.2   1 <1>   0.6590 
 72 O       -8.9550    -8.4010     4.0900 O.3   1 <1>  -0.6500 
 73 H       -8.2850    -8.7020     4.7370 H     1 <1>   0.5000 
 74 O       -8.2710   -10.3400     3.2130 O.2   1 <1>  -0.5700 
 75 C       -9.4080    -9.6870     0.7090 C.3   1 <1>   0.2800 
 76 O       -9.6030   -11.1110     0.6720 O.3   1 <1>  -0.6800 
 77 H       -9.0780   -11.4860     1.4100 H     1 <1>   0.4000 
 78 H       -9.4860   -10.5710    -1.5390 H     1 <1>   0.4000 
 79 H2      -8.3240    -9.5420     0.6190 H     1 <1>   0.0000 
 80 C      -10.1000    -9.0590    -0.5010 C.3   1 <1>   0.2800 
 81 C      -10.0000    -7.5140    -0.5180 C.3   1 <1>   0.2800 
 82 H1     -11.1500    -9.3790    -0.5260 H     1 <1>   0.0000 
 83 O       -9.5070    -9.6050    -1.6890 O.3   1 <1>  -0.6800 
 84 O      -11.3150    -7.0420    -0.8690 O.3   1 <1>  -0.5600 
 85 H2      -9.2610    -7.2010    -1.2630 H     1 <1>   0.0000 
 86 H1       0.2810     2.7700     3.9310 H     1 <1>   0.0000 
 87 H       -2.7140    -0.4020     2.8640 H     1 <1>   0.1500 
 88 C      -11.4320    -6.0030    -1.8420 C.3   1 <1>   0.5600 
 89 H      -12.4930    -6.0260    -2.1200 H     1 <1>   0.0000 
 90 O      -10.6580    -6.2450    -3.0220 O.3   1 <1>  -0.5600 
 91 C      -11.0410    -5.3830    -4.0990 C.3   1 <1>   0.3410 
 92 H1     -12.0830    -5.5910    -4.3750 H     1 <1>   0.0000 
 93 C      -10.1980    -5.7110    -5.3280 C.2   1 <1>   0.6590 
 94 O      -10.4110    -4.8340    -6.3430 O.3   1 <1>  -0.6500 
 95 H       -9.8420    -5.1780    -7.0690 H     1 <1>   0.5000 
 96 O       -9.4160    -6.6360    -5.4680 O.2   1 <1>  -0.5700 
 97 C      -10.8330    -3.9010    -3.7330 C.3   1 <1>   0.2800 
 98 O      -11.4640    -3.0460    -4.6990 O.3   1 <1>  -0.6800 
 99 H      -11.1430    -3.3380    -5.5820 H     1 <1>   0.4000 
100 H2      -9.7620    -3.6650    -3.7140 H     1 <1>   0.0000 
101 C      -11.4490    -3.5570    -2.3690 C.3   1 <1>   0.2800 
102 O      -12.8700    -3.4730    -2.5300 O.3   1 <1>  -0.6800 
103 H      -12.9890    -2.9530    -3.3550 H     1 <1>   0.4000 
104 H2     -11.1050    -2.5620    -2.0620 H     1 <1>   0.0000 
105 C      -11.0860    -4.6010    -1.3090 C.3   1 <1>   0.2800 
106 H1     -11.6200    -4.4140    -0.3720 H     1 <1>   0.0000 
107 O       -9.6800    -4.4920    -1.0470 O.3   1 <1>  -0.6800 
108 H       -9.2150    -4.9780    -1.7550 H     1 <1>   0.4000 
@<TRIPOS>BOND
  1   1   2  1   
  2   1   3  1   
  3   1   4  1   
  4   1  22  1   
  5   4   5  1   
  6   4   8  1   
  7   4  12  1   
  8   5   6  1   
  9   5   7  1   
 10   5  86  1   
 11   8   9  2   
 12   8  10  1   
 13  10  11  1   
 14  12  13  1   
 15  12  14  1   
 16  12  15  1   
 17  15  16  1   
 18  15  17  1   
 19  15  25  1   
 20  17  18  1   
 21  17  22  1   
 22  17  31  1   
 23  18  19  1   
 24  18  20  1   
 25  18  21  1   
 26  22  23  1   
 27  22  24  1   
 28  25  26  1   
 29  25  34  2   
 30  26  27  1   
 31  26  28  1   
 32  26  38  1   
 33  28  29  1   
 34  28  30  1   
 35  28  31  1   
 36  31  32  1   
 37  31  33  1   
 38  34  35  1   
 39  34  87  1   
 40  35  36  2   
 41  35  37  1   
 42  37  38  1   
 43  37  40  1   
 44  37  41  1   
 45  38  39  1   
 46  38  51  1   
 47  41  42  1   
 48  41  46  1   
 49  41  54  1   
 50  42  43  1   
 51  42  44  1   
 52  42  45  1   
 53  46  47  1   
 54  46  48  1   
 55  46  65  1   
 56  48  49  1   
 57  48  50  1   
 58  48  51  1   
 59  51  52  1   
 60  51  53  1   
 61  54  55  1   
 62  54  56  1   
 63  54  57  1   
 64  57  58  1   
 65  57  59  1   
 66  57  60  1   
 67  60  61  1   
 68  60  62  1   
 69  60  65  1   
 70  62  63  1   
 71  63  64  1   
 72  63  68  1   
 73  63  81  1   
 74  65  66  1   
 75  65  67  1   
 76  68  69  1   
 77  69  70  1   
 78  69  71  1   
 79  69  75  1   
 80  71  72  1   
 81  71  74  2   
 82  72  73  1   
 83  75  76  1   
 84  75  79  1   
 85  75  80  1   
 86  76  77  1   
 87  78  83  1   
 88  80  81  1   
 89  80  82  1   
 90  80  83  1   
 91  81  84  1   
 92  81  85  1   
 93  84  88  1   
 94  88  89  1   
 95  88  90  1   
 96  88 105  1   
 97  90  91  1   
 98  91  92  1   
 99  91  93  1   
100  91  97  1   
101  93  94  1   
102  93  96  2   
103  94  95  1   
104  97  98  1   
105  97 100  1   
106  97 101  1   
107  98  99  1   
108 101 102  1   
109 101 104  1   
110 101 105  1   
111 102 103  1   
112 105 106  1   
113 105 107  1   
114 107 108  1   
@<TRIPOS>SUBSTRUCTURE
  1 <1>   0 RESIDUE 1 * * 1
# MOE 2007.09 (io_trps.svl 2007.09)
