@<TRIPOS>MOLECULE
J01_20
56 60 1 0 0 
SMALL
USER_CHARGES


@<TRIPOS>ATOM
  1 C        1.2547     0.7260    -0.1862 C.ar  1 <1>  -0.1435 
  2 C       -0.0704     1.4750    -0.3324 C.3   1 <1>   0.1435 
  3 H1      -0.0206     2.1638    -1.1839 H     1 <1>   0.0000 
  4 H2      -0.2247     2.0640     0.5811 H     1 <1>   0.0000 
  5 C       -1.2537     0.5474    -0.5764 C.3   1 <1>   0.2700 
  6 H       -1.2078     0.1304    -1.5939 H     1 <1>   0.0000 
  7 N       -1.2395    -0.5130     0.4232 N.3   1 <1>  -0.8100 
  8 C       -0.1074    -1.4043     0.1949 C.3   1 <1>   0.4135 
  9 H1      -0.2547    -2.0032    -0.7137 H     1 <1>   0.0000 
 10 H2      -0.0611    -2.0770     1.0588 H     1 <1>   0.0000 
 11 C        1.2339    -0.6736     0.0584 C.ar  1 <1>  -0.1435 
 12 C       -2.6208     1.1765    -0.3513 C.3   1 <1>   0.0000 
 13 H1      -3.0108     1.6409    -1.2628 H     1 <1>   0.0000 
 14 H2      -2.5939     1.9456     0.4302 H     1 <1>   0.0000 
 15 C       -3.4980     0.0106     0.1082 C.3   1 <1>   0.0000 
 16 H1      -4.2581    -0.2347    -0.6411 H     1 <1>   0.0000 
 17 H2      -4.0142     0.2746     1.0381 H     1 <1>   0.0000 
 18 C       -2.5427    -1.1616     0.3210 C.3   1 <1>   0.2700 
 19 H1      -2.5982    -1.8395    -0.5402 H     1 <1>   0.0000 
 20 H2      -2.7916    -1.7275     1.2240 H     1 <1>   0.0000 
 21 C        2.4503    -1.4074     0.1348 C.ar  1 <1>   0.0000 
 22 C        3.6848    -0.7164     0.0377 C.ar  1 <1>   0.0000 
 23 C        3.7035     0.7142    -0.1494 C.ar  1 <1>   0.0000 
 24 C        2.4867     1.4321    -0.2533 C.ar  1 <1>   0.0000 
 25 C        4.9020     1.4724    -0.2418 C.ar  1 <1>  -0.1500 
 26 H        5.8732     0.9892    -0.1743 H     1 <1>   0.1500 
 27 C        4.9287     2.8614    -0.4316 C.ar  1 <1>   0.0825 
 28 O        6.1911     3.3994    -0.4835 O.3   1 <1>  -0.3625 
 29 C        6.3787     4.4180    -1.4620 C.3   1 <1>   0.2800 
 30 H1       7.4301     4.3941    -1.7655 H     1 <1>   0.0000 
 31 H2       6.1870     5.4032    -1.0271 H     1 <1>   0.0000 
 32 H3       5.7727     4.2570    -2.3607 H     1 <1>   0.0000 
 33 C        3.7334     3.5705    -0.4850 C.ar  1 <1>   0.0825 
 34 O        3.8061     4.9330    -0.5826 O.3   1 <1>  -0.3625 
 35 C        2.5949     5.6768    -0.5943 C.3   1 <1>   0.2800 
 36 H1       2.8554     6.7371    -0.6663 H     1 <1>   0.0000 
 37 H2       2.0348     5.5350     0.3358 H     1 <1>   0.0000 
 38 H3       1.9858     5.4247    -1.4685 H     1 <1>   0.0000 
 39 C        2.5381     2.8468    -0.4060 C.ar  1 <1>  -0.1500 
 40 H        1.6026     3.3945    -0.4437 H     1 <1>   0.1500 
 41 C        2.4700    -2.8234     0.2910 C.ar  1 <1>  -0.1500 
 42 H        1.5251    -3.3544     0.3262 H     1 <1>   0.1500 
 43 C        3.6482    -3.5719     0.3797 C.ar  1 <1>   0.0825 
 44 O        3.6946    -4.9353     0.4820 O.3   1 <1>  -0.3625 
 45 C        2.4679    -5.6528     0.5124 C.3   1 <1>   0.2800 
 46 H1       2.7063    -6.7174     0.5973 H     1 <1>   0.0000 
 47 H2       1.9048    -5.5118    -0.4160 H     1 <1>   0.0000 
 48 H3       1.8701    -5.3760     1.3869 H     1 <1>   0.0000 
 49 C        4.8571    -2.8877     0.3310 C.ar  1 <1>   0.0825 
 50 O        6.1030    -3.4595     0.3917 O.3   1 <1>  -0.3625 
 51 C        6.2658    -4.4321     1.4211 C.3   1 <1>   0.2800 
 52 H1       7.3160    -4.4139     1.7292 H     1 <1>   0.0000 
 53 H2       6.0558    -5.4333     1.0339 H     1 <1>   0.0000 
 54 H3       5.6579    -4.2168     2.3072 H     1 <1>   0.0000 
 55 C        4.8647    -1.4998     0.1375 C.ar  1 <1>  -0.1500 
 56 H        5.8471    -1.0393     0.0748 H     1 <1>   0.1500 
@<TRIPOS>BOND
  1   1   2  1   
  2   1  11  ar  
  3   1  24  ar  
  4   2   3  1   
  5   2   4  1   
  6   2   5  1   
  7   5   6  1   
  8   5   7  1   
  9   5  12  1   
 10   7   8  1   
 11   7  18  1   
 12   8   9  1   
 13   8  10  1   
 14   8  11  1   
 15  11  21  ar  
 16  12  13  1   
 17  12  14  1   
 18  12  15  1   
 19  15  16  1   
 20  15  17  1   
 21  15  18  1   
 22  18  19  1   
 23  18  20  1   
 24  21  22  ar  
 25  21  41  ar  
 26  22  23  ar  
 27  22  55  ar  
 28  23  24  ar  
 29  23  25  ar  
 30  24  39  ar  
 31  25  26  1   
 32  25  27  ar  
 33  27  28  1   
 34  27  33  ar  
 35  28  29  1   
 36  29  30  1   
 37  29  31  1   
 38  29  32  1   
 39  33  34  1   
 40  33  39  ar  
 41  34  35  1   
 42  35  36  1   
 43  35  37  1   
 44  35  38  1   
 45  39  40  1   
 46  41  42  1   
 47  41  43  ar  
 48  43  44  1   
 49  43  49  ar  
 50  44  45  1   
 51  45  46  1   
 52  45  47  1   
 53  45  48  1   
 54  49  50  1   
 55  49  55  ar  
 56  50  51  1   
 57  51  52  1   
 58  51  53  1   
 59  51  54  1   
 60  55  56  1   
@<TRIPOS>SUBSTRUCTURE
  1 <1>   0 RESIDUE 1 * * 1
# MOE 2007.09 (io_trps.svl 2007.09)
