@<TRIPOS>MOLECULE
J01_30
43 44 1 0 0 
SMALL
USER_CHARGES


@<TRIPOS>ATOM
  1 C        0.9815     1.0497    -0.9512 C.ar  1 <1>  -0.1500 
  2 H        2.0613     0.9941    -1.0643 H     1 <1>   0.1500 
  3 C        0.4049     1.7831     0.0951 C.ar  1 <1>   0.0284 
  4 C        1.2113     2.5064     1.0835 C.2   1 <1>  -0.1784 
  5 H        0.8488     2.4776     2.1090 H     1 <1>   0.1500 
  6 C        2.3042     3.2099     0.7680 C.2   1 <1>  -0.1356 
  7 H        2.6716     3.2800    -0.2490 H     1 <1>   0.1500 
  8 C        3.0331     3.9435     1.8289 C.2   1 <1>   0.4694 
  9 C        4.1598     4.8129     1.4258 C.ar  1 <1>   0.0862 
 10 O        2.7711     3.8103     3.0201 O.2   1 <1>  -0.5700 
 11 C       -0.9919     1.7944     0.2268 C.ar  1 <1>  -0.1500 
 12 H       -1.4638     2.3460     1.0375 H     1 <1>   0.1500 
 13 C       -1.8001     1.1141    -0.6881 C.ar  1 <1>  -0.1500 
 14 H       -2.8787     1.1479    -0.5701 H     1 <1>   0.1500 
 15 C       -1.2070     0.4100    -1.7309 C.ar  1 <1>   0.0825 
 16 O       -1.9559    -0.2625    -2.6512 O.3   1 <1>  -0.5325 
 17 H       -2.8941    -0.1577    -2.4229 H     1 <1>   0.4500 
 18 C        0.1756     0.3687    -1.8662 C.ar  1 <1>  -0.1500 
 19 H        0.6254    -0.1947    -2.6787 H     1 <1>   0.1500 
 20 C        5.3066     4.7718     2.2224 C.ar  1 <1>  -0.1500 
 21 H        5.3488     4.1207     3.0939 H     1 <1>   0.1500 
 22 C        6.4041     5.5749     1.9151 C.ar  1 <1>  -0.1500 
 23 H        7.2653     5.5287     2.5744 H     1 <1>   0.1500 
 24 C        6.3719     6.4190     0.7997 C.ar  1 <1>   0.0825 
 25 O        7.4020     7.2650     0.4638 O.3   1 <1>  -0.3625 
 26 C        8.6952     6.9303     0.9609 C.3   1 <1>   0.2800 
 27 H1       9.4243     7.5551     0.4362 H     1 <1>   0.0000 
 28 H2       8.9459     5.8833     0.7594 H     1 <1>   0.0000 
 29 H3       8.7699     7.1580     2.0288 H     1 <1>   0.0000 
 30 C        5.2168     6.4862    -0.0140 C.ar  1 <1>  -0.1435 
 31 C        5.2052     7.3708    -1.2524 C.3   1 <1>   0.2817 
 32 H1       6.1870     7.3257    -1.7429 H     1 <1>   0.0000 
 33 C        4.8430     8.8113    -0.9931 C.2   1 <1>  -0.0615 
 34 C        3.6426     9.3509    -1.2461 C.2   1 <1>  -0.3000 
 35 H1       2.8074     8.7731    -1.6210 H     1 <1>   0.1500 
 36 H2       3.4816    10.4140    -1.0915 H     1 <1>   0.1500 
 37 O        5.8990     9.6327    -0.6311 O.3   1 <1>  -0.0767 
 38 O        5.8752     9.6709     0.8209 O.3   1 <1>  -0.4000 
 39 H        6.5678     8.9930     0.9428 H     1 <1>   0.4000 
 40 H3       4.5271     6.9411    -2.0015 H     1 <1>   0.0000 
 41 C        4.1048     5.6914     0.3361 C.ar  1 <1>   0.0825 
 42 O        2.9334     5.7763    -0.3685 O.3   1 <1>  -0.5325 
 43 H        2.8252     6.6870    -0.6864 H     1 <1>   0.4500 
@<TRIPOS>BOND
  1   1   2  1   
  2   1   3  ar  
  3   1  18  ar  
  4   3   4  1   
  5   3  11  ar  
  6   4   5  1   
  7   4   6  2   
  8   6   7  1   
  9   6   8  1   
 10   8   9  1   
 11   8  10  2   
 12   9  20  ar  
 13   9  41  ar  
 14  11  12  1   
 15  11  13  ar  
 16  13  14  1   
 17  13  15  ar  
 18  15  16  1   
 19  15  18  ar  
 20  16  17  1   
 21  18  19  1   
 22  20  21  1   
 23  20  22  ar  
 24  22  23  1   
 25  22  24  ar  
 26  24  25  1   
 27  24  30  ar  
 28  25  26  1   
 29  26  27  1   
 30  26  28  1   
 31  26  29  1   
 32  30  31  1   
 33  30  41  ar  
 34  31  32  1   
 35  31  33  1   
 36  31  40  1   
 37  33  34  2   
 38  33  37  1   
 39  34  35  1   
 40  34  36  1   
 41  37  38  1   
 42  38  39  1   
 43  41  42  1   
 44  42  43  1   
@<TRIPOS>SUBSTRUCTURE
  1 <1>   0 RESIDUE 1 * * 1
# MOE 2007.09 (io_trps.svl 2007.09)
