@<TRIPOS>MOLECULE
J01_31
38 39 1 0 0 
SMALL
USER_CHARGES


@<TRIPOS>ATOM
  1 C        1.2684     0.6425    -0.4064 C.3   1 <1>   0.0000 
  2 C        1.0781     0.3734    -1.9239 C.3   1 <1>   0.0000 
  3 H1       1.8933    -0.2180    -2.3498 H     1 <1>   0.0000 
  4 H2       1.0363     1.3168    -2.4808 H     1 <1>   0.0000 
  5 H3       0.1542    -0.1702    -2.1419 H     1 <1>   0.0000 
  6 C        0.0714     1.4991     0.1010 C.3   1 <1>   0.0000 
  7 H1      -0.0271     2.4087    -0.5052 H     1 <1>   0.0000 
  8 H2       0.2647     1.8383     1.1273 H     1 <1>   0.0000 
  9 C       -1.2614     0.7436     0.0854 C.3   1 <1>   0.0000 
 10 H1      -1.5960     0.6001    -0.9488 H     1 <1>   0.0000 
 11 H2      -2.0301     1.3571     0.5702 H     1 <1>   0.0000 
 12 C       -1.1772    -0.6102     0.7894 C.3   1 <1>   0.1382 
 13 H1      -2.1194    -1.1493     0.6317 H     1 <1>   0.0000 
 14 H2      -1.0932    -0.4549     1.8722 H     1 <1>   0.0000 
 15 C        0.0104    -1.4223     0.3122 C.2   1 <1>  -0.2764 
 16 C       -0.1658    -2.6682    -0.1604 C.2   1 <1>  -0.3000 
 17 H1      -1.1516    -3.1213    -0.2035 H     1 <1>   0.1500 
 18 H2       0.6596    -3.2822    -0.5034 H     1 <1>   0.1500 
 19 C        1.3506    -0.6893     0.4147 C.3   1 <1>   0.4182 
 20 O        1.4942    -0.3728     1.8174 O.3   1 <1>  -0.6800 
 21 H        1.7903    -1.2211     2.2108 H     1 <1>   0.4000 
 22 C        2.6357    -1.4947     0.0567 C.3   1 <1>   0.2800 
 23 H1       2.5641    -1.9299    -0.9465 H     1 <1>   0.0000 
 24 O        2.7570    -2.5804     1.0025 O.3   1 <1>  -0.6800 
 25 H        3.6906    -2.9005     0.9079 H     1 <1>   0.4000 
 26 C        3.9247    -0.6431     0.1780 C.3   1 <1>   0.0000 
 27 C        5.1539    -1.4396    -0.2857 C.3   1 <1>   0.2800 
 28 O        5.1883    -2.6924     0.4028 O.3   1 <1>  -0.6800 
 29 H        6.0328    -3.1170     0.1599 H     1 <1>   0.4000 
 30 H2       6.0761    -0.8931    -0.0622 H     1 <1>   0.0000 
 31 H3       5.1125    -1.6431    -1.3608 H     1 <1>   0.0000 
 32 H2       4.0783    -0.4321     1.2464 H     1 <1>   0.0000 
 33 C        3.8331     0.6868    -0.5700 C.3   1 <1>   0.0000 
 34 H1       3.8730     0.5176    -1.6522 H     1 <1>   0.0000 
 35 H2       4.7085     1.3029    -0.3293 H     1 <1>   0.0000 
 36 C        2.5684     1.4645    -0.2078 C.3   1 <1>   0.0000 
 37 H1       2.5307     2.3813    -0.8102 H     1 <1>   0.0000 
 38 H2       2.6482     1.7922     0.8370 H     1 <1>   0.0000 
@<TRIPOS>BOND
  1   1   2  1   
  2   1   6  1   
  3   1  19  1   
  4   1  36  1   
  5   2   3  1   
  6   2   4  1   
  7   2   5  1   
  8   6   7  1   
  9   6   8  1   
 10   6   9  1   
 11   9  10  1   
 12   9  11  1   
 13   9  12  1   
 14  12  13  1   
 15  12  14  1   
 16  12  15  1   
 17  15  16  2   
 18  15  19  1   
 19  16  17  1   
 20  16  18  1   
 21  19  20  1   
 22  19  22  1   
 23  20  21  1   
 24  22  23  1   
 25  22  24  1   
 26  22  26  1   
 27  24  25  1   
 28  26  27  1   
 29  26  32  1   
 30  26  33  1   
 31  27  28  1   
 32  27  30  1   
 33  27  31  1   
 34  28  29  1   
 35  33  34  1   
 36  33  35  1   
 37  33  36  1   
 38  36  37  1   
 39  36  38  1   
@<TRIPOS>SUBSTRUCTURE
  1 <1>   0 RESIDUE 1 * * 1
# MOE 2007.09 (io_trps.svl 2007.09)
