@<TRIPOS>MOLECULE
J01_17
49 50 1 0 0 
SMALL
USER_CHARGES


@<TRIPOS>ATOM
  1 C        1.0901     0.2212    -0.8220 C.ar  1 <1>  -0.1500 
  2 H        2.0641     0.6682    -1.0005 H     1 <1>   0.1500 
  3 C        0.0176     0.9784    -0.3170 C.ar  1 <1>  -0.1435 
  4 C        0.1561     2.4538     0.0088 C.3   1 <1>   0.1435 
  5 C        1.5645     3.0572    -0.0862 C.3   1 <1>   0.0000 
  6 C        1.5800     4.5404     0.3214 C.3   1 <1>   0.1435 
  7 H2       1.2336     4.6093     1.3602 H     1 <1>   0.0000 
  8 H2       1.9357     2.9615    -1.1144 H     1 <1>   0.0000 
  9 H3       2.2375     2.4906     0.5695 H     1 <1>   0.0000 
 10 C        2.9138     5.2764     0.2269 C.ar  1 <1>  -0.1435 
 11 H2      -0.2036     2.6067     1.0346 H     1 <1>   0.0000 
 12 H3      -0.5079     3.0105    -0.6648 H     1 <1>   0.0000 
 13 C       -1.2079     0.3121    -0.1311 C.ar  1 <1>   0.0825 
 14 O       -2.3330     0.9344     0.3389 O.3   1 <1>  -0.5325 
 15 H       -2.1671     1.8830     0.4443 H     1 <1>   0.4500 
 16 C       -1.3579    -1.0472    -0.4179 C.ar  1 <1>  -0.1500 
 17 H       -2.3215    -1.5186    -0.2543 H     1 <1>   0.1500 
 18 C       -0.2758    -1.7645    -0.9079 C.ar  1 <1>   0.0825 
 19 O       -0.3720    -3.0926    -1.2041 O.3   1 <1>  -0.5325 
 20 H       -1.2770    -3.3904    -1.0129 H     1 <1>   0.4500 
 21 C        0.9454    -1.1394    -1.1136 C.ar  1 <1>  -0.1500 
 22 H        1.7869    -1.7075    -1.5003 H     1 <1>   0.1500 
 23 H3       0.8561     5.0619    -0.3163 H     1 <1>   0.0000 
 24 C        4.0950     4.5579    -0.0364 C.ar  1 <1>  -0.1500 
 25 H        4.0759     3.4835    -0.1783 H     1 <1>   0.1500 
 26 C        5.3096     5.2151    -0.1197 C.ar  1 <1>   0.0825 
 27 O        6.4791     4.5513    -0.3763 O.3   1 <1>  -0.5325 
 28 H        6.2811     3.6025    -0.4688 H     1 <1>   0.4500 
 29 C        5.3829     6.5904     0.0527 C.ar  1 <1>   0.0825 
 30 O        6.6210     7.1735    -0.0526 O.3   1 <1>  -0.5325 
 31 H        7.2196     6.4209    -0.2399 H     1 <1>   0.4500 
 32 C        4.2436     7.3628     0.3239 C.ar  1 <1>  -0.1435 
 33 C        4.4196     8.8653     0.4658 C.3   1 <1>   0.2817 
 34 C        4.5398     9.5719    -0.8578 C.2   1 <1>  -0.2882 
 35 H        5.2706     9.1758    -1.5603 H     1 <1>   0.1500 
 36 C        3.8368    10.6558    -1.2089 C.2   1 <1>  -0.3000 
 37 H1       3.9832    11.1189    -2.1794 H     1 <1>   0.1500 
 38 H2       3.1089    11.1047    -0.5419 H     1 <1>   0.1500 
 39 H2       5.3325     9.0591     1.0449 H     1 <1>   0.0000 
 40 H3       3.6240     9.3081     1.0708 H     1 <1>   0.0000 
 41 C        2.9858     6.6962     0.4279 C.ar  1 <1>  -0.1435 
 42 C        1.7149     7.4813     0.7388 C.3   1 <1>   0.2817 
 43 C        1.0725     8.0797    -0.4806 C.2   1 <1>  -0.2882 
 44 H        0.9946     7.4491    -1.3636 H     1 <1>   0.1500 
 45 C        0.5849     9.3259    -0.5380 C.2   1 <1>  -0.3000 
 46 H1       0.1283     9.6994    -1.4493 H     1 <1>   0.1500 
 47 H2       0.6287     9.9969     0.3138 H     1 <1>   0.1500 
 48 H2       1.9196     8.2400     1.5019 H     1 <1>   0.0000 
 49 H3       0.9789     6.8322     1.2251 H     1 <1>   0.0000 
@<TRIPOS>BOND
  1   1   2  1   
  2   1   3  ar  
  3   1  21  ar  
  4   3   4  1   
  5   3  13  ar  
  6   4   5  1   
  7   4  11  1   
  8   4  12  1   
  9   5   6  1   
 10   5   8  1   
 11   5   9  1   
 12   6   7  1   
 13   6  10  1   
 14   6  23  1   
 15  10  24  ar  
 16  10  41  ar  
 17  13  14  1   
 18  13  16  ar  
 19  14  15  1   
 20  16  17  1   
 21  16  18  ar  
 22  18  19  1   
 23  18  21  ar  
 24  19  20  1   
 25  21  22  1   
 26  24  25  1   
 27  24  26  ar  
 28  26  27  1   
 29  26  29  ar  
 30  27  28  1   
 31  29  30  1   
 32  29  32  ar  
 33  30  31  1   
 34  32  33  1   
 35  32  41  ar  
 36  33  34  1   
 37  33  39  1   
 38  33  40  1   
 39  34  35  1   
 40  34  36  2   
 41  36  37  1   
 42  36  38  1   
 43  41  42  1   
 44  42  43  1   
 45  42  48  1   
 46  42  49  1   
 47  43  44  1   
 48  43  45  2   
 49  45  46  1   
 50  45  47  1   
@<TRIPOS>SUBSTRUCTURE
  1 <1>   0 RESIDUE 1 * * 1
# MOE 2007.09 (io_trps.svl 2007.09)
