@<TRIPOS>MOLECULE
J02_17
40 40 1 0 0 
SMALL
USER_CHARGES


@<TRIPOS>ATOM
  1 C        1.0230     0.5540    -0.0320 C.ar  1 <1>   0.0280 
  2 C        2.1430     1.4680     0.2280 C.2   1 <1>  -0.1780 
  3 H        2.2810     2.2620    -0.5040 H     1 <1>   0.1500 
  4 C        2.9510     1.3890     1.2910 C.2   1 <1>  -0.1360 
  5 H        2.8310     0.6290     2.0530 H     1 <1>   0.1500 
  6 C        4.0430     2.3770     1.4530 C.2   1 <1>   0.6160 
  7 N        4.7810     2.1750     2.6000 N.am  1 <1>  -0.7300 
  8 C        5.9010     3.0320     2.9390 C.3   1 <1>   0.3000 
  9 C        6.7890     2.4260     4.0250 C.3   1 <1>   0.0000 
 10 H1       6.1760     2.1450     4.8900 H     1 <1>   0.0000 
 11 C        7.5730     1.2060     3.5250 C.3   1 <1>   0.0000 
 12 C        8.3890     0.5370     4.6310 C.3   1 <1>   0.3690 
 13 H1       8.8290    -0.3960     4.2630 H     1 <1>   0.0000 
 14 H2       7.7260     0.2600     5.4590 H     1 <1>   0.0000 
 15 N        9.4220     1.4150     5.1360 N.pl3 1 <1>  -0.8190 
 16 H1       9.1930     1.9070     5.9890 H     1 <1>   0.4000 
 17 C       10.6430     1.6440     4.5920 C.2   1 <1>   0.5500 
 18 N       11.3920     2.5050     5.3070 N.pl3 1 <1>  -0.8500 
 19 H1      11.0880     2.9480     6.1580 H     1 <1>   0.4000 
 20 H2      12.3170     2.7130     4.9550 H     1 <1>   0.4000 
 21 N       11.1250     1.1340     3.5110 N.2   1 <1>  -0.8500 
 22 H       10.4300     0.5100     3.1030 H     1 <1>   0.4000 
 23 H2       8.2290     1.5090     2.7000 H     1 <1>   0.0000 
 24 H3       6.8760     0.4630     3.1200 H     1 <1>   0.0000 
 25 H3       7.4920     3.1960     4.3640 H     1 <1>   0.0000 
 26 H2       5.4780     3.9790     3.2930 H     1 <1>   0.0000 
 27 H3       6.4790     3.2460     2.0330 H     1 <1>   0.0000 
 28 H2       4.5360     1.4260     3.2360 H     1 <1>   0.3700 
 29 O        4.2520     3.2730     0.6430 O.2   1 <1>  -0.5700 
 30 C       -0.1200     1.0580    -0.6730 C.ar  1 <1>  -0.1500 
 31 H       -0.1810     2.1110    -0.9410 H     1 <1>   0.1500 
 32 C       -1.2010     0.2230    -0.9730 C.ar  1 <1>  -0.1500 
 33 H       -2.0740     0.6430    -1.4640 H     1 <1>   0.1500 
 34 C       -1.1360    -1.1260    -0.6410 C.ar  1 <1>   0.0820 
 35 O       -2.1660    -1.9780    -0.9190 O.3   1 <1>  -0.5320 
 36 H       -2.8720    -1.4750    -1.3570 H     1 <1>   0.4500 
 37 C       -0.0080    -1.6480    -0.0180 C.ar  1 <1>  -0.1500 
 38 H        0.0350    -2.7060     0.2270 H     1 <1>   0.1500 
 39 C        1.0720    -0.8110     0.2810 C.ar  1 <1>  -0.1500 
 40 H        1.9520    -1.2470     0.7480 H     1 <1>   0.1500 
@<TRIPOS>BOND
  1   1   2  1   
  2   1  30  ar  
  3   1  39  ar  
  4   2   3  1   
  5   2   4  2   
  6   4   5  1   
  7   4   6  1   
  8   6   7  am  
  9   6  29  2   
 10   7   8  1   
 11   7  28  1   
 12   8   9  1   
 13   8  26  1   
 14   8  27  1   
 15   9  10  1   
 16   9  11  1   
 17   9  25  1   
 18  11  12  1   
 19  11  23  1   
 20  11  24  1   
 21  12  13  1   
 22  12  14  1   
 23  12  15  1   
 24  15  16  1   
 25  15  17  1   
 26  17  18  1   
 27  17  21  2   
 28  18  19  1   
 29  18  20  1   
 30  21  22  1   
 31  30  31  1   
 32  30  32  ar  
 33  32  33  1   
 34  32  34  ar  
 35  34  35  1   
 36  34  37  ar  
 37  35  36  1   
 38  37  38  1   
 39  37  39  ar  
 40  39  40  1   
@<TRIPOS>SUBSTRUCTURE
  1 <1>   0 RESIDUE 1 * * 1
# MOE 2007.09 (io_trps.svl 2007.09)
