@<TRIPOS>MOLECULE
J02_22
35 35 1 0 0 
SMALL
USER_CHARGES


@<TRIPOS>ATOM
  1 C        1.3750     0.4090    -0.1130 C.ar  1 <1>   0.0280 
  2 C        2.7260     0.9480    -0.3100 C.2   1 <1>  -0.1780 
  3 H        3.3520     0.9840     0.5800 H     1 <1>   0.1500 
  4 C        3.1920     1.4030    -1.4790 C.2   1 <1>  -0.1360 
  5 H        2.5860     1.4060    -2.3770 H     1 <1>   0.1500 
  6 C        4.5730     1.9340    -1.5570 C.2   1 <1>   0.6160 
  7 N        4.9110     2.3550    -2.8260 N.am  1 <1>  -0.7300 
  8 C        6.2190     2.8990    -3.1410 C.3   1 <1>   0.3000 
  9 C        7.1040     1.8890    -3.8710 C.3   1 <1>   0.0000 
 10 H1       7.9900     2.4200    -4.2380 H     1 <1>   0.0000 
 11 H2       6.5740     1.5010    -4.7500 H     1 <1>   0.0000 
 12 C        7.5380     0.7210    -2.9780 C.3   1 <1>   0.0000 
 13 C        8.4290    -0.2880    -3.7040 C.3   1 <1>   0.2700 
 14 H1       8.6360    -1.1320    -3.0370 H     1 <1>   0.0000 
 15 N        9.6920     0.3040    -4.1260 N.3   1 <1>  -0.9900 
 16 H1      10.2790    -0.4150    -4.5480 H     1 <1>   0.3600 
 17 H2      10.2010     0.6440    -3.3110 H     1 <1>   0.3600 
 18 H3       7.9060    -0.6850    -4.5810 H     1 <1>   0.0000 
 19 H2       6.6520     0.1870    -2.6150 H     1 <1>   0.0000 
 20 H3       8.0590     1.1060    -2.0920 H     1 <1>   0.0000 
 21 H2       6.7100     3.2570    -2.2300 H     1 <1>   0.0000 
 22 H3       6.0450     3.7640    -3.7890 H     1 <1>   0.0000 
 23 H2       4.2390     2.2910    -3.5800 H     1 <1>   0.3700 
 24 O        5.3170     1.9760    -0.5850 O.2   1 <1>  -0.5700 
 25 C        0.7230     0.6550     1.1060 C.ar  1 <1>  -0.1500 
 26 H        1.2000     1.2620     1.8730 H     1 <1>   0.1500 
 27 C       -0.5500     0.1330     1.3550 C.ar  1 <1>  -0.1500 
 28 H       -1.0320     0.3460     2.3050 H     1 <1>   0.1500 
 29 C       -1.1710    -0.6480     0.3870 C.ar  1 <1>   0.0820 
 30 O       -2.4120    -1.1810     0.5900 O.3   1 <1>  -0.5320 
 31 H       -2.7200    -0.9160     1.4720 H     1 <1>   0.4500 
 32 C       -0.5370    -0.9160    -0.8210 C.ar  1 <1>  -0.1500 
 33 H       -1.0280    -1.5360    -1.5660 H     1 <1>   0.1500 
 34 C        0.7360    -0.3930    -1.0690 C.ar  1 <1>  -0.1500 
 35 H        1.2240    -0.6340    -2.0100 H     1 <1>   0.1500 
@<TRIPOS>BOND
  1   1   2  1   
  2   1  25  ar  
  3   1  34  ar  
  4   2   3  1   
  5   2   4  2   
  6   4   5  1   
  7   4   6  1   
  8   6   7  am  
  9   6  24  2   
 10   7   8  1   
 11   7  23  1   
 12   8   9  1   
 13   8  21  1   
 14   8  22  1   
 15   9  10  1   
 16   9  11  1   
 17   9  12  1   
 18  12  13  1   
 19  12  19  1   
 20  12  20  1   
 21  13  14  1   
 22  13  15  1   
 23  13  18  1   
 24  15  16  1   
 25  15  17  1   
 26  25  26  1   
 27  25  27  ar  
 28  27  28  1   
 29  27  29  ar  
 30  29  30  1   
 31  29  32  ar  
 32  30  31  1   
 33  32  33  1   
 34  32  34  ar  
 35  34  35  1   
@<TRIPOS>SUBSTRUCTURE
  1 <1>   0 RESIDUE 1 * * 1
# MOE 2007.09 (io_trps.svl 2007.09)
