@<TRIPOS>MOLECULE
J02_20
44 46 1 0 0 
SMALL
USER_CHARGES


@<TRIPOS>ATOM
  1 C        1.6590     0.6750    -0.6850 C.ar  1 <1>  -0.1440 
  2 C        0.5880     1.1110    -1.4500 C.ar  1 <1>  -0.1500 
  3 H        0.3620     2.1670    -1.5570 H     1 <1>   0.1500 
  4 C       -0.2120     0.1520    -2.0760 C.ar  1 <1>  -0.1500 
  5 H       -1.0570     0.4670    -2.6830 H     1 <1>   0.1500 
  6 C        0.0620    -1.2160    -1.9230 C.ar  1 <1>  -0.1500 
  7 H       -0.5710    -1.9510    -2.4140 H     1 <1>   0.1500 
  8 C        1.1400    -1.6410    -1.1410 C.ar  1 <1>  -0.1500 
  9 H        1.3510    -2.6980    -1.0230 H     1 <1>   0.1500 
 10 C        1.9300    -0.6860    -0.5270 C.ar  1 <1>   0.1000 
 11 N        3.0380    -0.9090     0.2690 N.pl3 1 <1>  -0.8690 
 12 H        3.3890    -1.8080     0.5550 H     1 <1>   0.4000 
 13 C        3.6250     0.3750     0.6080 C.3   1 <1>   0.3690 
 14 H1       4.5940     0.4660     0.1030 H     1 <1>   0.0000 
 15 H2       3.8030     0.4470     1.6860 H     1 <1>   0.0000 
 16 C        2.6300     1.4780     0.1390 C.3   1 <1>   0.1440 
 17 C        3.3070     2.6220    -0.6240 C.3   1 <1>   0.0000 
 18 C        4.2180     3.4500     0.2830 C.3   1 <1>   0.3000 
 19 N        4.8270     4.5580    -0.4350 N.am  1 <1>  -0.7300 
 20 C        6.0070     4.6130    -1.1330 C.2   1 <1>   0.6160 
 21 O        6.3750     5.6690    -1.6420 O.2   1 <1>  -0.5700 
 22 C        6.8010     3.3730    -1.2340 C.2   1 <1>  -0.1360 
 23 H        6.3400     2.4260    -0.9930 H     1 <1>   0.1500 
 24 C        8.0810     3.4520    -1.6170 C.2   1 <1>  -0.1780 
 25 H        8.5440     4.4120    -1.8340 H     1 <1>   0.1500 
 26 C        8.9520     2.2800    -1.7130 C.ar  1 <1>   0.0280 
 27 H2       4.3360     5.4450    -0.4300 H     1 <1>   0.3700 
 28 H2       5.0020     2.8390     0.7390 H     1 <1>   0.0000 
 29 H3       3.6320     3.8920     1.0960 H     1 <1>   0.0000 
 30 H2       2.5450     3.2840    -1.0550 H     1 <1>   0.0000 
 31 H3       3.8750     2.2270    -1.4760 H     1 <1>   0.0000 
 32 H2       2.0910     1.8720     1.0110 H     1 <1>   0.0000 
 33 C        8.5630     1.1180    -2.4010 C.ar  1 <1>  -0.1500 
 34 H        7.5890     1.0650    -2.8840 H     1 <1>   0.1500 
 35 C        9.4220     0.0170    -2.4900 C.ar  1 <1>  -0.1500 
 36 H        9.0970    -0.8690    -3.0270 H     1 <1>   0.1500 
 37 C       10.6740     0.0890    -1.8930 C.ar  1 <1>   0.0820 
 38 O       11.5650    -0.9490    -1.9390 O.3   1 <1>  -0.5320 
 39 H       11.1390    -1.6820    -2.4150 H     1 <1>   0.4500 
 40 C       11.0660     1.2410    -1.2200 C.ar  1 <1>   0.0820 
 41 O       12.2990     1.2960    -0.6370 O.3   1 <1>  -0.5320 
 42 H       12.7010     0.4290    -0.8460 H     1 <1>   0.4500 
 43 C       10.2230     2.3390    -1.1290 C.ar  1 <1>  -0.1500 
 44 H       10.5550     3.2260    -0.5970 H     1 <1>   0.1500 
@<TRIPOS>BOND
  1   1   2  ar  
  2   1  10  ar  
  3   1  16  1   
  4   2   3  1   
  5   2   4  ar  
  6   4   5  1   
  7   4   6  ar  
  8   6   7  1   
  9   6   8  ar  
 10   8   9  1   
 11   8  10  ar  
 12  10  11  1   
 13  11  12  1   
 14  11  13  1   
 15  13  14  1   
 16  13  15  1   
 17  13  16  1   
 18  16  17  1   
 19  16  32  1   
 20  17  18  1   
 21  17  30  1   
 22  17  31  1   
 23  18  19  1   
 24  18  28  1   
 25  18  29  1   
 26  19  20  am  
 27  19  27  1   
 28  20  21  2   
 29  20  22  1   
 30  22  23  1   
 31  22  24  2   
 32  24  25  1   
 33  24  26  1   
 34  26  33  ar  
 35  26  43  ar  
 36  33  34  1   
 37  33  35  ar  
 38  35  36  1   
 39  35  37  ar  
 40  37  38  1   
 41  37  40  ar  
 42  38  39  1   
 43  40  41  1   
 44  40  43  ar  
 45  41  42  1   
 46  43  44  1   
@<TRIPOS>SUBSTRUCTURE
  1 <1>   0 RESIDUE 1 * * 1
# MOE 2007.09 (io_trps.svl 2007.09)
