@<TRIPOS>MOLECULE
J02_09
52 53 1 0 0 
SMALL
USER_CHARGES


@<TRIPOS>ATOM
  1 C        1.4470     0.1740     0.0860 C.ar  1 <1>   0.0280 
  2 C        2.8260     0.4610    -0.3440 C.2   1 <1>  -0.1780 
  3 H        2.9500     0.6610    -1.4070 H     1 <1>   0.1500 
  4 C        3.8940     0.5080     0.4610 C.2   1 <1>  -0.1360 
  5 H        3.8420     0.3370     1.5290 H     1 <1>   0.1500 
  6 C        5.2220     0.8210    -0.0960 C.2   1 <1>   0.7060 
  7 O        6.1370     0.7350     0.9020 O.3   1 <1>  -0.4300 
  8 C        7.5200     1.0390     0.6020 C.3   1 <1>   0.3410 
  9 C        8.1760     0.0190    -0.3580 C.3   1 <1>   0.3410 
 10 C       10.4720     0.2130     0.3570 C.2   1 <1>   0.7060 
 11 C       11.8070     0.5180    -0.1880 C.2   1 <1>  -0.1360 
 12 H       11.8700     0.7020    -1.2530 H     1 <1>   0.1500 
 13 C       12.8680     0.5390     0.6270 C.2   1 <1>  -0.1780 
 14 C       14.2580     0.8060     0.2180 C.ar  1 <1>   0.0280 
 15 O       10.2290    -0.0820     1.5170 O.2   1 <1>  -0.5700 
 16 H2       8.0320     1.0130     1.5700 H     1 <1>   0.0000 
 17 C        7.6850     2.4780     0.1090 C.2   1 <1>   0.6590 
 18 O        6.8160     3.3340     0.6950 O.3   1 <1>  -0.6500 
 19 H        7.0410     4.2130     0.3240 H     1 <1>   0.5000 
 20 O        8.5210     2.9010    -0.6730 O.2   1 <1>  -0.5700 
 21 O        9.5640     0.3180    -0.6450 O.3   1 <1>  -0.4300 
 22 H2       7.6730     0.0550    -1.3300 H     1 <1>   0.0000 
 23 C        7.9990    -1.4230     0.1220 C.2   1 <1>   0.6590 
 24 O        8.8680    -2.2790    -0.4640 O.3   1 <1>  -0.6500 
 25 H        8.6360    -3.1600    -0.1010 H     1 <1>   0.5000 
 26 O        7.1540    -1.8480     0.8930 O.2   1 <1>  -0.5700 
 27 O        5.4540     1.1040    -1.2610 O.2   1 <1>  -0.5700 
 28 C        0.3850     0.6150    -0.7250 C.ar  1 <1>  -0.1500 
 29 H        0.6010     1.1760    -1.6310 H     1 <1>   0.1500 
 30 C       -0.9410     0.3420    -0.3730 C.ar  1 <1>   0.0820 
 31 O       -1.9710     0.7740    -1.1630 O.3   1 <1>  -0.5320 
 32 H       -1.6080     1.2630    -1.9190 H     1 <1>   0.4500 
 33 C       -1.2240    -0.3770     0.7860 C.ar  1 <1>   0.0820 
 34 O       -2.5240    -0.6370     1.1220 O.3   1 <1>  -0.5320 
 35 H       -2.5340    -1.1390     1.9520 H     1 <1>   0.4500 
 36 C       -0.1840    -0.8310     1.5950 C.ar  1 <1>  -0.1500 
 37 H       -0.3860    -1.4000     2.4980 H     1 <1>   0.1500 
 38 C        1.1430    -0.5620     1.2410 C.ar  1 <1>  -0.1500 
 39 H        1.9310    -0.9510     1.8810 H     1 <1>   0.1500 
 40 C       15.2970     0.3370     1.0430 C.ar  1 <1>  -0.1500 
 41 H       15.0610    -0.2290     1.9410 H     1 <1>   0.1500 
 42 C       16.6250     0.5930     0.7050 C.ar  1 <1>   0.0820 
 43 O       17.6740     0.1580     1.4690 O.3   1 <1>  -0.5320 
 44 H       17.3160    -0.3360     2.2270 H     1 <1>   0.4500 
 45 C       16.9330     1.3160    -0.4410 C.ar  1 <1>   0.0820 
 46 O       18.2420     1.5550    -0.7520 O.3   1 <1>  -0.5320 
 47 H       18.7350     1.1210    -0.0270 H     1 <1>   0.4500 
 48 C       15.9270     1.7980    -1.2640 C.ar  1 <1>  -0.1500 
 49 H       16.1800     2.3680    -2.1530 H     1 <1>   0.1500 
 50 C       14.5910     1.5480    -0.9300 C.ar  1 <1>  -0.1500 
 51 H       13.8180     1.9550    -1.5780 H     1 <1>   0.1500 
 52 H       12.7290     0.3260     1.6870 H     1 <1>   0.1500 
@<TRIPOS>BOND
  1   1   2  1   
  2   1  28  ar  
  3   1  38  ar  
  4   2   3  1   
  5   2   4  2   
  6   4   5  1   
  7   4   6  1   
  8   6   7  1   
  9   6  27  2   
 10   7   8  1   
 11   8   9  1   
 12   8  16  1   
 13   8  17  1   
 14   9  21  1   
 15   9  22  1   
 16   9  23  1   
 17  10  11  1   
 18  10  15  2   
 19  10  21  1   
 20  11  12  1   
 21  11  13  2   
 22  13  14  1   
 23  13  52  1   
 24  14  40  ar  
 25  14  50  ar  
 26  17  18  1   
 27  17  20  2   
 28  18  19  1   
 29  23  24  1   
 30  23  26  2   
 31  24  25  1   
 32  28  29  1   
 33  28  30  ar  
 34  30  31  1   
 35  30  33  ar  
 36  31  32  1   
 37  33  34  1   
 38  33  36  ar  
 39  34  35  1   
 40  36  37  1   
 41  36  38  ar  
 42  38  39  1   
 43  40  41  1   
 44  40  42  ar  
 45  42  43  1   
 46  42  45  ar  
 47  43  44  1   
 48  45  46  1   
 49  45  48  ar  
 50  46  47  1   
 51  48  49  1   
 52  48  50  ar  
 53  50  51  1   
@<TRIPOS>SUBSTRUCTURE
  1 <1>   0 RESIDUE 1 * * 1
# MOE 2007.09 (io_trps.svl 2007.09)
