@<TRIPOS>MOLECULE
J02_05
39 40 1 0 0 
SMALL
USER_CHARGES


@<TRIPOS>ATOM
  1 C        1.2860     0.3530     0.3090 C.ar  1 <1>   0.0280 
  2 C        2.6510     0.8680     0.4800 C.2   1 <1>  -0.1780 
  3 H        2.8040     1.5190     1.3390 H     1 <1>   0.1500 
  4 C        3.6650     0.6010    -0.3520 C.2   1 <1>  -0.1360 
  5 H        3.5410    -0.0200    -1.2300 H     1 <1>   0.1500 
  6 C        5.0000     1.1820    -0.0840 C.2   1 <1>   0.6160 
  7 N        5.9470     0.8110    -1.0160 N.am  1 <1>  -0.7300 
  8 C        7.3160     1.2870    -0.9290 C.3   1 <1>   0.3000 
  9 C        8.1330     0.4940     0.0920 C.3   1 <1>   0.1440 
 10 C        9.5160     1.0680     0.2610 C.ar  1 <1>  -0.1440 
 11 H2       8.1980    -0.5580    -0.2160 H     1 <1>   0.0000 
 12 H3       7.6290     0.4800     1.0670 H     1 <1>   0.0000 
 13 H2       7.2930     2.3520    -0.6690 H     1 <1>   0.0000 
 14 H3       7.7550     1.1990    -1.9290 H     1 <1>   0.0000 
 15 H2       5.7010     0.1980    -1.7830 H     1 <1>   0.3700 
 16 O        5.2250     1.9110     0.8750 O.2   1 <1>  -0.5700 
 17 C        0.2040     1.1700     0.6740 C.ar  1 <1>  -0.1500 
 18 H        0.3910     2.1750     1.0440 H     1 <1>   0.1500 
 19 C       -1.1060     0.6980     0.5540 C.ar  1 <1>   0.0820 
 20 O       -2.1630     1.4950     0.9020 O.3   1 <1>  -0.5320 
 21 H       -1.8300     2.3500     1.2160 H     1 <1>   0.4500 
 22 C       -1.3480    -0.5910     0.0820 C.ar  1 <1>   0.0820 
 23 O       -2.6360    -1.0410    -0.0280 O.3   1 <1>  -0.5320 
 24 H       -2.6190    -1.9480    -0.3710 H     1 <1>   0.4500 
 25 C       -0.2830    -1.4180    -0.2690 C.ar  1 <1>  -0.1500 
 26 H       -0.4500    -2.4290    -0.6280 H     1 <1>   0.1500 
 27 C        1.0290    -0.9470    -0.1500 C.ar  1 <1>  -0.1500 
 28 H        1.8460    -1.6180    -0.4070 H     1 <1>   0.1500 
 29 C       10.5960     0.5680    -0.4800 C.ar  1 <1>  -0.1500 
 30 H       10.4510    -0.2540    -1.1770 H     1 <1>   0.1500 
 31 C       11.8710     1.1200    -0.3330 C.ar  1 <1>  -0.1500 
 32 H       12.6940     0.7180    -0.9150 H     1 <1>   0.1500 
 33 C       12.0620     2.1760     0.5540 C.ar  1 <1>   0.0820 
 34 O       13.2880     2.7480     0.7290 O.3   1 <1>  -0.5320 
 35 H       13.9330     2.2860     0.1690 H     1 <1>   0.4500 
 36 C       11.0010     2.6870     1.2930 C.ar  1 <1>  -0.1500 
 37 H       11.1630     3.5120     1.9800 H     1 <1>   0.1500 
 38 C        9.7290     2.1350     1.1470 C.ar  1 <1>  -0.1500 
 39 H        8.9020     2.5410     1.7250 H     1 <1>   0.1500 
@<TRIPOS>BOND
  1   1   2  1   
  2   1  17  ar  
  3   1  27  ar  
  4   2   3  1   
  5   2   4  2   
  6   4   5  1   
  7   4   6  1   
  8   6   7  am  
  9   6  16  2   
 10   7   8  1   
 11   7  15  1   
 12   8   9  1   
 13   8  13  1   
 14   8  14  1   
 15   9  10  1   
 16   9  11  1   
 17   9  12  1   
 18  10  29  ar  
 19  10  38  ar  
 20  17  18  1   
 21  17  19  ar  
 22  19  20  1   
 23  19  22  ar  
 24  20  21  1   
 25  22  23  1   
 26  22  25  ar  
 27  23  24  1   
 28  25  26  1   
 29  25  27  ar  
 30  27  28  1   
 31  29  30  1   
 32  29  31  ar  
 33  31  32  1   
 34  31  33  ar  
 35  33  34  1   
 36  33  36  ar  
 37  34  35  1   
 38  36  37  1   
 39  36  38  ar  
 40  38  39  1   
@<TRIPOS>SUBSTRUCTURE
  1 <1>   0 RESIDUE 1 * * 1
# MOE 2007.09 (io_trps.svl 2007.09)
