@<TRIPOS>MOLECULE
J02_13
64 66 1 0 0 
SMALL
USER_CHARGES


@<TRIPOS>ATOM
  1 C        1.6890     0.4680     0.0410 C.ar  1 <1>   0.0280 
  2 C        2.9340     1.2150    -0.1880 C.2   1 <1>  -0.1780 
  3 H        2.8160     2.2830    -0.3680 H     1 <1>   0.1500 
  4 C        4.1530     0.6650    -0.2080 C.2   1 <1>  -0.1360 
  5 H        4.3250    -0.3940    -0.0600 H     1 <1>   0.1500 
  6 C        5.3330     1.5110    -0.4580 C.2   1 <1>   0.7060 
  7 O        6.4420     0.7270    -0.3870 O.3   1 <1>  -0.4300 
  8 C        7.6950     1.4030    -0.6360 C.3   1 <1>   0.3410 
  9 C        8.8060     0.4620    -0.1490 C.3   1 <1>   0.1440 
 10 C       10.0630     1.1820     0.2790 C.ar  1 <1>  -0.1440 
 11 H2       9.0450    -0.2810    -0.9220 H     1 <1>   0.0000 
 12 H3       8.4500    -0.1290     0.7060 H     1 <1>   0.0000 
 13 H2       7.6990     2.3540    -0.0900 H     1 <1>   0.0000 
 14 C        7.8380     1.6720    -2.1290 C.2   1 <1>   0.6590 
 15 O        8.8420     2.5260    -2.4160 O.3   1 <1>  -0.6500 
 16 H        8.7990     2.6520    -3.3880 H     1 <1>   0.5000 
 17 O        7.1490     1.2030    -3.0220 O.2   1 <1>  -0.5700 
 18 O        5.3110     2.7120    -0.6820 O.2   1 <1>  -0.5700 
 19 C        0.5140     0.9060    -0.5930 C.ar  1 <1>  -0.1500 
 20 H        0.5500     1.7650    -1.2590 H     1 <1>   0.1500 
 21 C       -0.6960     0.2430    -0.3750 C.ar  1 <1>   0.0820 
 22 O       -1.8430     0.6650    -0.9890 O.3   1 <1>  -0.5320 
 23 H       -1.6380     1.4220    -1.5610 H     1 <1>   0.4500 
 24 C       -0.7480    -0.8650     0.4710 C.ar  1 <1>   0.0820 
 25 O       -1.9570    -1.4810     0.6910 O.3   1 <1>  -0.1590 
 26 C       -2.0940    -2.8230     0.3310 C.2   1 <1>   0.0910 
 27 C       -3.1380    -3.5120     0.8100 C.2   1 <1>  -0.1780 
 28 H       -3.8330    -3.0050     1.4760 H     1 <1>   0.1500 
 29 C       -3.4960    -4.8970     0.5030 C.ar  1 <1>   0.0280 
 30 C       -1.1660    -3.4510    -0.6400 C.2   1 <1>   0.7060 
 31 O       -1.3440    -2.8750    -1.8580 O.3   1 <1>  -0.4300 
 32 C       -0.4360    -3.3360    -2.8580 C.3   1 <1>   0.2800 
 33 H1      -0.6380    -2.7840    -3.7800 H     1 <1>   0.0000 
 34 H2      -0.5890    -4.4020    -3.0500 H     1 <1>   0.0000 
 35 H3       0.5980    -3.1400    -2.5570 H     1 <1>   0.0000 
 36 O       -0.3760    -4.3410    -0.3590 O.2   1 <1>  -0.5700 
 37 C        0.4030    -1.2860     1.1370 C.ar  1 <1>  -0.1500 
 38 H        0.3650    -2.1230     1.8290 H     1 <1>   0.1500 
 39 C        1.6160    -0.6230     0.9200 C.ar  1 <1>  -0.1500 
 40 H        2.4940    -0.9660     1.4610 H     1 <1>   0.1500 
 41 C       11.1940     1.2030    -0.5520 C.ar  1 <1>  -0.1500 
 42 H       11.1700     0.6960    -1.5120 H     1 <1>   0.1500 
 43 C       12.3350     1.8820    -0.1370 C.ar  1 <1>   0.0820 
 44 O       13.4680     1.9430    -0.9020 O.3   1 <1>  -0.5320 
 45 H       13.3040     1.4560    -1.7280 H     1 <1>   0.4500 
 46 C       12.3610     2.5360     1.0910 C.ar  1 <1>   0.0820 
 47 O       13.4920     3.1980     1.4760 O.3   1 <1>  -0.5320 
 48 H       14.1110     3.0640     0.7290 H     1 <1>   0.4500 
 49 C       11.2550     2.5250     1.9260 C.ar  1 <1>  -0.1500 
 50 H       11.2860     3.0380     2.8820 H     1 <1>   0.1500 
 51 C       10.1040     1.8470     1.5190 C.ar  1 <1>  -0.1500 
 52 H        9.2370     1.8390     2.1760 H     1 <1>   0.1500 
 53 C       -4.6950    -5.1590    -0.1730 C.ar  1 <1>  -0.1500 
 54 H       -5.3440    -4.3420    -0.4820 H     1 <1>   0.1500 
 55 C       -5.0740    -6.4730    -0.4620 C.ar  1 <1>  -0.1500 
 56 H       -6.0070    -6.6500    -0.9890 H     1 <1>   0.1500 
 57 C       -4.2520    -7.5290    -0.0730 C.ar  1 <1>   0.0820 
 58 O       -4.6060    -8.8200    -0.3530 O.3   1 <1>  -0.5320 
 59 H       -5.4560    -8.8240    -0.8200 H     1 <1>   0.4500 
 60 C       -3.0590    -7.2760     0.6040 C.ar  1 <1>   0.0820 
 61 O       -2.2560    -8.3200     0.9750 O.3   1 <1>  -0.5320 
 62 H       -1.4210    -7.9610     1.3160 H     1 <1>   0.4500 
 63 C       -2.6830    -5.9650     0.9010 C.ar  1 <1>  -0.1500 
 64 H       -1.7590    -5.7670     1.4390 H     1 <1>   0.1500 
@<TRIPOS>BOND
  1   1   2  1   
  2   1  19  ar  
  3   1  39  ar  
  4   2   3  1   
  5   2   4  2   
  6   4   5  1   
  7   4   6  1   
  8   6   7  1   
  9   6  18  2   
 10   7   8  1   
 11   8   9  1   
 12   8  13  1   
 13   8  14  1   
 14   9  10  1   
 15   9  11  1   
 16   9  12  1   
 17  10  41  ar  
 18  10  51  ar  
 19  14  15  1   
 20  14  17  2   
 21  15  16  1   
 22  19  20  1   
 23  19  21  ar  
 24  21  22  1   
 25  21  24  ar  
 26  22  23  1   
 27  24  25  1   
 28  24  37  ar  
 29  25  26  1   
 30  26  27  2   
 31  26  30  1   
 32  27  28  1   
 33  27  29  1   
 34  29  53  ar  
 35  29  63  ar  
 36  30  31  1   
 37  30  36  2   
 38  31  32  1   
 39  32  33  1   
 40  32  34  1   
 41  32  35  1   
 42  37  38  1   
 43  37  39  ar  
 44  39  40  1   
 45  41  42  1   
 46  41  43  ar  
 47  43  44  1   
 48  43  46  ar  
 49  44  45  1   
 50  46  47  1   
 51  46  49  ar  
 52  47  48  1   
 53  49  50  1   
 54  49  51  ar  
 55  51  52  1   
 56  53  54  1   
 57  53  55  ar  
 58  55  56  1   
 59  55  57  ar  
 60  57  58  1   
 61  57  60  ar  
 62  58  59  1   
 63  60  61  1   
 64  60  63  ar  
 65  61  62  1   
 66  63  64  1   
@<TRIPOS>SUBSTRUCTURE
  1 <1>   0 RESIDUE 1 * * 1
# MOE 2007.09 (io_trps.svl 2007.09)
