@<TRIPOS>MOLECULE
J02_23
78 80 1 0 0 
SMALL
USER_CHARGES


@<TRIPOS>ATOM
  1 C        1.5460     0.4540    -0.2920 C.ar  1 <1>  -0.1440 
  2 C        2.6950     0.9570     0.5600 C.3   1 <1>   0.4240 
  3 H        2.6010     0.4960     1.5540 H     1 <1>   0.0000 
  4 C        0.9030     1.2810    -1.2270 C.ar  1 <1>  -0.1500 
  5 H        1.2040     2.3200    -1.3430 H     1 <1>   0.1500 
  6 C       -0.1290     0.7830    -2.0260 C.ar  1 <1>  -0.1500 
  7 H       -0.6110     1.4430    -2.7410 H     1 <1>   0.1500 
  8 C       -0.5160    -0.5460    -1.8940 C.ar  1 <1>   0.0820 
  9 O       -1.5140    -1.0770    -2.6580 O.3   1 <1>  -0.5320 
 10 H       -1.8420    -0.3890    -3.2590 H     1 <1>   0.4500 
 11 C        0.1080    -1.3830    -0.9770 C.ar  1 <1>  -0.1500 
 12 H       -0.2020    -2.4200    -0.8880 H     1 <1>   0.1500 
 13 C        1.1380    -0.8850    -0.1790 C.ar  1 <1>  -0.1500 
 14 H        1.6270    -1.5570     0.5240 H     1 <1>   0.1500 
 15 C        4.0650     0.6550    -0.0810 C.3   1 <1>   0.2040 
 16 H1       4.0100     0.5680    -1.1740 H     1 <1>   0.0000 
 17 C        4.6300    -0.6290     0.4910 C.2   1 <1>   0.5690 
 18 O        4.4860    -1.6960    -0.1060 O.2   1 <1>  -0.5700 
 19 N        5.2260    -0.5370     1.7310 N.am  1 <1>  -0.7300 
 20 C        5.7520    -1.6950     2.4240 C.3   1 <1>   0.3000 
 21 C        7.0230    -2.2250     1.7630 C.3   1 <1>   0.0000 
 22 C        7.6630    -3.3280     2.6020 C.3   1 <1>   0.0000 
 23 C        8.7990    -4.0090     1.8440 C.3   1 <1>   0.3690 
 24 N        9.4860    -4.9260     2.7170 N.pl3 1 <1>  -0.8190 
 25 C       10.5090    -4.7100     3.5760 C.2   1 <1>   0.5500 
 26 N       10.9240    -5.6870     4.3130 N.2   1 <1>  -0.8500 
 27 H       11.6940    -5.3430     4.8880 H     1 <1>   0.4000 
 28 N       11.0520    -3.4790     3.6260 N.pl3 1 <1>  -0.8500 
 29 H1      10.7040    -2.7280     3.0520 H     1 <1>   0.4000 
 30 H2      11.8250    -3.2590     4.2370 H     1 <1>   0.4000 
 31 H2       9.1630    -5.8870     2.7180 H     1 <1>   0.4000 
 32 H2       9.4910    -3.2760     1.4150 H     1 <1>   0.0000 
 33 H3       8.3850    -4.5720     1.0000 H     1 <1>   0.0000 
 34 H2       6.9120    -4.0790     2.8770 H     1 <1>   0.0000 
 35 H3       8.0330    -2.8970     3.5410 H     1 <1>   0.0000 
 36 H2       7.7410    -1.4070     1.6240 H     1 <1>   0.0000 
 37 H3       6.7900    -2.6100     0.7630 H     1 <1>   0.0000 
 38 H2       4.9780    -2.4700     2.4410 H     1 <1>   0.0000 
 39 H3       5.9520    -1.3860     3.4550 H     1 <1>   0.0000 
 40 H2       5.3070     0.3630     2.1920 H     1 <1>   0.3700 
 41 C        4.7830     1.9120     0.2630 C.ar  1 <1>  -0.1440 
 42 C        3.8750     2.8450     0.7350 C.ar  1 <1>   0.0820 
 43 O        2.5860     2.3890     0.7930 O.3   1 <1>  -0.3620 
 44 C        6.1290     2.2270     0.1430 C.ar  1 <1>  -0.1500 
 45 H        6.8330     1.4890    -0.2340 H     1 <1>   0.1500 
 46 C        6.5610     3.5000     0.5470 C.ar  1 <1>   0.0280 
 47 C        7.9940     3.8130     0.4700 C.2   1 <1>  -0.1780 
 48 H        8.4870     3.5190    -0.4490 H     1 <1>   0.1500 
 49 C        8.6440     4.3720     1.4950 C.2   1 <1>  -0.1360 
 50 H        8.1150     4.6610     2.3990 H     1 <1>   0.1500 
 51 C       10.0890     4.6670     1.5710 C.2   1 <1>   0.6160 
 52 O       10.4840     5.4780     2.4000 O.2   1 <1>  -0.5700 
 53 N       10.9070     3.9320     0.7440 N.am  1 <1>  -0.7300 
 54 C       12.3550     3.9860     0.8320 C.3   1 <1>   0.3000 
 55 C       12.8430     2.8770     1.7600 C.3   1 <1>   0.0000 
 56 C       14.3620     2.7310     1.7560 C.3   1 <1>   0.0000 
 57 C       14.7790     1.5510     2.6350 C.3   1 <1>   0.3690 
 58 N       16.2040     1.3210     2.5370 N.pl3 1 <1>  -0.8190 
 59 C       16.7820     0.1560     2.9330 C.2   1 <1>   0.5500 
 60 N       18.1140     0.1330     2.7290 N.pl3 1 <1>  -0.8500 
 61 H1      18.6780    -0.6680     2.9750 H     1 <1>   0.4000 
 62 H2      18.5970     0.9170     2.3200 H     1 <1>   0.4000 
 63 N       16.1460    -0.8400     3.4500 N.2   1 <1>  -0.8500 
 64 H       16.8210    -1.5760     3.6570 H     1 <1>   0.4000 
 65 H2      16.7780     2.0660     2.1690 H     1 <1>   0.4000 
 66 H2      14.2360     0.6550     2.3100 H     1 <1>   0.0000 
 67 H3      14.5100     1.7450     3.6790 H     1 <1>   0.0000 
 68 H2      14.8330     3.6540     2.1170 H     1 <1>   0.0000 
 69 H3      14.7170     2.5710     0.7300 H     1 <1>   0.0000 
 70 H2      12.3880     1.9260     1.4520 H     1 <1>   0.0000 
 71 H3      12.4910     3.0700     2.7810 H     1 <1>   0.0000 
 72 H2      12.6740     4.9680     1.1960 H     1 <1>   0.0000 
 73 H3      12.7430     3.8450    -0.1820 H     1 <1>   0.0000 
 74 H2      10.5100     3.3010     0.0630 H     1 <1>   0.3700 
 75 C        5.6180     4.4440     1.0050 C.ar  1 <1>  -0.1500 
 76 H        5.9340     5.4450     1.2910 H     1 <1>   0.1500 
 77 C        4.2610     4.1180     1.0980 C.ar  1 <1>  -0.1500 
 78 H        3.5340     4.8400     1.4530 H     1 <1>   0.1500 
@<TRIPOS>BOND
  1   1   2  1   
  2   1   4  ar  
  3   1  13  ar  
  4   2   3  1   
  5   2  15  1   
  6   2  43  1   
  7   4   5  1   
  8   4   6  ar  
  9   6   7  1   
 10   6   8  ar  
 11   8   9  1   
 12   8  11  ar  
 13   9  10  1   
 14  11  12  1   
 15  11  13  ar  
 16  13  14  1   
 17  15  16  1   
 18  15  17  1   
 19  15  41  1   
 20  17  18  2   
 21  17  19  am  
 22  19  20  1   
 23  19  40  1   
 24  20  21  1   
 25  20  38  1   
 26  20  39  1   
 27  21  22  1   
 28  21  36  1   
 29  21  37  1   
 30  22  23  1   
 31  22  34  1   
 32  22  35  1   
 33  23  24  1   
 34  23  32  1   
 35  23  33  1   
 36  24  25  1   
 37  24  31  1   
 38  25  26  2   
 39  25  28  1   
 40  26  27  1   
 41  28  29  1   
 42  28  30  1   
 43  41  42  ar  
 44  41  44  ar  
 45  42  43  1   
 46  42  77  ar  
 47  44  45  1   
 48  44  46  ar  
 49  46  47  1   
 50  46  75  ar  
 51  47  48  1   
 52  47  49  2   
 53  49  50  1   
 54  49  51  1   
 55  51  52  2   
 56  51  53  am  
 57  53  54  1   
 58  53  74  1   
 59  54  55  1   
 60  54  72  1   
 61  54  73  1   
 62  55  56  1   
 63  55  70  1   
 64  55  71  1   
 65  56  57  1   
 66  56  68  1   
 67  56  69  1   
 68  57  58  1   
 69  57  66  1   
 70  57  67  1   
 71  58  59  1   
 72  58  65  1   
 73  59  60  1   
 74  59  63  2   
 75  60  61  1   
 76  60  62  1   
 77  63  64  1   
 78  75  76  1   
 79  75  77  ar  
 80  77  78  1   
@<TRIPOS>SUBSTRUCTURE
  1 <1>   0 RESIDUE 1 * * 1
# MOE 2007.09 (io_trps.svl 2007.09)
