@<TRIPOS>MOLECULE
J03_10
49 49 1 0 0 
SMALL
USER_CHARGES


@<TRIPOS>ATOM
  1 C        2.4860    -0.0158    -1.9942 C.ar  1 <1>  -0.1435 
  2 C        3.8708     0.2062    -1.4422 C.3   1 <1>   0.4436 
  3 N        3.9456     0.0141    -0.0047 N.am  1 <1>  -0.7301 
  4 C        3.6144     0.8705     1.0046 C.2   1 <1>   0.5690 
  5 O        3.7911     0.5199     2.1726 O.2   1 <1>  -0.5700 
  6 C        3.0119     2.2215     0.6758 C.3   1 <1>   0.0610 
  7 H1       3.3487     2.5599    -0.3070 H     1 <1>   0.0000 
  8 H2       3.4020     2.9523     1.3942 H     1 <1>   0.0000 
  9 C        1.4844     2.1900     0.7089 C.3   1 <1>   0.0000 
 10 H1       1.1079     3.0805     0.1905 H     1 <1>   0.0000 
 11 C        0.9228     2.1738     2.1337 C.3   1 <1>   0.0000 
 12 C       -0.6078     2.1770     2.1217 C.3   1 <1>   0.1382 
 13 C       -1.1605     2.1471     3.5171 C.2   1 <1>  -0.2882 
 14 H       -0.9200     1.2705     4.1154 H     1 <1>   0.1500 
 15 C       -1.9213     3.1200     4.0419 C.2   1 <1>  -0.2882 
 16 H       -2.1646     3.9950     3.4417 H     1 <1>   0.1500 
 17 C       -2.4752     3.0843     5.4446 C.3   1 <1>   0.1382 
 18 C       -4.0031     3.1139     5.4102 C.3   1 <1>   0.0000 
 19 H1      -4.4138     3.0628     6.4244 H     1 <1>   0.0000 
 20 H2      -4.3994     2.2615     4.8471 H     1 <1>   0.0000 
 21 H3      -4.3786     4.0307     4.9416 H     1 <1>   0.0000 
 22 C       -1.9323     4.2598     6.2567 C.3   1 <1>   0.0000 
 23 H1      -0.8378     4.2322     6.3033 H     1 <1>   0.0000 
 24 H2      -2.3101     4.2273     7.2844 H     1 <1>   0.0000 
 25 H3      -2.2264     5.2215     5.8211 H     1 <1>   0.0000 
 26 H3      -2.1665     2.1572     5.9445 H     1 <1>   0.0000 
 27 H2      -0.9775     1.2960     1.5835 H     1 <1>   0.0000 
 28 H3      -0.9713     3.0576     1.5780 H     1 <1>   0.0000 
 29 H2       1.2911     3.0493     2.6834 H     1 <1>   0.0000 
 30 H3       1.2814     1.2852     2.6666 H     1 <1>   0.0000 
 31 H3       1.1056     1.3173     0.1676 H     1 <1>   0.0000 
 32 H2       4.3033    -0.8740     0.3265 H     1 <1>   0.3700 
 33 H2       4.2475     1.2040    -1.6866 H     1 <1>   0.0000 
 34 H3       4.5557    -0.5154    -1.9025 H     1 <1>   0.0000 
 35 C        1.8589     0.9851    -2.7611 C.ar  1 <1>  -0.1500 
 36 H        2.3910     1.9145    -2.9390 H     1 <1>   0.1500 
 37 C        0.5747     0.7849    -3.2701 C.ar  1 <1>   0.0825 
 38 O       -0.1545     1.6752    -4.0160 O.3   1 <1>  -0.3625 
 39 C        0.4331     2.9519    -4.2394 C.3   1 <1>   0.2800 
 40 H1      -0.2784     3.5502    -4.8165 H     1 <1>   0.0000 
 41 H2       1.3510     2.8645    -4.8300 H     1 <1>   0.0000 
 42 H3       0.6175     3.4734    -3.2942 H     1 <1>   0.0000 
 43 C       -0.0697    -0.4305    -3.0193 C.ar  1 <1>   0.0825 
 44 O       -1.3294    -0.6469    -3.5101 O.3   1 <1>  -0.5325 
 45 H       -1.5573     0.1798    -3.9792 H     1 <1>   0.4500 
 46 C        0.5343    -1.4361    -2.2773 C.ar  1 <1>  -0.1500 
 47 H        0.0124    -2.3709    -2.0971 H     1 <1>   0.1500 
 48 C        1.8141    -1.2286    -1.7662 C.ar  1 <1>  -0.1500 
 49 H        2.2842    -2.0169    -1.1826 H     1 <1>   0.1500 
@<TRIPOS>BOND
  1   1   2  1   
  2   1  35  ar  
  3   1  48  ar  
  4   2   3  1   
  5   2  33  1   
  6   2  34  1   
  7   3   4  am  
  8   3  32  1   
  9   4   5  2   
 10   4   6  1   
 11   6   7  1   
 12   6   8  1   
 13   6   9  1   
 14   9  10  1   
 15   9  11  1   
 16   9  31  1   
 17  11  12  1   
 18  11  29  1   
 19  11  30  1   
 20  12  13  1   
 21  12  27  1   
 22  12  28  1   
 23  13  14  1   
 24  13  15  2   
 25  15  16  1   
 26  15  17  1   
 27  17  18  1   
 28  17  22  1   
 29  17  26  1   
 30  18  19  1   
 31  18  20  1   
 32  18  21  1   
 33  22  23  1   
 34  22  24  1   
 35  22  25  1   
 36  35  36  1   
 37  35  37  ar  
 38  37  38  1   
 39  37  43  ar  
 40  38  39  1   
 41  39  40  1   
 42  39  41  1   
 43  39  42  1   
 44  43  44  1   
 45  43  46  ar  
 46  44  45  1   
 47  46  47  1   
 48  46  48  ar  
 49  48  49  1   
@<TRIPOS>SUBSTRUCTURE
  1 <1>   0 RESIDUE 1 * * 1
# MOE 2007.09 (io_trps.svl 2007.09)
