@<TRIPOS>MOLECULE
J03_07
49 50 1 0 0 
SMALL
USER_CHARGES


@<TRIPOS>ATOM
  1 C        1.0890    -1.0397     0.2249 C.3   1 <1>   0.5600 
  2 O        2.3727    -1.1456     0.8554 O.3   1 <1>  -0.5600 
  3 C        3.4247    -0.4653     0.1599 C.3   1 <1>   0.2800 
  4 H        3.0927     0.5432    -0.1113 H     1 <1>   0.0000 
  5 H2       1.1577    -1.4456    -0.7914 H     1 <1>   0.0000 
  6 O        0.6901     0.3358     0.1773 O.3   1 <1>  -0.5600 
  7 C       -0.5891     0.5338    -0.4197 C.3   1 <1>   0.2800 
  8 H1      -0.5858     0.1373    -1.4445 H     1 <1>   0.0000 
  9 C       -0.8649     2.0381    -0.5072 C.3   1 <1>   0.2800 
 10 H1      -0.1537     2.5159    -1.1896 H     1 <1>   0.0000 
 11 H2      -0.7573     2.5144     0.4735 H     1 <1>   0.0000 
 12 O       -2.1943     2.2574    -0.9822 O.3   1 <1>  -0.6800 
 13 H       -2.2820     3.2199    -1.1192 H     1 <1>   0.4000 
 14 C       -1.6785    -0.1747     0.3970 C.3   1 <1>   0.2800 
 15 O       -2.9652    -0.0535    -0.2168 O.3   1 <1>  -0.6800 
 16 H       -3.0030     0.8700    -0.5729 H     1 <1>   0.4000 
 17 H2      -1.7545     0.2581     1.4023 H     1 <1>   0.0000 
 18 C       -1.3398    -1.6564     0.5059 C.3   1 <1>   0.2800 
 19 H1      -1.4526    -2.1484    -0.4688 H     1 <1>   0.0000 
 20 O       -2.2718    -2.3093     1.3766 O.3   1 <1>  -0.6800 
 21 H       -3.1503    -1.9858     1.0910 H     1 <1>   0.4000 
 22 C        0.0754    -1.8659     1.0427 C.3   1 <1>   0.2800 
 23 O        0.3616    -3.2706     0.9793 O.3   1 <1>  -0.6800 
 24 H       -0.4058    -3.7046     1.4039 H     1 <1>   0.4000 
 25 H2       0.1269    -1.5830     2.1014 H     1 <1>   0.0000 
 26 C        3.8605    -1.2349    -1.0898 C.3   1 <1>   0.1382 
 27 H1       3.0978    -1.0790    -1.8629 H     1 <1>   0.0000 
 28 H2       3.8619    -2.3132    -0.8826 H     1 <1>   0.0000 
 29 C        5.2191    -0.8431    -1.6443 C.2   1 <1>  -0.2764 
 30 C        5.4227    -1.3529    -3.0527 C.3   1 <1>   0.1382 
 31 H1       6.2230    -0.8479    -3.5970 H     1 <1>   0.0000 
 32 H2       4.5177    -1.1964    -3.6505 H     1 <1>   0.0000 
 33 H3       5.6372    -2.4262    -3.0338 H     1 <1>   0.0000 
 34 C        6.0933    -0.0988    -0.9267 C.2   1 <1>  -0.1238 
 35 C        7.4110     0.2546    -1.5334 C.2   1 <1>   0.4956 
 36 H        7.7768    -0.4070    -2.3326 H     1 <1>   0.0600 
 37 O        8.0785     1.2235    -1.1887 O.2   1 <1>  -0.5700 
 38 C        5.8131     0.3960     0.5008 C.3   1 <1>   0.1382 
 39 C        5.5080     1.9093     0.4810 C.3   1 <1>   0.0000 
 40 H1       6.3868     2.5007     0.2032 H     1 <1>   0.0000 
 41 H2       5.1887     2.2596     1.4695 H     1 <1>   0.0000 
 42 H3       4.7137     2.1570    -0.2316 H     1 <1>   0.0000 
 43 C        7.0057     0.1391     1.4517 C.3   1 <1>   0.0000 
 44 H1       7.3248    -0.9091     1.4139 H     1 <1>   0.0000 
 45 H2       6.7340     0.3656     2.4899 H     1 <1>   0.0000 
 46 H3       7.8745     0.7609     1.2153 H     1 <1>   0.0000 
 47 C        4.6053    -0.3585     1.1192 C.3   1 <1>   0.0000 
 48 H1       4.2788     0.1277     2.0487 H     1 <1>   0.0000 
 49 H2       4.9036    -1.3734     1.4221 H     1 <1>   0.0000 
@<TRIPOS>BOND
  1   1   2  1   
  2   1   5  1   
  3   1   6  1   
  4   1  22  1   
  5   2   3  1   
  6   3   4  1   
  7   3  26  1   
  8   3  47  1   
  9   6   7  1   
 10   7   8  1   
 11   7   9  1   
 12   7  14  1   
 13   9  10  1   
 14   9  11  1   
 15   9  12  1   
 16  12  13  1   
 17  14  15  1   
 18  14  17  1   
 19  14  18  1   
 20  15  16  1   
 21  18  19  1   
 22  18  20  1   
 23  18  22  1   
 24  20  21  1   
 25  22  23  1   
 26  22  25  1   
 27  23  24  1   
 28  26  27  1   
 29  26  28  1   
 30  26  29  1   
 31  29  30  1   
 32  29  34  2   
 33  30  31  1   
 34  30  32  1   
 35  30  33  1   
 36  34  35  1   
 37  34  38  1   
 38  35  36  1   
 39  35  37  2   
 40  38  39  1   
 41  38  43  1   
 42  38  47  1   
 43  39  40  1   
 44  39  41  1   
 45  39  42  1   
 46  43  44  1   
 47  43  45  1   
 48  43  46  1   
 49  47  48  1   
 50  47  49  1   
@<TRIPOS>SUBSTRUCTURE
  1 <1>   0 RESIDUE 1 * * 1
# MOE 2007.09 (io_trps.svl 2007.09)
