@<TRIPOS>MOLECULE
J03_21
28 28 1 0 0 
SMALL
USER_CHARGES


@<TRIPOS>ATOM
  1 C        1.2122     0.7027     0.0648 C.ar  1 <1>  -0.1435 
  2 C        2.5400     1.4133     0.0074 C.3   1 <1>   0.1435 
  3 H1       2.3821     2.4646    -0.2669 H     1 <1>   0.0000 
  4 H2       3.1466     0.9867    -0.8022 H     1 <1>   0.0000 
  5 C        3.2840     1.3178     1.3372 C.3   1 <1>   0.0610 
  6 C        4.6224     2.0277     1.2883 C.2   1 <1>   0.4480 
  7 C        5.4408     1.9959     2.5527 C.3   1 <1>   0.0610 
  8 H1       6.3772     2.5398     2.4000 H     1 <1>   0.0000 
  9 H2       5.6723     0.9602     2.8131 H     1 <1>   0.0000 
 10 H3       4.8833     2.4734     3.3621 H     1 <1>   0.0000 
 11 O        5.0312     2.6014     0.2801 O.2   1 <1>  -0.5700 
 12 H2       3.4676     0.2688     1.5973 H     1 <1>   0.0000 
 13 H3       2.6895     1.7710     2.1390 H     1 <1>   0.0000 
 14 C        0.0511     1.3897     0.4268 C.ar  1 <1>  -0.1500 
 15 H        0.0891     2.4522     0.6568 H     1 <1>   0.1500 
 16 C       -1.1705     0.7183     0.4958 C.ar  1 <1>  -0.1500 
 17 H       -2.0557     1.2813     0.7783 H     1 <1>   0.1500 
 18 C       -1.2435    -0.6502     0.2079 C.ar  1 <1>   0.0825 
 19 O       -2.4632    -1.2634     0.2922 O.3   1 <1>  -0.5325 
 20 H       -3.1326    -0.6080     0.5473 H     1 <1>   0.4500 
 21 C       -0.0920    -1.3583    -0.1514 C.ar  1 <1>   0.0825 
 22 O        0.0343    -2.6855    -0.4613 O.3   1 <1>  -0.3625 
 23 C       -1.1325    -3.4928    -0.4611 C.3   1 <1>   0.2800 
 24 H1      -0.8320    -4.5055    -0.7483 H     1 <1>   0.0000 
 25 H2      -1.8565    -3.1484    -1.2062 H     1 <1>   0.0000 
 26 H3      -1.5703    -3.5589     0.5399 H     1 <1>   0.0000 
 27 C        1.1279    -0.6682    -0.2162 C.ar  1 <1>  -0.1500 
 28 H        2.0260    -1.2179    -0.4932 H     1 <1>   0.1500 
@<TRIPOS>BOND
  1   1   2  1   
  2   1  14  ar  
  3   1  27  ar  
  4   2   3  1   
  5   2   4  1   
  6   2   5  1   
  7   5   6  1   
  8   5  12  1   
  9   5  13  1   
 10   6   7  1   
 11   6  11  2   
 12   7   8  1   
 13   7   9  1   
 14   7  10  1   
 15  14  15  1   
 16  14  16  ar  
 17  16  17  1   
 18  16  18  ar  
 19  18  19  1   
 20  18  21  ar  
 21  19  20  1   
 22  21  22  1   
 23  21  27  ar  
 24  22  23  1   
 25  23  24  1   
 26  23  25  1   
 27  23  26  1   
 28  27  28  1   
@<TRIPOS>SUBSTRUCTURE
  1 <1>   0 RESIDUE 1 * * 1
# MOE 2007.09 (io_trps.svl 2007.09)
