@<TRIPOS>MOLECULE
J03_01
58 60 1 0 0 
SMALL
USER_CHARGES


@<TRIPOS>ATOM
  1 C        1.5632     0.3700     1.1700 C.ar  1 <1>  -0.1500 
  2 H        2.5289     0.8096     0.9314 H     1 <1>   0.1500 
  3 C        0.4816     1.1799     1.5169 C.ar  1 <1>   0.0825 
  4 O        0.6240     2.5401     1.5586 O.3   1 <1>  -0.5325 
  5 H        1.5196     2.7722     1.2661 H     1 <1>   0.4500 
  6 C       -0.7559     0.6097     1.8188 C.ar  1 <1>   0.0825 
  7 O       -1.8034     1.4205     2.1563 O.3   1 <1>  -0.5325 
  8 H       -2.5860     0.8728     2.3244 H     1 <1>   0.4500 
  9 C       -0.9226    -0.7736     1.7734 C.ar  1 <1>  -0.1500 
 10 H       -1.8766    -1.2369     2.0065 H     1 <1>   0.1500 
 11 C        0.1570    -1.5871     1.4190 C.ar  1 <1>  -0.1500 
 12 H        0.0225    -2.6663     1.3882 H     1 <1>   0.1500 
 13 C        1.4004    -1.0207     1.1106 C.ar  1 <1>   0.0284 
 14 C        2.5450    -1.8502     0.7372 C.2   1 <1>  -0.1784 
 15 H        3.4497    -1.7085     1.3216 H     1 <1>   0.1500 
 16 C        2.5041    -2.6909    -0.3042 C.2   1 <1>  -0.1784 
 17 H        1.5957    -2.8374    -0.8831 H     1 <1>   0.1500 
 18 C        3.6651    -3.4851    -0.7411 C.ar  1 <1>   0.0284 
 19 C        3.5157    -4.8757    -0.8447 C.ar  1 <1>   0.0825 
 20 O        2.3278    -5.4877    -0.5273 O.3   1 <1>  -0.5325 
 21 H        2.5065    -6.4386    -0.6749 H     1 <1>   0.4500 
 22 C        4.5650    -5.6890    -1.2699 C.ar  1 <1>   0.0825 
 23 O        4.3250    -7.0355    -1.3315 O.3   1 <1>  -0.5325 
 24 H        5.1379    -7.4699    -1.6428 H     1 <1>   0.4500 
 25 C        5.7884    -5.1390    -1.6171 C.ar  1 <1>  -0.1500 
 26 H        6.6132    -5.7573    -1.9574 H     1 <1>   0.1500 
 27 C        5.9549    -3.7534    -1.5385 C.ar  1 <1>  -0.1500 
 28 H        6.9116    -3.3328    -1.8431 H     1 <1>   0.1500 
 29 C        4.9112    -2.9118    -1.0979 C.ar  1 <1>   0.0284 
 30 C        5.1125    -1.4509    -1.0860 C.2   1 <1>  -0.1784 
 31 H        4.2629    -0.8552    -1.4154 H     1 <1>   0.1500 
 32 C        6.2274    -0.8480    -0.6596 C.2   1 <1>  -0.1356 
 33 C        6.2742     0.6211    -0.6138 C.2   1 <1>   0.7056 
 34 O        7.5769     1.0005    -0.5511 O.3   1 <1>  -0.4300 
 35 C        7.7958     2.4217    -0.5033 C.3   1 <1>   0.3410 
 36 C        9.2728     2.6672    -0.1689 C.3   1 <1>   0.1435 
 37 H2       7.1378     2.8653     0.2552 H     1 <1>   0.0000 
 38 H1       9.5545     3.7105    -0.3616 H     1 <1>   0.0000 
 39 H2       9.9135     2.0594    -0.8219 H     1 <1>   0.0000 
 40 C        9.5954     2.3494     1.2733 C.ar  1 <1>  -0.1435 
 41 O        5.2997     1.3587    -0.6230 O.2   1 <1>  -0.5700 
 42 H2       7.1010    -1.3860    -0.3137 H     1 <1>   0.1500 
 43 C        9.3581     3.3026     2.2752 C.ar  1 <1>  -0.1500 
 44 H        8.9520     4.2792     2.0189 H     1 <1>   0.1500 
 45 C        9.6346     3.0113     3.6128 C.ar  1 <1>  -0.1500 
 46 H        9.4409     3.7666     4.3684 H     1 <1>   0.1500 
 47 C       10.1471     1.7613     3.9543 C.ar  1 <1>   0.0825 
 48 O       10.4181     1.4612     5.2607 O.3   1 <1>  -0.5325 
 49 H       10.2225     2.2369     5.8088 H     1 <1>   0.4500 
 50 C       10.3857     0.8062     2.9658 C.ar  1 <1>   0.0825 
 51 O       10.8906    -0.4143     3.3198 O.3   1 <1>  -0.5325 
 52 H       11.0333    -0.9477     2.5228 H     1 <1>   0.4500 
 53 C       10.1108     1.0940     1.6285 C.ar  1 <1>  -0.1500 
 54 H       10.2909     0.3509     0.8565 H     1 <1>   0.1500 
 55 C        7.4966     3.0638    -1.8513 C.2   1 <1>   0.6590 
 56 O        7.3190     2.4920    -2.9149 O.2   1 <1>  -0.5700 
 57 O        7.4437     4.4115    -1.7738 O.3   1 <1>  -0.6500 
 58 H        7.2216     4.7054    -2.6825 H     1 <1>   0.5000 
@<TRIPOS>BOND
  1   1   2  1   
  2   1   3  ar  
  3   1  13  ar  
  4   3   4  1   
  5   3   6  ar  
  6   4   5  1   
  7   6   7  1   
  8   6   9  ar  
  9   7   8  1   
 10   9  10  1   
 11   9  11  ar  
 12  11  12  1   
 13  11  13  ar  
 14  13  14  1   
 15  14  15  1   
 16  14  16  2   
 17  16  17  1   
 18  16  18  1   
 19  18  19  ar  
 20  18  29  ar  
 21  19  20  1   
 22  19  22  ar  
 23  20  21  1   
 24  22  23  1   
 25  22  25  ar  
 26  23  24  1   
 27  25  26  1   
 28  25  27  ar  
 29  27  28  1   
 30  27  29  ar  
 31  29  30  1   
 32  30  31  1   
 33  30  32  2   
 34  32  33  1   
 35  32  42  1   
 36  33  34  1   
 37  33  41  2   
 38  34  35  1   
 39  35  36  1   
 40  35  37  1   
 41  35  55  1   
 42  36  38  1   
 43  36  39  1   
 44  36  40  1   
 45  40  43  ar  
 46  40  53  ar  
 47  43  44  1   
 48  43  45  ar  
 49  45  46  1   
 50  45  47  ar  
 51  47  48  1   
 52  47  50  ar  
 53  48  49  1   
 54  50  51  1   
 55  50  53  ar  
 56  51  52  1   
 57  53  54  1   
 58  55  56  2   
 59  55  57  1   
 60  57  58  1   
@<TRIPOS>SUBSTRUCTURE
  1 <1>   0 RESIDUE 1 * * 1
# MOE 2007.09 (io_trps.svl 2007.09)
