@<TRIPOS>MOLECULE
J03_16
44 44 1 0 0 
SMALL
USER_CHARGES


@<TRIPOS>ATOM
  1 C        1.2181     0.6371     0.4933 C.ar  1 <1>  -0.1435 
  2 C        2.5770     1.2482     0.2542 C.3   1 <1>   0.1435 
  3 H1       2.4751     2.3369     0.1552 H     1 <1>   0.0000 
  4 H2       2.9696     0.9015    -0.7108 H     1 <1>   0.0000 
  5 C        3.5520     0.9050     1.3790 C.3   1 <1>   0.0610 
  6 C        4.9167     1.5265     1.1509 C.2   1 <1>   0.4946 
  7 C        5.9504     1.2050     2.1679 C.2   1 <1>  -0.1356 
  8 H        5.6610     0.5561     2.9866 H     1 <1>   0.1500 
  9 C        7.1879     1.7045     2.0673 C.2   1 <1>  -0.2882 
 10 H        7.4466     2.3507     1.2295 H     1 <1>   0.1500 
 11 C        8.2850     1.4189     3.0523 C.3   1 <1>   0.1382 
 12 C        8.7582     2.6993     3.7437 C.3   1 <1>   0.0000 
 13 C        9.8853     2.4102     4.7375 C.3   1 <1>   0.0000 
 14 C       10.3600     3.6887     5.4282 C.3   1 <1>   0.0000 
 15 C       11.4802     3.4056     6.4166 C.3   1 <1>   0.0000 
 16 H1      11.8040     4.3334     6.8985 H     1 <1>   0.0000 
 17 H2      12.3462     2.9646     5.9126 H     1 <1>   0.0000 
 18 H3      11.1487     2.7146     7.1983 H     1 <1>   0.0000 
 19 H2       9.5232     4.1584     5.9583 H     1 <1>   0.0000 
 20 H3      10.7141     4.4071     4.6797 H     1 <1>   0.0000 
 21 H2      10.7269     1.9422     4.2124 H     1 <1>   0.0000 
 22 H3       9.5360     1.6937     5.4910 H     1 <1>   0.0000 
 23 H2       7.9172     3.1684     4.2702 H     1 <1>   0.0000 
 24 H3       9.1083     3.4197     2.9934 H     1 <1>   0.0000 
 25 H2       9.1211     0.9558     2.5146 H     1 <1>   0.0000 
 26 H3       7.9514     0.6945     3.8055 H     1 <1>   0.0000 
 27 O        5.1612     2.2540     0.1928 O.2   1 <1>  -0.5700 
 28 H2       3.6759    -0.1824     1.4494 H     1 <1>   0.0000 
 29 H3       3.1660     1.2709     2.3380 H     1 <1>   0.0000 
 30 C        0.2417     1.3460     1.2034 C.ar  1 <1>  -0.1500 
 31 H        0.4504     2.3470     1.5746 H     1 <1>   0.1500 
 32 C       -1.0089     0.7775     1.4409 C.ar  1 <1>  -0.1500 
 33 H       -1.7504     1.3477     1.9920 H     1 <1>   0.1500 
 34 C       -1.2843    -0.5072     0.9706 C.ar  1 <1>   0.0825 
 35 O       -2.5150    -1.0649     1.2038 O.3   1 <1>  -0.5325 
 36 H       -3.0620    -0.4266     1.6877 H     1 <1>   0.4500 
 37 C       -0.3217    -1.2410     0.2633 C.ar  1 <1>   0.0825 
 38 O       -0.6956    -2.4937    -0.1500 O.3   1 <1>  -0.3625 
 39 C        0.2669    -3.2646    -0.8559 C.3   1 <1>   0.2800 
 40 H1      -0.1911    -4.2278    -1.1008 H     1 <1>   0.0000 
 41 H2       1.1467    -3.4639    -0.2351 H     1 <1>   0.0000 
 42 H3       0.5467    -2.7813    -1.7977 H     1 <1>   0.0000 
 43 C        0.9299    -0.6589     0.0310 C.ar  1 <1>  -0.1500 
 44 H        1.7042    -1.1925    -0.5115 H     1 <1>   0.1500 
@<TRIPOS>BOND
  1   1   2  1   
  2   1  30  ar  
  3   1  43  ar  
  4   2   3  1   
  5   2   4  1   
  6   2   5  1   
  7   5   6  1   
  8   5  28  1   
  9   5  29  1   
 10   6   7  1   
 11   6  27  2   
 12   7   8  1   
 13   7   9  2   
 14   9  10  1   
 15   9  11  1   
 16  11  12  1   
 17  11  25  1   
 18  11  26  1   
 19  12  13  1   
 20  12  23  1   
 21  12  24  1   
 22  13  14  1   
 23  13  21  1   
 24  13  22  1   
 25  14  15  1   
 26  14  19  1   
 27  14  20  1   
 28  15  16  1   
 29  15  17  1   
 30  15  18  1   
 31  30  31  1   
 32  30  32  ar  
 33  32  33  1   
 34  32  34  ar  
 35  34  35  1   
 36  34  37  ar  
 37  35  36  1   
 38  37  38  1   
 39  37  43  ar  
 40  38  39  1   
 41  39  40  1   
 42  39  41  1   
 43  39  42  1   
 44  43  44  1   
@<TRIPOS>SUBSTRUCTURE
  1 <1>   0 RESIDUE 1 * * 1
# MOE 2007.09 (io_trps.svl 2007.09)
