@<TRIPOS>MOLECULE
J03_22
28 28 1 0 0 
SMALL
USER_CHARGES


@<TRIPOS>ATOM
  1 C        2.5435     1.4246    -0.6831 C.3   1 <1>   0.2817 
  2 C        3.4609     1.1770     0.4797 C.2   1 <1>  -0.2882 
  3 H        3.1105     1.4907     1.4608 H     1 <1>   0.1500 
  4 C        4.6691     0.6087     0.3780 C.2   1 <1>  -0.3000 
  5 H1       5.2847     0.4574     1.2590 H     1 <1>   0.1500 
  6 H2       5.0681     0.2800    -0.5762 H     1 <1>   0.1500 
  7 H2       2.3442     2.5013    -0.7530 H     1 <1>   0.0000 
  8 H3       3.0213     1.1513    -1.6328 H     1 <1>   0.0000 
  9 C        1.2406     0.6706    -0.5521 C.ar  1 <1>  -0.1435 
 10 C        0.1017     1.2971    -0.0152 C.ar  1 <1>  -0.1500 
 11 H        0.1878     2.3393     0.2785 H     1 <1>   0.1500 
 12 C       -1.1081     0.6028     0.1292 C.ar  1 <1>   0.0825 
 13 C       -1.1600    -0.7456    -0.2533 C.ar  1 <1>   0.0862 
 14 C       -0.0314    -1.3732    -0.7997 C.ar  1 <1>  -0.1500 
 15 O       -2.2654     1.1653     0.5968 O.3   1 <1>  -0.3625 
 16 C       -2.2378     2.5375     0.9701 C.3   1 <1>   0.2800 
 17 H1      -3.2405     2.8094     1.3138 H     1 <1>   0.0000 
 18 H2      -1.9959     3.1751     0.1136 H     1 <1>   0.0000 
 19 H3      -1.5449     2.7064     1.8009 H     1 <1>   0.0000 
 20 H       -0.0764    -2.4157    -1.1092 H     1 <1>   0.1500 
 21 C        1.1629    -0.6706    -0.9421 C.ar  1 <1>  -0.1500 
 22 H        2.0336    -1.1754    -1.3550 H     1 <1>   0.1500 
 23 C       -2.3805    -1.5754    -0.1257 C.2   1 <1>   0.4228 
 24 C       -3.2535    -1.4263     1.0908 C.3   1 <1>   0.0610 
 25 H1      -3.6408    -2.4115     1.3689 H     1 <1>   0.0000 
 26 H2      -4.0906    -0.7604     0.8683 H     1 <1>   0.0000 
 27 H3      -2.6849    -1.0516     1.9462 H     1 <1>   0.0000 
 28 O       -2.6401    -2.3953    -1.0044 O.2   1 <1>  -0.5700 
@<TRIPOS>BOND
  1   1   2  1   
  2   1   7  1   
  3   1   8  1   
  4   1   9  1   
  5   2   3  1   
  6   2   4  2   
  7   4   5  1   
  8   4   6  1   
  9   9  10  ar  
 10   9  21  ar  
 11  10  11  1   
 12  10  12  ar  
 13  12  13  ar  
 14  12  15  1   
 15  13  14  ar  
 16  13  23  1   
 17  14  20  1   
 18  14  21  ar  
 19  15  16  1   
 20  16  17  1   
 21  16  18  1   
 22  16  19  1   
 23  21  22  1   
 24  23  24  1   
 25  23  28  2   
 26  24  25  1   
 27  24  26  1   
 28  24  27  1   
@<TRIPOS>SUBSTRUCTURE
  1 <1>   0 RESIDUE 1 * * 1
# MOE 2007.09 (io_trps.svl 2007.09)
