@<TRIPOS>MOLECULE
J03_11
51 54 1 0 0 
SMALL
USER_CHARGES


@<TRIPOS>ATOM
  1 C        1.2165     0.8929    -0.5922 C.3   1 <1>   0.4235 
  2 O        1.0402     0.8198    -2.0254 O.3   1 <1>  -0.2800 
  3 O        1.5608    -0.4383    -2.5726 O.3   1 <1>  -0.1500 
  4 C        2.9210    -0.3517    -2.6472 C.2   1 <1>   0.6590 
  5 O        3.5436    -0.3363    -3.7014 O.2   1 <1>  -0.5700 
  6 C       -0.0547     1.5753    -0.0393 C.3   1 <1>   0.0000 
  7 H1      -0.3327     2.4311    -0.6643 H     1 <1>   0.0000 
  8 H2       0.1250     1.9427     0.9791 H     1 <1>   0.0000 
  9 C       -1.2789     0.6662     0.0018 C.3   1 <1>   0.0000 
 10 H1      -1.5880     0.4018    -1.0149 H     1 <1>   0.0000 
 11 H2      -2.1178     1.2179     0.4431 H     1 <1>   0.0000 
 12 C       -1.0137    -0.5801     0.8334 C.3   1 <1>   0.0000 
 13 H1      -1.9248    -1.1911     0.8665 H     1 <1>   0.0000 
 14 H2      -0.8152    -0.2734     1.8694 H     1 <1>   0.0000 
 15 C        0.1752    -1.4121     0.2998 C.3   1 <1>   0.0000 
 16 C       -0.2585    -2.1140    -1.0037 C.3   1 <1>   0.0000 
 17 H1      -0.5556    -1.4091    -1.7831 H     1 <1>   0.0000 
 18 H2      -1.1266    -2.7601    -0.8233 H     1 <1>   0.0000 
 19 H3       0.5276    -2.7566    -1.4105 H     1 <1>   0.0000 
 20 C        0.4703    -2.5234     1.3366 C.3   1 <1>   0.0000 
 21 H1       1.2583    -3.2014     0.9926 H     1 <1>   0.0000 
 22 H2      -0.4217    -3.1311     1.5286 H     1 <1>   0.0000 
 23 H3       0.7900    -2.0987     2.2949 H     1 <1>   0.0000 
 24 C        1.4330    -0.4791     0.1587 C.3   1 <1>   0.0000 
 25 H        1.6579    -0.1768     1.1973 H     1 <1>   0.0000 
 26 C        2.7206    -1.2173    -0.3072 C.3   1 <1>   0.0000 
 27 H1       2.4988    -2.1827    -0.7725 H     1 <1>   0.0000 
 28 H2       3.3206    -1.4493     0.5838 H     1 <1>   0.0000 
 29 C        3.5660    -0.3718    -1.2715 C.3   1 <1>   0.2045 
 30 H        4.5440    -0.8571    -1.3789 H     1 <1>   0.0000 
 31 C        3.7035     1.0306    -0.7352 C.ar  1 <1>  -0.1435 
 32 C        2.5078     1.7210    -0.4251 C.ar  1 <1>  -0.1435 
 33 C        4.9668     1.6255    -0.5778 C.ar  1 <1>  -0.1500 
 34 H        5.8592     1.0543    -0.8287 H     1 <1>   0.1500 
 35 C        5.0931     2.9366    -0.1000 C.ar  1 <1>  -0.1435 
 36 C        6.4797     3.5299     0.0742 C.3   1 <1>   0.1435 
 37 C        6.7259     4.7161    -0.8618 C.3   1 <1>   0.0000 
 38 H1       7.7701     5.0420    -0.7998 H     1 <1>   0.0000 
 39 H2       6.0986     5.5782    -0.6152 H     1 <1>   0.0000 
 40 H3       6.5227     4.4421    -1.9031 H     1 <1>   0.0000 
 41 H2       7.2145     2.7613    -0.2028 H     1 <1>   0.0000 
 42 C        6.7771     3.8982     1.5303 C.3   1 <1>   0.0000 
 43 H1       6.6055     3.0431     2.1935 H     1 <1>   0.0000 
 44 H2       6.1564     4.7264     1.8860 H     1 <1>   0.0000 
 45 H3       7.8237     4.2025     1.6415 H     1 <1>   0.0000 
 46 C        3.9117     3.6275     0.1717 C.ar  1 <1>   0.0825 
 47 O        3.9442     4.9238     0.6189 O.3   1 <1>  -0.5325 
 48 H        3.0021     5.1505     0.7603 H     1 <1>   0.4500 
 49 C        2.6454     3.0463    -0.0151 C.ar  1 <1>   0.0825 
 50 O        1.5984     3.9006     0.2065 O.3   1 <1>  -0.5325 
 51 H        1.0436     3.8655    -0.5934 H     1 <1>   0.4500 
@<TRIPOS>BOND
  1   1   2  1   
  2   1   6  1   
  3   1  24  1   
  4   1  32  1   
  5   2   3  1   
  6   3   4  1   
  7   4   5  2   
  8   4  29  1   
  9   6   7  1   
 10   6   8  1   
 11   6   9  1   
 12   9  10  1   
 13   9  11  1   
 14   9  12  1   
 15  12  13  1   
 16  12  14  1   
 17  12  15  1   
 18  15  16  1   
 19  15  20  1   
 20  15  24  1   
 21  16  17  1   
 22  16  18  1   
 23  16  19  1   
 24  20  21  1   
 25  20  22  1   
 26  20  23  1   
 27  24  25  1   
 28  24  26  1   
 29  26  27  1   
 30  26  28  1   
 31  26  29  1   
 32  29  30  1   
 33  29  31  1   
 34  31  32  ar  
 35  31  33  ar  
 36  32  49  ar  
 37  33  34  1   
 38  33  35  ar  
 39  35  36  1   
 40  35  46  ar  
 41  36  37  1   
 42  36  41  1   
 43  36  42  1   
 44  37  38  1   
 45  37  39  1   
 46  37  40  1   
 47  42  43  1   
 48  42  44  1   
 49  42  45  1   
 50  46  47  1   
 51  46  49  ar  
 52  47  48  1   
 53  49  50  1   
 54  50  51  1   
@<TRIPOS>SUBSTRUCTURE
  1 <1>   0 RESIDUE 1 * * 1
# MOE 2007.09 (io_trps.svl 2007.09)
