@<TRIPOS>MOLECULE
J03_30
18 17 1 0 0 
SMALL
USER_CHARGES


@<TRIPOS>ATOM
  1 C        1.7313     1.5381    -0.6623 C.2   1 <1>  -0.3000 
  2 H1       0.8558     1.5940    -0.0229 H     1 <1>   0.1500 
  3 H2       1.5667     1.4704    -1.7332 H     1 <1>   0.1500 
  4 C        2.9735     1.5559    -0.1614 C.2   1 <1>  -0.2882 
  5 H        3.8118     1.4761    -0.8492 H     1 <1>   0.1500 
  6 C        3.2959     1.6170     1.2989 C.3   1 <1>   0.3682 
  7 H1       4.0393     0.8564     1.5595 H     1 <1>   0.0000 
  8 H2       2.4039     1.4003     1.8973 H     1 <1>   0.0000 
  9 S        3.8877     3.2654     1.7963 S.3   1 <1>  -0.2300 
 10 S        5.7845     3.3683     1.0019 S.3   1 <1>  -0.2300 
 11 C        5.4988     4.2102    -0.5871 C.3   1 <1>   0.3682 
 12 C        6.8079     4.3676    -1.3014 C.2   1 <1>  -0.2882 
 13 H        7.3209     3.4558    -1.6011 H     1 <1>   0.1500 
 14 C        7.3641     5.5469    -1.6082 C.2   1 <1>  -0.3000 
 15 H1       8.3126     5.5916    -2.1347 H     1 <1>   0.1500 
 16 H2       6.8944     6.4881    -1.3405 H     1 <1>   0.1500 
 17 H2       5.0337     5.1836    -0.3987 H     1 <1>   0.0000 
 18 H3       4.8262     3.6191    -1.2142 H     1 <1>   0.0000 
@<TRIPOS>BOND
  1   1   2  1   
  2   1   3  1   
  3   1   4  2   
  4   4   5  1   
  5   4   6  1   
  6   6   7  1   
  7   6   8  1   
  8   6   9  1   
  9   9  10  1   
 10  10  11  1   
 11  11  12  1   
 12  11  17  1   
 13  11  18  1   
 14  12  13  1   
 15  12  14  2   
 16  14  15  1   
 17  14  16  1   
@<TRIPOS>SUBSTRUCTURE
  1 <1>   0 RESIDUE 1 * * 1
# MOE 2007.09 (io_trps.svl 2007.09)
