@<TRIPOS>MOLECULE
J03_03
48 47 1 0 0 
SMALL
USER_CHARGES


@<TRIPOS>ATOM
  1 C       -0.5506    -0.5744    -0.3880 C.2   1 <1>   0.7056 
  2 C        0.0740     0.5447     0.3511 C.2   1 <1>  -0.1238 
  3 C        0.7294     0.1875     1.4682 C.2   1 <1>  -0.1500 
  4 H        0.8013    -0.8663     1.7377 H     1 <1>   0.1500 
  5 C        1.4150     1.0675     2.3894 C.2   1 <1>  -0.1500 
  6 H        2.4498     0.8061     2.5973 H     1 <1>   0.1500 
  7 C        0.8353     2.1015     3.0182 C.2   1 <1>  -0.1500 
  8 H       -0.2059     2.3465     2.8176 H     1 <1>   0.1500 
  9 C        1.5111     2.9859     3.9616 C.2   1 <1>  -0.1382 
 10 C        1.2942     4.4491     3.6705 C.3   1 <1>   0.1382 
 11 H1       1.4821     4.6617     2.6115 H     1 <1>   0.0000 
 12 H2       1.9622     5.1018     4.2393 H     1 <1>   0.0000 
 13 H3       0.2623     4.7356     3.9007 H     1 <1>   0.0000 
 14 C        2.2281     2.4933     4.9903 C.2   1 <1>  -0.1500 
 15 H        2.3438     1.4161     5.0958 H     1 <1>   0.1500 
 16 C        2.9204     3.2419     6.0167 C.2   1 <1>  -0.1500 
 17 H        3.9770     3.0106     6.1279 H     1 <1>   0.1500 
 18 C        2.3262     4.1129     6.8452 C.2   1 <1>  -0.1500 
 19 H        1.2695     4.3446     6.7361 H     1 <1>   0.1500 
 20 C        3.0185     4.8603     7.8727 C.2   1 <1>  -0.1500 
 21 H        2.9024     5.9376     7.7681 H     1 <1>   0.1500 
 22 C        3.7342     4.3663     8.9015 C.2   1 <1>  -0.1382 
 23 C        3.9499     2.9026     9.1913 C.3   1 <1>   0.1382 
 24 H1       3.2820     2.2509     8.6213 H     1 <1>   0.0000 
 25 H2       3.7611     2.6890    10.2500 H     1 <1>   0.0000 
 26 H3       4.9818     2.6159     8.9616 H     1 <1>   0.0000 
 27 C        4.4075     5.2493     9.8479 C.2   1 <1>  -0.1500 
 28 H        5.4475     5.0036    10.0536 H     1 <1>   0.1500 
 29 C        3.8252     6.2817    10.4770 C.2   1 <1>  -0.1500 
 30 C        4.5071     7.1607    11.4030 C.2   1 <1>  -0.1500 
 31 C        5.1428     6.8109    12.5362 C.2   1 <1>  -0.1238 
 32 H        2.7909     6.5436    10.2677 H     1 <1>   0.1500 
 33 H        4.4424     8.2109    11.1188 H     1 <1>   0.1500 
 34 C        5.2520     5.4279    13.1052 C.3   1 <1>   0.1382 
 35 H1       4.6190     4.7016    12.5881 H     1 <1>   0.0000 
 36 H2       4.9375     5.4169    14.1547 H     1 <1>   0.0000 
 37 C        5.7597     7.9263    13.2961 C.2   1 <1>   0.7056 
 38 O        6.4824     7.4902    14.3475 O.3   1 <1>  -0.6500 
 39 H        6.8366     8.3051    14.7601 H     1 <1>   0.5000 
 40 O        5.6670     9.1180    13.0449 O.2   1 <1>  -0.5700 
 41 C       -0.1075     1.9149    -0.2206 C.3   1 <1>   0.1382 
 42 H1       0.1324     1.9309    -1.2887 H     1 <1>   0.0000 
 43 H2       0.5358     2.6600     0.2556 H     1 <1>   0.0000 
 44 H3      -1.1470     2.2370    -0.1011 H     1 <1>   0.0000 
 45 O       -1.4633    -1.2547     0.0517 O.2   1 <1>  -0.5700 
 46 O        0.0257    -0.7637    -1.5970 O.3   1 <1>  -0.6500 
 47 H        0.7992    -0.1913    -1.7675 H     1 <1>   0.5000 
 48 H3       6.2860     5.0725    13.0473 H     1 <1>   0.0000 
@<TRIPOS>BOND
  1   1   2  1   
  2   1  45  2   
  3   1  46  1   
  4   2   3  2   
  5   2  41  1   
  6   3   4  1   
  7   3   5  1   
  8   5   6  1   
  9   5   7  2   
 10   7   8  1   
 11   7   9  1   
 12   9  10  1   
 13   9  14  2   
 14  10  11  1   
 15  10  12  1   
 16  10  13  1   
 17  14  15  1   
 18  14  16  1   
 19  16  17  1   
 20  16  18  2   
 21  18  19  1   
 22  18  20  1   
 23  20  21  1   
 24  20  22  2   
 25  22  23  1   
 26  22  27  1   
 27  23  24  1   
 28  23  25  1   
 29  23  26  1   
 30  27  28  1   
 31  27  29  2   
 32  29  30  1   
 33  29  32  1   
 34  30  31  2   
 35  30  33  1   
 36  31  34  1   
 37  31  37  1   
 38  34  35  1   
 39  34  36  1   
 40  34  48  1   
 41  37  38  1   
 42  37  40  2   
 43  38  39  1   
 44  41  42  1   
 45  41  43  1   
 46  41  44  1   
 47  46  47  1   
@<TRIPOS>SUBSTRUCTURE
  1 <1>   0 RESIDUE 1 * * 1
# MOE 2007.09 (io_trps.svl 2007.09)
