@<TRIPOS>MOLECULE
J03_09
101 102 1 0 0 
SMALL
USER_CHARGES


@<TRIPOS>ATOM
  1 C        1.2910     0.3579     0.0739 C.2   1 <1>  -0.1382 
  2 C        2.4008     1.1933    -0.3823 C.2   1 <1>  -0.1500 
  3 H        2.1924     2.2580    -0.4080 H     1 <1>   0.1500 
  4 C        3.5769     0.6971    -0.8015 C.2   1 <1>  -0.1500 
  5 H        3.7025    -0.3852    -0.7775 H     1 <1>   0.1500 
  6 C        4.7218     1.4653    -1.3021 C.2   1 <1>  -0.1382 
  7 C        5.8233     0.7871    -1.6903 C.2   1 <1>  -0.1500 
  8 H        5.8140    -0.3000    -1.6151 H     1 <1>   0.1500 
  9 C        7.0600     1.3358    -2.2146 C.2   1 <1>  -0.1500 
 10 H        7.1285     2.4119    -2.3154 H     1 <1>   0.1500 
 11 C        8.1000     0.5633    -2.5719 C.2   1 <1>  -0.1500 
 12 H        7.9993    -0.5156    -2.4587 H     1 <1>   0.1500 
 13 C        9.3876     1.0214    -3.1106 C.2   1 <1>  -0.1382 
 14 C       10.3184     0.0907    -3.4129 C.2   1 <1>  -0.1500 
 15 H       10.0762    -0.9585    -3.2455 H     1 <1>   0.1500 
 16 C       11.6467     0.3122    -3.9504 C.2   1 <1>  -0.1500 
 17 H       11.9587     1.3331    -4.1431 H     1 <1>   0.1500 
 18 C       12.4984    -0.6927    -4.2156 C.2   1 <1>  -0.1500 
 19 H       12.1870    -1.7138    -4.0228 H     1 <1>   0.1500 
 20 C       13.8269    -0.4700    -4.7518 C.2   1 <1>  -0.1500 
 21 H       14.0687     0.5795    -4.9181 H     1 <1>   0.1500 
 22 C       14.7591    -1.3996    -5.0535 C.2   1 <1>  -0.1382 
 23 C       14.5758    -2.8876    -4.8815 C.3   1 <1>   0.1382 
 24 H1      13.5986    -3.1699    -4.4849 H     1 <1>   0.0000 
 25 H2      15.3219    -3.2880    -4.1859 H     1 <1>   0.0000 
 26 H3      14.6807    -3.4007    -5.8441 H     1 <1>   0.0000 
 27 C       16.0470    -0.9388    -5.5887 C.2   1 <1>  -0.1500 
 28 H       16.1447     0.1401    -5.7053 H     1 <1>   0.1500 
 29 C       17.0911    -1.7077    -5.9407 C.2   1 <1>  -0.1500 
 30 H       17.0316    -2.7843    -5.8369 H     1 <1>   0.1500 
 31 C       18.3269    -1.1542    -6.4573 C.2   1 <1>  -0.1500 
 32 H       18.3551    -0.0663    -6.5124 H     1 <1>   0.1500 
 33 C       19.4214    -1.8341    -6.8529 C.2   1 <1>  -0.2764 
 34 C       19.5634    -3.3342    -6.8732 C.3   1 <1>   0.1382 
 35 H1      18.6260    -3.8662    -6.6983 H     1 <1>   0.0000 
 36 H2      20.2768    -3.6596    -6.1098 H     1 <1>   0.0000 
 37 H3      19.9308    -3.6645    -7.8510 H     1 <1>   0.0000 
 38 C       20.6336    -1.0732    -7.3651 C.3   1 <1>   0.1382 
 39 C       21.7934    -1.0809    -6.3664 C.3   1 <1>   0.0610 
 40 C       23.0021    -0.3131    -6.8892 C.2   1 <1>   0.4480 
 41 O       22.9238     0.3602    -7.9189 O.2   1 <1>  -0.5700 
 42 C       24.3452    -0.4779    -6.1448 C.3   1 <1>   0.0610 
 43 C       25.0364    -1.7007    -6.7846 C.3   1 <1>   0.0000 
 44 H1      25.1483    -1.5743    -7.8674 H     1 <1>   0.0000 
 45 H2      24.4418    -2.6100    -6.6375 H     1 <1>   0.0000 
 46 H3      26.0276    -1.8908    -6.3617 H     1 <1>   0.0000 
 47 H2      22.1050    -2.1108    -6.1654 H     1 <1>   0.0000 
 48 H3      21.4710    -0.6191    -5.4275 H     1 <1>   0.0000 
 49 H2      20.3617    -0.0343    -7.5948 H     1 <1>   0.0000 
 50 H3      20.9544    -1.5073    -8.3210 H     1 <1>   0.0000 
 51 C        9.5720     2.5091    -3.2858 C.3   1 <1>   0.1382 
 52 H1       8.8218     2.9098    -3.9770 H     1 <1>   0.0000 
 53 H2      10.5466     2.7894    -3.6900 H     1 <1>   0.0000 
 54 H3       9.4747     3.0236    -2.3232 H     1 <1>   0.0000 
 55 C        4.5751     2.9666    -1.3430 C.3   1 <1>   0.1382 
 56 H1       3.7471     3.2530    -2.0012 H     1 <1>   0.0000 
 57 H2       5.4605     3.4877    -1.7124 H     1 <1>   0.0000 
 58 H3       4.3794     3.3604    -0.3392 H     1 <1>   0.0000 
 59 C        0.0460     0.3656    -0.8414 C.3   1 <1>   0.1382 
 60 C        0.4163     0.2268    -2.3376 C.3   1 <1>   0.0000 
 61 H1       0.9764     1.0936    -2.7064 H     1 <1>   0.0000 
 62 H2      -0.4841     0.1431    -2.9579 H     1 <1>   0.0000 
 63 H3       1.0256    -0.6671    -2.5155 H     1 <1>   0.0000 
 64 C       -0.7203     1.6945    -0.6537 C.3   1 <1>   0.0000 
 65 H1      -0.9566     1.8857     0.3987 H     1 <1>   0.0000 
 66 H2      -1.6642     1.6875    -1.2110 H     1 <1>   0.0000 
 67 H3      -0.1395     2.5504    -1.0165 H     1 <1>   0.0000 
 68 C       -0.8945    -0.8209    -0.5096 C.3   1 <1>   0.0000 
 69 H1      -0.4787    -1.7591    -0.9058 H     1 <1>   0.0000 
 70 H2      -1.8624    -0.7053    -1.0158 H     1 <1>   0.0000 
 71 C       -1.1178    -0.9817     0.9864 C.3   1 <1>   0.2800 
 72 O       -1.9937    -2.0876     1.1973 O.3   1 <1>  -0.6800 
 73 H       -2.1570    -2.1557     2.1537 H     1 <1>   0.4000 
 74 H2      -1.6109    -0.0930     1.3955 H     1 <1>   0.0000 
 75 C        0.2106    -1.2291     1.6979 C.3   1 <1>   0.1382 
 76 H1       0.5013    -2.2825     1.5877 H     1 <1>   0.0000 
 77 H2       0.0468    -1.0791     2.7730 H     1 <1>   0.0000 
 78 C        1.3558    -0.3613     1.2216 C.2   1 <1>  -0.2764 
 79 C        2.5358    -0.3856     2.1653 C.3   1 <1>   0.1382 
 80 H1       3.3104     0.3467     1.9266 H     1 <1>   0.0000 
 81 H2       2.9965    -1.3789     2.1617 H     1 <1>   0.0000 
 82 H3       2.2061    -0.1631     3.1862 H     1 <1>   0.0000 
 83 C       25.2329     0.8183    -6.1551 C.3   1 <1>   0.0000 
 84 C       24.4333     2.1009    -5.8179 C.3   1 <1>   0.0000 
 85 H1      23.8487     2.0022    -4.8984 H     1 <1>   0.0000 
 86 H2      23.7434     2.3732    -6.6226 H     1 <1>   0.0000 
 87 H3      25.1091     2.9534    -5.6792 H     1 <1>   0.0000 
 88 C       25.9984     1.0672    -7.4648 C.3   1 <1>   0.0000 
 89 H1      25.3177     1.2108    -8.3094 H     1 <1>   0.0000 
 90 H2      26.6713     0.2403    -7.7135 H     1 <1>   0.0000 
 91 H3      26.6196     1.9672    -7.3863 H     1 <1>   0.0000 
 92 C       26.2354     0.5488    -5.0054 C.3   1 <1>   0.0000 
 93 H1      26.6420     1.4731    -4.5796 H     1 <1>   0.0000 
 94 H2      27.0874    -0.0336    -5.3782 H     1 <1>   0.0000 
 95 C       25.4807    -0.2922    -3.9752 C.3   1 <1>   0.2800 
 96 O       25.2216     0.4806    -2.8128 O.3   1 <1>  -0.6800 
 97 H       24.7536    -0.0895    -2.1788 H     1 <1>   0.4000 
 98 H2      26.0830    -1.1580    -3.6790 H     1 <1>   0.0000 
 99 C       24.1661    -0.7195    -4.6309 C.3   1 <1>   0.0000 
100 H1      23.3311    -0.1381    -4.2221 H     1 <1>   0.0000 
101 H2      23.9470    -1.7693    -4.4024 H     1 <1>   0.0000 
@<TRIPOS>BOND
  1   1   2  1   
  2   1  59  1   
  3   1  78  2   
  4   2   3  1   
  5   2   4  2   
  6   4   5  1   
  7   4   6  1   
  8   6   7  2   
  9   6  55  1   
 10   7   8  1   
 11   7   9  1   
 12   9  10  1   
 13   9  11  2   
 14  11  12  1   
 15  11  13  1   
 16  13  14  2   
 17  13  51  1   
 18  14  15  1   
 19  14  16  1   
 20  16  17  1   
 21  16  18  2   
 22  18  19  1   
 23  18  20  1   
 24  20  21  1   
 25  20  22  2   
 26  22  23  1   
 27  22  27  1   
 28  23  24  1   
 29  23  25  1   
 30  23  26  1   
 31  27  28  1   
 32  27  29  2   
 33  29  30  1   
 34  29  31  1   
 35  31  32  1   
 36  31  33  2   
 37  33  34  1   
 38  33  38  1   
 39  34  35  1   
 40  34  36  1   
 41  34  37  1   
 42  38  39  1   
 43  38  49  1   
 44  38  50  1   
 45  39  40  1   
 46  39  47  1   
 47  39  48  1   
 48  40  41  2   
 49  40  42  1   
 50  42  43  1   
 51  42  83  1   
 52  42  99  1   
 53  43  44  1   
 54  43  45  1   
 55  43  46  1   
 56  51  52  1   
 57  51  53  1   
 58  51  54  1   
 59  55  56  1   
 60  55  57  1   
 61  55  58  1   
 62  59  60  1   
 63  59  64  1   
 64  59  68  1   
 65  60  61  1   
 66  60  62  1   
 67  60  63  1   
 68  64  65  1   
 69  64  66  1   
 70  64  67  1   
 71  68  69  1   
 72  68  70  1   
 73  68  71  1   
 74  71  72  1   
 75  71  74  1   
 76  71  75  1   
 77  72  73  1   
 78  75  76  1   
 79  75  77  1   
 80  75  78  1   
 81  78  79  1   
 82  79  80  1   
 83  79  81  1   
 84  79  82  1   
 85  83  84  1   
 86  83  88  1   
 87  83  92  1   
 88  84  85  1   
 89  84  86  1   
 90  84  87  1   
 91  88  89  1   
 92  88  90  1   
 93  88  91  1   
 94  92  93  1   
 95  92  94  1   
 96  92  95  1   
 97  95  96  1   
 98  95  98  1   
 99  95  99  1   
100  96  97  1   
101  99 100  1   
102  99 101  1   
@<TRIPOS>SUBSTRUCTURE
  1 <1>   0 RESIDUE 1 * * 1
# MOE 2007.09 (io_trps.svl 2007.09)
