@<TRIPOS>MOLECULE
J03_06
40 42 1 0 0 
SMALL
USER_CHARGES


@<TRIPOS>ATOM
  1 C        0.5503     0.6413     0.1902 C.ar  1 <1>   0.0825 
  2 O       -0.6522     1.1428    -0.1990 O.3   1 <1>  -0.3625 
  3 C       -1.1295     0.0781    -1.0476 C.3   1 <1>   0.5600 
  4 H1      -1.3027     0.4810    -2.0522 H     1 <1>   0.0000 
  5 H2      -2.0815    -0.2894    -0.6473 H     1 <1>   0.0000 
  6 O       -0.2119    -1.0310    -1.1469 O.3   1 <1>  -0.3625 
  7 C        0.8022    -0.5967    -0.3506 C.ar  1 <1>   0.0825 
  8 C        1.9664    -1.2879    -0.0833 C.ar  1 <1>  -0.1500 
  9 H        2.1178    -2.2719    -0.5128 H     1 <1>   0.1500 
 10 C        2.9160    -0.6868     0.7572 C.ar  1 <1>   0.0284 
 11 C        4.1719    -1.3578     1.1178 C.2   1 <1>  -0.1784 
 12 H        4.5210    -1.1928     2.1344 H     1 <1>   0.1500 
 13 C        4.8818    -2.1149     0.2694 C.2   1 <1>  -0.1500 
 14 H        4.5447    -2.2573    -0.7546 H     1 <1>   0.1500 
 15 C        6.1183    -2.7653     0.6451 C.2   1 <1>  -0.1500 
 16 H        6.4729    -2.6190     1.6642 H     1 <1>   0.1500 
 17 C        6.8219    -3.5254    -0.2036 C.2   1 <1>  -0.1356 
 18 C        8.0599    -4.1884     0.2664 C.2   1 <1>   0.6156 
 19 N        9.0421    -4.4485    -0.6888 N.am  1 <1>  -0.6602 
 20 O        8.1745    -4.4962     1.4506 O.2   1 <1>  -0.5700 
 21 H2       6.4814    -3.7164    -1.2121 H     1 <1>   0.1500 
 22 C        2.6393     0.5809     1.3206 C.ar  1 <1>  -0.1500 
 23 H        3.3610     1.0531     1.9849 H     1 <1>   0.1500 
 24 C        1.4481     1.2577     1.0328 C.ar  1 <1>  -0.1500 
 25 H        1.2379     2.2322     1.4590 H     1 <1>   0.1500 
 26 C       10.1988    -5.2598    -0.3107 C.3   1 <1>   0.3001 
 27 H1      10.1267    -5.5994     0.7273 H     1 <1>   0.0000 
 28 H2      11.0883    -4.6231    -0.3863 H     1 <1>   0.0000 
 29 C       10.3261    -6.4702    -1.2347 C.3   1 <1>   0.0000 
 30 H1       9.4790    -7.1467    -1.0648 H     1 <1>   0.0000 
 31 H2      11.2388    -7.0274    -0.9966 H     1 <1>   0.0000 
 32 C       10.3410    -6.0514    -2.7056 C.3   1 <1>   0.0000 
 33 H1      10.3306    -6.9404    -3.3459 H     1 <1>   0.0000 
 34 H2      11.2712    -5.5110    -2.9204 H     1 <1>   0.0000 
 35 C        9.1456    -5.1569    -3.0392 C.3   1 <1>   0.0000 
 36 H1       8.2234    -5.7476    -2.9737 H     1 <1>   0.0000 
 37 H2       9.2289    -4.7949    -4.0697 H     1 <1>   0.0000 
 38 C        9.0626    -3.9752    -2.0768 C.3   1 <1>   0.3001 
 39 H1       8.2018    -3.3500    -2.3181 H     1 <1>   0.0000 
 40 H2       9.9491    -3.3380    -2.1856 H     1 <1>   0.0000 
@<TRIPOS>BOND
  1   1   2  1   
  2   1   7  ar  
  3   1  24  ar  
  4   2   3  1   
  5   3   4  1   
  6   3   5  1   
  7   3   6  1   
  8   6   7  1   
  9   7   8  ar  
 10   8   9  1   
 11   8  10  ar  
 12  10  11  1   
 13  10  22  ar  
 14  11  12  1   
 15  11  13  2   
 16  13  14  1   
 17  13  15  1   
 18  15  16  1   
 19  15  17  2   
 20  17  18  1   
 21  17  21  1   
 22  18  19  am  
 23  18  20  2   
 24  19  26  1   
 25  19  38  1   
 26  22  23  1   
 27  22  24  ar  
 28  24  25  1   
 29  26  27  1   
 30  26  28  1   
 31  26  29  1   
 32  29  30  1   
 33  29  31  1   
 34  29  32  1   
 35  32  33  1   
 36  32  34  1   
 37  32  35  1   
 38  35  36  1   
 39  35  37  1   
 40  35  38  1   
 41  38  39  1   
 42  38  40  1   
@<TRIPOS>SUBSTRUCTURE
  1 <1>   0 RESIDUE 1 * * 1
# MOE 2007.09 (io_trps.svl 2007.09)
