@<TRIPOS>MOLECULE
J03_29
22 21 1 0 0 
SMALL
USER_CHARGES


@<TRIPOS>ATOM
  1 H        1.0385     1.0300    -0.3001 H     1 <1>   0.0000 
  2 C        2.0119     0.9866    -0.7991 C.3   1 <1>   0.0000 
  3 H1       1.8516     1.1484    -1.8697 H     1 <1>   0.0000 
  4 H2       2.4230    -0.0191    -0.6651 H     1 <1>   0.0000 
  5 C        2.9588     2.0413    -0.2429 C.3   1 <1>   0.0000 
  6 C        3.2061     1.8254     1.2468 C.3   1 <1>   0.2300 
  7 H1       3.7206     0.8748     1.4250 H     1 <1>   0.0000 
  8 H2       2.2467     1.7706     1.7733 H     1 <1>   0.0000 
  9 S        4.1537     3.1713     2.0402 S.3   1 <1>  -0.2300 
 10 S        6.0124     3.0492     1.1685 S.3   1 <1>  -0.2300 
 11 C        5.8919     4.2731    -0.1770 C.3   1 <1>   0.2300 
 12 C        7.1986     4.3016    -0.9670 C.3   1 <1>   0.0000 
 13 H1       7.4075     3.3136    -1.3952 H     1 <1>   0.0000 
 14 H2       8.0377     4.5599    -0.3095 H     1 <1>   0.0000 
 15 C        7.1339     5.3189    -2.0971 C.3   1 <1>   0.0000 
 16 H1       6.3284     5.0764    -2.7977 H     1 <1>   0.0000 
 17 H2       8.0765     5.3277    -2.6534 H     1 <1>   0.0000 
 18 H3       6.9597     6.3272    -1.7080 H     1 <1>   0.0000 
 19 H2       5.6975     5.2592     0.2580 H     1 <1>   0.0000 
 20 H3       5.0627     4.0154    -0.8418 H     1 <1>   0.0000 
 21 H2       2.5249     3.0324    -0.4205 H     1 <1>   0.0000 
 22 H3       3.8985     1.9829    -0.8017 H     1 <1>   0.0000 
@<TRIPOS>BOND
  1   1   2  1   
  2   2   3  1   
  3   2   4  1   
  4   2   5  1   
  5   5   6  1   
  6   5  21  1   
  7   5  22  1   
  8   6   7  1   
  9   6   8  1   
 10   6   9  1   
 11   9  10  1   
 12  10  11  1   
 13  11  12  1   
 14  11  19  1   
 15  11  20  1   
 16  12  13  1   
 17  12  14  1   
 18  12  15  1   
 19  15  16  1   
 20  15  17  1   
 21  15  18  1   
@<TRIPOS>SUBSTRUCTURE
  1 <1>   0 RESIDUE 1 * * 1
# MOE 2007.09 (io_trps.svl 2007.09)
