@<TRIPOS>MOLECULE
J04_04
52 58 1 0 0 
SMALL
USER_CHARGES


@<TRIPOS>ATOM
  1 C        0.8809     0.5093     0.1611 C.ar  1 <1>  -0.1435 
  2 C       -0.3915     1.0555     0.1742 C.ar  1 <1>  -0.1500 
  3 H       -0.5434     2.1274     0.2603 H     1 <1>   0.1500 
  4 C       -1.4957     0.1941     0.1147 C.ar  1 <1>  -0.1500 
  5 H       -2.4822     0.6470     0.1367 H     1 <1>   0.1500 
  6 C       -1.3345    -1.2040     0.0451 C.ar  1 <1>   0.0825 
  7 O       -2.3565    -2.1182    -0.0059 O.3   1 <1>  -0.3625 
  8 H1      -4.3686    -2.4636     0.0290 H     1 <1>   0.0000 
  9 H2      -3.9057    -0.9743    -0.8021 H     1 <1>   0.0000 
 10 H3      -3.8574    -1.0795     1.0020 H     1 <1>   0.0000 
 11 C       -0.0523    -1.7672     0.0027 C.ar  1 <1>  -0.1500 
 12 H        0.0692    -2.8408    -0.0978 H     1 <1>   0.1500 
 13 C        1.0424    -0.9225     0.0452 C.ar  1 <1>   0.1170 
 14 N        2.3902    -1.2934    -0.1737 N.am  1 <1>  -0.4771 
 15 C        3.0653    -0.0740    -0.3301 C.3   1 <1>   0.3001 
 16 H        2.8906     0.0939    -1.4146 H     1 <1>   0.0000 
 17 C        2.1798     1.2407     0.4071 C.3   1 <1>   0.1435 
 18 C       -3.6834    -1.6110     0.0605 C.3   1 <1>   0.2800 
 19 C        3.0370    -2.5068    -0.3914 C.2   1 <1>   0.5690 
 20 O        2.4740    -3.5994    -0.2912 O.2   1 <1>  -0.5700 
 21 C        4.5970    -2.4725    -0.7770 C.3   1 <1>   0.0610 
 22 H1       4.7401    -3.1825    -1.6005 H     1 <1>   0.0000 
 23 H2       5.1360    -2.8883     0.0843 H     1 <1>   0.0000 
 24 C        5.2474    -1.1141    -1.1846 C.3   1 <1>   0.2800 
 25 H        5.0455    -0.8972    -2.2398 H     1 <1>   0.0000 
 26 C        4.6174    -0.1848    -0.2315 C.3   1 <1>   0.0000 
 27 H        4.9471    -0.5183     0.7702 H     1 <1>   0.0000 
 28 C        4.9865     1.1989    -0.5694 C.3   1 <1>   0.1382 
 29 H        4.6227     1.3285    -1.5983 H     1 <1>   0.0000 
 30 C        4.3243     1.6935     0.6057 C.3   1 <1>   0.0000 
 31 H1       4.9534     2.2339     1.3534 H     1 <1>   0.0000 
 32 H2       4.0891     0.9760     1.4223 H     1 <1>   0.0000 
 33 C        3.0931     2.3270    -0.1306 C.3   1 <1>   0.5500 
 34 O        2.9059     2.4531    -1.5123 O.3   1 <1>  -0.6800 
 35 H        2.8561     3.4200    -1.6227 H     1 <1>   0.4000 
 36 N        3.4691     3.6286     0.3240 N.3   1 <1>  -0.8100 
 37 C        5.1483     3.7352    -0.0910 C.3   1 <1>   0.4082 
 38 H1       5.1463     4.3626    -0.9884 H     1 <1>   0.0000 
 39 H2       5.6569     4.2318     0.7414 H     1 <1>   0.0000 
 40 C        2.9710     3.4382     1.7323 C.3   1 <1>   0.2700 
 41 H1       2.2530     4.2367     1.9521 H     1 <1>   0.0000 
 42 H2       3.7584     3.4911     2.4928 H     1 <1>   0.0000 
 43 C        2.1410     1.9793     1.8326 C.3   1 <1>   0.0000 
 44 H1       1.1136     2.2497     2.1056 H     1 <1>   0.0000 
 45 H2       2.5318     1.3602     2.6487 H     1 <1>   0.0000 
 46 O        6.6687    -0.9298    -0.9023 O.3   1 <1>  -0.5600 
 47 C        7.3639     0.2596    -1.4416 C.3   1 <1>   0.4182 
 48 H1       7.2128     0.2744    -2.5276 H     1 <1>   0.0000 
 49 H2       8.4249     0.0378    -1.2768 H     1 <1>   0.0000 
 50 C        7.1620     1.7453    -0.8864 C.2   1 <1>  -0.2882 
 51 H        8.0275     2.3982    -0.9521 H     1 <1>   0.1500 
 52 C        5.9654     2.2534    -0.5332 C.2   1 <1>  -0.2764 
@<TRIPOS>BOND
  1   1   2  ar  
  2   1  13  ar  
  3   1  17  1   
  4   2   3  1   
  5   2   4  ar  
  6   4   5  1   
  7   4   6  ar  
  8   6   7  1   
  9   6  11  ar  
 10   7  18  1   
 11   8  18  1   
 12   9  18  1   
 13  10  18  1   
 14  11  12  1   
 15  11  13  ar  
 16  13  14  1   
 17  14  15  1   
 18  14  19  am  
 19  15  16  1   
 20  15  17  1   
 21  15  26  1   
 22  17  33  1   
 23  17  43  1   
 24  19  20  2   
 25  19  21  1   
 26  21  22  1   
 27  21  23  1   
 28  21  24  1   
 29  24  25  1   
 30  24  26  1   
 31  24  46  1   
 32  26  27  1   
 33  26  28  1   
 34  28  29  1   
 35  28  30  1   
 36  28  52  1   
 37  30  31  1   
 38  30  32  1   
 39  30  33  1   
 40  33  34  1   
 41  33  36  1   
 42  34  35  1   
 43  36  37  1   
 44  36  40  1   
 45  37  38  1   
 46  37  39  1   
 47  37  52  1   
 48  40  41  1   
 49  40  42  1   
 50  40  43  1   
 51  43  44  1   
 52  43  45  1   
 53  46  47  1   
 54  47  48  1   
 55  47  49  1   
 56  47  50  1   
 57  50  51  1   
 58  50  52  2   
@<TRIPOS>SUBSTRUCTURE
  1 <1>   0 RESIDUE 1 * * 1
# MOE 2007.09 (io_trps.svl 2007.09)
