@<TRIPOS>MOLECULE
J04_05
44 49 1 0 0 
SMALL
USER_CHARGES


@<TRIPOS>ATOM
  1 C        1.3970     0.8490    -0.1030 C.ar  1 <1>  -0.1440 
  2 C        0.1240     1.6970    -0.2880 C.3   1 <1>   0.4140 
  3 C        0.1140     2.7330    -1.4640 C.3   1 <1>   0.4240 
  4 H        0.3260     2.2630    -2.4310 H     1 <1>   0.0000 
  5 H2       0.0960     2.3210     0.6200 H     1 <1>   0.0000 
  6 N       -1.1000     0.8480    -0.2660 N.3   1 <1>  -0.8100 
  7 C       -1.2070    -0.0770    -1.3980 C.3   1 <1>   0.2700 
  8 H1      -1.2170     0.4600    -2.3510 H     1 <1>   0.0000 
  9 H2      -2.1570    -0.6210    -1.3450 H     1 <1>   0.0000 
 10 H3      -0.4010    -0.8160    -1.4450 H     1 <1>   0.0000 
 11 C       -1.1740     0.1490     1.0240 C.3   1 <1>   0.2700 
 12 H1      -2.1140    -0.4130     1.1010 H     1 <1>   0.0000 
 13 H2      -1.2310     0.9000     1.8230 H     1 <1>   0.0000 
 14 C        0.0100    -0.7830     1.3030 C.3   1 <1>   0.1440 
 15 H1      -0.2030    -1.7640     0.8570 H     1 <1>   0.0000 
 16 H2       0.1040    -0.9260     2.3860 H     1 <1>   0.0000 
 17 C        1.3300    -0.3020     0.7420 C.ar  1 <1>  -0.1440 
 18 C        2.4760    -1.0750     1.0030 C.ar  1 <1>  -0.1500 
 19 H        2.4320    -1.9570     1.6320 H     1 <1>   0.1500 
 20 C        3.6620    -0.6940     0.4210 C.ar  1 <1>   0.0820 
 21 C        3.7380     0.4030    -0.3980 C.ar  1 <1>   0.0820 
 22 C        2.6360     1.1890    -0.6770 C.ar  1 <1>  -0.1500 
 23 H        2.7710     2.0450    -1.3260 H     1 <1>   0.1500 
 24 O        4.8580    -1.3260     0.5600 O.3   1 <1>  -0.3620 
 25 C        5.7010    -0.4940    -0.2620 C.3   1 <1>   0.5600 
 26 H1       6.1450    -1.1130    -1.0500 H     1 <1>   0.0000 
 27 H2       6.5070    -0.0870     0.3600 H     1 <1>   0.0000 
 28 O        4.9960     0.6030    -0.8790 O.3   1 <1>  -0.3620 
 29 O        1.1590     3.7300    -1.2310 O.3   1 <1>  -0.4300 
 30 C        0.6940     5.0070    -1.1030 C.2   1 <1>   0.6340 
 31 O        1.3640     5.9940    -0.8580 O.2   1 <1>  -0.5700 
 32 C       -0.7200     4.9350    -1.3320 C.ar  1 <1>   0.0860 
 33 C       -1.0900     3.6170    -1.5550 C.ar  1 <1>  -0.1440 
 34 C       -1.6500     5.9370    -1.3640 C.ar  1 <1>   0.0820 
 35 C       -2.9620     5.6240    -1.6300 C.ar  1 <1>   0.0820 
 36 C       -3.3790     4.3250    -1.8710 C.ar  1 <1>  -0.1500 
 37 H       -4.4200     4.1070    -2.0810 H     1 <1>   0.1500 
 38 C       -2.4220     3.3020    -1.8370 C.ar  1 <1>  -0.1500 
 39 H       -2.7320     2.2800    -2.0240 H     1 <1>   0.1500 
 40 O       -1.4640     7.2650    -1.1680 O.3   1 <1>  -0.3620 
 41 C       -2.8080     7.7610    -1.3340 C.3   1 <1>   0.5600 
 42 H1      -2.8160     8.4890    -2.1520 H     1 <1>   0.0000 
 43 H2      -3.1120     8.2660    -0.4100 H     1 <1>   0.0000 
 44 O       -3.7660     6.7230    -1.6300 O.3   1 <1>  -0.3620 
@<TRIPOS>BOND
  1   1   2  1   
  2   1  17  ar  
  3   1  22  ar  
  4   2   3  1   
  5   2   5  1   
  6   2   6  1   
  7   3   4  1   
  8   3  29  1   
  9   3  33  1   
 10   6   7  1   
 11   6  11  1   
 12   7   8  1   
 13   7   9  1   
 14   7  10  1   
 15  11  12  1   
 16  11  13  1   
 17  11  14  1   
 18  14  15  1   
 19  14  16  1   
 20  14  17  1   
 21  17  18  ar  
 22  18  19  1   
 23  18  20  ar  
 24  20  21  ar  
 25  20  24  1   
 26  21  22  ar  
 27  21  28  1   
 28  22  23  1   
 29  24  25  1   
 30  25  26  1   
 31  25  27  1   
 32  25  28  1   
 33  29  30  1   
 34  30  31  2   
 35  30  32  1   
 36  32  33  ar  
 37  32  34  ar  
 38  33  38  ar  
 39  34  35  ar  
 40  34  40  1   
 41  35  36  ar  
 42  35  44  1   
 43  36  37  1   
 44  36  38  ar  
 45  38  39  1   
 46  40  41  1   
 47  41  42  1   
 48  41  43  1   
 49  41  44  1   
@<TRIPOS>SUBSTRUCTURE
  1 <1>   0 RESIDUE 1 * * 1
# MOE 2007.09 (io_trps.svl 2007.09)
