@<TRIPOS>MOLECULE
J06_02
30 32 1 0 0 
SMALL
USER_CHARGES


@<TRIPOS>ATOM
  1 C        1.2925     0.6730    -0.0755 C.ar  1 <1>   0.0862 
  2 C        0.1173     1.4064    -0.2877 C.ar  1 <1>  -0.1500 
  3 H        0.1490     2.4914    -0.3693 H     1 <1>   0.1500 
  4 C       -1.1031     0.7481    -0.4035 C.ar  1 <1>  -0.1500 
  5 H       -2.0152     1.3161    -0.5713 H     1 <1>   0.1500 
  6 C       -1.1502    -0.6410    -0.3142 C.ar  1 <1>  -0.1500 
  7 H       -2.1103    -1.1392    -0.4210 H     1 <1>   0.1500 
  8 C        0.0240    -1.3706    -0.0973 C.ar  1 <1>   0.0825 
  9 O       -0.0596    -2.7340    -0.0474 O.3   1 <1>  -0.5325 
 10 H       -0.9877    -3.0156    -0.0842 H     1 <1>   0.4500 
 11 C        1.2579    -0.7174     0.0359 C.ar  1 <1>   0.0862 
 12 C        2.5179    -1.4423     0.3242 C.2   1 <1>   0.3976 
 13 O        2.4871    -2.5760     0.7859 O.2   1 <1>  -0.5700 
 14 C        3.8127    -0.7507     0.1223 C.ar  1 <1>   0.0862 
 15 C        3.8232     0.6386     0.0105 C.ar  1 <1>   0.0862 
 16 C        2.5662     1.3981     0.0121 C.2   1 <1>   0.3976 
 17 O        2.5817     2.6233     0.0548 O.2   1 <1>  -0.5700 
 18 C        5.0340    -1.4346     0.0677 C.ar  1 <1>   0.0825 
 19 O        5.0782    -2.8000     0.1179 O.3   1 <1>  -0.5325 
 20 H        5.9998    -3.1011     0.1682 H     1 <1>   0.4500 
 21 C        6.2397    -0.7361    -0.0731 C.ar  1 <1>  -0.1500 
 22 H        7.1852    -1.2725    -0.1242 H     1 <1>   0.1500 
 23 C        6.2522     0.6617    -0.1525 C.ar  1 <1>  -0.1435 
 24 C        7.5324     1.4314    -0.3435 C.3   1 <1>   0.4235 
 25 O        8.6284     0.7624     0.2673 O.3   1 <1>  -0.6800 
 26 H        9.4109     1.3240     0.1339 H     1 <1>   0.4000 
 27 H2       7.4531     2.4242     0.1119 H     1 <1>   0.0000 
 28 H3       7.7381     1.5406    -1.4133 H     1 <1>   0.0000 
 29 C        5.0297     1.3416    -0.1240 C.ar  1 <1>  -0.1500 
 30 H        5.0145     2.4276    -0.2123 H     1 <1>   0.1500 
@<TRIPOS>BOND
  1   1   2  ar  
  2   1  11  ar  
  3   1  16  1   
  4   2   3  1   
  5   2   4  ar  
  6   4   5  1   
  7   4   6  ar  
  8   6   7  1   
  9   6   8  ar  
 10   8   9  1   
 11   8  11  ar  
 12   9  10  1   
 13  11  12  1   
 14  12  13  2   
 15  12  14  1   
 16  14  15  ar  
 17  14  18  ar  
 18  15  16  1   
 19  15  29  ar  
 20  16  17  2   
 21  18  19  1   
 22  18  21  ar  
 23  19  20  1   
 24  21  22  1   
 25  21  23  ar  
 26  23  24  1   
 27  23  29  ar  
 28  24  25  1   
 29  24  27  1   
 30  24  28  1   
 31  25  26  1   
 32  29  30  1   
@<TRIPOS>SUBSTRUCTURE
  1 <1>   0 RESIDUE 1 * * 1
# MOE 2007.09 (io_trps.svl 2007.09)
