@<TRIPOS>MOLECULE
J06_06
41 43 1 0 0 
SMALL
USER_CHARGES


@<TRIPOS>ATOM
  1 C        1.1279     0.7640     0.2221 C.ar  1 <1>   0.0862 
  2 C        0.0692     1.2767     0.9805 C.ar  1 <1>   0.0825 
  3 O       -0.0254     2.6172     1.2250 O.3   1 <1>  -0.5325 
  4 H       -0.8511     2.8095     1.6988 H     1 <1>   0.4500 
  5 C       -0.8906     0.4209     1.5250 C.ar  1 <1>  -0.1500 
  6 H       -1.7161     0.8014     2.1185 H     1 <1>   0.1500 
  7 C       -0.7912    -0.9496     1.3108 C.ar  1 <1>   0.0825 
  8 O       -1.7564    -1.7456     1.8556 O.3   1 <1>  -0.5325 
  9 H       -1.5701    -2.6717     1.6284 H     1 <1>   0.4500 
 10 C        0.2617    -1.4839     0.5751 C.ar  1 <1>  -0.1500 
 11 H        0.3425    -2.5561     0.4199 H     1 <1>   0.1500 
 12 C        1.2343    -0.6274     0.0418 C.ar  1 <1>  -0.1435 
 13 C        2.3991    -1.1748    -0.7333 C.3   1 <1>   0.1435 
 14 H1       2.1580    -1.1343    -1.8023 H     1 <1>   0.0000 
 15 H2       2.5965    -2.2162    -0.4556 H     1 <1>   0.0000 
 16 C        3.6060    -0.3009    -0.4005 C.3   1 <1>   0.2800 
 17 C        4.8558    -0.7614    -1.1831 C.3   1 <1>   0.1435 
 18 C        6.2115    -0.3297    -0.6431 C.ar  1 <1>  -0.1435 
 19 H2       4.7775    -0.4093    -2.2181 H     1 <1>   0.0000 
 20 H3       4.8449    -1.8573    -1.1760 H     1 <1>   0.0000 
 21 H2       3.8067    -0.3171     0.6795 H     1 <1>   0.0000 
 22 O        3.2982     1.0604    -0.7873 O.3   1 <1>  -0.4300 
 23 C        2.1146     1.6448    -0.4333 C.2   1 <1>   0.6338 
 24 O        1.8904     2.8195    -0.6981 O.2   1 <1>  -0.5700 
 25 C        6.3202     0.8255     0.1569 C.ar  1 <1>  -0.1500 
 26 H        5.4607     1.4630     0.3501 H     1 <1>   0.1500 
 27 C        7.5295     1.1940     0.7480 C.ar  1 <1>   0.0825 
 28 O        7.5327     2.3156     1.5250 O.3   1 <1>  -0.5325 
 29 H        8.4307     2.4573     1.8677 H     1 <1>   0.4500 
 30 C        8.6731     0.4338     0.5676 C.ar  1 <1>  -0.1500 
 31 H        9.6141     0.6924     1.0405 H     1 <1>   0.1500 
 32 C        8.5977    -0.6913    -0.2436 C.ar  1 <1>   0.0825 
 33 O        9.7504    -1.4314    -0.3698 O.3   1 <1>  -0.5325 
 34 H        9.4950    -2.2927    -0.7846 H     1 <1>   0.4500 
 35 C        7.3959    -1.0569    -0.8919 C.ar  1 <1>   0.0862 
 36 C        7.5029    -2.2172    -1.8159 C.2   1 <1>   0.4228 
 37 C        6.7492    -2.2359    -3.1145 C.3   1 <1>   0.0610 
 38 H1       5.8340    -2.8225    -3.0133 H     1 <1>   0.0000 
 39 H2       7.3826    -2.6975    -3.8789 H     1 <1>   0.0000 
 40 H3       6.5265    -1.2234    -3.4589 H     1 <1>   0.0000 
 41 O        8.3082    -3.1035    -1.5214 O.2   1 <1>  -0.5700 
@<TRIPOS>BOND
  1   1   2  ar  
  2   1  12  ar  
  3   1  23  1   
  4   2   3  1   
  5   2   5  ar  
  6   3   4  1   
  7   5   6  1   
  8   5   7  ar  
  9   7   8  1   
 10   7  10  ar  
 11   8   9  1   
 12  10  11  1   
 13  10  12  ar  
 14  12  13  1   
 15  13  14  1   
 16  13  15  1   
 17  13  16  1   
 18  16  17  1   
 19  16  21  1   
 20  16  22  1   
 21  17  18  1   
 22  17  19  1   
 23  17  20  1   
 24  18  25  ar  
 25  18  35  ar  
 26  22  23  1   
 27  23  24  2   
 28  25  26  1   
 29  25  27  ar  
 30  27  28  1   
 31  27  30  ar  
 32  28  29  1   
 33  30  31  1   
 34  30  32  ar  
 35  32  33  1   
 36  32  35  ar  
 37  33  34  1   
 38  35  36  1   
 39  36  37  1   
 40  36  41  2   
 41  37  38  1   
 42  37  39  1   
 43  37  40  1   
@<TRIPOS>SUBSTRUCTURE
  1 <1>   0 RESIDUE 1 * * 1
# MOE 2007.09 (io_trps.svl 2007.09)
