@<TRIPOS>MOLECULE
J08_60
42 45 1 0 0 
SMALL
USER_CHARGES


@<TRIPOS>ATOM
  1 C        1.4552     0.7966    -0.2001 C.ar  1 <1>  -0.1435 
  2 C        0.1868     1.5184     0.2125 C.3   1 <1>   0.1435 
  3 H1       0.0123     2.3723    -0.4503 H     1 <1>   0.0000 
  4 H2       0.3240     1.8912     1.2352 H     1 <1>   0.0000 
  5 C       -1.0844     0.6821     0.1574 C.3   1 <1>   0.0000 
  6 H1      -1.4285     0.5861    -0.8786 H     1 <1>   0.0000 
  7 H2      -1.8839     1.1989     0.7012 H     1 <1>   0.0000 
  8 C       -0.8387    -0.6835     0.7657 C.3   1 <1>   0.0000 
  9 C        0.2277    -1.4787    -0.0231 C.3   1 <1>   0.1435 
 10 C       -0.3652    -1.9810    -1.3581 C.3   1 <1>   0.0000 
 11 H1      -0.5854    -1.1575    -2.0461 H     1 <1>   0.0000 
 12 H2      -1.2943    -2.5385    -1.1928 H     1 <1>   0.0000 
 13 H3       0.3278    -2.6523    -1.8790 H     1 <1>   0.0000 
 14 H1      -1.7822    -1.2426     0.8041 H     1 <1>   0.0000 
 15 H2      -0.5170    -0.5490     1.8080 H     1 <1>   0.0000 
 16 C        0.5812    -2.7100     0.8462 C.3   1 <1>   0.0000 
 17 H1       1.2218    -3.4257     0.3204 H     1 <1>   0.0000 
 18 H2      -0.3239    -3.2553     1.1393 H     1 <1>   0.0000 
 19 H3       1.1029    -2.4112     1.7631 H     1 <1>   0.0000 
 20 C        1.4670    -0.6165    -0.3230 C.ar  1 <1>  -0.1435 
 21 C        2.6457    -1.2466    -0.7635 C.ar  1 <1>  -0.1500 
 22 H        2.6709    -2.3236    -0.9205 H     1 <1>   0.1500 
 23 C        3.8056    -0.5258    -1.0313 C.ar  1 <1>  -0.1500 
 24 H        4.6781    -1.0708    -1.3905 H     1 <1>   0.1500 
 25 C        3.8389     0.8609    -0.8522 C.ar  1 <1>  -0.1435 
 26 C        2.6585     1.5178    -0.4249 C.ar  1 <1>   0.0862 
 27 C        5.1349     1.5854    -1.1681 C.2   1 <1>   0.4265 
 28 C        5.0537     3.1109    -1.1969 C.2   1 <1>   0.0610 
 29 C        4.1510     3.5132    -0.0611 C.2   1 <1>   0.5090 
 30 O        4.4980     4.0785     0.9636 O.2   1 <1>  -0.5700 
 31 C        2.7573     2.9741    -0.1758 C.2   1 <1>   0.4838 
 32 O        1.8290     3.7549    -0.0371 O.2   1 <1>  -0.5700 
 33 O        6.1752     1.2371    -0.2566 O.3   1 <1>  -0.1333 
 34 C        6.9831     2.3870    -0.0646 C.3   1 <1>   0.2830 
 35 H1       8.0306     2.1121    -0.2247 H     1 <1>   0.0000 
 36 H2       6.8787     2.7292     0.9720 H     1 <1>   0.0000 
 37 C        6.5289     3.4385    -1.0696 C.3   1 <1>   0.0000 
 38 H        7.0069     3.2213    -2.0367 H     1 <1>   0.0000 
 39 C        6.8935     4.8655    -0.6993 C.3   1 <1>   0.0000 
 40 H1       6.4202     5.5759    -1.3846 H     1 <1>   0.0000 
 41 H2       7.9780     5.0051    -0.7668 H     1 <1>   0.0000 
 42 H3       6.6028     5.1272     0.3213 H     1 <1>   0.0000 
@<TRIPOS>BOND
  1   1   2  1   
  2   1  20  ar  
  3   1  26  ar  
  4   2   3  1   
  5   2   4  1   
  6   2   5  1   
  7   5   6  1   
  8   5   7  1   
  9   5   8  1   
 10   8   9  1   
 11   8  14  1   
 12   8  15  1   
 13   9  10  1   
 14   9  16  1   
 15   9  20  1   
 16  10  11  1   
 17  10  12  1   
 18  10  13  1   
 19  16  17  1   
 20  16  18  1   
 21  16  19  1   
 22  20  21  ar  
 23  21  22  1   
 24  21  23  ar  
 25  23  24  1   
 26  23  25  ar  
 27  25  26  ar  
 28  25  27  1   
 29  26  31  1   
 30  27  28  2   
 31  27  33  1   
 32  28  29  1   
 33  28  37  1   
 34  29  30  2   
 35  29  31  1   
 36  31  32  2   
 37  33  34  1   
 38  34  35  1   
 39  34  36  1   
 40  34  37  1   
 41  37  38  1   
 42  37  39  1   
 43  39  40  1   
 44  39  41  1   
 45  39  42  1   
@<TRIPOS>SUBSTRUCTURE
  1 ****  26 GROUP 4 **** **** 0

# MOE 2015.10 (io_trps.svl 2015.10)
