@<TRIPOS>MOLECULE
J08_33
30 33 1 0 0 
SMALL
USER_CHARGES


@<TRIPOS>ATOM
  1 C        0.7567     0.6411     0.0876 C.ar  1 <1>   0.0862 
  2 C       -0.4090     1.3145     0.3739 C.ar  1 <1>  -0.1500 
  3 H       -0.4674     2.3959     0.3236 H     1 <1>   0.1500 
  4 C       -1.5120     0.5380     0.7320 C.ar  1 <1>  -0.1500 
  5 H       -2.4575     1.0206     0.9681 H     1 <1>   0.1500 
  6 C       -1.4165    -0.8672     0.7918 C.ar  1 <1>  -0.1500 
  7 H       -2.2907    -1.4502     1.0736 H     1 <1>   0.1500 
  8 C       -0.2158    -1.5240     0.4946 C.ar  1 <1>  -0.1500 
  9 H       -0.1486    -2.6051     0.5423 H     1 <1>   0.1500 
 10 C        0.8700    -0.7538     0.1417 C.ar  1 <1>   0.1000 
 11 N        2.1508    -1.1505    -0.1940 N.pl3 1 <1>  -0.6000 
 12 H        2.5201    -2.0954    -0.2396 H     1 <1>   0.4000 
 13 C        4.2297    -0.0741    -0.8456 C.2   1 <1>  -0.0140 
 14 C        2.9481    -0.0531    -0.4861 C.2   1 <1>   0.1144 
 15 C        2.0707     1.1520    -0.3136 C.2   1 <1>   0.4694 
 16 O        2.3298     2.3345    -0.4593 O.2   1 <1>  -0.5700 
 17 C        4.8954    -1.4225    -0.9496 C.2   1 <1>   0.6156 
 18 N        6.1923    -1.1645    -1.3306 N.am  1 <1>  -0.5470 
 19 H        6.8838    -1.8846    -1.4807 H     1 <1>   0.3700 
 20 C        6.4095     0.2026    -1.4763 C.ar  1 <1>   0.1170 
 21 C        5.2373     0.9263    -1.1911 C.ar  1 <1>   0.0284 
 22 O        4.3851    -2.5131    -0.7386 O.2   1 <1>  -0.5700 
 23 C        7.6001     0.7983    -1.8485 C.ar  1 <1>  -0.1500 
 24 H        8.4882     0.2154    -2.0625 H     1 <1>   0.1500 
 25 C        7.6172     2.1884    -1.9394 C.ar  1 <1>  -0.1500 
 26 H        8.5307     2.7027    -2.2285 H     1 <1>   0.1500 
 27 C        6.4595     2.9327    -1.6595 C.ar  1 <1>  -0.1500 
 28 H        6.4889     4.0177    -1.7350 H     1 <1>   0.1500 
 29 C        5.2636     2.3024    -1.2837 C.ar  1 <1>  -0.1500 
 30 H        4.3967     2.9166    -1.0777 H     1 <1>   0.1500 
@<TRIPOS>BOND
  1   1   2  ar  
  2   1  10  ar  
  3   1  15  1   
  4   2   3  1   
  5   2   4  ar  
  6   4   5  1   
  7   4   6  ar  
  8   6   7  1   
  9   6   8  ar  
 10   8   9  1   
 11   8  10  ar  
 12  10  11  1   
 13  11  12  1   
 14  11  14  1   
 15  13  14  2   
 16  13  17  1   
 17  13  21  1   
 18  14  15  1   
 19  15  16  2   
 20  17  18  am  
 21  17  22  2   
 22  18  19  1   
 23  18  20  1   
 24  20  21  ar  
 25  20  23  ar  
 26  21  29  ar  
 27  23  24  1   
 28  23  25  ar  
 29  25  26  1   
 30  25  27  ar  
 31  27  28  1   
 32  27  29  ar  
 33  29  30  1   
@<TRIPOS>SUBSTRUCTURE
  1 <1>   0 RESIDUE 1 * * 1
# MOE 2007.09 (io_trps.svl 2007.09)
