@<TRIPOS>MOLECULE
J08_27
147 156 1 0 0 
SMALL
USER_CHARGES


@<TRIPOS>ATOM
  1 C        2.8982     0.6649    -0.2417 C.3   1 <1>   0.0000 
  2 C        2.7163     1.2849     1.1673 C.3   1 <1>   0.0000 
  3 H1       1.7944     1.8614     1.2611 H     1 <1>   0.0000 
  4 H2       3.5310     1.9564     1.4484 H     1 <1>   0.0000 
  5 H3       2.6917     0.5295     1.9557 H     1 <1>   0.0000 
  6 C        3.5575    -0.7412    -0.0839 C.3   1 <1>   0.0000 
  7 H1       4.4738    -0.6814     0.5119 H     1 <1>   0.0000 
  8 H2       3.8597    -1.1178    -1.0704 H     1 <1>   0.0000 
  9 C        2.6551    -1.7875     0.5615 C.3   1 <1>   0.0000 
 10 H1       2.4798    -1.5666     1.6203 H     1 <1>   0.0000 
 11 H2       3.1844    -2.7491     0.5715 H     1 <1>   0.0000 
 12 C        1.3248    -1.9520    -0.1715 C.3   1 <1>   0.2800 
 13 O        0.5323    -2.8733     0.5864 O.3   1 <1>  -0.5600 
 14 C        0.6442    -4.2212     0.1298 C.3   1 <1>   0.5600 
 15 H        1.6747    -4.4222    -0.1932 H     1 <1>   0.0000 
 16 H1       0.7283    -5.8900    -1.9484 H     1 <1>   0.0000 
 17 O       -0.5952    -8.0507    -0.9344 O.3   1 <1>  -0.6800 
 18 H       -0.5922    -8.5885    -0.1115 H     1 <1>   0.4000 
 19 H2       1.5317    -2.3651    -1.1698 H     1 <1>   0.0000 
 20 C        0.5523    -0.6095    -0.3637 C.3   1 <1>   0.0000 
 21 C       -0.1055    -0.1491     0.9498 C.3   1 <1>   0.0000 
 22 H1      -0.9211    -0.8211     1.2433 H     1 <1>   0.0000 
 23 H2      -0.5406     0.8508     0.8575 H     1 <1>   0.0000 
 24 H3       0.5970    -0.1426     1.7819 H     1 <1>   0.0000 
 25 C       -0.6183    -0.8966    -1.3457 C.3   1 <1>   0.0000 
 26 H1      -1.2906    -0.0385    -1.4446 H     1 <1>   0.0000 
 27 H2      -1.2352    -1.7340    -1.0003 H     1 <1>   0.0000 
 28 H3      -0.2461    -1.1530    -2.3438 H     1 <1>   0.0000 
 29 C        1.5324     0.4500    -0.9972 C.3   1 <1>   0.0000 
 30 H        1.8100     0.0034    -1.9674 H     1 <1>   0.0000 
 31 H1       0.6350     2.3888    -0.4691 H     1 <1>   0.0000 
 32 H2      -0.0571     1.6493    -1.8901 H     1 <1>   0.0000 
 33 C        0.8859     1.8025    -1.3566 C.3   1 <1>   0.0000 
 34 C        1.7958     2.6031    -2.2926 C.3   1 <1>   0.0000 
 35 H1       1.2895     3.5387    -2.5575 H     1 <1>   0.0000 
 36 H2       1.8608     2.0200    -3.2166 H     1 <1>   0.0000 
 37 C        3.2180     2.8914    -1.7337 C.3   1 <1>   0.0000 
 38 C        3.0615     3.9531    -0.6004 C.3   1 <1>   0.0000 
 39 H1       4.0246     4.2664    -0.1865 H     1 <1>   0.0000 
 40 H2       2.4484     3.6069     0.2290 H     1 <1>   0.0000 
 41 H3       2.5493     4.8528    -0.9583 H     1 <1>   0.0000 
 42 C        3.8274     1.5610    -1.1686 C.3   1 <1>   0.0610 
 43 H        4.0403     0.9199    -2.0373 H     1 <1>   0.0000 
 44 C        4.2046     3.4774    -2.8961 C.3   1 <1>   0.1382 
 45 C        3.8395     4.9704    -3.1622 C.3   1 <1>   0.0000 
 46 H1       4.1612     5.6187    -2.3394 H     1 <1>   0.0000 
 47 H2       2.7614     5.0982    -3.3034 H     1 <1>   0.0000 
 48 H3       4.3017     5.3794    -4.0644 H     1 <1>   0.0000 
 49 C        5.6966     3.3569    -2.4937 C.2   1 <1>  -0.2764 
 50 C        6.1186     2.6883    -1.4098 C.2   1 <1>  -0.1356 
 51 H        7.1594     2.6035    -1.1248 H     1 <1>   0.1500 
 52 C        5.2111     1.8658    -0.5894 C.2   1 <1>   0.4946 
 53 O        5.6379     1.4057     0.4630 O.2   1 <1>  -0.5700 
 54 C        4.0737     2.7144    -4.2550 C.3   1 <1>   0.0000 
 55 H1       3.0838     2.8931    -4.6921 H     1 <1>   0.0000 
 56 H2       4.1485     1.6330    -4.0953 H     1 <1>   0.0000 
 57 C        5.1040     3.1183    -5.3306 C.3   1 <1>   0.0000 
 58 H1       4.8433     4.1121    -5.7144 H     1 <1>   0.0000 
 59 H2       4.9949     2.4428    -6.1896 H     1 <1>   0.0000 
 60 C        6.5768     3.1180    -4.8405 C.3   1 <1>   0.0000 
 61 C        7.0287     1.6439    -4.6708 C.3   1 <1>   0.0000 
 62 H1       8.0626     1.5576    -4.3258 H     1 <1>   0.0000 
 63 H2       6.9643     1.1088    -5.6257 H     1 <1>   0.0000 
 64 H3       6.4071     1.0966    -3.9559 H     1 <1>   0.0000 
 65 C        6.6835     3.9331    -3.5155 C.3   1 <1>   0.1382 
 66 H        6.3511     4.9570    -3.7118 H     1 <1>   0.0000 
 67 C        7.4609     3.7947    -5.9183 C.3   1 <1>   0.0000 
 68 H1       7.0418     4.7753    -6.1774 H     1 <1>   0.0000 
 69 H2       7.4389     3.2068    -6.8451 H     1 <1>   0.0000 
 70 C        8.9188     3.9837    -5.4878 C.3   1 <1>   0.0000 
 71 H1       9.4486     4.5348    -6.2752 H     1 <1>   0.0000 
 72 H2       9.4070     3.0016    -5.4517 H     1 <1>   0.0000 
 73 C        9.0835     4.7109    -4.1345 C.3   1 <1>   0.0610 
 74 C        8.7379     6.2074    -4.2868 C.3   1 <1>   0.0000 
 75 H1       8.9001     6.7503    -3.3487 H     1 <1>   0.0000 
 76 H2       7.6966     6.3708    -4.5780 H     1 <1>   0.0000 
 77 H3       9.3447     6.6900    -5.0587 H     1 <1>   0.0000 
 78 C        8.1532     4.0769    -3.0604 C.3   1 <1>   0.0000 
 79 H1       8.1960     4.6851    -2.1458 H     1 <1>   0.0000 
 80 H2       8.5449     3.0932    -2.7753 H     1 <1>   0.0000 
 81 O       -0.2513    -4.3774    -0.9656 O.3   1 <1>  -0.5600 
 82 C       -0.2624    -5.6839    -1.5326 C.3   1 <1>   0.3410 
 83 C       -0.6763    -6.7001    -0.4681 C.3   1 <1>   0.2800 
 84 H2      -1.7173    -6.5337    -0.1608 H     1 <1>   0.0000 
 85 C        0.2356    -6.5977     0.7476 C.3   1 <1>   0.2800 
 86 H        1.2515    -6.9198     0.4850 H     1 <1>   0.0000 
 87 O       -0.2378    -7.5926     1.6673 O.3   1 <1>  -0.6800 
 88 H       -0.7028    -7.1284     2.4113 H     1 <1>   0.4000 
 89 C        0.2724    -5.1637     1.2941 C.3   1 <1>   0.2800 
 90 H       -0.7056    -4.8704     1.6922 H     1 <1>   0.0000 
 91 C       -1.2928    -5.6793    -2.6690 C.2   1 <1>   0.4946 
 92 C       -1.4685    -6.9405    -3.4192 C.2   1 <1>   0.0288 
 93 O       -2.0027    -4.7106    -2.9314 O.2   1 <1>  -0.5700 
 94 C        0.8625    -4.7964     3.6276 C.3   1 <1>   0.5600 
 95 H        1.7897    -4.6127     4.1846 H     1 <1>   0.0000 
 96 O        1.2985    -5.0819     2.2943 O.3   1 <1>  -0.5600 
 97 C        0.1440    -5.9951     4.2875 C.3   1 <1>   0.2800 
 98 H1       0.7649    -6.8959     4.2460 H     1 <1>   0.0000 
 99 O       -1.0817    -6.3178     3.5772 O.3   1 <1>  -0.6800 
100 H       -1.7412    -5.6309     3.8688 H     1 <1>   0.4000 
101 C       -0.2130    -5.6331     5.7323 C.3   1 <1>   0.2800 
102 H1       0.6980    -5.4833     6.3225 H     1 <1>   0.0000 
103 O       -0.9432    -6.6983     6.3341 O.3   1 <1>  -0.6800 
104 H       -1.7436    -6.8237     5.7873 H     1 <1>   0.4000 
105 C       -1.0628    -4.3603     5.7369 C.3   1 <1>   0.2800 
106 H1      -1.3677    -4.0966     6.7558 H     1 <1>   0.0000 
107 O       -2.2691    -4.6404     4.9841 O.3   1 <1>  -0.6800 
108 H       -2.7809    -3.7951     5.0097 H     1 <1>   0.4000 
109 C       -0.2588    -3.2386     5.0534 C.3   1 <1>   0.3410 
110 H1       0.6419    -3.0748     5.6492 H     1 <1>   0.0000 
111 O        0.0837    -3.5950     3.7106 O.3   1 <1>  -0.5600 
112 C       -1.0937    -1.9629     5.0074 C.2   1 <1>   0.4946 
113 O       -2.3163    -2.0215     5.1809 O.2   1 <1>  -0.5700 
114 C       -0.4354    -0.6570     4.7288 C.2   1 <1>   0.0288 
115 C       10.5357     4.4734    -3.6486 C.2   1 <1>   0.4946 
116 O       10.9274     3.3606    -3.2989 O.2   1 <1>  -0.5700 
117 C       11.4823     5.6035    -3.5620 C.2   1 <1>   0.0288 
118 C       11.8637     5.9979    -2.3451 C.2   1 <1>  -0.0410 
119 H       11.5117     5.5219    -1.4340 H     1 <1>   0.1500 
120 N       12.7238     7.0485    -2.1773 N.am  1 <1>  -0.5390 
121 H       12.9959     7.3384    -1.2439 H     1 <1>   0.3700 
122 C       13.2625     7.7629    -3.2191 C.2   1 <1>   0.6900 
123 O       14.0227     8.7093    -3.0431 O.2   1 <1>  -0.5700 
124 N       12.8899     7.3399    -4.4724 N.am  1 <1>  -0.4900 
125 H       13.2767     7.8393    -5.2601 H     1 <1>   0.3700 
126 C       12.0371     6.2917    -4.7407 C.2   1 <1>   0.6156 
127 O       11.7501     5.9512    -5.8822 O.2   1 <1>  -0.5700 
128 C       -2.7148    -7.3962    -3.5660 C.2   1 <1>  -0.0410 
129 H       -3.5901    -6.8320    -3.2555 H     1 <1>   0.1500 
130 N       -2.9561    -8.6483    -4.0573 N.am  1 <1>  -0.5390 
131 H       -3.9095    -8.9775    -4.1524 H     1 <1>   0.3700 
132 C       -1.9645    -9.5246    -4.4206 C.2   1 <1>   0.6900 
133 O       -2.2055   -10.6523    -4.8393 O.2   1 <1>  -0.5700 
134 N       -0.6846    -9.0482    -4.2920 N.am  1 <1>  -0.4900 
135 H        0.0677    -9.6674    -4.5532 H     1 <1>   0.3700 
136 C       -0.3441    -7.7923    -3.8485 C.2   1 <1>   0.6156 
137 O        0.8168    -7.3975    -3.8389 O.2   1 <1>  -0.5700 
138 C        1.0181    -0.3840     4.8266 C.2   1 <1>   0.6156 
139 O        1.8337    -1.2358     5.1612 O.2   1 <1>  -0.5700 
140 N        1.4155     0.9047     4.5464 N.am  1 <1>  -0.4900 
141 H        2.4019     1.1114     4.6136 H     1 <1>   0.3700 
142 C        0.5876     1.9363     4.1833 C.2   1 <1>   0.6900 
143 O        1.0047     3.0658     3.9509 O.2   1 <1>  -0.5700 
144 N       -0.7403     1.6069     4.0990 N.am  1 <1>  -0.5390 
145 H       -1.3723     2.3497     3.8207 H     1 <1>   0.3700 
146 C       -1.2303     0.3584     4.3679 C.2   1 <1>  -0.0410 
147 H       -2.3075     0.2548     4.2651 H     1 <1>   0.1500 
@<TRIPOS>BOND
  1   1   2  1   
  2   1   6  1   
  3   1  29  1   
  4   1  42  1   
  5   2   3  1   
  6   2   4  1   
  7   2   5  1   
  8   6   7  1   
  9   6   8  1   
 10   6   9  1   
 11   9  10  1   
 12   9  11  1   
 13   9  12  1   
 14  12  13  1   
 15  12  19  1   
 16  12  20  1   
 17  13  14  1   
 18  14  15  1   
 19  14  81  1   
 20  14  89  1   
 21  16  82  1   
 22  17  18  1   
 23  17  83  1   
 24  20  21  1   
 25  20  25  1   
 26  20  29  1   
 27  21  22  1   
 28  21  23  1   
 29  21  24  1   
 30  25  26  1   
 31  25  27  1   
 32  25  28  1   
 33  29  30  1   
 34  29  33  1   
 35  31  33  1   
 36  32  33  1   
 37  33  34  1   
 38  34  35  1   
 39  34  36  1   
 40  34  37  1   
 41  37  38  1   
 42  37  42  1   
 43  37  44  1   
 44  38  39  1   
 45  38  40  1   
 46  38  41  1   
 47  42  43  1   
 48  42  52  1   
 49  44  45  1   
 50  44  49  1   
 51  44  54  1   
 52  45  46  1   
 53  45  47  1   
 54  45  48  1   
 55  49  50  2   
 56  49  65  1   
 57  50  51  1   
 58  50  52  1   
 59  52  53  2   
 60  54  55  1   
 61  54  56  1   
 62  54  57  1   
 63  57  58  1   
 64  57  59  1   
 65  57  60  1   
 66  60  61  1   
 67  60  65  1   
 68  60  67  1   
 69  61  62  1   
 70  61  63  1   
 71  61  64  1   
 72  65  66  1   
 73  65  78  1   
 74  67  68  1   
 75  67  69  1   
 76  67  70  1   
 77  70  71  1   
 78  70  72  1   
 79  70  73  1   
 80  73  74  1   
 81  73  78  1   
 82  73 115  1   
 83  74  75  1   
 84  74  76  1   
 85  74  77  1   
 86  78  79  1   
 87  78  80  1   
 88  81  82  1   
 89  82  83  1   
 90  82  91  1   
 91  83  84  1   
 92  83  85  1   
 93  85  86  1   
 94  85  87  1   
 95  85  89  1   
 96  87  88  1   
 97  89  90  1   
 98  89  96  1   
 99  91  92  1   
100  91  93  2   
101  92 128  2   
102  92 136  1   
103  94  95  1   
104  94  96  1   
105  94  97  1   
106  94 111  1   
107  97  98  1   
108  97  99  1   
109  97 101  1   
110  99 100  1   
111 101 102  1   
112 101 103  1   
113 101 105  1   
114 103 104  1   
115 105 106  1   
116 105 107  1   
117 105 109  1   
118 107 108  1   
119 109 110  1   
120 109 111  1   
121 109 112  1   
122 112 113  2   
123 112 114  1   
124 114 138  1   
125 114 146  2   
126 115 116  2   
127 115 117  1   
128 117 118  2   
129 117 126  1   
130 118 119  1   
131 118 120  1   
132 120 121  1   
133 120 122  am  
134 122 123  2   
135 122 124  am  
136 124 125  1   
137 124 126  am  
138 126 127  2   
139 128 129  1   
140 128 130  1   
141 130 131  1   
142 130 132  am  
143 132 133  2   
144 132 134  am  
145 134 135  1   
146 134 136  am  
147 136 137  2   
148 138 139  2   
149 138 140  am  
150 140 141  1   
151 140 142  am  
152 142 143  2   
153 142 144  am  
154 144 145  1   
155 144 146  1   
156 146 147  1   
@<TRIPOS>SUBSTRUCTURE
  1 <1>   0 RESIDUE 1 * * 1
# MOE 2007.09 (io_trps.svl 2007.09)
