@<TRIPOS>MOLECULE
J08_17
77 81 1 0 0 
SMALL
USER_CHARGES


@<TRIPOS>ATOM
  1 C        0.8494    -1.3782    -1.6193 C.ar  1 <1>   0.0825 
  2 O        1.0121    -1.9778    -2.8440 O.3   1 <1>  -0.1592 
  3 C       -0.4272    -0.8839    -1.3472 C.ar  1 <1>  -0.1500 
  4 H       -1.2083    -1.0043    -2.0925 H     1 <1>   0.1500 
  5 C       -0.6749    -0.1901    -0.1570 C.ar  1 <1>   0.0825 
  6 O       -1.8619     0.4736     0.0343 O.3   1 <1>  -0.3625 
  7 C       -2.1779     1.3676    -1.0607 C.3   1 <1>   0.5600 
  8 O       -1.0199     2.0329    -1.5691 O.3   1 <1>  -0.5600 
  9 H       -2.6492     0.7643    -1.8490 H     1 <1>   0.0000 
 10 C        0.3227    -0.1167     0.8191 C.ar  1 <1>   0.0825 
 11 O        0.2124     0.4813     2.0520 O.3   1 <1>  -0.3625 
 12 C       -1.0351     0.2820     2.7141 C.3   1 <1>   0.2800 
 13 H1      -0.8539     0.3630     3.7904 H     1 <1>   0.0000 
 14 H2      -1.4569    -0.7112     2.5233 H     1 <1>   0.0000 
 15 H3      -1.7413     1.0709     2.4400 H     1 <1>   0.0000 
 16 C        1.6054    -0.6131     0.5286 C.ar  1 <1>   0.0825 
 17 O        2.5695    -0.4756     1.4945 O.3   1 <1>  -0.5325 
 18 H        2.1336    -0.0149     2.2385 H     1 <1>   0.4500 
 19 C        1.8824    -1.2226    -0.6965 C.ar  1 <1>   0.0862 
 20 C        3.2166    -1.6985    -1.0794 C.2   1 <1>   0.4694 
 21 C        3.3338    -2.3770    -2.3806 C.2   1 <1>  -0.1356 
 22 H        4.3143    -2.7495    -2.6517 H     1 <1>   0.1500 
 23 C        2.2584    -2.4803    -3.1665 C.2   1 <1>   0.0483 
 24 C        2.3257    -3.1192    -4.4908 C.ar  1 <1>   0.0284 
 25 O        4.2163    -1.5558    -0.3891 O.2   1 <1>  -0.5700 
 26 C        1.8114    -2.4540    -5.6137 C.ar  1 <1>  -0.1500 
 27 H        1.3800    -1.4591    -5.5132 H     1 <1>   0.1500 
 28 C        1.8489    -3.0485    -6.8824 C.ar  1 <1>  -0.1500 
 29 H        1.4398    -2.4904    -7.7181 H     1 <1>   0.1500 
 30 C        2.3965    -4.3215    -7.0449 C.ar  1 <1>   0.0825 
 31 O        2.4887    -5.0159    -8.2215 O.3   1 <1>  -0.3625 
 32 C        2.0112    -4.3635    -9.3925 C.3   1 <1>   0.2800 
 33 H1       2.1693    -5.0388   -10.2388 H     1 <1>   0.0000 
 34 H2       2.5733    -3.4447    -9.5900 H     1 <1>   0.0000 
 35 C        2.9057    -4.9901    -5.9283 C.ar  1 <1>  -0.1500 
 36 H        3.3306    -5.9844    -6.0439 H     1 <1>   0.1500 
 37 C        2.8719    -4.3977    -4.6611 C.ar  1 <1>  -0.1500 
 38 H        3.2656    -4.9539    -3.8131 H     1 <1>   0.1500 
 39 C       -1.3050     2.8460    -2.7019 C.3   1 <1>   0.2800 
 40 H1      -1.7676     2.2432    -3.4954 H     1 <1>   0.0000 
 41 C        0.0247     3.3846    -3.2368 C.3   1 <1>   0.2800 
 42 H2       0.6591     2.5442    -3.5436 H     1 <1>   0.0000 
 43 H3       0.5376     3.9211    -2.4326 H     1 <1>   0.0000 
 44 O       -0.2303     4.2663    -4.3313 O.3   1 <1>  -0.5600 
 45 C        0.9375     4.5396    -5.1271 C.3   1 <1>   0.5600 
 46 H        1.4418     3.5894    -5.3426 H     1 <1>   0.0000 
 47 C       -2.2486     3.9811    -2.2981 C.3   1 <1>   0.2800 
 48 O       -2.6383     4.7745    -3.4236 O.3   1 <1>  -0.6800 
 49 H       -1.8342     4.8745    -3.9864 H     1 <1>   0.4000 
 50 H2      -1.7550     4.6537    -1.5851 H     1 <1>   0.0000 
 51 C       -3.5178     3.4144    -1.6520 C.3   1 <1>   0.2800 
 52 H1      -4.1552     2.9407    -2.4094 H     1 <1>   0.0000 
 53 O       -4.2785     4.5167    -1.1379 O.3   1 <1>  -0.6800 
 54 H       -4.2959     5.1683    -1.8678 H     1 <1>   0.4000 
 55 C       -3.1884     2.4065    -0.5415 C.3   1 <1>   0.2800 
 56 O       -4.3831     1.7369    -0.1143 O.3   1 <1>  -0.6800 
 57 H       -4.1074     1.0868     0.5581 H     1 <1>   0.4000 
 58 H2      -2.7887     2.9333     0.3337 H     1 <1>   0.0000 
 59 H3       0.9369    -4.1638    -9.3220 H     1 <1>   0.0000 
 60 C        1.8758     5.5290    -4.4129 C.3   1 <1>   0.2800 
 61 O        2.5122     4.9468    -3.2683 O.3   1 <1>  -0.6800 
 62 H        3.1860     5.6018    -2.9942 H     1 <1>   0.4000 
 63 H2       1.3011     6.3887    -4.0463 H     1 <1>   0.0000 
 64 C        2.9800     5.9920    -5.3555 C.3   1 <1>   0.2800 
 65 H1       3.6931     5.1778    -5.5378 H     1 <1>   0.0000 
 66 O        3.7303     7.0141    -4.6886 O.3   1 <1>  -0.6800 
 67 H        4.3596     7.3535    -5.3553 H     1 <1>   0.4000 
 68 C        2.4101     6.5230    -6.6697 C.3   1 <1>   0.2800 
 69 O        3.5171     6.7997    -7.5410 O.3   1 <1>  -0.6800 
 70 H        3.2165     7.4433    -8.2098 H     1 <1>   0.4000 
 71 H2       1.8763     7.4628    -6.4810 H     1 <1>   0.0000 
 72 C        1.4827     5.4535    -7.2828 C.3   1 <1>   0.5600 
 73 C        0.7972     5.9676    -8.5455 C.3   1 <1>   0.0000 
 74 H1       0.1237     5.2028    -8.9502 H     1 <1>   0.0000 
 75 H2       1.5193     6.2062    -9.3331 H     1 <1>   0.0000 
 76 H3       0.1883     6.8530    -8.3346 H     1 <1>   0.0000 
 77 O        0.4610     5.1012    -6.3538 O.3   1 <1>  -0.5600 
@<TRIPOS>BOND
  1   1   2  1   
  2   1   3  ar  
  3   1  19  ar  
  4   2  23  1   
  5   3   4  1   
  6   3   5  ar  
  7   5   6  1   
  8   5  10  ar  
  9   6   7  1   
 10   7   8  1   
 11   7   9  1   
 12   7  55  1   
 13   8  39  1   
 14  10  11  1   
 15  10  16  ar  
 16  11  12  1   
 17  12  13  1   
 18  12  14  1   
 19  12  15  1   
 20  16  17  1   
 21  16  19  ar  
 22  17  18  1   
 23  19  20  1   
 24  20  21  1   
 25  20  25  2   
 26  21  22  1   
 27  21  23  2   
 28  23  24  1   
 29  24  26  ar  
 30  24  37  ar  
 31  26  27  1   
 32  26  28  ar  
 33  28  29  1   
 34  28  30  ar  
 35  30  31  1   
 36  30  35  ar  
 37  31  32  1   
 38  32  33  1   
 39  32  34  1   
 40  32  59  1   
 41  35  36  1   
 42  35  37  ar  
 43  37  38  1   
 44  39  40  1   
 45  39  41  1   
 46  39  47  1   
 47  41  42  1   
 48  41  43  1   
 49  41  44  1   
 50  44  45  1   
 51  45  46  1   
 52  45  60  1   
 53  45  77  1   
 54  47  48  1   
 55  47  50  1   
 56  47  51  1   
 57  48  49  1   
 58  51  52  1   
 59  51  53  1   
 60  51  55  1   
 61  53  54  1   
 62  55  56  1   
 63  55  58  1   
 64  56  57  1   
 65  60  61  1   
 66  60  63  1   
 67  60  64  1   
 68  61  62  1   
 69  64  65  1   
 70  64  66  1   
 71  64  68  1   
 72  66  67  1   
 73  68  69  1   
 74  68  71  1   
 75  68  72  1   
 76  69  70  1   
 77  72  73  1   
 78  72  77  1   
 79  73  74  1   
 80  73  75  1   
 81  73  76  1   
@<TRIPOS>SUBSTRUCTURE
  1 ****  41 GROUP 4 **** **** 0

# MOE 2015.10 (io_trps.svl 2015.10)
