@<TRIPOS>MOLECULE
J08_59
43 46 1 0 0 
SMALL
USER_CHARGES


@<TRIPOS>ATOM
  1 C        1.3950     0.7110    -0.1480 C.ar  1 <1>  -0.1440 
  2 C        0.0680     1.4190     0.0520 C.3   1 <1>   0.1440 
  3 H1       0.0210     2.3100    -0.5860 H     1 <1>   0.0000 
  4 H2       0.0040     1.7360     1.1000 H     1 <1>   0.0000 
  5 C       -1.1560     0.5780    -0.2770 C.3   1 <1>   0.0000 
  6 H1      -1.2640     0.4710    -1.3630 H     1 <1>   0.0000 
  7 H2      -2.0570     1.0900     0.0810 H     1 <1>   0.0000 
  8 C       -1.0330    -0.7830     0.3830 C.3   1 <1>   0.0000 
  9 C        0.1560    -1.5790    -0.2030 C.3   1 <1>   0.2040 
 10 H1      -1.9760    -1.3280     0.2570 H     1 <1>   0.0000 
 11 H2      -0.9000    -0.6430     1.4650 H     1 <1>   0.0000 
 12 C        0.3900    -2.8000     0.7190 C.3   1 <1>   0.0000 
 13 H1       1.0530    -3.5420     0.2610 H     1 <1>   0.0000 
 14 H2      -0.5500    -3.3210     0.9390 H     1 <1>   0.0000 
 15 H3       0.8290    -2.4980     1.6770 H     1 <1>   0.0000 
 16 C        1.4340    -0.7050    -0.2790 C.ar  1 <1>  -0.1440 
 17 C        2.6770    -1.3300    -0.5210 C.ar  1 <1>  -0.1500 
 18 H        2.7360    -2.4060    -0.6730 H     1 <1>   0.1500 
 19 C        3.8590    -0.5990    -0.5920 C.ar  1 <1>  -0.1500 
 20 H        4.8000    -1.1150    -0.7830 H     1 <1>   0.1500 
 21 C        3.8230     0.7810    -0.4200 C.ar  1 <1>   0.0860 
 22 C        2.6100     1.4490    -0.1850 C.ar  1 <1>   0.0860 
 23 C        5.0940     1.4900    -0.5090 C.2   1 <1>   0.8490 
 24 C        5.0760     2.9490    -0.4720 C.2   1 <1>   0.0290 
 25 C        3.8650     3.7150    -0.3260 C.2   1 <1>   0.5560 
 26 O        3.8010     4.9230    -0.4980 O.2   1 <1>  -0.5700 
 27 C        2.6440     2.9170     0.0670 C.2   1 <1>   0.4840 
 28 O        1.7460     3.5110     0.6460 O.2   1 <1>  -0.5700 
 29 O        6.2870     1.0090    -0.6490 O.3   1 <1>  -0.9960 
 30 C        7.2410     2.0060    -0.7300 C.2   1 <1>   1.1840 
 31 H        8.3120     1.9253    -0.8430 H     1 <1>   0.0000 
 32 C        6.3740     3.2420    -0.6170 C.2   1 <1>  -0.2760 
 33 C        7.0190     4.5830    -0.6670 C.3   1 <1>   0.1380 
 34 H1       6.3010     5.3990    -0.5470 H     1 <1>   0.0000 
 35 H2       7.5270     4.7230    -1.6260 H     1 <1>   0.0000 
 36 H3       7.7610     4.6750     0.1330 H     1 <1>   0.0000 
 37 C       -0.2400    -2.0890    -1.6090 C.2   1 <1>   0.6590 
 38 O        0.2910    -1.7340    -2.6550 O.2   1 <1>  -0.5700 
 39 O       -1.2770    -2.9760    -1.5350 O.3   1 <1>  -0.4300 
 40 C       -1.7170    -3.4860    -2.7960 C.3   1 <1>   0.2800 
 41 H1      -2.5400    -4.1810    -2.6110 H     1 <1>   0.0000 
 42 H2      -0.9080    -4.0290    -3.2930 H     1 <1>   0.0000 
 43 H3      -2.0850    -2.6720    -3.4290 H     1 <1>   0.0000 
@<TRIPOS>BOND
  1   1   2  1   
  2   1  16  ar  
  3   1  22  ar  
  4   2   3  1   
  5   2   4  1   
  6   2   5  1   
  7   5   6  1   
  8   5   7  1   
  9   5   8  1   
 10   8   9  1   
 11   8  10  1   
 12   8  11  1   
 13   9  12  1   
 14   9  16  1   
 15   9  37  1   
 16  12  13  1   
 17  12  14  1   
 18  12  15  1   
 19  16  17  ar  
 20  17  18  1   
 21  17  19  ar  
 22  19  20  1   
 23  19  21  ar  
 24  21  22  ar  
 25  21  23  1   
 26  22  27  1   
 27  23  24  2   
 28  23  29  1   
 29  24  25  1   
 30  24  32  1   
 31  25  26  2   
 32  25  27  1   
 33  27  28  2   
 34  29  30  1   
 35  30  31  1   
 36  30  32  2   
 37  32  33  1   
 38  33  34  1   
 39  33  35  1   
 40  33  36  1   
 41  37  38  2   
 42  37  39  1   
 43  39  40  1   
 44  40  41  1   
 45  40  42  1   
 46  40  43  1   
@<TRIPOS>SUBSTRUCTURE
  1 ****  22 GROUP 4 **** **** 0

# MOE 2015.10 (io_trps.svl 2015.10)
