@<TRIPOS>MOLECULE
J08_34
22 23 1 0 0 
SMALL
USER_CHARGES


@<TRIPOS>ATOM
  1 C        1.4684     0.3893     0.3230 C.ar  1 <1>   0.0000 
  2 C        0.3963     1.2653     0.0505 C.ar  1 <1>  -0.1500 
  3 H        0.4500     2.3112     0.3375 H     1 <1>   0.1500 
  4 C       -0.7449     0.7779    -0.5981 C.ar  1 <1>  -0.1500 
  5 H       -1.5711     1.4523    -0.8088 H     1 <1>   0.1500 
  6 C       -0.8304    -0.5601    -0.9761 C.ar  1 <1>  -0.1500 
  7 H       -1.7251    -0.9203    -1.4788 H     1 <1>   0.1500 
  8 C        0.2181    -1.4486    -0.7202 C.ar  1 <1>  -0.1500 
  9 H        0.1493    -2.4902    -1.0169 H     1 <1>   0.1500 
 10 C        1.3521    -0.9450    -0.0707 C.ar  1 <1>  -0.1516 
 11 N        2.5144    -1.5787     0.3007 N.pl3 1 <1>   0.0332 
 12 H        2.7121    -2.5559     0.1367 H     1 <1>   0.2700 
 13 C        3.3578    -0.6976     0.9214 C.2   1 <1>  -0.3016 
 14 H        4.3226    -1.0256     1.2851 H     1 <1>   0.1500 
 15 C        2.7470     0.5416     0.9537 C.2   1 <1>  -0.1810 
 16 C        3.3120     1.7907     1.5483 C.3   1 <1>   0.2420 
 17 H2       4.0586     1.5314     2.3081 H     1 <1>   0.0000 
 18 H3       2.5117     2.3596     2.0351 H     1 <1>   0.0000 
 19 C        3.9745     2.6810     0.5266 C.2   1 <1>   0.6590 
 20 O        4.1117     2.4921    -0.6701 O.2   1 <1>  -0.5700 
 21 O        4.4535     3.8103     1.0980 O.3   1 <1>  -0.6500 
 22 H        4.8658     4.3100     0.3619 H     1 <1>   0.5000 
@<TRIPOS>BOND
  1   1   2  ar  
  2   1  10  ar  
  3   1  15  1   
  4   2   3  1   
  5   2   4  ar  
  6   4   5  1   
  7   4   6  ar  
  8   6   7  1   
  9   6   8  ar  
 10   8   9  1   
 11   8  10  ar  
 12  10  11  1   
 13  11  12  1   
 14  11  13  1   
 15  13  14  1   
 16  13  15  2   
 17  15  16  1   
 18  16  17  1   
 19  16  18  1   
 20  16  19  1   
 21  19  20  2   
 22  19  21  1   
 23  21  22  1   
@<TRIPOS>SUBSTRUCTURE
  1 <1>   0 RESIDUE 1 * * 1
# MOE 2007.09 (io_trps.svl 2007.09)
