@<TRIPOS>MOLECULE
J08_43
85 91 1 0 0 
SMALL
USER_CHARGES


@<TRIPOS>ATOM
  1 C        3.4920    -0.0422    -0.2493 C.ar  1 <1>  -0.1435 
  2 C        2.5411     1.1062     0.0016 C.3   1 <1>   0.1435 
  3 H1       2.5757     1.8040    -0.8441 H     1 <1>   0.0000 
  4 H2       2.8909     1.6475     0.8898 H     1 <1>   0.0000 
  5 C        1.0935     0.6650     0.2116 C.3   1 <1>   0.2700 
  6 H1       0.6266     0.4777    -0.7650 H     1 <1>   0.0000 
  7 H2       0.5151     1.4878     0.6501 H     1 <1>   0.0000 
  8 N        0.9672    -0.5442     1.0326 N.3   1 <1>  -0.8100 
  9 C        1.6403    -1.6872     0.3449 C.3   1 <1>   0.4135 
 10 H1       1.1254    -1.7793    -0.6213 H     1 <1>   0.0000 
 11 C        1.3383    -2.9940     1.1305 C.3   1 <1>   0.1435 
 12 H1       0.3384    -2.8947     1.5791 H     1 <1>   0.0000 
 13 H2       2.0552    -3.0818     1.9589 H     1 <1>   0.0000 
 14 C        1.2930    -4.3319     0.4167 C.ar  1 <1>  -0.1435 
 15 C        3.1071    -1.3840    -0.0082 C.ar  1 <1>  -0.1435 
 16 C        4.0687    -2.3898    -0.2167 C.ar  1 <1>  -0.1500 
 17 H        3.8287    -3.4373    -0.0756 H     1 <1>   0.1500 
 18 C        5.3557    -2.0671    -0.6691 C.ar  1 <1>   0.0825 
 19 O        6.2279    -3.0628    -1.0687 O.3   1 <1>  -0.1650 
 20 C        5.7252    -0.7366    -0.9075 C.ar  1 <1>   0.0825 
 21 O        7.0209    -0.5402    -1.3188 O.3   1 <1>  -0.3625 
 22 C        7.3628     0.7700    -1.7630 C.3   1 <1>   0.2800 
 23 H1       8.3823     0.7311    -2.1585 H     1 <1>   0.0000 
 24 H2       7.3567     1.4784    -0.9284 H     1 <1>   0.0000 
 25 H3       6.7033     1.1016    -2.5719 H     1 <1>   0.0000 
 26 C        4.7967     0.2717    -0.6726 C.ar  1 <1>  -0.1500 
 27 H        5.0522     1.3179    -0.8144 H     1 <1>   0.1500 
 28 C        1.4084    -0.3235     2.4117 C.3   1 <1>   0.2700 
 29 H1       1.1235    -1.1617     3.0556 H     1 <1>   0.0000 
 30 H2       0.9097     0.5567     2.8339 H     1 <1>   0.0000 
 31 H3       2.4890    -0.1769     2.5069 H     1 <1>   0.0000 
 32 C        1.0507    -5.4664     1.2138 C.ar  1 <1>  -0.1500 
 33 H        0.8592    -5.3539     2.2795 H     1 <1>   0.1500 
 34 C        1.0938    -6.7467     0.6698 C.ar  1 <1>  -0.1500 
 35 H        0.9506    -7.6133     1.3090 H     1 <1>   0.1500 
 36 C        1.4213    -6.9023    -0.6769 C.ar  1 <1>   0.0825 
 37 O        1.6996    -8.1457    -1.2000 O.3   1 <1>  -0.1650 
 38 C        2.7645    -8.8241    -0.6271 C.ar  1 <1>   0.0825 
 39 C        1.5550    -5.7932    -1.5080 C.ar  1 <1>  -0.1500 
 40 H        1.7731    -5.9240    -2.5641 H     1 <1>   0.1500 
 41 C        1.4837    -4.5094    -0.9613 C.ar  1 <1>  -0.1500 
 42 H        1.6320    -3.6655    -1.6290 H     1 <1>   0.1500 
 43 C        2.7724   -10.2232    -0.6391 C.ar  1 <1>   0.0825 
 44 O        1.8225   -11.0293    -1.2087 O.3   1 <1>  -0.3625 
 45 C        1.3738   -10.6202    -2.4973 C.3   1 <1>   0.2800 
 46 H1       1.0526   -11.5171    -3.0361 H     1 <1>   0.0000 
 47 H2       0.5037    -9.9637    -2.4056 H     1 <1>   0.0000 
 48 H3       2.1654   -10.1452    -3.0878 H     1 <1>   0.0000 
 49 C        3.7847   -10.9102     0.0442 C.ar  1 <1>  -0.1500 
 50 H        3.7766   -11.9978     0.0631 H     1 <1>   0.1500 
 51 C        4.8008   -10.2185     0.7109 C.ar  1 <1>  -0.1500 
 52 H        5.5669   -10.7759     1.2452 H     1 <1>   0.1500 
 53 C        4.8226    -8.8236     0.6964 C.ar  1 <1>  -0.1435 
 54 C        5.8712    -8.0330     1.4435 C.3   1 <1>   0.1435 
 55 H1       5.3800    -7.1586     1.8942 H     1 <1>   0.0000 
 56 C        7.0668    -7.6123     0.5497 C.3   1 <1>   0.4135 
 57 H        6.8310    -7.8024    -0.5073 H     1 <1>   0.0000 
 58 H3       6.2050    -8.6220     2.3098 H     1 <1>   0.0000 
 59 C        3.8258    -8.1405    -0.0075 C.ar  1 <1>  -0.1500 
 60 H        3.8643    -7.0542    -0.0224 H     1 <1>   0.1500 
 61 N        8.2201    -8.4585     0.9450 N.3   1 <1>  -0.8100 
 62 C        8.6163    -9.3803    -0.1168 C.3   1 <1>   0.2700 
 63 H1       7.7726   -10.0086    -0.4219 H     1 <1>   0.0000 
 64 H2       9.3999   -10.0610     0.2344 H     1 <1>   0.0000 
 65 H3       8.9903    -8.8505    -1.0004 H     1 <1>   0.0000 
 66 C        9.3834    -7.7395     1.4752 C.3   1 <1>   0.2700 
 67 H1       9.9995    -7.3452     0.6543 H     1 <1>   0.0000 
 68 H2      10.0092    -8.4429     2.0378 H     1 <1>   0.0000 
 69 C        8.9894    -6.5874     2.4039 C.3   1 <1>   0.1435 
 70 H1       9.9049    -6.1451     2.8108 H     1 <1>   0.0000 
 71 H2       8.3848    -6.9409     3.2475 H     1 <1>   0.0000 
 72 C        8.2028    -5.5867     1.5978 C.ar  1 <1>  -0.1435 
 73 C        7.2914    -6.1031     0.6573 C.ar  1 <1>  -0.1435 
 74 C        8.3848    -4.1986     1.7231 C.ar  1 <1>   0.0825 
 75 C        7.7348    -3.3320     0.8317 C.ar  1 <1>   0.0825 
 76 C        6.8113    -3.8372    -0.0906 C.ar  1 <1>   0.0825 
 77 C        6.5905    -5.2157    -0.1748 C.ar  1 <1>  -0.1500 
 78 O        9.2961    -3.7817     2.6621 O.3   1 <1>  -0.3625 
 79 C        8.8431    -2.6884     3.4579 C.3   1 <1>   0.2800 
 80 H1       9.3047    -2.7861     4.4456 H     1 <1>   0.0000 
 81 H2       7.7562    -2.6864     3.5999 H     1 <1>   0.0000 
 82 H3       9.1829    -1.7408     3.0301 H     1 <1>   0.0000 
 83 O        8.0966    -2.0109     0.8102 O.3   1 <1>  -0.5325 
 84 H        7.8005    -1.6288    -0.0405 H     1 <1>   0.4500 
 85 H        5.9032    -5.5972    -0.9265 H     1 <1>   0.1500 
@<TRIPOS>BOND
  1   1   2  1   
  2   1  15  ar  
  3   1  26  ar  
  4   2   3  1   
  5   2   4  1   
  6   2   5  1   
  7   5   6  1   
  8   5   7  1   
  9   5   8  1   
 10   8   9  1   
 11   8  28  1   
 12   9  10  1   
 13   9  11  1   
 14   9  15  1   
 15  11  12  1   
 16  11  13  1   
 17  11  14  1   
 18  14  32  ar  
 19  14  41  ar  
 20  15  16  ar  
 21  16  17  1   
 22  16  18  ar  
 23  18  19  1   
 24  18  20  ar  
 25  19  76  1   
 26  20  21  1   
 27  20  26  ar  
 28  21  22  1   
 29  22  23  1   
 30  22  24  1   
 31  22  25  1   
 32  26  27  1   
 33  28  29  1   
 34  28  30  1   
 35  28  31  1   
 36  32  33  1   
 37  32  34  ar  
 38  34  35  1   
 39  34  36  ar  
 40  36  37  1   
 41  36  39  ar  
 42  37  38  1   
 43  38  43  ar  
 44  38  59  ar  
 45  39  40  1   
 46  39  41  ar  
 47  41  42  1   
 48  43  44  1   
 49  43  49  ar  
 50  44  45  1   
 51  45  46  1   
 52  45  47  1   
 53  45  48  1   
 54  49  50  1   
 55  49  51  ar  
 56  51  52  1   
 57  51  53  ar  
 58  53  54  1   
 59  53  59  ar  
 60  54  55  1   
 61  54  56  1   
 62  54  58  1   
 63  56  57  1   
 64  56  61  1   
 65  56  73  1   
 66  59  60  1   
 67  61  62  1   
 68  61  66  1   
 69  62  63  1   
 70  62  64  1   
 71  62  65  1   
 72  66  67  1   
 73  66  68  1   
 74  66  69  1   
 75  69  70  1   
 76  69  71  1   
 77  69  72  1   
 78  72  73  ar  
 79  72  74  ar  
 80  73  77  ar  
 81  74  75  ar  
 82  74  78  1   
 83  75  76  ar  
 84  75  83  1   
 85  76  77  ar  
 86  77  85  1   
 87  78  79  1   
 88  79  80  1   
 89  79  81  1   
 90  79  82  1   
 91  83  84  1   
@<TRIPOS>SUBSTRUCTURE
  1 <1>   0 RESIDUE 1 * * 1
# MOE 2007.09 (io_trps.svl 2007.09)
