@<TRIPOS>MOLECULE
J08_46
38 42 1 0 0 
SMALL
USER_CHARGES


@<TRIPOS>ATOM
  1 C        1.2682     0.7916     0.2126 C.ar  1 <1>  -0.1435 
  2 C        0.0195     1.4290     0.2752 C.ar  1 <1>  -0.1500 
  3 H       -0.0810     2.4898     0.4713 H     1 <1>   0.1500 
  4 C       -1.1166     0.6687     0.0914 C.ar  1 <1>   0.0825 
  5 C       -1.0614    -0.6839    -0.1387 C.ar  1 <1>   0.0825 
  6 C        0.1362    -1.3609    -0.1970 C.ar  1 <1>  -0.1500 
  7 H        0.1520    -2.4296    -0.3840 H     1 <1>   0.1500 
  8 C        1.3224    -0.6278    -0.0097 C.ar  1 <1>  -0.1435 
  9 C        2.6515    -1.3748    -0.1241 C.3   1 <1>   0.4135 
 10 N        3.7843    -0.5793     0.3398 N.3   1 <1>  -0.8100 
 11 C        3.6921     0.7673    -0.2209 C.3   1 <1>   0.4082 
 12 C        2.5729     1.5544     0.4672 C.3   1 <1>   0.1435 
 13 H        2.7067     1.5487     1.5601 H     1 <1>   0.0000 
 14 H1       2.7753    -1.6597    -1.1774 H     1 <1>   0.0000 
 15 H2       2.5983    -2.2921     0.4737 H     1 <1>   0.0000 
 16 C        5.1073    -1.0550    -0.0793 C.3   1 <1>   0.2700 
 17 H2       5.4497    -1.8960     0.5319 H     1 <1>   0.0000 
 18 C        6.0182     0.1767     0.0959 C.3   1 <1>   0.1382 
 19 C        5.0535     1.3214    -0.0001 C.2   1 <1>  -0.2764 
 20 H        3.5268     0.7244    -1.3106 H     1 <1>   0.0000 
 21 H1       5.1127    -1.3674    -1.1320 H     1 <1>   0.0000 
 22 H1       6.7807     0.2148    -0.6874 H     1 <1>   0.0000 
 23 H2       6.4954     0.1651     1.0817 H     1 <1>   0.0000 
 24 O       -2.3930     1.1392     0.1175 O.3   1 <1>  -0.3625 
 25 C       -3.1331    -0.0733    -0.1246 C.3   1 <1>   0.5600 
 26 H1      -3.7349     0.0582    -1.0314 H     1 <1>   0.0000 
 27 O       -2.2956    -1.2357    -0.2924 O.3   1 <1>  -0.3625 
 28 H2      -3.8081    -0.2473     0.7214 H     1 <1>   0.0000 
 29 C        5.2638     2.6259     0.2094 C.2   1 <1>  -0.2882 
 30 H        6.2669     2.9879     0.4115 H     1 <1>   0.1500 
 31 C        4.1248     3.6065     0.2337 C.3   1 <1>   0.4182 
 32 H1       4.3097     4.4242    -0.4713 H     1 <1>   0.0000 
 33 O        4.0808     4.1948     1.5493 O.3   1 <1>  -0.6800 
 34 H        4.9764     4.5198     1.7504 H     1 <1>   0.4000 
 35 C        2.6965     3.0216    -0.0208 C.3   1 <1>   0.2800 
 36 H1       2.4554     3.0765    -1.0893 H     1 <1>   0.0000 
 37 O        1.7817     3.8728     0.6881 O.3   1 <1>  -0.6800 
 38 H        2.3227     4.2208     1.4355 H     1 <1>   0.4000 
@<TRIPOS>BOND
  1   1   2  ar  
  2   1   8  ar  
  3   1  12  1   
  4   2   3  1   
  5   2   4  ar  
  6   4   5  ar  
  7   4  24  1   
  8   5   6  ar  
  9   5  27  1   
 10   6   7  1   
 11   6   8  ar  
 12   8   9  1   
 13   9  10  1   
 14   9  14  1   
 15   9  15  1   
 16  10  11  1   
 17  10  16  1   
 18  11  12  1   
 19  11  19  1   
 20  11  20  1   
 21  12  13  1   
 22  12  35  1   
 23  16  17  1   
 24  16  18  1   
 25  16  21  1   
 26  18  19  1   
 27  18  22  1   
 28  18  23  1   
 29  19  29  2   
 30  24  25  1   
 31  25  26  1   
 32  25  27  1   
 33  25  28  1   
 34  29  30  1   
 35  29  31  1   
 36  31  32  1   
 37  31  33  1   
 38  31  35  1   
 39  33  34  1   
 40  35  36  1   
 41  35  37  1   
 42  37  38  1   
@<TRIPOS>SUBSTRUCTURE
  1 <1>   0 RESIDUE 1 * * 1
# MOE 2007.09 (io_trps.svl 2007.09)
