@<TRIPOS>MOLECULE
J08_67
48 49 1 0 0 
SMALL
USER_CHARGES


@<TRIPOS>ATOM
  1 C        1.1470     0.8448     0.4491 C.ar  1 <1>  -0.1435 
  2 C        2.4653     1.5620     0.6113 C.3   1 <1>   0.1435 
  3 H1       2.4769     2.0678     1.5846 H     1 <1>   0.0000 
  4 H2       2.5449     2.3556    -0.1423 H     1 <1>   0.0000 
  5 C        3.6506     0.5990     0.4878 C.3   1 <1>   0.0000 
  6 H1       3.5789    -0.1557     1.2822 H     1 <1>   0.0000 
  7 H2       3.5910     0.0654    -0.4694 H     1 <1>   0.0000 
  8 C        5.0016     1.3172     0.5877 C.3   1 <1>   0.2800 
  9 H1       5.0641     2.1152    -0.1619 H     1 <1>   0.0000 
 10 O        5.1398     1.9021     1.8797 O.3   1 <1>  -0.6800 
 11 H        4.6556     2.7450     1.8805 H     1 <1>   0.4000 
 12 C        6.1577     0.3309     0.3802 C.3   1 <1>   0.0000 
 13 H1       6.0378    -0.1827    -0.5813 H     1 <1>   0.0000 
 14 H2       6.1336    -0.4324     1.1685 H     1 <1>   0.0000 
 15 C        7.5222     1.0283     0.4176 C.3   1 <1>   0.0000 
 16 H        7.5625     1.7962    -0.3646 H     1 <1>   0.0000 
 17 H1       7.6562     1.5382     1.3789 H     1 <1>   0.0000 
 18 C        8.6618     0.0290     0.2149 C.3   1 <1>   0.0000 
 19 H1       8.5394    -0.4785    -0.7504 H     1 <1>   0.0000 
 20 H2       8.6093    -0.7475     0.9887 H     1 <1>   0.0000 
 21 C       10.0235     0.7250     0.2684 C.3   1 <1>   0.1435 
 22 H1      10.0884     1.4915    -0.5142 H     1 <1>   0.0000 
 23 H2      10.1411     1.2568     1.2212 H     1 <1>   0.0000 
 24 C       11.1540    -0.2596     0.1034 C.ar  1 <1>  -0.1435 
 25 C        0.5321     0.7593    -0.8090 C.ar  1 <1>  -0.1500 
 26 H        1.0058     1.2251    -1.6685 H     1 <1>   0.1500 
 27 C       -0.6786     0.0787    -0.9501 C.ar  1 <1>   0.0825 
 28 O       -1.2842    -0.0057    -2.1739 O.3   1 <1>  -0.5325 
 29 H       -0.7436     0.4629    -2.8287 H     1 <1>   0.4500 
 30 C       -1.2804    -0.5234     0.1553 C.ar  1 <1>   0.0825 
 31 O       -2.4664    -1.1870    -0.0004 O.3   1 <1>  -0.5325 
 32 H       -2.7368    -1.5527     0.8562 H     1 <1>   0.4500 
 33 C       -0.6754    -0.4499     1.4086 C.ar  1 <1>  -0.1500 
 34 H       -1.1262    -0.9138     2.2805 H     1 <1>   0.1500 
 35 C        0.5361     0.2310     1.5527 C.ar  1 <1>  -0.1500 
 36 H        1.0039     0.2795     2.5339 H     1 <1>   0.1500 
 37 C       11.7067    -0.8962     1.2245 C.ar  1 <1>  -0.1500 
 38 H       11.3331    -0.6706     2.2212 H     1 <1>   0.1500 
 39 C       12.7376    -1.8272     1.0778 C.ar  1 <1>  -0.1500 
 40 H       13.1463    -2.3037     1.9634 H     1 <1>   0.1500 
 41 C       13.2178    -2.1290    -0.1950 C.ar  1 <1>   0.0825 
 42 O       14.2262    -3.0391    -0.3547 O.3   1 <1>  -0.5325 
 43 H       14.4898    -3.3754     0.5160 H     1 <1>   0.4500 
 44 C       12.6711    -1.5052    -1.3170 C.ar  1 <1>   0.0825 
 45 O       13.1512    -1.8157    -2.5596 O.3   1 <1>  -0.5325 
 46 H       12.6812    -1.2877    -3.2234 H     1 <1>   0.4500 
 47 C       11.6412    -0.5747    -1.1734 C.ar  1 <1>  -0.1500 
 48 H       11.2083    -0.0913    -2.0447 H     1 <1>   0.1500 
@<TRIPOS>BOND
  1   1   2  1   
  2   1  25  ar  
  3   1  35  ar  
  4   2   3  1   
  5   2   4  1   
  6   2   5  1   
  7   5   6  1   
  8   5   7  1   
  9   5   8  1   
 10   8   9  1   
 11   8  10  1   
 12   8  12  1   
 13  10  11  1   
 14  12  13  1   
 15  12  14  1   
 16  12  15  1   
 17  15  16  1   
 18  15  17  1   
 19  15  18  1   
 20  18  19  1   
 21  18  20  1   
 22  18  21  1   
 23  21  22  1   
 24  21  23  1   
 25  21  24  1   
 26  24  37  ar  
 27  24  47  ar  
 28  25  26  1   
 29  25  27  ar  
 30  27  28  1   
 31  27  30  ar  
 32  28  29  1   
 33  30  31  1   
 34  30  33  ar  
 35  31  32  1   
 36  33  34  1   
 37  33  35  ar  
 38  35  36  1   
 39  37  38  1   
 40  37  39  ar  
 41  39  40  1   
 42  39  41  ar  
 43  41  42  1   
 44  41  44  ar  
 45  42  43  1   
 46  44  45  1   
 47  44  47  ar  
 48  45  46  1   
 49  47  48  1   
@<TRIPOS>SUBSTRUCTURE
  1 <1>   0 RESIDUE 1 * * 1
# MOE 2007.09 (io_trps.svl 2007.09)
