@<TRIPOS>MOLECULE
J08_44
83 90 1 0 0 
SMALL
USER_CHARGES


@<TRIPOS>ATOM
  1 C        3.8273     0.0691    -1.0025 C.ar  1 <1>  -0.1435 
  2 C        2.7502     1.1237    -1.1248 C.3   1 <1>   0.1435 
  3 H1       2.8556     1.6470    -2.0832 H     1 <1>   0.0000 
  4 H2       2.9063     1.8630    -0.3288 H     1 <1>   0.0000 
  5 C        1.3373     0.5621    -1.0314 C.3   1 <1>   0.2700 
  6 H1       1.0507     0.1285    -1.9991 H     1 <1>   0.0000 
  7 H2       0.6236     1.3782    -0.8628 H     1 <1>   0.0000 
  8 N        1.1991    -0.4605     0.0069 N.3   1 <1>  -0.8100 
  9 C        2.0537    -1.6447    -0.3270 C.3   1 <1>   0.4135 
 10 H1       1.7104    -1.9682    -1.3166 H     1 <1>   0.0000 
 11 C        1.6758    -2.7772     0.6798 C.3   1 <1>   0.1435 
 12 H1       0.6330    -2.6351     1.0009 H     1 <1>   0.0000 
 13 H2       2.2963    -2.6590     1.5787 H     1 <1>   0.0000 
 14 C        1.7060    -4.2292     0.2408 C.ar  1 <1>  -0.1435 
 15 C        3.5378    -1.2654    -0.5565 C.ar  1 <1>  -0.1435 
 16 C        4.6168    -2.1839    -0.4642 C.ar  1 <1>   0.0825 
 17 O        4.3361    -3.4839    -0.1155 O.3   1 <1>  -0.1650 
 18 C        5.8963    -1.7496    -0.8153 C.ar  1 <1>   0.0825 
 19 C        6.1420    -0.4565    -1.2090 C.ar  1 <1>   0.0825 
 20 C        5.1387     0.4735    -1.3040 C.ar  1 <1>  -0.1500 
 21 H        5.3597     1.4876    -1.6222 H     1 <1>   0.1500 
 22 C        1.4156     0.0815     1.3513 C.3   1 <1>   0.2700 
 23 H1       1.1003    -0.6297     2.1213 H     1 <1>   0.0000 
 24 H2       0.7991     0.9749     1.5047 H     1 <1>   0.0000 
 25 H3       2.4574     0.3517     1.5510 H     1 <1>   0.0000 
 26 C        1.9422    -5.2025     1.2261 C.ar  1 <1>  -0.1500 
 27 H        2.0798    -4.9086     2.2648 H     1 <1>   0.1500 
 28 C        2.0489    -6.5500     0.8895 C.ar  1 <1>  -0.1500 
 29 H        2.2495    -7.2709     1.6765 H     1 <1>   0.1500 
 30 C        1.9235    -6.9445    -0.4441 C.ar  1 <1>   0.0825 
 31 O        2.0879    -8.2500    -0.8645 O.3   1 <1>  -0.1650 
 32 C        3.0991    -8.9438    -0.2347 C.ar  1 <1>   0.0825 
 33 C        1.5987    -6.0035    -1.4191 C.ar  1 <1>  -0.1500 
 34 H        1.4578    -6.3136    -2.4509 H     1 <1>   0.1500 
 35 C        1.4832    -4.6522    -1.0771 C.ar  1 <1>  -0.1500 
 36 H        1.2378    -3.9464    -1.8647 H     1 <1>   0.1500 
 37 C        2.8084    -9.9446     0.6959 C.ar  1 <1>   0.0825 
 38 O        1.5589   -10.3783     1.0423 O.3   1 <1>  -0.3625 
 39 C        0.6701   -10.5751    -0.0531 C.3   1 <1>   0.2800 
 40 H1      -0.0490   -11.3468     0.2389 H     1 <1>   0.0000 
 41 H2       0.1051    -9.6603    -0.2537 H     1 <1>   0.0000 
 42 H3       1.1834   -10.9262    -0.9555 H     1 <1>   0.0000 
 43 C        3.8539   -10.5119     1.4210 C.ar  1 <1>  -0.1500 
 44 H        3.6445   -11.2706     2.1710 H     1 <1>   0.1500 
 45 C        5.1715   -10.1074     1.1939 C.ar  1 <1>  -0.1500 
 46 H        5.9664   -10.5693     1.7772 H     1 <1>   0.1500 
 47 C        5.4777    -9.1290     0.2324 C.ar  1 <1>  -0.1435 
 48 C        6.9298    -8.7619     0.0240 C.3   1 <1>   0.1435 
 49 H1       7.4418    -8.9256     0.9799 H     1 <1>   0.0000 
 50 C        7.3223    -7.3570    -0.5296 C.3   1 <1>   0.4135 
 51 H        6.9244    -7.3067    -1.5526 H     1 <1>   0.0000 
 52 H3       7.3375    -9.5195    -0.6618 H     1 <1>   0.0000 
 53 C        4.4287    -8.5875    -0.5125 C.ar  1 <1>  -0.1500 
 54 H        4.6168    -7.8560    -1.2910 H     1 <1>   0.1500 
 55 N        8.8076    -7.3524    -0.5865 N.3   1 <1>  -0.8100 
 56 C        9.3133    -6.7893    -1.8365 C.3   1 <1>   0.2700 
 57 H1       8.9266    -7.3477    -2.6962 H     1 <1>   0.0000 
 58 H2      10.4054    -6.8678    -1.8816 H     1 <1>   0.0000 
 59 H3       9.0355    -5.7358    -1.9545 H     1 <1>   0.0000 
 60 C        9.4868    -6.7477     0.5811 C.3   1 <1>   0.2700 
 61 H1       9.8747    -5.7547     0.3097 H     1 <1>   0.0000 
 62 H2      10.3613    -7.3611     0.8279 H     1 <1>   0.0000 
 63 C        8.6318    -6.5598     1.8494 C.3   1 <1>   0.1435 
 64 H1       9.2103    -5.9843     2.5818 H     1 <1>   0.0000 
 65 H2       8.3779    -7.5156     2.3174 H     1 <1>   0.0000 
 66 C        7.3796    -5.8171     1.4662 C.ar  1 <1>  -0.1435 
 67 C        6.7783    -6.1695     0.2474 C.ar  1 <1>  -0.1435 
 68 C        6.8716    -4.7619     2.2396 C.ar  1 <1>  -0.1500 
 69 C        5.8196    -3.9771     1.7566 C.ar  1 <1>   0.0825 
 70 C        5.3152    -4.2515     0.4766 C.ar  1 <1>   0.0825 
 71 C        5.7507    -5.3653    -0.2500 C.ar  1 <1>  -0.1500 
 72 H        7.3440    -4.5491     3.1931 H     1 <1>   0.1500 
 73 O        5.2443    -2.9299     2.4266 O.3   1 <1>  -0.3625 
 74 C        5.6873    -2.6827     3.7536 C.3   1 <1>   0.2800 
 75 H1       5.0915    -1.8577     4.1559 H     1 <1>   0.0000 
 76 H2       6.7368    -2.3708     3.7657 H     1 <1>   0.0000 
 77 H3       5.5246    -3.5544     4.3961 H     1 <1>   0.0000 
 78 H        5.3081    -5.5625    -1.2222 H     1 <1>   0.1500 
 79 O        7.0400    -2.4954    -0.8614 O.3   1 <1>  -0.3625 
 80 C        8.0158    -1.5210    -1.2636 C.3   1 <1>   0.5600 
 81 H1       8.5043    -1.8705    -2.1803 H     1 <1>   0.0000 
 82 H2       8.7725    -1.4332    -0.4753 H     1 <1>   0.0000 
 83 O        7.4485    -0.2236    -1.5084 O.3   1 <1>  -0.3625 
@<TRIPOS>BOND
  1   1   2  1   
  2   1  15  ar  
  3   1  20  ar  
  4   2   3  1   
  5   2   4  1   
  6   2   5  1   
  7   5   6  1   
  8   5   7  1   
  9   5   8  1   
 10   8   9  1   
 11   8  22  1   
 12   9  10  1   
 13   9  11  1   
 14   9  15  1   
 15  11  12  1   
 16  11  13  1   
 17  11  14  1   
 18  14  26  ar  
 19  14  35  ar  
 20  15  16  ar  
 21  16  17  1   
 22  16  18  ar  
 23  17  70  1   
 24  18  19  ar  
 25  18  79  1   
 26  19  20  ar  
 27  19  83  1   
 28  20  21  1   
 29  22  23  1   
 30  22  24  1   
 31  22  25  1   
 32  26  27  1   
 33  26  28  ar  
 34  28  29  1   
 35  28  30  ar  
 36  30  31  1   
 37  30  33  ar  
 38  31  32  1   
 39  32  37  ar  
 40  32  53  ar  
 41  33  34  1   
 42  33  35  ar  
 43  35  36  1   
 44  37  38  1   
 45  37  43  ar  
 46  38  39  1   
 47  39  40  1   
 48  39  41  1   
 49  39  42  1   
 50  43  44  1   
 51  43  45  ar  
 52  45  46  1   
 53  45  47  ar  
 54  47  48  1   
 55  47  53  ar  
 56  48  49  1   
 57  48  50  1   
 58  48  52  1   
 59  50  51  1   
 60  50  55  1   
 61  50  67  1   
 62  53  54  1   
 63  55  56  1   
 64  55  60  1   
 65  56  57  1   
 66  56  58  1   
 67  56  59  1   
 68  60  61  1   
 69  60  62  1   
 70  60  63  1   
 71  63  64  1   
 72  63  65  1   
 73  63  66  1   
 74  66  67  ar  
 75  66  68  ar  
 76  67  71  ar  
 77  68  69  ar  
 78  68  72  1   
 79  69  70  ar  
 80  69  73  1   
 81  70  71  ar  
 82  71  78  1   
 83  73  74  1   
 84  74  75  1   
 85  74  76  1   
 86  74  77  1   
 87  79  80  1   
 88  80  81  1   
 89  80  82  1   
 90  80  83  1   
@<TRIPOS>SUBSTRUCTURE
  1 <1>   0 RESIDUE 1 * * 1
# MOE 2007.09 (io_trps.svl 2007.09)
