@<TRIPOS>MOLECULE
J08_32
30 33 1 0 0 
SMALL
USER_CHARGES


@<TRIPOS>ATOM
  1 C        1.2429     0.7220    -0.2053 C.ar  1 <1>   0.0862 
  2 C        0.2315     1.4936    -0.7294 C.ar  1 <1>  -0.1500 
  3 H        0.3106     2.5734    -0.7824 H     1 <1>   0.1500 
  4 C       -0.9005     0.8180    -1.1889 C.ar  1 <1>  -0.1500 
  5 H       -1.7299     1.3803    -1.6127 H     1 <1>   0.1500 
  6 C       -0.9845    -0.5878    -1.1112 C.ar  1 <1>  -0.1500 
  7 H       -1.8787    -1.0890    -1.4768 H     1 <1>   0.1500 
  8 C        0.0618    -1.3486    -0.5721 C.ar  1 <1>  -0.1500 
  9 H       -0.0110    -2.4291    -0.5160 H     1 <1>   0.1500 
 10 C        1.1781    -0.6806    -0.1191 C.ar  1 <1>   0.1000 
 11 N        2.3335    -1.1940     0.4498 N.pl3 1 <1>  -0.6000 
 12 H        2.5625    -2.1618     0.6340 H     1 <1>   0.4000 
 13 C        3.1965    -0.1683     0.7584 C.2   1 <1>   0.1144 
 14 C        4.4055    -0.1673     1.3100 C.2   1 <1>   0.1144 
 15 C        2.5375     1.1150     0.3519 C.2   1 <1>   0.4694 
 16 O        2.9781     2.2498     0.4589 O.2   1 <1>  -0.5700 
 17 C        5.0639    -1.4507     1.7170 C.2   1 <1>   0.4694 
 18 C        6.3579    -1.0579     2.2757 C.ar  1 <1>   0.0862 
 19 C        6.4232     0.3447     2.1892 C.ar  1 <1>   0.1000 
 20 N        5.2684     0.8583     1.6190 N.pl3 1 <1>  -0.6000 
 21 O        4.6233    -2.5855     1.6096 O.2   1 <1>  -0.5700 
 22 C        7.3683    -1.8297     2.8015 C.ar  1 <1>  -0.1500 
 23 H        7.2887    -2.9093     2.8548 H     1 <1>   0.1500 
 24 C        8.4997    -1.1541     3.2626 C.ar  1 <1>  -0.1500 
 25 H        9.3282    -1.7166     3.6880 H     1 <1>   0.1500 
 26 C        8.5842     0.2516     3.1846 C.ar  1 <1>  -0.1500 
 27 H        9.4780     0.7526     3.5515 H     1 <1>   0.1500 
 28 C        7.5390     1.0125     2.6437 C.ar  1 <1>  -0.1500 
 29 H        7.6121     2.0930     2.5875 H     1 <1>   0.1500 
 30 H        5.0399     1.8260     1.4344 H     1 <1>   0.4000 
@<TRIPOS>BOND
  1   1   2  ar  
  2   1  10  ar  
  3   1  15  1   
  4   2   3  1   
  5   2   4  ar  
  6   4   5  1   
  7   4   6  ar  
  8   6   7  1   
  9   6   8  ar  
 10   8   9  1   
 11   8  10  ar  
 12  10  11  1   
 13  11  12  1   
 14  11  13  1   
 15  13  14  2   
 16  13  15  1   
 17  14  17  1   
 18  14  20  1   
 19  15  16  2   
 20  17  18  1   
 21  17  21  2   
 22  18  19  ar  
 23  18  22  ar  
 24  19  20  1   
 25  19  28  ar  
 26  20  30  1   
 27  22  23  1   
 28  22  24  ar  
 29  24  25  1   
 30  24  26  ar  
 31  26  27  1   
 32  26  28  ar  
 33  28  29  1   
@<TRIPOS>SUBSTRUCTURE
  1 <1>   0 RESIDUE 1 * * 1
# MOE 2007.09 (io_trps.svl 2007.09)
