@<TRIPOS>MOLECULE
J08_01
51 53 1 0 0 
SMALL
USER_CHARGES


@<TRIPOS>ATOM
  1 C        1.3220     0.7017    -1.0253 C.3   1 <1>   0.1435 
  2 C        1.1110     0.4383    -2.5370 C.3   1 <1>   0.0000 
  3 H1       1.9170    -0.1575    -2.9772 H     1 <1>   0.0000 
  4 H2       1.0895     1.3818    -3.0983 H     1 <1>   0.0000 
  5 H3       0.1694    -0.0587    -2.7612 H     1 <1>   0.0000 
  6 C        0.1445     1.5675    -0.4974 C.3   1 <1>   0.0000 
  7 H1      -0.0351     2.4300    -1.1504 H     1 <1>   0.0000 
  8 H2       0.4028     1.9774     0.4889 H     1 <1>   0.0000 
  9 C       -1.1728     0.8050    -0.3787 C.3   1 <1>   0.0000 
 10 H1      -1.5362     0.5069    -1.3675 H     1 <1>   0.0000 
 11 H2      -1.9355     1.4765     0.0342 H     1 <1>   0.0000 
 12 C       -1.0418    -0.4092     0.5284 C.3   1 <1>   0.0000 
 13 H1      -2.0073    -0.9293     0.5738 H     1 <1>   0.0000 
 14 H2      -0.8436    -0.0491     1.5475 H     1 <1>   0.0000 
 15 C        0.0774    -1.3903     0.1045 C.3   1 <1>   0.0000 
 16 C       -0.3826    -2.2341    -1.0994 C.3   1 <1>   0.0000 
 17 H1      -0.7494    -1.6335    -1.9305 H     1 <1>   0.0000 
 18 H2      -1.2158    -2.8892    -0.8152 H     1 <1>   0.0000 
 19 H3       0.4169    -2.8820    -1.4718 H     1 <1>   0.0000 
 20 C        0.2650    -2.3835     1.2839 C.3   1 <1>   0.0000 
 21 H1       0.9391    -3.2062     1.0262 H     1 <1>   0.0000 
 22 H2      -0.6918    -2.8347     1.5734 H     1 <1>   0.0000 
 23 H3       0.6694    -1.8808     2.1696 H     1 <1>   0.0000 
 24 C        1.4100    -0.5926    -0.1304 C.3   1 <1>   0.0000 
 25 H        1.6780    -0.2262     0.8763 H     1 <1>   0.0000 
 26 C        2.5961    -1.4604    -0.5812 C.3   1 <1>   0.0000 
 27 H1       2.4971    -1.7437    -1.6341 H     1 <1>   0.0000 
 28 H2       2.6507    -2.4007    -0.0244 H     1 <1>   0.0000 
 29 C        3.9111    -0.7165    -0.3651 C.3   1 <1>   0.1435 
 30 H1       4.6912    -1.2017    -0.9646 H     1 <1>   0.0000 
 31 H2       4.1992    -0.8214     0.6894 H     1 <1>   0.0000 
 32 C        3.8721     0.7588    -0.6782 C.ar  1 <1>  -0.1435 
 33 C        2.6749     1.4524    -0.9432 C.ar  1 <1>  -0.1435 
 34 C        5.0962     1.4577    -0.6466 C.ar  1 <1>  -0.1500 
 35 H        6.0067     0.9029    -0.4219 H     1 <1>   0.1500 
 36 C        5.1757     2.8378    -0.8914 C.ar  1 <1>  -0.1435 
 37 C        6.5372     3.5119    -0.8387 C.3   1 <1>   0.1435 
 38 C        6.6252     4.5657     0.2687 C.3   1 <1>   0.0000 
 39 H1       7.6522     4.9356     0.3632 H     1 <1>   0.0000 
 40 H2       6.3322     4.1426     1.2360 H     1 <1>   0.0000 
 41 H3       5.9834     5.4304     0.0741 H     1 <1>   0.0000 
 42 C        6.9550     4.0895    -2.1937 C.3   1 <1>   0.0000 
 43 H1       6.8994     3.3268    -2.9784 H     1 <1>   0.0000 
 44 H2       7.9882     4.4517    -2.1526 H     1 <1>   0.0000 
 45 H3       6.3259     4.9306    -2.5006 H     1 <1>   0.0000 
 46 H3       7.2849     2.7459    -0.5900 H     1 <1>   0.0000 
 47 C        3.9848     3.5096    -1.1736 C.ar  1 <1>   0.0825 
 48 O        4.0151     4.8528    -1.4303 O.3   1 <1>  -0.5325 
 49 H        3.1123     5.1671    -1.5979 H     1 <1>   0.4500 
 50 C        2.7589     2.8339    -1.2047 C.ar  1 <1>  -0.1500 
 51 H        1.8617     3.3920    -1.4518 H     1 <1>   0.1500 
@<TRIPOS>BOND
  1   1   2  1   
  2   1   6  1   
  3   1  24  1   
  4   1  33  1   
  5   2   3  1   
  6   2   4  1   
  7   2   5  1   
  8   6   7  1   
  9   6   8  1   
 10   6   9  1   
 11   9  10  1   
 12   9  11  1   
 13   9  12  1   
 14  12  13  1   
 15  12  14  1   
 16  12  15  1   
 17  15  16  1   
 18  15  20  1   
 19  15  24  1   
 20  16  17  1   
 21  16  18  1   
 22  16  19  1   
 23  20  21  1   
 24  20  22  1   
 25  20  23  1   
 26  24  25  1   
 27  24  26  1   
 28  26  27  1   
 29  26  28  1   
 30  26  29  1   
 31  29  30  1   
 32  29  31  1   
 33  29  32  1   
 34  32  33  ar  
 35  32  34  ar  
 36  33  50  ar  
 37  34  35  1   
 38  34  36  ar  
 39  36  37  1   
 40  36  47  ar  
 41  37  38  1   
 42  37  42  1   
 43  37  46  1   
 44  38  39  1   
 45  38  40  1   
 46  38  41  1   
 47  42  43  1   
 48  42  44  1   
 49  42  45  1   
 50  47  48  1   
 51  47  50  ar  
 52  48  49  1   
 53  50  51  1   
@<TRIPOS>SUBSTRUCTURE
  1 <1>   0 RESIDUE 1 * * 1
# MOE 2007.09 (io_trps.svl 2007.09)
