@<TRIPOS>MOLECULE
J08_07
78 82 1 0 0 
SMALL
USER_CHARGES


@<TRIPOS>ATOM
  1 C        1.1157     0.6844    -0.3796 C.3   1 <1>   0.0000 
  2 C        0.2388     0.8358    -1.6490 C.3   1 <1>   0.0000 
  3 H1       0.3962     0.0361    -2.3743 H     1 <1>   0.0000 
  4 H2       0.4102     1.7789    -2.1714 H     1 <1>   0.0000 
  5 H3      -0.8307     0.8317    -1.4251 H     1 <1>   0.0000 
  6 C        0.3086     1.2561     0.8260 C.3   1 <1>   0.0000 
  7 H1      -0.0575     2.2641     0.5958 H     1 <1>   0.0000 
  8 H2       0.9730     1.3588     1.6944 H     1 <1>   0.0000 
  9 C       -0.8862     0.4017     1.2466 C.3   1 <1>   0.0000 
 10 C       -0.4943    -1.0441     1.5361 C.3   1 <1>   0.2800 
 11 H        0.1520    -1.0393     2.4237 H     1 <1>   0.0000 
 12 H1      -1.6844     0.4390     0.4976 H     1 <1>   0.0000 
 13 H2      -1.3375     0.8360     2.1483 H     1 <1>   0.0000 
 14 O       -1.6631    -1.7750     1.9082 O.3   1 <1>  -0.6800 
 15 H       -2.3288    -1.6605     1.2093 H     1 <1>   0.4000 
 16 C        0.2729    -1.7385     0.3706 C.3   1 <1>   0.0000 
 17 C       -0.6705    -2.1076    -0.7925 C.3   1 <1>   0.0000 
 18 H1      -1.2878    -1.2703    -1.1196 H     1 <1>   0.0000 
 19 H2      -1.3660    -2.9036    -0.4997 H     1 <1>   0.0000 
 20 H3      -0.1169    -2.4821    -1.6591 H     1 <1>   0.0000 
 21 C        0.8160    -3.0864     0.9225 C.3   1 <1>   0.0000 
 22 H1       0.0164    -3.6869     1.3716 H     1 <1>   0.0000 
 23 H2       1.5753    -2.9223     1.6952 H     1 <1>   0.0000 
 24 H3       1.2625    -3.7014     0.1347 H     1 <1>   0.0000 
 25 C        1.4764    -0.8131    -0.0526 C.3   1 <1>   0.0000 
 26 H        2.1009    -0.7641     0.8558 H     1 <1>   0.0000 
 27 C        2.4027    -1.4052    -1.1334 C.3   1 <1>   0.0000 
 28 H1       1.9107    -1.4603    -2.1077 H     1 <1>   0.0000 
 29 H2       2.6768    -2.4344    -0.8805 H     1 <1>   0.0000 
 30 C        3.7108    -0.6148    -1.2398 C.3   1 <1>   0.0000 
 31 H1       4.3292    -1.0768    -2.0195 H     1 <1>   0.0000 
 32 H2       4.2388    -0.7631    -0.2899 H     1 <1>   0.0000 
 33 C        3.5489     0.9047    -1.5127 C.3   1 <1>   0.0000 
 34 C        3.1086     1.0709    -2.9934 C.3   1 <1>   0.0000 
 35 H1       2.8684     2.1099    -3.2368 H     1 <1>   0.0000 
 36 H2       2.2483     0.4598    -3.2614 H     1 <1>   0.0000 
 37 H3       3.9108     0.7543    -3.6721 H     1 <1>   0.0000 
 38 C        2.4897     1.4866    -0.5070 C.3   1 <1>   0.0000 
 39 H        2.9592     1.3548     0.4821 H     1 <1>   0.0000 
 40 C        4.9418     1.6930    -1.3842 C.3   1 <1>   0.0000 
 41 H        5.2181     1.9880    -2.4045 H     1 <1>   0.0000 
 42 C        4.8424     2.9994    -0.5522 C.3   1 <1>   0.0000 
 43 H        4.7090     2.7104     0.4996 H     1 <1>   0.0000 
 44 C        3.5974     3.7837    -0.9558 C.3   1 <1>   0.0000 
 45 H1       3.5611     4.7466    -0.4334 H     1 <1>   0.0000 
 46 H2       3.6271     4.0101    -2.0279 H     1 <1>   0.0000 
 47 C        2.3097     3.0182    -0.6471 C.3   1 <1>   0.0000 
 48 H1       1.5701     3.2840    -1.4068 H     1 <1>   0.0000 
 49 H2       1.9142     3.4076     0.2995 H     1 <1>   0.0000 
 50 C        6.1453     0.8799    -0.8707 C.3   1 <1>   0.0000 
 51 H1       6.2697    -0.0344    -1.4607 H     1 <1>   0.0000 
 52 H2       5.9894     0.5822     0.1729 H     1 <1>   0.0000 
 53 C        7.4494     1.6739    -0.9861 C.3   1 <1>   0.0000 
 54 H1       7.6597     1.8345    -2.0514 H     1 <1>   0.0000 
 55 H2       8.2719     1.0513    -0.6123 H     1 <1>   0.0000 
 56 C        7.4064     3.0205    -0.2413 C.3   1 <1>   0.0610 
 57 C        6.1430     3.8525    -0.5845 C.3   1 <1>   0.0000 
 58 H        6.0330     4.6288     0.1837 H     1 <1>   0.0000 
 59 C        8.5368     3.9556    -0.7024 C.3   1 <1>   0.0000 
 60 H1       9.4758     3.4243    -0.8945 H     1 <1>   0.0000 
 61 H2       8.7507     4.7118     0.0649 H     1 <1>   0.0000 
 62 C        8.0269     4.6549    -1.9569 C.3   1 <1>   0.0000 
 63 H1       8.4293     4.1632    -2.8512 H     1 <1>   0.0000 
 64 H2       8.3793     5.6925    -1.9815 H     1 <1>   0.0000 
 65 C        6.4917     4.5258    -1.9448 C.3   1 <1>   0.1382 
 66 H1       6.2242     3.8228    -2.7432 H     1 <1>   0.0000 
 67 C        5.8395     5.8537    -2.3003 C.2   1 <1>  -0.2764 
 68 C        5.6486     6.0954    -3.7758 C.3   1 <1>   0.1382 
 69 H1       5.2064     7.0758    -3.9825 H     1 <1>   0.0000 
 70 H2       6.6105     6.0493    -4.2967 H     1 <1>   0.0000 
 71 H3       4.9843     5.3360    -4.2012 H     1 <1>   0.0000 
 72 C        5.4603     6.7853    -1.4096 C.2   1 <1>  -0.3000 
 73 H1       5.0034     7.7175    -1.7286 H     1 <1>   0.1500 
 74 H2       5.5993     6.6641    -0.3417 H     1 <1>   0.1500 
 75 C        7.5494     2.7920     1.2606 C.2   1 <1>   0.6590 
 76 O        6.7054     2.9938     2.1181 O.2   1 <1>  -0.5700 
 77 O        8.7603     2.3036     1.6035 O.3   1 <1>  -0.6500 
 78 H        8.7220     2.1983     2.5771 H     1 <1>   0.5000 
@<TRIPOS>BOND
  1   1   2  1   
  2   1   6  1   
  3   1  25  1   
  4   1  38  1   
  5   2   3  1   
  6   2   4  1   
  7   2   5  1   
  8   6   7  1   
  9   6   8  1   
 10   6   9  1   
 11   9  10  1   
 12   9  12  1   
 13   9  13  1   
 14  10  11  1   
 15  10  14  1   
 16  10  16  1   
 17  14  15  1   
 18  16  17  1   
 19  16  21  1   
 20  16  25  1   
 21  17  18  1   
 22  17  19  1   
 23  17  20  1   
 24  21  22  1   
 25  21  23  1   
 26  21  24  1   
 27  25  26  1   
 28  25  27  1   
 29  27  28  1   
 30  27  29  1   
 31  27  30  1   
 32  30  31  1   
 33  30  32  1   
 34  30  33  1   
 35  33  34  1   
 36  33  38  1   
 37  33  40  1   
 38  34  35  1   
 39  34  36  1   
 40  34  37  1   
 41  38  39  1   
 42  38  47  1   
 43  40  41  1   
 44  40  42  1   
 45  40  50  1   
 46  42  43  1   
 47  42  44  1   
 48  42  57  1   
 49  44  45  1   
 50  44  46  1   
 51  44  47  1   
 52  47  48  1   
 53  47  49  1   
 54  50  51  1   
 55  50  52  1   
 56  50  53  1   
 57  53  54  1   
 58  53  55  1   
 59  53  56  1   
 60  56  57  1   
 61  56  59  1   
 62  56  75  1   
 63  57  58  1   
 64  57  65  1   
 65  59  60  1   
 66  59  61  1   
 67  59  62  1   
 68  62  63  1   
 69  62  64  1   
 70  62  65  1   
 71  65  66  1   
 72  65  67  1   
 73  67  68  1   
 74  67  72  2   
 75  68  69  1   
 76  68  70  1   
 77  68  71  1   
 78  72  73  1   
 79  72  74  1   
 80  75  76  2   
 81  75  77  1   
 82  77  78  1   
@<TRIPOS>SUBSTRUCTURE
  1 <1>   0 RESIDUE 1 * * 1
# MOE 2007.09 (io_trps.svl 2007.09)
