@<TRIPOS>MOLECULE
J08_08
49 50 1 0 0 
SMALL
USER_CHARGES


@<TRIPOS>ATOM
  1 C        1.0895     0.1578    -0.2581 C.ar  1 <1>   0.0862 
  2 C       -0.0398     0.9780    -0.1333 C.ar  1 <1>   0.0825 
  3 O        0.1583     2.3319    -0.0508 O.3   1 <1>  -0.5325 
  4 H       -0.6282     2.7821     0.2942 H     1 <1>   0.4500 
  5 C       -1.3341     0.4173    -0.0667 C.ar  1 <1>  -0.1435 
  6 C       -2.5760     1.2987     0.0057 C.3   1 <1>   0.1435 
  7 H1      -2.3697     2.1808    -0.6117 H     1 <1>   0.0000 
  8 C       -2.9579     1.6886     1.4516 C.3   1 <1>   0.4182 
  9 C       -3.6488     3.0367     1.6186 C.2   1 <1>  -0.2764 
 10 C       -3.7172     3.5296     3.0432 C.3   1 <1>   0.1382 
 11 H1      -4.2189     4.4999     3.1229 H     1 <1>   0.0000 
 12 H2      -2.7084     3.6452     3.4531 H     1 <1>   0.0000 
 13 H3      -4.2687     2.8205     3.6689 H     1 <1>   0.0000 
 14 C       -4.1826     3.7731     0.6283 C.2   1 <1>  -0.3000 
 15 H1      -4.6628     4.7262     0.8331 H     1 <1>   0.1500 
 16 H2      -4.1893     3.4538    -0.4079 H     1 <1>   0.1500 
 17 H2      -2.0512     1.7185     2.0725 H     1 <1>   0.0000 
 18 O       -3.8695     0.7097     1.9798 O.3   1 <1>  -0.2800 
 19 O       -3.0615    -0.3128     2.6303 O.3   1 <1>  -0.4000 
 20 H       -3.1151    -0.9633     1.9013 H     1 <1>   0.4000 
 21 H3      -3.4168     0.7977    -0.4910 H     1 <1>   0.0000 
 22 C       -1.4627    -0.9907    -0.0763 C.ar  1 <1>   0.0825 
 23 O       -2.7362    -1.4857     0.0761 O.3   1 <1>  -0.3625 
 24 C       -2.9575    -2.8257    -0.3565 C.3   1 <1>   0.2800 
 25 H1      -2.5278    -3.5376     0.3551 H     1 <1>   0.0000 
 26 H2      -2.5706    -2.9921    -1.3676 H     1 <1>   0.0000 
 27 H3      -4.0387    -2.9922    -0.3811 H     1 <1>   0.0000 
 28 C       -0.3273    -1.8030    -0.1619 C.ar  1 <1>  -0.1500 
 29 H       -0.3941    -2.8863    -0.1385 H     1 <1>   0.1500 
 30 C        0.9410    -1.2317    -0.2570 C.ar  1 <1>  -0.1500 
 31 H        1.8143    -1.8789    -0.3195 H     1 <1>   0.1500 
 32 C        2.4702     0.6820    -0.3437 C.2   1 <1>   0.4694 
 33 C        2.7213     1.8400    -1.2333 C.2   1 <1>  -0.1356 
 34 H        1.9011     2.2039    -1.8402 H     1 <1>   0.1500 
 35 C        3.9293     2.4138    -1.2467 C.2   1 <1>  -0.1784 
 36 H        4.7199     2.0371    -0.6008 H     1 <1>   0.1500 
 37 C        4.2675     3.5874    -2.0602 C.ar  1 <1>   0.0284 
 38 O        3.3689     0.1169     0.2714 O.2   1 <1>  -0.5700 
 39 C        5.1998     4.5081    -1.5568 C.ar  1 <1>  -0.1500 
 40 H        5.6478     4.3593    -0.5762 H     1 <1>   0.1500 
 41 C        5.5606     5.6381    -2.2964 C.ar  1 <1>  -0.1500 
 42 H        6.2764     6.3389    -1.8782 H     1 <1>   0.1500 
 43 C        4.9946     5.8422    -3.5502 C.ar  1 <1>   0.0825 
 44 O        5.3110     6.9334    -4.3045 O.3   1 <1>  -0.5325 
 45 H        5.9612     7.4669    -3.8188 H     1 <1>   0.4500 
 46 C        4.0858     4.9323    -4.0765 C.ar  1 <1>  -0.1500 
 47 H        3.6599     5.0979    -5.0619 H     1 <1>   0.1500 
 48 C        3.7274     3.8035    -3.3359 C.ar  1 <1>  -0.1500 
 49 H        3.0270     3.0971    -3.7739 H     1 <1>   0.1500 
@<TRIPOS>BOND
  1   1   2  ar  
  2   1  30  ar  
  3   1  32  1   
  4   2   3  1   
  5   2   5  ar  
  6   3   4  1   
  7   5   6  1   
  8   5  22  ar  
  9   6   7  1   
 10   6   8  1   
 11   6  21  1   
 12   8   9  1   
 13   8  17  1   
 14   8  18  1   
 15   9  10  1   
 16   9  14  2   
 17  10  11  1   
 18  10  12  1   
 19  10  13  1   
 20  14  15  1   
 21  14  16  1   
 22  18  19  1   
 23  19  20  1   
 24  22  23  1   
 25  22  28  ar  
 26  23  24  1   
 27  24  25  1   
 28  24  26  1   
 29  24  27  1   
 30  28  29  1   
 31  28  30  ar  
 32  30  31  1   
 33  32  33  1   
 34  32  38  2   
 35  33  34  1   
 36  33  35  2   
 37  35  36  1   
 38  35  37  1   
 39  37  39  ar  
 40  37  48  ar  
 41  39  40  1   
 42  39  41  ar  
 43  41  42  1   
 44  41  43  ar  
 45  43  44  1   
 46  43  46  ar  
 47  44  45  1   
 48  46  47  1   
 49  46  48  ar  
 50  48  49  1   
@<TRIPOS>SUBSTRUCTURE
  1 <1>   0 RESIDUE 1 * * 1
# MOE 2007.09 (io_trps.svl 2007.09)
