@<TRIPOS>MOLECULE
J08_51
81 85 1 0 0 
SMALL
USER_CHARGES


@<TRIPOS>ATOM
  1 O        1.8029     1.8911    -0.3106 O.3   1 <1>  -0.5600 
  2 C        0.7008     2.6984     0.0693 C.3   1 <1>   0.5600 
  3 O        0.6236     3.8610    -0.7732 O.3   1 <1>  -0.4300 
  4 H2       0.7645     3.0097     1.1196 H     1 <1>   0.0000 
  5 C       -0.6101     1.9717    -0.2378 C.3   1 <1>   0.2800 
  6 H1      -0.7535     1.9314    -1.3269 H     1 <1>   0.0000 
  7 O       -1.7224     2.7191     0.2702 O.3   1 <1>  -0.6800 
  8 H       -1.6383     3.6294    -0.0700 H     1 <1>   0.4000 
  9 C       -0.6450     0.5455     0.3081 C.3   1 <1>   0.2800 
 10 O       -1.7242    -0.1091    -0.4059 O.3   1 <1>  -0.4300 
 11 H2      -0.8436     0.5434     1.3873 H     1 <1>   0.0000 
 12 C        0.6563    -0.2072     0.0033 C.3   1 <1>   0.2800 
 13 H1       0.6918    -0.4265    -1.0726 H     1 <1>   0.0000 
 14 O        0.6206    -1.4403     0.7588 O.3   1 <1>  -0.4300 
 15 C        1.8609     0.6607     0.4122 C.3   1 <1>   0.5600 
 16 O        3.0760    -0.0147     0.0578 O.3   1 <1>  -0.4300 
 17 H2       1.8441     0.8364     1.4970 H     1 <1>   0.0000 
 18 C        4.1945     0.5369     0.5902 C.2   1 <1>   0.6338 
 19 C        5.3963     0.0367    -0.0954 C.ar  1 <1>   0.0862 
 20 O        4.2388     1.3794     1.4751 O.2   1 <1>  -0.5700 
 21 C        6.5784     0.7810     0.0423 C.ar  1 <1>  -0.1500 
 22 H        6.5861     1.6832     0.6491 H     1 <1>   0.1500 
 23 C        7.7265     0.3605    -0.6177 C.ar  1 <1>   0.0825 
 24 O        8.9025     1.0557    -0.5446 O.3   1 <1>  -0.5325 
 25 H        8.7533     1.8713    -0.0336 H     1 <1>   0.4500 
 26 C        7.7164    -0.7947    -1.3960 C.ar  1 <1>   0.0825 
 27 O        8.8737    -1.1670    -2.0249 O.3   1 <1>  -0.5325 
 28 H        9.5228    -0.4788    -1.7736 H     1 <1>   0.4500 
 29 C        6.5476    -1.5380    -1.5292 C.ar  1 <1>   0.0825 
 30 O        6.5524    -2.6665    -2.2997 O.3   1 <1>  -0.5325 
 31 H        5.6659    -3.0616    -2.2950 H     1 <1>   0.4500 
 32 C        5.3802    -1.1246    -0.8828 C.ar  1 <1>  -0.1500 
 33 H        4.4646    -1.7003    -0.9916 H     1 <1>   0.1500 
 34 C        1.6348     4.7491    -0.7058 C.2   1 <1>   0.6338 
 35 C        1.5795     5.6020    -1.9057 C.ar  1 <1>   0.0862 
 36 O        2.4922     4.8243     0.1586 O.2   1 <1>  -0.5700 
 37 C        2.6670     6.4418    -2.1730 C.ar  1 <1>  -0.1500 
 38 H        3.5088     6.4787    -1.4865 H     1 <1>   0.1500 
 39 C        2.6590     7.2018    -3.3374 C.ar  1 <1>   0.0825 
 40 O        3.6997     8.0264    -3.6698 O.3   1 <1>  -0.5325 
 41 H        4.3824     7.9564    -2.9792 H     1 <1>   0.4500 
 42 C        1.5860     7.1380    -4.2277 C.ar  1 <1>   0.0825 
 43 O        1.6344     7.8943    -5.3654 O.3   1 <1>  -0.5325 
 44 H        2.4861     8.3708    -5.3025 H     1 <1>   0.4500 
 45 C        0.5025     6.3111    -3.9614 C.ar  1 <1>   0.0825 
 46 O       -0.5416     6.2392    -4.8399 O.3   1 <1>  -0.5325 
 47 H       -1.1715     5.5651    -4.5366 H     1 <1>   0.4500 
 48 C        0.4932     5.5450    -2.7987 C.ar  1 <1>  -0.1500 
 49 H       -0.3552     4.8976    -2.5979 H     1 <1>   0.1500 
 50 C       -2.9036    -0.2512     0.2435 C.2   1 <1>   0.6338 
 51 C       -3.9884    -0.3266    -0.7455 C.ar  1 <1>   0.0862 
 52 O       -3.0783    -0.2948     1.4511 O.2   1 <1>  -0.5700 
 53 C       -3.8637     0.2985    -1.9972 C.ar  1 <1>  -0.1500 
 54 H       -2.9516     0.8216    -2.2663 H     1 <1>   0.1500 
 55 C       -4.9353     0.2665    -2.8785 C.ar  1 <1>   0.0825 
 56 O       -4.8907     0.8705    -4.1063 O.3   1 <1>  -0.5325 
 57 H       -4.0241     1.3019    -4.2119 H     1 <1>   0.4500 
 58 C       -6.1191    -0.3787    -2.5312 C.ar  1 <1>   0.0825 
 59 O       -7.1447    -0.3709    -3.4368 O.3   1 <1>  -0.5325 
 60 H       -6.7912     0.1396    -4.1936 H     1 <1>   0.4500 
 61 C       -6.2462    -0.9974    -1.2905 C.ar  1 <1>   0.0825 
 62 O       -7.4201    -1.6154    -0.9675 O.3   1 <1>  -0.5325 
 63 H       -7.3661    -1.9835    -0.0715 H     1 <1>   0.4500 
 64 C       -5.1821    -0.9703    -0.3876 C.ar  1 <1>  -0.1500 
 65 H       -5.2715    -1.4378     0.5901 H     1 <1>   0.1500 
 66 C        1.1826    -2.5256     0.1688 C.2   1 <1>   0.6338 
 67 C        0.9963    -3.7338     0.9922 C.ar  1 <1>   0.0862 
 68 O        1.7810    -2.5374    -0.8978 O.2   1 <1>  -0.5700 
 69 C        0.1731    -3.7526     2.1271 C.ar  1 <1>  -0.1500 
 70 H       -0.3603    -2.8603     2.4417 H     1 <1>   0.1500 
 71 C        0.0366    -4.9401     2.8425 C.ar  1 <1>   0.0825 
 72 O       -0.7498    -5.0373     3.9593 O.3   1 <1>  -0.5325 
 73 H       -1.1742    -4.1770     4.1234 H     1 <1>   0.4500 
 74 C        0.7022    -6.0981     2.4436 C.ar  1 <1>   0.0825 
 75 O        0.5312    -7.2376     3.1805 O.3   1 <1>  -0.5325 
 76 H       -0.0886    -6.9867     3.8947 H     1 <1>   0.4500 
 77 C        1.5177    -6.0833     1.3192 C.ar  1 <1>   0.0825 
 78 O        2.1647    -7.2234     0.9335 O.3   1 <1>  -0.5325 
 79 H        2.7719    -7.0084     0.2069 H     1 <1>   0.4500 
 80 C        1.6658    -4.9035     0.5894 C.ar  1 <1>  -0.1500 
 81 H        2.2949    -4.8840    -0.2974 H     1 <1>   0.1500 
@<TRIPOS>BOND
  1   1   2  1   
  2   1  15  1   
  3   2   3  1   
  4   2   4  1   
  5   2   5  1   
  6   3  34  1   
  7   5   6  1   
  8   5   7  1   
  9   5   9  1   
 10   7   8  1   
 11   9  10  1   
 12   9  11  1   
 13   9  12  1   
 14  10  50  1   
 15  12  13  1   
 16  12  14  1   
 17  12  15  1   
 18  14  66  1   
 19  15  16  1   
 20  15  17  1   
 21  16  18  1   
 22  18  19  1   
 23  18  20  2   
 24  19  21  ar  
 25  19  32  ar  
 26  21  22  1   
 27  21  23  ar  
 28  23  24  1   
 29  23  26  ar  
 30  24  25  1   
 31  26  27  1   
 32  26  29  ar  
 33  27  28  1   
 34  29  30  1   
 35  29  32  ar  
 36  30  31  1   
 37  32  33  1   
 38  34  35  1   
 39  34  36  2   
 40  35  37  ar  
 41  35  48  ar  
 42  37  38  1   
 43  37  39  ar  
 44  39  40  1   
 45  39  42  ar  
 46  40  41  1   
 47  42  43  1   
 48  42  45  ar  
 49  43  44  1   
 50  45  46  1   
 51  45  48  ar  
 52  46  47  1   
 53  48  49  1   
 54  50  51  1   
 55  50  52  2   
 56  51  53  ar  
 57  51  64  ar  
 58  53  54  1   
 59  53  55  ar  
 60  55  56  1   
 61  55  58  ar  
 62  56  57  1   
 63  58  59  1   
 64  58  61  ar  
 65  59  60  1   
 66  61  62  1   
 67  61  64  ar  
 68  62  63  1   
 69  64  65  1   
 70  66  67  1   
 71  66  68  2   
 72  67  69  ar  
 73  67  80  ar  
 74  69  70  1   
 75  69  71  ar  
 76  71  72  1   
 77  71  74  ar  
 78  72  73  1   
 79  74  75  1   
 80  74  77  ar  
 81  75  76  1   
 82  77  78  1   
 83  77  80  ar  
 84  78  79  1   
 85  80  81  1   
@<TRIPOS>SUBSTRUCTURE
  1 <1>   0 RESIDUE 1 * * 1
# MOE 2007.09 (io_trps.svl 2007.09)
