@<TRIPOS>MOLECULE
J08_41
31 33 1 0 0 
SMALL
USER_CHARGES


@<TRIPOS>ATOM
  1 C        1.2460     0.5110    -0.0680 C.ar  1 <1>   0.0820 
  2 C        0.1830     1.3620    -0.4010 C.ar  1 <1>  -0.1500 
  3 H        0.2920     2.4340    -0.2660 H     1 <1>   0.1500 
  4 C       -0.9900     0.8120    -0.8980 C.ar  1 <1>   0.0820 
  5 C       -1.0960    -0.5630    -1.0580 C.ar  1 <1>   0.0820 
  6 O       -2.2530    -1.1110    -1.5490 O.3   1 <1>  -0.5320 
  7 H       -2.8350    -0.3370    -1.7030 H     1 <1>   0.4500 
  8 C       -0.0420    -1.4120    -0.7280 C.ar  1 <1>   0.0820 
  9 O       -0.2350    -2.7510    -0.9200 O.3   1 <1>  -0.5320 
 10 H       -1.1440    -2.8280    -1.2750 H     1 <1>   0.4500 
 11 C        1.1440    -0.8780    -0.2270 C.ar  1 <1>   0.0860 
 12 C        2.3020    -1.7000     0.1470 C.2   1 <1>   0.4690 
 13 O        2.3320    -2.9210     0.0640 O.2   1 <1>  -0.5700 
 14 C        3.4860    -0.9870     0.6500 C.2   1 <1>  -0.1360 
 15 H        4.3340    -1.5990     0.9330 H     1 <1>   0.1500 
 16 C        3.4650     0.3460     0.7500 C.2   1 <1>   0.0480 
 17 O        2.3740     1.1290     0.4190 O.3   1 <1>  -0.1590 
 18 C        4.6220     1.1060     1.2590 C.ar  1 <1>   0.0280 
 19 C        5.9310     0.8240     0.8360 C.ar  1 <1>  -0.1500 
 20 H        6.1260     0.0330     0.1160 H     1 <1>   0.1500 
 21 C        7.0120     1.5680     1.3200 C.ar  1 <1>  -0.1500 
 22 H        8.0210     1.3440     0.9870 H     1 <1>   0.1500 
 23 C        6.7910     2.5990     2.2250 C.ar  1 <1>   0.0820 
 24 O        7.8740     3.3000     2.6710 O.3   1 <1>  -0.5320 
 25 H        7.5700     3.9780     3.2960 H     1 <1>   0.4500 
 26 O       -2.0710     1.5700    -1.2460 O.3   1 <1>  -0.5320 
 27 H       -1.8590     2.5070    -1.0890 H     1 <1>   0.4500 
 28 C        5.5040     2.9030     2.6540 C.ar  1 <1>  -0.1500 
 29 H        5.3170     3.7080     3.3580 H     1 <1>   0.1500 
 30 C        4.4230     2.1590     2.1680 C.ar  1 <1>  -0.1500 
 31 H        3.4200     2.4060     2.5120 H     1 <1>   0.1500 
@<TRIPOS>BOND
  1   1   2  ar  
  2   1  11  ar  
  3   1  17  1   
  4   2   3  1   
  5   2   4  ar  
  6   4   5  ar  
  7   4  26  1   
  8   5   6  1   
  9   5   8  ar  
 10   6   7  1   
 11   8   9  1   
 12   8  11  ar  
 13   9  10  1   
 14  11  12  1   
 15  12  13  2   
 16  12  14  1   
 17  14  15  1   
 18  14  16  2   
 19  16  17  1   
 20  16  18  1   
 21  18  19  ar  
 22  18  30  ar  
 23  19  20  1   
 24  19  21  ar  
 25  21  22  1   
 26  21  23  ar  
 27  23  24  1   
 28  23  28  ar  
 29  24  25  1   
 30  26  27  1   
 31  28  29  1   
 32  28  30  ar  
 33  30  31  1   
@<TRIPOS>SUBSTRUCTURE
  1 <1>   0 RESIDUE 1 * * 1
# MOE 2007.09 (io_trps.svl 2007.09)
