@<TRIPOS>MOLECULE
J08_39
29 31 1 0 0 
SMALL
USER_CHARGES


@<TRIPOS>ATOM
  1 C        1.1783     0.5948    -0.2501 C.ar  1 <1>   0.0862 
  2 C        0.1130     1.2672    -0.8567 C.ar  1 <1>  -0.1500 
  3 H        0.1537     2.3438    -1.0079 H     1 <1>   0.1500 
  4 C       -1.0120     0.5517    -1.2726 C.ar  1 <1>  -0.1500 
  5 H       -1.8341     1.0829    -1.7429 H     1 <1>   0.1500 
  6 C       -1.0577    -0.8275    -1.0769 C.ar  1 <1>   0.0825 
  7 O       -2.1370    -1.5651    -1.4682 O.3   1 <1>  -0.5325 
  8 H       -2.7954    -0.9738    -1.8695 H     1 <1>   0.4500 
  9 C        0.0011    -1.5006    -0.4732 C.ar  1 <1>  -0.1500 
 10 H       -0.0510    -2.5757    -0.3279 H     1 <1>   0.1500 
 11 C        1.1224    -0.7831    -0.0592 C.ar  1 <1>   0.0825 
 12 O        2.1383    -1.4892     0.5308 O.3   1 <1>  -0.1592 
 13 C        3.2471    -0.7886     0.9411 C.2   1 <1>  -0.0733 
 14 H        3.9499    -1.4756     1.3983 H     1 <1>   0.1500 
 15 C        3.4557     0.5298     0.8214 C.2   1 <1>  -0.0140 
 16 C        4.6979     1.1421     1.3248 C.ar  1 <1>   0.0284 
 17 C        2.3707     1.3283     0.1938 C.2   1 <1>   0.4694 
 18 O        2.4460     2.5421     0.0399 O.2   1 <1>  -0.5700 
 19 C        5.9543     0.6370     0.9532 C.ar  1 <1>  -0.1500 
 20 H        6.0356    -0.2103     0.2758 H     1 <1>   0.1500 
 21 C        7.1267     1.2222     1.4373 C.ar  1 <1>  -0.1500 
 22 H        8.0958     0.8279     1.1454 H     1 <1>   0.1500 
 23 C        7.0500     2.3164     2.2910 C.ar  1 <1>   0.0825 
 24 O        8.2200     2.8565     2.7386 O.3   1 <1>  -0.5325 
 25 H        8.0161     3.6122     3.3139 H     1 <1>   0.4500 
 26 C        5.8174     2.8384     2.6684 C.ar  1 <1>  -0.1500 
 27 H        5.7451     3.6958     3.3303 H     1 <1>   0.1500 
 28 C        4.6448     2.2510     2.1838 C.ar  1 <1>  -0.1500 
 29 H        3.6863     2.6717     2.4822 H     1 <1>   0.1500 
@<TRIPOS>BOND
  1   1   2  ar  
  2   1  11  ar  
  3   1  17  1   
  4   2   3  1   
  5   2   4  ar  
  6   4   5  1   
  7   4   6  ar  
  8   6   7  1   
  9   6   9  ar  
 10   7   8  1   
 11   9  10  1   
 12   9  11  ar  
 13  11  12  1   
 14  12  13  1   
 15  13  14  1   
 16  13  15  2   
 17  15  16  1   
 18  15  17  1   
 19  16  19  ar  
 20  16  28  ar  
 21  17  18  2   
 22  19  20  1   
 23  19  21  ar  
 24  21  22  1   
 25  21  23  ar  
 26  23  24  1   
 27  23  26  ar  
 28  24  25  1   
 29  26  27  1   
 30  26  28  ar  
 31  28  29  1   
@<TRIPOS>SUBSTRUCTURE
  1 <1>   0 RESIDUE 1 * * 1
# MOE 2007.09 (io_trps.svl 2007.09)
