@<TRIPOS>MOLECULE
J08_49
139 147 1 0 0 
SMALL
USER_CHARGES


@<TRIPOS>ATOM
  1 C        2.5291    -0.0489    -2.5410 C.3   1 <1>   0.0000 
  2 C        2.1564     0.1099    -4.0357 C.3   1 <1>   0.0000 
  3 H1       2.8471    -0.4063    -4.7030 H     1 <1>   0.0000 
  4 H2       2.1141     1.1623    -4.3335 H     1 <1>   0.0000 
  5 H3       1.1736    -0.3000    -4.2799 H     1 <1>   0.0000 
  6 C        1.1985    -0.0442    -1.7224 C.3   1 <1>   0.0000 
  7 H1       0.6021     0.8433    -1.9665 H     1 <1>   0.0000 
  8 H2       1.4236     0.0234    -0.6495 H     1 <1>   0.0000 
  9 C        0.3230    -1.2819    -1.9537 C.3   1 <1>   0.0000 
 10 H1      -0.0840    -1.2819    -2.9696 H     1 <1>   0.0000 
 11 H2      -0.5434    -1.1980    -1.2919 H     1 <1>   0.0000 
 12 C        1.0643    -2.6006    -1.7053 C.3   1 <1>   0.2800 
 13 H        0.4216    -3.4194    -2.0570 H     1 <1>   0.0000 
 14 O        1.3252    -2.7438    -0.2986 O.3   1 <1>  -0.5600 
 15 C        0.3429    -3.5334     0.3903 C.3   1 <1>   0.5600 
 16 H        0.1653    -4.4648    -0.1611 H     1 <1>   0.0000 
 17 C        2.4133    -2.6682    -2.4831 C.3   1 <1>   0.2800 
 18 C        2.1705    -2.6949    -3.8900 C.3   1 <1>   0.0000 
 19 H1       1.6482    -1.7851    -4.1859 H     1 <1>   0.0000 
 20 O2       1.3679    -3.8310    -4.2131 O.3   1 <1>   0.0000 
 21 H2       0.5410    -3.7485    -3.7323 H     1 <1>   0.0000 
 22 H3       3.1200    -2.7580    -4.4215 H     1 <1>   0.0000 
 23 C        3.1507    -3.9633    -2.0953 C.3   1 <1>   0.0000 
 24 H1       2.4827    -4.8279    -2.1885 H     1 <1>   0.0000 
 25 H2       3.5277    -3.9305    -1.0682 H     1 <1>   0.0000 
 26 H3       3.9896    -4.1672    -2.7694 H     1 <1>   0.0000 
 27 C        3.2692    -1.3953    -2.1933 C.3   1 <1>   0.0000 
 28 H        3.4121    -1.3950    -1.1001 H     1 <1>   0.0000 
 29 C        4.7040    -1.4249    -2.7630 C.3   1 <1>   0.0000 
 30 H1       4.6972    -1.4852    -3.8543 H     1 <1>   0.0000 
 31 H2       5.2193    -2.3294    -2.4200 H     1 <1>   0.0000 
 32 C        5.5498    -0.2298    -2.2734 C.3   1 <1>   0.0000 
 33 H1       6.5573    -0.3193    -2.6976 H     1 <1>   0.0000 
 34 H2       5.6456    -0.3465    -1.1872 H     1 <1>   0.0000 
 35 C        5.7932     2.4558    -1.9007 C.3   1 <1>   0.0000 
 36 C        6.1792     3.5225    -2.9858 C.3   1 <1>   0.0000 
 37 H1       5.2984     3.9536    -3.4713 H     1 <1>   0.0000 
 38 H2       6.8363     3.1031    -3.7535 H     1 <1>   0.0000 
 39 H3       6.7542     4.3593    -2.5843 H     1 <1>   0.0000 
 40 C        4.9499     1.1714    -2.5967 C.3   1 <1>   0.0000 
 41 C        3.4657     1.1223    -2.0396 C.3   1 <1>   0.1382 
 42 H        3.5703     0.8611    -0.9753 H     1 <1>   0.0000 
 43 C        5.0013     1.3162    -4.1434 C.3   1 <1>   0.0000 
 44 H1       4.4399     2.1862    -4.4963 H     1 <1>   0.0000 
 45 H2       4.6174     0.4556    -4.6829 H     1 <1>   0.0000 
 46 H3       6.0350     1.3857    -4.4976 H     1 <1>   0.0000 
 47 C        4.9168     3.1876    -0.7788 C.3   1 <1>   0.4182 
 48 O        4.7981     2.2722     0.3486 O.3   1 <1>  -0.5600 
 49 C        3.5420     3.4654    -1.3484 C.2   1 <1>  -0.2882 
 50 H        3.1246     4.4647    -1.3018 H     1 <1>   0.1500 
 51 C        2.8708     2.5056    -2.0049 C.2   1 <1>  -0.2882 
 52 H        1.9073     2.7159    -2.4559 H     1 <1>   0.1500 
 53 C        7.1345     2.0021    -1.2553 C.3   1 <1>   0.0000 
 54 H1       7.8680     1.7370    -2.0282 H     1 <1>   0.0000 
 55 H2       7.0081     1.0866    -0.6711 H     1 <1>   0.0000 
 56 C        7.7457     3.0517    -0.3094 C.3   1 <1>   0.2800 
 57 H1       8.1983     3.8519    -0.9076 H     1 <1>   0.0000 
 58 O        8.8145     2.4172     0.3941 O.3   1 <1>  -0.6800 
 59 H        9.4126     3.1122     0.7195 H     1 <1>   0.4000 
 60 C        6.7045     3.6650     0.6793 C.3   1 <1>   0.0000 
 61 C        5.8483     2.5520     1.2997 C.3   1 <1>   0.2800 
 62 H1       6.4049     1.6324     1.5061 H     1 <1>   0.0000 
 63 H2       5.3604     2.8480     2.2328 H     1 <1>   0.0000 
 64 C        5.6300     4.4055    -0.1296 C.3   1 <1>   0.0000 
 65 H        6.0689     5.0795    -0.8673 H     1 <1>   0.0000 
 66 C        7.4114     4.5353     1.7313 C.3   1 <1>   0.0000 
 67 H1       8.1435     5.1831     1.2327 H     1 <1>   0.0000 
 68 H2       7.9859     3.9017     2.4188 H     1 <1>   0.0000 
 69 C        6.4757     5.4143     2.5605 C.3   1 <1>   0.0000 
 70 H1       7.0803     6.0864     3.1831 H     1 <1>   0.0000 
 71 H2       5.9206     4.7792     3.2624 H     1 <1>   0.0000 
 72 C        5.4868     6.2294     1.7067 C.3   1 <1>   0.0000 
 73 C        6.2246     7.3175     0.9027 C.3   1 <1>   0.0000 
 74 H1       6.9658     6.9017     0.2140 H     1 <1>   0.0000 
 75 H2       6.7523     8.0077     1.5708 H     1 <1>   0.0000 
 76 H3       5.5205     7.9089     0.3062 H     1 <1>   0.0000 
 77 C        4.4821     6.9311     2.6415 C.3   1 <1>   0.0000 
 78 H1       3.7546     7.5193     2.0708 H     1 <1>   0.0000 
 79 H2       4.9929     7.6106     3.3331 H     1 <1>   0.0000 
 80 H3       3.9230     6.2049     3.2425 H     1 <1>   0.0000 
 81 C        4.7148     5.2786     0.7660 C.3   1 <1>   0.0000 
 82 H1       4.0545     5.8782     0.1267 H     1 <1>   0.0000 
 83 H2       4.0507     4.6414     1.3646 H     1 <1>   0.0000 
 84 O       -0.8781    -2.8128     0.4924 O.3   1 <1>  -0.5600 
 85 C       -1.5997    -2.9486     1.7212 C.3   1 <1>   0.5600 
 86 O       -2.9827    -2.6085     1.5363 O.3   1 <1>  -0.5600 
 87 C       -3.1305    -1.3311     0.8995 C.3   1 <1>   0.5600 
 88 H       -2.6717    -1.3617    -0.0958 H     1 <1>   0.0000 
 89 H2      -1.1887    -2.2432     2.4532 H     1 <1>   0.0000 
 90 C       -1.5038    -4.3839     2.2939 C.3   1 <1>   0.2800 
 91 O       -1.9810    -5.2713     1.2660 O.3   1 <1>  -0.5600 
 92 H2      -2.1414    -4.4638     3.1820 H     1 <1>   0.0000 
 93 C       -0.0216    -4.6560     2.6273 C.3   1 <1>   0.2800 
 94 H1       0.2151    -5.7114     2.5052 H     1 <1>   0.0000 
 95 O        0.2395    -4.3247     3.9990 O.3   1 <1>  -0.6800 
 96 H        0.7041    -3.4559     3.9534 H     1 <1>   0.4000 
 97 C        0.9561    -3.8643     1.7532 C.3   1 <1>   0.2800 
 98 H1       1.8977    -4.4125     1.6354 H     1 <1>   0.0000 
 99 O        1.3042    -2.6490     2.4585 O.3   1 <1>  -0.6800 
100 H        1.7168    -2.0749     1.7779 H     1 <1>   0.4000 
101 O       -2.5317    -0.2949     1.6870 O.3   1 <1>  -0.5600 
102 C       -2.7085     1.0104     1.1560 C.3   1 <1>   0.5600 
103 O       -2.0081     1.1495    -0.0788 O.3   1 <1>  -0.6800 
104 H       -1.0672     1.0517     0.1544 H     1 <1>   0.4000 
105 H2      -2.2711     1.7326     1.8537 H     1 <1>   0.0000 
106 C       -4.1822     1.3688     0.9161 C.3   1 <1>   0.2800 
107 O       -4.2936     2.6103     0.2021 O.3   1 <1>  -0.6800 
108 H       -3.5518     2.6087    -0.4385 H     1 <1>   0.4000 
109 H2      -4.7086     1.4921     1.8693 H     1 <1>   0.0000 
110 C       -4.8590     0.2741     0.0886 C.3   1 <1>   0.2800 
111 H1      -4.4477     0.2649    -0.9284 H     1 <1>   0.0000 
112 O       -6.2518     0.5635    -0.0587 O.3   1 <1>  -0.6800 
113 H       -6.3101     1.5311    -0.1816 H     1 <1>   0.4000 
114 C       -4.6420    -1.0872     0.7457 C.3   1 <1>   0.2800 
115 H1      -5.1193    -1.8858     0.1675 H     1 <1>   0.0000 
116 O       -5.2473    -1.1129     2.0512 O.3   1 <1>  -0.6800 
117 H       -4.8532    -1.8851     2.5019 H     1 <1>   0.4000 
118 C       -2.6419    -6.4791     1.6690 C.3   1 <1>   0.5600 
119 H       -2.9947    -6.9077     0.7223 H     1 <1>   0.0000 
120 O       -3.7970    -6.2372     2.4889 O.3   1 <1>  -0.5600 
121 C       -4.5645    -7.4371     2.7346 C.3   1 <1>   0.2800 
122 H1      -4.9163    -7.8229     1.7685 H     1 <1>   0.0000 
123 C       -5.7926    -7.0430     3.5630 C.3   1 <1>   0.2800 
124 O       -6.6477    -6.1961     2.7990 O.3   1 <1>  -0.6800 
125 H       -6.0791    -5.4840     2.4496 H     1 <1>   0.4000 
126 H2      -5.5018    -6.4930     4.4641 H     1 <1>   0.0000 
127 H3      -6.3808    -7.9164     3.8567 H     1 <1>   0.0000 
128 C       -3.7139    -8.4894     3.4633 C.3   1 <1>   0.2800 
129 O       -4.4040    -9.7326     3.6178 O.3   1 <1>  -0.6800 
130 H       -5.0492    -9.6438     4.3422 H     1 <1>   0.4000 
131 H2      -3.4231    -8.1409     4.4624 H     1 <1>   0.0000 
132 C       -2.4547    -8.7733     2.6456 C.3   1 <1>   0.2800 
133 H1      -2.7040    -9.3061     1.7190 H     1 <1>   0.0000 
134 O       -1.5769    -9.6426     3.3702 O.3   1 <1>  -0.6800 
135 H       -2.1346   -10.3937     3.6533 H     1 <1>   0.4000 
136 C       -1.6993    -7.4879     2.3359 C.3   1 <1>   0.2800 
137 O       -0.5925    -7.8023     1.4836 O.3   1 <1>  -0.6800 
138 H       -0.1537    -8.5624     1.9145 H     1 <1>   0.4000 
139 H2      -1.2914    -7.0829     3.2687 H     1 <1>   0.0000 
@<TRIPOS>BOND
  1   1   2  1   
  2   1   6  1   
  3   1  27  1   
  4   1  41  1   
  5   2   3  1   
  6   2   4  1   
  7   2   5  1   
  8   6   7  1   
  9   6   8  1   
 10   6   9  1   
 11   9  10  1   
 12   9  11  1   
 13   9  12  1   
 14  12  13  1   
 15  12  14  1   
 16  12  17  1   
 17  14  15  1   
 18  15  16  1   
 19  15  84  1   
 20  15  97  1   
 21  17  18  1   
 22  17  23  1   
 23  17  27  1   
 24  18  19  1   
 25  18  20  1   
 26  18  22  1   
 27  20  21  1   
 28  23  24  1   
 29  23  25  1   
 30  23  26  1   
 31  27  28  1   
 32  27  29  1   
 33  29  30  1   
 34  29  31  1   
 35  29  32  1   
 36  32  33  1   
 37  32  34  1   
 38  32  40  1   
 39  35  36  1   
 40  35  40  1   
 41  35  47  1   
 42  35  53  1   
 43  36  37  1   
 44  36  38  1   
 45  36  39  1   
 46  40  41  1   
 47  40  43  1   
 48  41  42  1   
 49  41  51  1   
 50  43  44  1   
 51  43  45  1   
 52  43  46  1   
 53  47  48  1   
 54  47  49  1   
 55  47  64  1   
 56  48  61  1   
 57  49  50  1   
 58  49  51  2   
 59  51  52  1   
 60  53  54  1   
 61  53  55  1   
 62  53  56  1   
 63  56  57  1   
 64  56  58  1   
 65  56  60  1   
 66  58  59  1   
 67  60  61  1   
 68  60  64  1   
 69  60  66  1   
 70  61  62  1   
 71  61  63  1   
 72  64  65  1   
 73  64  81  1   
 74  66  67  1   
 75  66  68  1   
 76  66  69  1   
 77  69  70  1   
 78  69  71  1   
 79  69  72  1   
 80  72  73  1   
 81  72  77  1   
 82  72  81  1   
 83  73  74  1   
 84  73  75  1   
 85  73  76  1   
 86  77  78  1   
 87  77  79  1   
 88  77  80  1   
 89  81  82  1   
 90  81  83  1   
 91  84  85  1   
 92  85  86  1   
 93  85  89  1   
 94  85  90  1   
 95  86  87  1   
 96  87  88  1   
 97  87 101  1   
 98  87 114  1   
 99  90  91  1   
100  90  92  1   
101  90  93  1   
102  91 118  1   
103  93  94  1   
104  93  95  1   
105  93  97  1   
106  95  96  1   
107  97  98  1   
108  97  99  1   
109  99 100  1   
110 101 102  1   
111 102 103  1   
112 102 105  1   
113 102 106  1   
114 103 104  1   
115 106 107  1   
116 106 109  1   
117 106 110  1   
118 107 108  1   
119 110 111  1   
120 110 112  1   
121 110 114  1   
122 112 113  1   
123 114 115  1   
124 114 116  1   
125 116 117  1   
126 118 119  1   
127 118 120  1   
128 118 136  1   
129 120 121  1   
130 121 122  1   
131 121 123  1   
132 121 128  1   
133 123 124  1   
134 123 126  1   
135 123 127  1   
136 124 125  1   
137 128 129  1   
138 128 131  1   
139 128 132  1   
140 129 130  1   
141 132 133  1   
142 132 134  1   
143 132 136  1   
144 134 135  1   
145 136 137  1   
146 136 139  1   
147 137 138  1   
@<TRIPOS>SUBSTRUCTURE
  1 ****  14 GROUP 4 **** **** 0

# MOE 2015.10 (io_trps.svl 2015.10)
