@<TRIPOS>MOLECULE
J08_72
47 48 1 0 0 
SMALL
USER_CHARGES


@<TRIPOS>ATOM
  1 C        1.2055     0.9121     0.4879 C.ar  1 <1>   0.0284 
  2 C        2.5780     1.4144     0.6192 C.2   1 <1>  -0.1784 
  3 H        2.6764     2.4705     0.8629 H     1 <1>   0.1500 
  4 C        3.6597     0.6405     0.4729 C.2   1 <1>  -0.1356 
  5 H        3.5829    -0.4191     0.2582 H     1 <1>   0.1500 
  6 C        5.0067     1.2318     0.6095 C.2   1 <1>   0.5412 
  7 C        6.1341     0.2887     0.4421 C.2   1 <1>  -0.1356 
  8 H        5.9171    -0.7585     0.2692 H     1 <1>   0.1500 
  9 C        7.3935     0.7488     0.5001 C.2   1 <1>   0.0767 
 10 O        7.6940     2.0826     0.7150 O.3   1 <1>  -0.5267 
 11 H        6.8366     2.5623     0.8180 H     1 <1>   0.4500 
 12 C        8.5435    -0.1202     0.3381 C.2   1 <1>  -0.1500 
 13 H        8.3296    -1.1740     0.1767 H     1 <1>   0.1500 
 14 C        9.8179     0.2982     0.3559 C.2   1 <1>  -0.1784 
 15 H       10.0487     1.3534     0.4847 H     1 <1>   0.1500 
 16 C       10.9721    -0.5852     0.1707 C.ar  1 <1>   0.0284 
 17 O        5.2137     2.4217     0.8359 O.2   1 <1>  -0.5700 
 18 C        0.8309     0.0364    -0.5394 C.ar  1 <1>  -0.1500 
 19 H        1.5762    -0.2917    -1.2591 H     1 <1>   0.1500 
 20 C       -0.4951    -0.4065    -0.6583 C.ar  1 <1>   0.0825 
 21 O       -0.7964    -1.2666    -1.6782 O.3   1 <1>  -0.5325 
 22 H        0.0007    -1.4417    -2.2045 H     1 <1>   0.4500 
 23 C       -1.4728     0.0279     0.2426 C.ar  1 <1>   0.0825 
 24 O       -2.8026    -0.2936     0.2843 O.3   1 <1>  -0.3625 
 25 C       -3.3183    -1.1732    -0.7035 C.3   1 <1>   0.2800 
 26 H1      -4.3877    -1.2989    -0.5061 H     1 <1>   0.0000 
 27 H2      -2.8587    -2.1640    -0.6327 H     1 <1>   0.0000 
 28 H3      -3.2236    -0.7453    -1.7064 H     1 <1>   0.0000 
 29 C       -1.0948     0.9170     1.2570 C.ar  1 <1>  -0.1500 
 30 H       -1.8427     1.2709     1.9640 H     1 <1>   0.1500 
 31 C        0.2259     1.3611     1.3774 C.ar  1 <1>  -0.1500 
 32 H        0.4780     2.0534     2.1778 H     1 <1>   0.1500 
 33 C       11.0672    -1.8327     0.7915 C.ar  1 <1>  -0.1500 
 34 H       10.2685    -2.1967     1.4333 H     1 <1>   0.1500 
 35 C       12.2020    -2.6264     0.6092 C.ar  1 <1>  -0.1500 
 36 H       12.2448    -3.5922     1.1054 H     1 <1>   0.1500 
 37 C       13.2589    -2.1757    -0.1901 C.ar  1 <1>   0.0825 
 38 O       14.3481    -2.9883    -0.3382 O.3   1 <1>  -0.5325 
 39 H       14.2102    -3.8033     0.1711 H     1 <1>   0.4500 
 40 C       13.1904    -0.9240    -0.8096 C.ar  1 <1>   0.0825 
 41 O       14.1152    -0.3167    -1.6152 O.3   1 <1>  -0.3625 
 42 C       15.3205    -1.0088    -1.9016 C.3   1 <1>   0.2800 
 43 H1      15.9191    -0.3692    -2.5581 H     1 <1>   0.0000 
 44 H2      15.1268    -1.9379    -2.4467 H     1 <1>   0.0000 
 45 H3      15.9080    -1.1778    -0.9937 H     1 <1>   0.0000 
 46 C       12.0441    -0.1388    -0.6137 C.ar  1 <1>  -0.1500 
 47 H       11.9934     0.8368    -1.0952 H     1 <1>   0.1500 
@<TRIPOS>BOND
  1   1   2  1   
  2   1  18  ar  
  3   1  31  ar  
  4   2   3  1   
  5   2   4  2   
  6   4   5  1   
  7   4   6  1   
  8   6   7  1   
  9   6  17  2   
 10   7   8  1   
 11   7   9  2   
 12   9  10  1   
 13   9  12  1   
 14  10  11  1   
 15  12  13  1   
 16  12  14  2   
 17  14  15  1   
 18  14  16  1   
 19  16  33  ar  
 20  16  46  ar  
 21  18  19  1   
 22  18  20  ar  
 23  20  21  1   
 24  20  23  ar  
 25  21  22  1   
 26  23  24  1   
 27  23  29  ar  
 28  24  25  1   
 29  25  26  1   
 30  25  27  1   
 31  25  28  1   
 32  29  30  1   
 33  29  31  ar  
 34  31  32  1   
 35  33  34  1   
 36  33  35  ar  
 37  35  36  1   
 38  35  37  ar  
 39  37  38  1   
 40  37  40  ar  
 41  38  39  1   
 42  40  41  1   
 43  40  46  ar  
 44  41  42  1   
 45  42  43  1   
 46  42  44  1   
 47  42  45  1   
 48  46  47  1   
@<TRIPOS>SUBSTRUCTURE
  1 <1>   0 RESIDUE 1 * * 1
# MOE 2007.09 (io_trps.svl 2007.09)
