@<TRIPOS>MOLECULE
J12_01
29 30 1 0 0 
SMALL
USER_CHARGES


@<TRIPOS>ATOM
  1 O        1.2149     0.5959    -0.3938 O.3   1 <1>  -0.5600 
  2 C       -0.0162     1.3101    -0.1599 C.3   1 <1>   0.2800 
  3 C       -0.1780     1.5146     1.3589 C.3   1 <1>   0.0000 
  4 H1       0.6909     2.0509     1.7603 H     1 <1>   0.0000 
  5 C       -0.2807     0.1530     2.0560 C.3   1 <1>   0.0000 
  6 H1       0.4481     0.0846     2.8709 H     1 <1>   0.0000 
  7 H2      -1.2657     0.0497     2.5281 H     1 <1>   0.0000 
  8 H3      -1.0653     2.1179     1.5845 H     1 <1>   0.0000 
  9 C       -1.1803     0.4658    -0.7138 C.3   1 <1>   0.0000 
 10 H1      -1.0209     0.2598    -1.7796 H     1 <1>   0.0000 
 11 H2      -2.1336     0.9999    -0.6248 H     1 <1>   0.0000 
 12 C       -1.2560    -0.8677     0.0389 C.3   1 <1>   0.0000 
 13 H1      -1.2623    -1.7054    -0.6667 H     1 <1>   0.0000 
 14 H2      -2.2044    -0.9328     0.5867 H     1 <1>   0.0000 
 15 C       -0.0664    -0.9619     1.0140 C.3   1 <1>   0.0000 
 16 H       -0.0569    -1.9414     1.5050 H     1 <1>   0.0000 
 17 C        1.2597    -0.7003     0.2403 C.3   1 <1>   0.2800 
 18 C        0.0841     2.6481    -0.8854 C.3   1 <1>   0.0000 
 19 H1       0.2462     2.4977    -1.9587 H     1 <1>   0.0000 
 20 H2       0.9413     3.2254    -0.5206 H     1 <1>   0.0000 
 21 H3      -0.8212     3.2488    -0.7518 H     1 <1>   0.0000 
 22 C        1.4998    -1.7387    -0.8664 C.3   1 <1>   0.0000 
 23 H1       2.4682    -1.5715    -1.3531 H     1 <1>   0.0000 
 24 H2       0.7577    -1.6631    -1.6673 H     1 <1>   0.0000 
 25 H3       1.4871    -2.7583    -0.4681 H     1 <1>   0.0000 
 26 C        2.4839    -0.7090     1.1687 C.3   1 <1>   0.0000 
 27 H1       2.5519    -1.6448     1.7326 H     1 <1>   0.0000 
 28 H2       2.4696     0.1280     1.8738 H     1 <1>   0.0000 
 29 H3       3.4093    -0.5862     0.5933 H     1 <1>   0.0000 
@<TRIPOS>BOND
  1   1   2  1   
  2   1  17  1   
  3   2   3  1   
  4   2   9  1   
  5   2  18  1   
  6   3   4  1   
  7   3   5  1   
  8   3   8  1   
  9   5   6  1   
 10   5   7  1   
 11   5  15  1   
 12   9  10  1   
 13   9  11  1   
 14   9  12  1   
 15  12  13  1   
 16  12  14  1   
 17  12  15  1   
 18  15  16  1   
 19  15  17  1   
 20  17  22  1   
 21  17  26  1   
 22  18  19  1   
 23  18  20  1   
 24  18  21  1   
 25  22  23  1   
 26  22  24  1   
 27  22  25  1   
 28  26  27  1   
 29  26  28  1   
 30  26  29  1   
@<TRIPOS>SUBSTRUCTURE
  1 <1>   0 RESIDUE 1 * * 1
# MOE 2007.09 (io_trps.svl 2007.09)
