@<TRIPOS>MOLECULE
J13_01
37 40 1 0 0 
SMALL
USER_CHARGES


@<TRIPOS>ATOM
  1 C        1.3145     0.6822     0.5053 C.ar  1 <1>  -0.1435 
  2 C        0.0598     1.2847     0.6918 C.ar  1 <1>  -0.1500 
  3 H       -0.0971     2.3238     0.4125 H     1 <1>   0.1500 
  4 C       -0.9979     0.5563     1.2366 C.ar  1 <1>  -0.1500 
  5 H       -1.9667     1.0277     1.3792 H     1 <1>   0.1500 
  6 C       -0.8123    -0.7766     1.5974 C.ar  1 <1>  -0.1500 
  7 H       -1.6347    -1.3466     2.0210 H     1 <1>   0.1500 
  8 C        0.4326    -1.3820     1.4133 C.ar  1 <1>  -0.1500 
  9 H        0.5751    -2.4220     1.6949 H     1 <1>   0.1500 
 10 C        1.5040    -0.6662     0.8697 C.ar  1 <1>   0.1790 
 11 N        2.7358    -1.3340     0.7078 N.2   1 <1>  -0.6290 
 12 C        3.6978    -0.6296     0.2084 C.2   1 <1>   0.4390 
 13 N        3.6433     0.6844    -0.1727 N.pl3 1 <1>  -0.7882 
 14 C        2.4503     1.4818    -0.0849 C.3   1 <1>   0.5126 
 15 H1       2.1656     1.8263    -1.0855 H     1 <1>   0.0000 
 16 H2       2.6398     2.3573     0.5466 H     1 <1>   0.0000 
 17 C        5.0887    -1.1867    -0.0419 C.3   1 <1>   0.2045 
 18 C        5.2417    -2.0541    -1.2836 C.ar  1 <1>  -0.1435 
 19 H2       5.3851    -1.7574     0.8460 H     1 <1>   0.0000 
 20 C        5.8891     0.1348    -0.1548 C.3   1 <1>   0.0000 
 21 H1       6.7853     0.0718    -0.7799 H     1 <1>   0.0000 
 22 H2       6.2106     0.4373     0.8510 H     1 <1>   0.0000 
 23 C        4.8961     1.1778    -0.6873 C.3   1 <1>   0.3691 
 24 H1       4.8814     1.1851    -1.7822 H     1 <1>   0.0000 
 25 H2       5.1360     2.1808    -0.3214 H     1 <1>   0.0000 
 26 C        4.2333    -2.0979    -2.2682 C.ar  1 <1>  -0.1500 
 27 H        3.3156    -1.5244    -2.1567 H     1 <1>   0.1500 
 28 C        4.3739    -2.8781    -3.4166 C.ar  1 <1>  -0.1500 
 29 H        3.5813    -2.8982    -4.1596 H     1 <1>   0.1500 
 30 C        5.5262    -3.6282    -3.6068 C.ar  1 <1>  -0.1500 
 31 H        5.6402    -4.2380    -4.4983 H     1 <1>   0.1500 
 32 C        6.5370    -3.5959    -2.6473 C.ar  1 <1>  -0.1500 
 33 H        7.4328    -4.1890    -2.8130 H     1 <1>   0.1500 
 34 C        6.4147    -2.8180    -1.4845 C.ar  1 <1>   0.1000 
 35 N        7.4624    -2.8269    -0.5723 N.pl3 1 <1>  -0.9000 
 36 H1       8.2883    -3.3807    -0.7517 H     1 <1>   0.4000 
 37 H2       7.4263    -2.2930     0.2828 H     1 <1>   0.4000 
@<TRIPOS>BOND
  1   1   2  ar  
  2   1  10  ar  
  3   1  14  1   
  4   2   3  1   
  5   2   4  ar  
  6   4   5  1   
  7   4   6  ar  
  8   6   7  1   
  9   6   8  ar  
 10   8   9  1   
 11   8  10  ar  
 12  10  11  1   
 13  11  12  2   
 14  12  13  1   
 15  12  17  1   
 16  13  14  1   
 17  13  23  1   
 18  14  15  1   
 19  14  16  1   
 20  17  18  1   
 21  17  19  1   
 22  17  20  1   
 23  18  26  ar  
 24  18  34  ar  
 25  20  21  1   
 26  20  22  1   
 27  20  23  1   
 28  23  24  1   
 29  23  25  1   
 30  26  27  1   
 31  26  28  ar  
 32  28  29  1   
 33  28  30  ar  
 34  30  31  1   
 35  30  32  ar  
 36  32  33  1   
 37  32  34  ar  
 38  34  35  1   
 39  35  36  1   
 40  35  37  1   
@<TRIPOS>SUBSTRUCTURE
  1 <1>   0 RESIDUE 1 * * 1
# MOE 2007.09 (io_trps.svl 2007.09)
