@<TRIPOS>MOLECULE
J13_04
26 28 1 0 0 
SMALL
USER_CHARGES


@<TRIPOS>ATOM
  1 C        1.3383     0.6927    -0.0822 C.ar  1 <1>  -0.1435 
  2 C        0.1044     1.3607    -0.1273 C.ar  1 <1>  -0.1500 
  3 H        0.0667     2.4475    -0.1404 H     1 <1>   0.1500 
  4 C       -1.0875     0.6364    -0.1554 C.ar  1 <1>  -0.1500 
  5 H       -2.0401     1.1586    -0.1902 H     1 <1>   0.1500 
  6 C       -1.0580    -0.7565    -0.1388 C.ar  1 <1>  -0.1500 
  7 H       -1.9859    -1.3216    -0.1607 H     1 <1>   0.1500 
  8 C        0.1651    -1.4275    -0.0939 C.ar  1 <1>  -0.1500 
  9 H        0.1858    -2.5140    -0.0813 H     1 <1>   0.1500 
 10 C        1.3697    -0.7178    -0.0653 C.ar  1 <1>   0.1790 
 11 N        2.5728    -1.4540    -0.0206 N.2   1 <1>  -0.6290 
 12 C        3.6542    -0.7484    -0.0053 C.2   1 <1>   0.4390 
 13 N        3.7602     0.6138    -0.0101 N.pl3 1 <1>  -0.7882 
 14 C        2.6216     1.4893    -0.0511 C.3   1 <1>   0.5126 
 15 H1       2.6225     2.1350     0.8344 H     1 <1>   0.0000 
 16 H2       2.6755     2.1201    -0.9456 H     1 <1>   0.0000 
 17 C        5.0367    -1.3725     0.0603 C.3   1 <1>   0.3410 
 18 H1       5.1376    -2.2246    -0.6168 H     1 <1>   0.0000 
 19 O        5.3384    -1.7689     1.3854 O.3   1 <1>  -0.6800 
 20 H        4.6302    -2.3844     1.6498 H     1 <1>   0.4000 
 21 C        5.9159    -0.1826    -0.3509 C.3   1 <1>   0.0000 
 22 H1       6.0322    -0.1785    -1.4420 H     1 <1>   0.0000 
 23 H2       6.9105    -0.2000     0.1048 H     1 <1>   0.0000 
 24 C        5.1271     1.0699     0.0673 C.3   1 <1>   0.3691 
 25 H1       5.3283     1.9108    -0.6034 H     1 <1>   0.0000 
 26 H2       5.3710     1.3602     1.0947 H     1 <1>   0.0000 
@<TRIPOS>BOND
  1   1   2  ar  
  2   1  10  ar  
  3   1  14  1   
  4   2   3  1   
  5   2   4  ar  
  6   4   5  1   
  7   4   6  ar  
  8   6   7  1   
  9   6   8  ar  
 10   8   9  1   
 11   8  10  ar  
 12  10  11  1   
 13  11  12  2   
 14  12  13  1   
 15  12  17  1   
 16  13  14  1   
 17  13  24  1   
 18  14  15  1   
 19  14  16  1   
 20  17  18  1   
 21  17  19  1   
 22  17  21  1   
 23  19  20  1   
 24  21  22  1   
 25  21  23  1   
 26  21  24  1   
 27  24  25  1   
 28  24  26  1   
@<TRIPOS>SUBSTRUCTURE
  1 <1>   0 RESIDUE 1 * * 1
# MOE 2007.09 (io_trps.svl 2007.09)
