@<TRIPOS>MOLECULE
J14_01
44 47 1 0 0 
SMALL
USER_CHARGES


@<TRIPOS>ATOM
  1 C        1.2152     0.5095     0.8518 C.ar  1 <1>   0.0825 
  2 O        2.2993     1.2963     0.5244 O.3   1 <1>  -0.1650 
  3 C        2.0217     2.6436     0.3805 C.ar  1 <1>   0.0825 
  4 C        0.0388     0.5499     0.0971 C.ar  1 <1>  -0.1500 
  5 H        0.0144     1.1530    -0.8079 H     1 <1>   0.1500 
  6 C       -1.1046    -0.1340     0.5293 C.ar  1 <1>  -0.1435 
  7 C       -2.4223    -0.0399    -0.2106 C.3   1 <1>   0.3235 
  8 H1      -3.2478    -0.1944     0.4962 H     1 <1>   0.0000 
  9 H2      -2.4604    -0.8623    -0.9357 H     1 <1>   0.0000 
 10 C       -2.6808     1.2524    -0.9237 C.2   1 <1>   0.0065 
 11 C       -1.0004    -0.9579     1.6622 C.ar  1 <1>  -0.1500 
 12 H       -1.8594    -1.5323     2.0050 H     1 <1>   0.1500 
 13 C        0.2027    -1.0568     2.3691 C.ar  1 <1>  -0.1500 
 14 H        0.2661    -1.7004     3.2431 H     1 <1>   0.1500 
 15 C        1.3131    -0.3160     1.9683 C.ar  1 <1>  -0.1500 
 16 H        2.2383    -0.3654     2.5347 H     1 <1>   0.1500 
 17 C        2.4768     3.3101    -0.7572 C.ar  1 <1>   0.0825 
 18 O        3.1896     2.6199    -1.6973 O.3   1 <1>  -0.5325 
 19 H        3.4313     3.2223    -2.4193 H     1 <1>   0.4500 
 20 C        2.1849     4.6613    -0.9424 C.ar  1 <1>  -0.1500 
 21 H        2.5193     5.1923    -1.8290 H     1 <1>   0.1500 
 22 C        1.4425     5.3523     0.0215 C.ar  1 <1>  -0.1500 
 23 H        1.2177     6.4044    -0.1405 H     1 <1>   0.1500 
 24 C        1.0049     4.7042     1.1854 C.ar  1 <1>  -0.1435 
 25 C        0.2137     5.4397     2.2389 C.3   1 <1>   0.3235 
 26 H1       0.4853     6.5031     2.2177 H     1 <1>   0.0000 
 27 H2       0.5181     5.0837     3.2318 H     1 <1>   0.0000 
 28 C       -1.2661     5.2772     2.1042 C.2   1 <1>   0.0065 
 29 C        1.3075     3.3467     1.3600 C.ar  1 <1>  -0.1500 
 30 H        0.9702     2.8353     2.2592 H     1 <1>   0.1500 
 31 N       -2.4958     2.4905    -0.3482 N.pl3 1 <1>   0.0332 
 32 H       -2.1700     2.6787     0.5962 H     1 <1>   0.2700 
 33 C       -2.8193     3.4349    -1.2844 C.2   1 <1>  -0.3016 
 34 H       -2.7493     4.4926    -1.0771 H     1 <1>   0.1500 
 35 C       -3.1979     2.7246    -2.3954 C.2   1 <1>   0.0772 
 36 H       -3.5275     3.1113    -3.3499 H     1 <1>   0.1500 
 37 N       -3.1114     1.3770    -2.1650 N.2   1 <1>  -0.5653 
 38 N       -2.0969     6.3554     1.9059 N.pl3 1 <1>   0.0332 
 39 H       -1.8036     7.3136     1.7694 H     1 <1>   0.2700 
 40 C       -3.3854     5.9049     1.9381 C.2   1 <1>  -0.3016 
 41 H       -4.2321     6.5652     1.8178 H     1 <1>   0.1500 
 42 C       -3.2851     4.5548     2.1613 C.2   1 <1>   0.0772 
 43 H       -4.0910     3.8407     2.2662 H     1 <1>   0.1500 
 44 N       -1.9695     4.1638     2.2194 N.2   1 <1>  -0.5653 
@<TRIPOS>BOND
  1   1   2  1   
  2   1   4  ar  
  3   1  15  ar  
  4   2   3  1   
  5   3  17  ar  
  6   3  29  ar  
  7   4   5  1   
  8   4   6  ar  
  9   6   7  1   
 10   6  11  ar  
 11   7   8  1   
 12   7   9  1   
 13   7  10  1   
 14  10  31  1   
 15  10  37  2   
 16  11  12  1   
 17  11  13  ar  
 18  13  14  1   
 19  13  15  ar  
 20  15  16  1   
 21  17  18  1   
 22  17  20  ar  
 23  18  19  1   
 24  20  21  1   
 25  20  22  ar  
 26  22  23  1   
 27  22  24  ar  
 28  24  25  1   
 29  24  29  ar  
 30  25  26  1   
 31  25  27  1   
 32  25  28  1   
 33  28  38  1   
 34  28  44  2   
 35  29  30  1   
 36  31  32  1   
 37  31  33  1   
 38  33  34  1   
 39  33  35  2   
 40  35  36  1   
 41  35  37  1   
 42  38  39  1   
 43  38  40  1   
 44  40  41  1   
 45  40  42  2   
 46  42  43  1   
 47  42  44  1   
@<TRIPOS>SUBSTRUCTURE
  1 <1>   0 RESIDUE 1 * * 1
# MOE 2007.09 (io_trps.svl 2007.09)
