@<TRIPOS>MOLECULE
J14_06
38 39 1 0 0 
SMALL
USER_CHARGES


@<TRIPOS>ATOM
  1 C        1.2337     0.7546     0.2791 C.ar  1 <1>  -0.1500 
  2 H        2.1064     1.4017     0.2221 H     1 <1>   0.1500 
  3 C       -0.0265     1.3610     0.1764 C.ar  1 <1>  -0.1500 
  4 H       -0.0563     2.4388     0.0478 H     1 <1>   0.1500 
  5 C       -1.1916     0.5940     0.2357 C.ar  1 <1>   0.0825 
  6 O       -2.4629     1.0929     0.1439 O.3   1 <1>  -0.3625 
  7 C       -2.6218     2.5082     0.0310 C.3   1 <1>   0.2800 
  8 C       -4.1223     2.8341    -0.0191 C.3   1 <1>   0.0000 
  9 C       -4.3366     4.3260    -0.2668 C.3   1 <1>   0.0000 
 10 H1      -5.4043     4.5602    -0.3337 H     1 <1>   0.0000 
 11 H2      -3.8680     4.6354    -1.2070 H     1 <1>   0.0000 
 12 H3      -3.9073     4.9291     0.5405 H     1 <1>   0.0000 
 13 C       -4.8305     2.4010     1.2669 C.3   1 <1>   0.0000 
 14 H1      -4.7399     1.3214     1.4249 H     1 <1>   0.0000 
 15 H2      -5.8986     2.6388     1.2197 H     1 <1>   0.0000 
 16 H3      -4.4096     2.9083     2.1416 H     1 <1>   0.0000 
 17 H3      -4.5731     2.2719    -0.8470 H     1 <1>   0.0000 
 18 H2      -2.1473     2.8563    -0.8948 H     1 <1>   0.0000 
 19 H3      -2.1635     3.0099     0.8926 H     1 <1>   0.0000 
 20 C       -1.0804    -0.7937     0.3959 C.ar  1 <1>   0.0730 
 21 C       -2.2465    -1.6269     0.4615 C.1   1 <1>   0.4841 
 22 N       -3.1707    -2.3271     0.5190 N.1   1 <1>  -0.5571 
 23 C        0.1835    -1.3942     0.4976 C.ar  1 <1>  -0.1500 
 24 H        0.2514    -2.4761     0.6225 H     1 <1>   0.1500 
 25 C        1.3623    -0.6320     0.4434 C.ar  1 <1>   0.0530 
 26 C        2.6594    -1.3275     0.5564 C.2   1 <1>   0.3251 
 27 N        2.7779    -2.6399     0.6037 N.2   1 <1>  -0.5653 
 28 C        4.1060    -3.0156     0.7169 C.2   1 <1>   0.0462 
 29 C        4.4149    -4.4688     0.7804 C.3   1 <1>   0.1810 
 30 H1       5.0591    -4.7619    -0.0545 H     1 <1>   0.0000 
 31 H2       3.4993    -5.0663     0.7249 H     1 <1>   0.0000 
 32 H3       4.9204    -4.7140     1.7196 H     1 <1>   0.0000 
 33 C        5.0073    -1.9646     0.7597 C.2   1 <1>  -0.0450 
 34 S        4.1540    -0.4837     0.6532 S.3   1 <1>  -0.0800 
 35 C        6.4421    -2.0327     0.8751 C.2   1 <1>   0.8050 
 36 O        7.1253    -3.0435     0.9552 O.2   1 <1>  -0.5700 
 37 O        7.0345    -0.8166     0.8914 O.3   1 <1>  -0.6500 
 38 H        7.9917    -1.0095     0.9725 H     1 <1>   0.5000 
@<TRIPOS>BOND
  1   1   2  1   
  2   1   3  ar  
  3   1  25  ar  
  4   3   4  1   
  5   3   5  ar  
  6   5   6  1   
  7   5  20  ar  
  8   6   7  1   
  9   7   8  1   
 10   7  18  1   
 11   7  19  1   
 12   8   9  1   
 13   8  13  1   
 14   8  17  1   
 15   9  10  1   
 16   9  11  1   
 17   9  12  1   
 18  13  14  1   
 19  13  15  1   
 20  13  16  1   
 21  20  21  1   
 22  20  23  ar  
 23  21  22  3   
 24  23  24  1   
 25  23  25  ar  
 26  25  26  1   
 27  26  27  2   
 28  26  34  1   
 29  27  28  1   
 30  28  29  1   
 31  28  33  2   
 32  29  30  1   
 33  29  31  1   
 34  29  32  1   
 35  33  34  1   
 36  33  35  1   
 37  35  36  2   
 38  35  37  1   
 39  37  38  1   
@<TRIPOS>SUBSTRUCTURE
  1 <1>   0 RESIDUE 1 * * 1
# MOE 2007.09 (io_trps.svl 2007.09)
