@<TRIPOS>MOLECULE
J14_15
21 23 1 0 0 
SMALL
USER_CHARGES


@<TRIPOS>ATOM
  1 C        1.3708     0.7971    -0.0216 C.ar  1 <1>   0.0000 
  2 C        0.1445     1.4623    -0.0109 C.ar  1 <1>  -0.1516 
  3 C       -1.0812     0.7933    -0.1127 C.ar  1 <1>  -0.1500 
  4 H       -2.0245     1.3296    -0.1024 H     1 <1>   0.1500 
  5 C       -1.0510    -0.5997    -0.2292 C.ar  1 <1>  -0.1500 
  6 H       -1.9862    -1.1494    -0.3101 H     1 <1>   0.1500 
  7 C        0.1572    -1.2931    -0.2429 C.ar  1 <1>  -0.1500 
  8 H        0.1569    -2.3765    -0.3344 H     1 <1>   0.1500 
  9 C        1.3740    -0.6088    -0.1401 C.ar  1 <1>  -0.1500 
 10 H        2.3098    -1.1598    -0.1520 H     1 <1>   0.1500 
 11 C        2.3962     1.7883     0.1001 C.ar  1 <1>   0.0000 
 12 C        1.7673     3.0297     0.1815 C.ar  1 <1>  -0.1516 
 13 N        0.4132     2.8057     0.1125 N.pl3 1 <1>   0.0332 
 14 H       -0.2929     3.5271     0.1471 H     1 <1>   0.2700 
 15 C        3.7982     1.7473     0.1486 C.ar  1 <1>  -0.1500 
 16 H        4.3500     0.8171     0.0906 H     1 <1>   0.1500 
 17 C        4.4489     2.9662     0.2757 C.ar  1 <1>   0.1600 
 18 H        5.5338     3.0082     0.3195 H     1 <1>   0.1500 
 19 N        3.8336     4.1668     0.3542 N.ar  1 <1>  -0.6200 
 20 C        2.4826     4.2137     0.3080 C.ar  1 <1>   0.1600 
 21 H        2.0210     5.1908     0.3734 H     1 <1>   0.1500 
@<TRIPOS>BOND
  1   1   2  ar  
  2   1   9  ar  
  3   1  11  1   
  4   2   3  ar  
  5   2  13  1   
  6   3   4  1   
  7   3   5  ar  
  8   5   6  1   
  9   5   7  ar  
 10   7   8  1   
 11   7   9  ar  
 12   9  10  1   
 13  11  12  ar  
 14  11  15  ar  
 15  12  13  1   
 16  12  20  ar  
 17  13  14  1   
 18  15  16  1   
 19  15  17  ar  
 20  17  18  1   
 21  17  19  ar  
 22  19  20  ar  
 23  20  21  1   
@<TRIPOS>SUBSTRUCTURE
  1 <1>   0 RESIDUE 1 * * 1
# MOE 2007.09 (io_trps.svl 2007.09)
