@<TRIPOS>MOLECULE
J14_03
44 47 1 0 0 
SMALL
USER_CHARGES


@<TRIPOS>ATOM
  1 C        1.5802    -0.3097     1.0755 C.ar  1 <1>  -0.1435 
  2 C        3.0122    -0.6459     1.4270 C.3   1 <1>   0.3235 
  3 C        3.8542    -0.9463     0.2322 C.2   1 <1>   0.0065 
  4 H2       3.0127    -1.5202     2.0914 H     1 <1>   0.0000 
  5 H3       3.4686     0.1573     2.0179 H     1 <1>   0.0000 
  6 C        1.0959     1.0092     1.0770 C.ar  1 <1>   0.0825 
  7 O        1.9538     2.0270     1.4255 O.3   1 <1>  -0.1650 
  8 C        2.3099     2.9400     0.4501 C.ar  1 <1>   0.0825 
  9 C       -0.2549     1.2706     0.8056 C.ar  1 <1>   0.0825 
 10 O       -0.7291     2.5535     0.8941 O.3   1 <1>  -0.5325 
 11 H       -1.6395     2.5638     0.5474 H     1 <1>   0.4500 
 12 C       -1.1200     0.2322     0.4668 C.ar  1 <1>  -0.1500 
 13 H       -2.1679     0.4152     0.2483 H     1 <1>   0.1500 
 14 C       -0.6382    -1.0751     0.4184 C.ar  1 <1>  -0.1500 
 15 H       -1.3062    -1.8909     0.1535 H     1 <1>   0.1500 
 16 C        0.6974    -1.3449     0.7246 C.ar  1 <1>  -0.1500 
 17 H        1.0524    -2.3740     0.6897 H     1 <1>   0.1500 
 18 C        2.3565     2.6299    -0.9158 C.ar  1 <1>  -0.1500 
 19 H        2.0853     1.6436    -1.2824 H     1 <1>   0.1500 
 20 C        2.7578     3.5942    -1.8410 C.ar  1 <1>  -0.1500 
 21 H        2.7877     3.3510    -2.9002 H     1 <1>   0.1500 
 22 C        3.1153     4.8692    -1.4097 C.ar  1 <1>  -0.1500 
 23 H        3.4200     5.6228    -2.1316 H     1 <1>   0.1500 
 24 C        3.0780     5.1825    -0.0509 C.ar  1 <1>  -0.1500 
 25 H        3.3512     6.1865     0.2692 H     1 <1>   0.1500 
 26 C        2.6874     4.2208     0.8958 C.ar  1 <1>  -0.1435 
 27 C        2.6311     4.6030     2.3596 C.3   1 <1>   0.3235 
 28 C        1.3509     5.2620     2.7552 C.2   1 <1>   0.0065 
 29 H2       3.4669     5.2805     2.5787 H     1 <1>   0.0000 
 30 H3       2.8023     3.7271     2.9969 H     1 <1>   0.0000 
 31 N        4.6454     0.0006    -0.3734 N.pl3 1 <1>   0.0332 
 32 H        4.7284     0.9696    -0.0953 H     1 <1>   0.2700 
 33 C        5.2957    -0.6015    -1.4142 C.2   1 <1>  -0.3016 
 34 H        5.9843    -0.0670    -2.0529 H     1 <1>   0.1500 
 35 C        4.8671    -1.9062    -1.3945 C.2   1 <1>   0.0772 
 36 H        5.1543    -2.7095    -2.0597 H     1 <1>   0.1500 
 37 N        3.9769    -2.1121    -0.3727 N.2   1 <1>  -0.5653 
 38 N        1.2243     6.4029     3.4053 N.2   1 <1>  -0.5653 
 39 C       -0.1242     6.5882     3.5670 C.2   1 <1>   0.0772 
 40 H       -0.5144     7.4589     4.0760 H     1 <1>   0.1500 
 41 C       -0.8313     5.5502     3.0121 C.2   1 <1>  -0.3016 
 42 H       -1.8885     5.3407     2.9389 H     1 <1>   0.1500 
 43 N        0.1171     4.7129     2.4939 N.pl3 1 <1>   0.0332 
 44 H       -0.0529     3.8409     1.9976 H     1 <1>   0.2700 
@<TRIPOS>BOND
  1   1   2  1   
  2   1   6  ar  
  3   1  16  ar  
  4   2   3  1   
  5   2   4  1   
  6   2   5  1   
  7   3  31  1   
  8   3  37  2   
  9   6   7  1   
 10   6   9  ar  
 11   7   8  1   
 12   8  18  ar  
 13   8  26  ar  
 14   9  10  1   
 15   9  12  ar  
 16  10  11  1   
 17  12  13  1   
 18  12  14  ar  
 19  14  15  1   
 20  14  16  ar  
 21  16  17  1   
 22  18  19  1   
 23  18  20  ar  
 24  20  21  1   
 25  20  22  ar  
 26  22  23  1   
 27  22  24  ar  
 28  24  25  1   
 29  24  26  ar  
 30  26  27  1   
 31  27  28  1   
 32  27  29  1   
 33  27  30  1   
 34  28  38  2   
 35  28  43  1   
 36  31  32  1   
 37  31  33  1   
 38  33  34  1   
 39  33  35  2   
 40  35  36  1   
 41  35  37  1   
 42  38  39  1   
 43  39  40  1   
 44  39  41  2   
 45  41  42  1   
 46  41  43  1   
 47  43  44  1   
@<TRIPOS>SUBSTRUCTURE
  1 <1>   0 RESIDUE 1 * * 1
# MOE 2007.09 (io_trps.svl 2007.09)
