@<TRIPOS>MOLECULE
J14_19
29 31 1 0 0 
SMALL
USER_CHARGES


@<TRIPOS>ATOM
  1 C        1.3420     0.6240     0.0240 C.2   1 <1>  -0.3316 
  2 C        0.1471     1.5032     0.1212 C.3   1 <1>   0.4500 
  3 H1       0.2743     2.4002    -0.4943 H     1 <1>   0.0000 
  4 H2       0.0067     1.8313     1.1574 H     1 <1>   0.0000 
  5 N       -1.0548     0.7756    -0.3330 N.3   1 <1>  -0.9000 
  6 H       -0.9792     0.6534    -1.3431 H     1 <1>   0.3600 
  7 C       -1.1350    -0.5665     0.2885 C.3   1 <1>   0.2700 
  8 H1      -2.0807    -1.0361    -0.0045 H     1 <1>   0.0000 
  9 H2      -1.1700    -0.4533     1.3799 H     1 <1>   0.0000 
 10 C        0.0367    -1.4986    -0.1104 C.3   1 <1>   0.1810 
 11 H1      -0.1209    -1.8675    -1.1312 H     1 <1>   0.0000 
 12 H2       0.0646    -2.3641     0.5604 H     1 <1>   0.0000 
 13 C        1.3253    -0.7524    -0.0627 C.2   1 <1>  -0.1810 
 14 C        2.6719    -1.1985    -0.1119 C.ar  1 <1>   0.0000 
 15 C        3.4785    -0.0588    -0.0462 C.ar  1 <1>  -0.1516 
 16 N        2.6437     1.0370     0.0383 N.pl3 1 <1>   0.0332 
 17 H        2.9588     1.9953     0.1013 H     1 <1>   0.2700 
 18 C        3.2919    -2.4597    -0.2071 C.ar  1 <1>  -0.1500 
 19 H        2.6891    -3.3617    -0.2606 H     1 <1>   0.1500 
 20 C        4.6911    -2.5524    -0.2320 C.ar  1 <1>   0.0825 
 21 O        5.1681    -3.8339    -0.3258 O.3   1 <1>  -0.3625 
 22 C        6.5805    -3.9967    -0.3516 C.3   1 <1>   0.2800 
 23 H1       6.7918    -5.0678    -0.4262 H     1 <1>   0.0000 
 24 H2       7.0374    -3.6315     0.5741 H     1 <1>   0.0000 
 25 H3       7.0183    -3.5097    -1.2292 H     1 <1>   0.0000 
 26 C        5.4675    -1.3949    -0.1634 C.ar  1 <1>  -0.1500 
 27 H        6.5522    -1.4378    -0.1809 H     1 <1>   0.1500 
 28 C        4.8756    -0.1276    -0.0694 C.ar  1 <1>  -0.1500 
 29 H        5.4876     0.7672    -0.0171 H     1 <1>   0.1500 
@<TRIPOS>BOND
  1   1   2  1   
  2   1  13  2   
  3   1  16  1   
  4   2   3  1   
  5   2   4  1   
  6   2   5  1   
  7   5   6  1   
  8   5   7  1   
  9   7   8  1   
 10   7   9  1   
 11   7  10  1   
 12  10  11  1   
 13  10  12  1   
 14  10  13  1   
 15  13  14  1   
 16  14  15  ar  
 17  14  18  ar  
 18  15  16  1   
 19  15  28  ar  
 20  16  17  1   
 21  18  19  1   
 22  18  20  ar  
 23  20  21  1   
 24  20  26  ar  
 25  21  22  1   
 26  22  23  1   
 27  22  24  1   
 28  22  25  1   
 29  26  27  1   
 30  26  28  ar  
 31  28  29  1   
@<TRIPOS>SUBSTRUCTURE
  1 <1>   0 RESIDUE 1 * * 1
# MOE 2007.09 (io_trps.svl 2007.09)
