@<TRIPOS>MOLECULE
J14_07
45 46 1 0 0 
SMALL
USER_CHARGES


@<TRIPOS>ATOM
  1 C        1.0242     0.6829    -0.4153 C.ar  1 <1>  -0.1500 
  2 H        1.4713     1.4378     0.2229 H     1 <1>   0.1500 
  3 C       -0.2373     0.8825    -0.9802 C.ar  1 <1>   0.0825 
  4 O       -1.0459     1.9764    -0.8033 O.3   1 <1>  -0.3625 
  5 C       -0.5632     2.9928     0.0680 C.3   1 <1>   0.2800 
  6 H1      -1.3231     3.7786     0.1171 H     1 <1>   0.0000 
  7 H2       0.3558     3.4424    -0.3222 H     1 <1>   0.0000 
  8 H3      -0.4167     2.6072     1.0825 H     1 <1>   0.0000 
  9 C       -0.7655    -0.1012    -1.8226 C.ar  1 <1>   0.0825 
 10 O       -1.9995     0.0784    -2.3879 O.3   1 <1>  -0.5325 
 11 H       -2.2951     0.9503    -2.0596 H     1 <1>   0.4500 
 12 C       -0.0660    -1.2647    -2.1107 C.ar  1 <1>  -0.1500 
 13 H       -0.4952    -2.0118    -2.7711 H     1 <1>   0.1500 
 14 C        1.1933    -1.4582    -1.5436 C.ar  1 <1>  -0.1500 
 15 H        1.7393    -2.3709    -1.7735 H     1 <1>   0.1500 
 16 C        1.7434    -0.4957    -0.6824 C.ar  1 <1>   0.0284 
 17 C        3.0842    -0.7298    -0.1341 C.2   1 <1>  -0.1784 
 18 H        3.8000    -1.1886    -0.8138 H     1 <1>   0.1500 
 19 C        3.4311    -0.4401     1.1245 C.2   1 <1>  -0.1356 
 20 H        2.7356    -0.0138     1.8374 H     1 <1>   0.1500 
 21 C        4.8105    -0.7257     1.5937 C.2   1 <1>   0.4946 
 22 C        5.1411    -0.3763     3.0223 C.3   1 <1>   0.1220 
 23 C        5.6347    -1.5733     3.7941 C.2   1 <1>   0.4946 
 24 C        7.0066    -1.5029     4.3587 C.2   1 <1>  -0.1356 
 25 H        7.5854    -0.6081     4.1640 H     1 <1>   0.1500 
 26 C        7.4883    -2.5334     5.0620 C.2   1 <1>  -0.1784 
 27 H        6.8855    -3.4278     5.2096 H     1 <1>   0.1500 
 28 C        8.8322    -2.5680     5.6510 C.ar  1 <1>   0.0284 
 29 O        4.9196    -2.5602     3.9549 O.2   1 <1>  -0.5700 
 30 H2       4.2669     0.0204     3.5494 H     1 <1>   0.0000 
 31 H3       5.8884     0.4241     3.0057 H     1 <1>   0.0000 
 32 O        5.6593    -1.2108     0.8485 O.2   1 <1>  -0.5700 
 33 C        9.4217    -1.4394     6.2418 C.ar  1 <1>  -0.1500 
 34 H        8.8800    -0.4982     6.2756 H     1 <1>   0.1500 
 35 C       10.6927    -1.5257     6.8190 C.ar  1 <1>   0.0825 
 36 O       11.3295    -0.4659     7.4236 O.3   1 <1>  -0.0825 
 37 O       10.8125     0.7686     6.8531 O.3   1 <1>  -0.4000 
 38 H       11.5747     0.9425     6.2730 H     1 <1>   0.4000 
 39 C       11.3590    -2.7523     6.8380 C.ar  1 <1>   0.0825 
 40 O       12.5903    -2.8862     7.4181 O.3   1 <1>  -0.5325 
 41 H       12.8136    -2.0256     7.8153 H     1 <1>   0.4500 
 42 C       10.7855    -3.8818     6.2675 C.ar  1 <1>  -0.1500 
 43 H       11.3139    -4.8306     6.2862 H     1 <1>   0.1500 
 44 C        9.5228    -3.7897     5.6783 C.ar  1 <1>  -0.1500 
 45 H        9.0827    -4.6829     5.2390 H     1 <1>   0.1500 
@<TRIPOS>BOND
  1   1   2  1   
  2   1   3  ar  
  3   1  16  ar  
  4   3   4  1   
  5   3   9  ar  
  6   4   5  1   
  7   5   6  1   
  8   5   7  1   
  9   5   8  1   
 10   9  10  1   
 11   9  12  ar  
 12  10  11  1   
 13  12  13  1   
 14  12  14  ar  
 15  14  15  1   
 16  14  16  ar  
 17  16  17  1   
 18  17  18  1   
 19  17  19  2   
 20  19  20  1   
 21  19  21  1   
 22  21  22  1   
 23  21  32  2   
 24  22  23  1   
 25  22  30  1   
 26  22  31  1   
 27  23  24  1   
 28  23  29  2   
 29  24  25  1   
 30  24  26  2   
 31  26  27  1   
 32  26  28  1   
 33  28  33  ar  
 34  28  44  ar  
 35  33  34  1   
 36  33  35  ar  
 37  35  36  1   
 38  35  39  ar  
 39  36  37  1   
 40  37  38  1   
 41  39  40  1   
 42  39  42  ar  
 43  40  41  1   
 44  42  43  1   
 45  42  44  ar  
 46  44  45  1   
@<TRIPOS>SUBSTRUCTURE
  1 <1>   0 RESIDUE 1 * * 1
# MOE 2007.09 (io_trps.svl 2007.09)
