@<TRIPOS>MOLECULE
J18_19
24 24 1 0 0 
SMALL
USER_CHARGES


@<TRIPOS>ATOM
  1 C        1.1445     0.7234    -0.0436 C.ar  1 <1>   0.0284 
  2 C        2.3887     1.4781     0.1457 C.2   1 <1>  -0.1784 
  3 H        2.5836     2.2595    -0.5869 H     1 <1>   0.1500 
  4 C        3.2457     1.2708     1.1513 C.2   1 <1>  -0.1356 
  5 H        3.0898     0.5251     1.9210 H     1 <1>   0.1500 
  6 C        0.0384     1.3726    -0.6008 C.ar  1 <1>  -0.1500 
  7 H        0.0900     2.4278    -0.8619 H     1 <1>   0.1500 
  8 C       -1.1547     0.6799    -0.8230 C.ar  1 <1>  -0.1500 
  9 H       -1.9954     1.2189    -1.2521 H     1 <1>   0.1500 
 10 C       -1.2539    -0.6779    -0.5004 C.ar  1 <1>   0.0825 
 11 O       -2.4419    -1.3136    -0.7376 O.3   1 <1>  -0.5325 
 12 H       -3.0745    -0.6746    -1.1033 H     1 <1>   0.4500 
 13 C       -0.1559    -1.3523     0.0429 C.ar  1 <1>   0.0825 
 14 O       -0.0571    -2.6674     0.4103 O.3   1 <1>  -0.3625 
 15 C       -1.2001    -3.4954     0.2684 C.3   1 <1>   0.2800 
 16 H1      -0.9300    -4.4937     0.6274 H     1 <1>   0.0000 
 17 H2      -1.4888    -3.5986    -0.7822 H     1 <1>   0.0000 
 18 H3      -2.0284    -3.1428     0.8911 H     1 <1>   0.0000 
 19 C        1.0360    -0.6403     0.2590 C.ar  1 <1>  -0.1500 
 20 H        1.8893    -1.1824     0.6620 H     1 <1>   0.1500 
 21 C        4.4561     2.0890     1.2491 C.2   1 <1>   0.7056 
 22 O        4.8063     2.9830     0.4977 O.2   1 <1>  -0.5700 
 23 O        5.1769     1.7180     2.3236 O.3   1 <1>  -0.6500 
 24 H        5.9617     2.3048     2.3194 H     1 <1>   0.5000 
@<TRIPOS>BOND
  1   1   2  1   
  2   1   6  ar  
  3   1  19  ar  
  4   2   3  1   
  5   2   4  2   
  6   4   5  1   
  7   4  21  1   
  8   6   7  1   
  9   6   8  ar  
 10   8   9  1   
 11   8  10  ar  
 12  10  11  1   
 13  10  13  ar  
 14  11  12  1   
 15  13  14  1   
 16  13  19  ar  
 17  14  15  1   
 18  15  16  1   
 19  15  17  1   
 20  15  18  1   
 21  19  20  1   
 22  21  22  2   
 23  21  23  1   
 24  23  24  1   
@<TRIPOS>SUBSTRUCTURE
  1 <1>   0 RESIDUE 1 * * 1
# MOE 2007.09 (io_trps.svl 2007.09)
