@<TRIPOS>MOLECULE
J18_04
35 37 1 0 0 
SMALL
USER_CHARGES


@<TRIPOS>ATOM
  1 C        0.9586     0.4293    -1.0655 C.ar  1 <1>   0.0825 
  2 C       -0.1661     0.5823    -1.8803 C.ar  1 <1>  -0.1500 
  3 H       -0.1826     1.3801    -2.6162 H     1 <1>   0.1500 
  4 C       -1.2454    -0.2815    -1.7259 C.ar  1 <1>   0.0825 
  5 O       -2.3676    -0.1646    -2.4937 O.3   1 <1>  -0.5325 
  6 H       -2.2489     0.5722    -3.1159 H     1 <1>   0.4500 
  7 C       -1.2177    -1.2946    -0.7745 C.ar  1 <1>  -0.1500 
  8 H       -2.0778    -1.9481    -0.6721 H     1 <1>   0.1500 
  9 C       -0.0849    -1.4478     0.0226 C.ar  1 <1>   0.0825 
 10 O       -0.0357    -2.4340     0.9689 O.3   1 <1>  -0.5325 
 11 H       -0.8675    -2.9353     0.9427 H     1 <1>   0.4500 
 12 C        1.0237    -0.6042    -0.1212 C.ar  1 <1>  -0.1435 
 13 C        2.2449    -0.7938     0.7398 C.3   1 <1>   0.1435 
 14 H1       2.5038    -1.8581     0.7882 H     1 <1>   0.0000 
 15 H2       2.0014    -0.4476     1.7518 H     1 <1>   0.0000 
 16 C        3.4356    -0.0003     0.2042 C.3   1 <1>   0.2800 
 17 H        4.2056     0.0803     0.9805 H     1 <1>   0.0000 
 18 O        4.0271    -0.7054    -0.8953 O.3   1 <1>  -0.6800 
 19 H        4.2975    -1.5837    -0.5771 H     1 <1>   0.4000 
 20 C        2.9410     1.3945    -0.2205 C.3   1 <1>   0.4235 
 21 H        2.4417     1.8763     0.6334 H     1 <1>   0.0000 
 22 C        4.0826     2.3018    -0.6461 C.ar  1 <1>  -0.1435 
 23 O        1.9700     1.3299    -1.2779 O.3   1 <1>  -0.3625 
 24 C        4.6401     2.2112    -1.9319 C.ar  1 <1>  -0.1500 
 25 H        4.2476     1.4847    -2.6420 H     1 <1>   0.1500 
 26 C        5.7025     3.0341    -2.3126 C.ar  1 <1>  -0.1500 
 27 H        6.1092     2.9355    -3.3140 H     1 <1>   0.1500 
 28 C        6.2195     3.9552    -1.4046 C.ar  1 <1>   0.0825 
 29 O        7.2602     4.7673    -1.7623 O.3   1 <1>  -0.5325 
 30 H        7.5064     4.5756    -2.6807 H     1 <1>   0.4500 
 31 C        5.6798     4.0530    -0.1221 C.ar  1 <1>   0.0825 
 32 O        6.2004     4.9597     0.7601 O.3   1 <1>  -0.5325 
 33 H        5.7142     4.9022     1.5974 H     1 <1>   0.4500 
 34 C        4.6179     3.2315     0.2606 C.ar  1 <1>  -0.1500 
 35 H        4.2014     3.3080     1.2613 H     1 <1>   0.1500 
@<TRIPOS>BOND
  1   1   2  ar  
  2   1  12  ar  
  3   1  23  1   
  4   2   3  1   
  5   2   4  ar  
  6   4   5  1   
  7   4   7  ar  
  8   5   6  1   
  9   7   8  1   
 10   7   9  ar  
 11   9  10  1   
 12   9  12  ar  
 13  10  11  1   
 14  12  13  1   
 15  13  14  1   
 16  13  15  1   
 17  13  16  1   
 18  16  17  1   
 19  16  18  1   
 20  16  20  1   
 21  18  19  1   
 22  20  21  1   
 23  20  22  1   
 24  20  23  1   
 25  22  24  ar  
 26  22  34  ar  
 27  24  25  1   
 28  24  26  ar  
 29  26  27  1   
 30  26  28  ar  
 31  28  29  1   
 32  28  31  ar  
 33  29  30  1   
 34  31  32  1   
 35  31  34  ar  
 36  32  33  1   
 37  34  35  1   
@<TRIPOS>SUBSTRUCTURE
  1 <1>   0 RESIDUE 1 * * 1
# MOE 2007.09 (io_trps.svl 2007.09)
