@<TRIPOS>MOLECULE
J18_03
50 53 1 0 0 
SMALL
USER_CHARGES


@<TRIPOS>ATOM
  1 C        0.5837     0.3962    -0.8449 C.ar  1 <1>   0.0825 
  2 C       -0.6473     0.4723    -1.5034 C.ar  1 <1>  -0.1500 
  3 H       -0.8574     1.3296    -2.1361 H     1 <1>   0.1500 
  4 C       -1.5852    -0.5396    -1.3296 C.ar  1 <1>   0.0825 
  5 O       -2.7974    -0.5011    -1.9546 O.3   1 <1>  -0.5325 
  6 H       -2.8317     0.2859    -2.5232 H     1 <1>   0.4500 
  7 C       -1.3173    -1.6239    -0.5040 C.ar  1 <1>  -0.1500 
  8 H       -2.0715    -2.3945    -0.3803 H     1 <1>   0.1500 
  9 C       -0.0876    -1.6915     0.1488 C.ar  1 <1>   0.0825 
 10 O        0.1879    -2.7457     0.9764 O.3   1 <1>  -0.5325 
 11 H       -0.5737    -3.3496     0.9860 H     1 <1>   0.4500 
 12 C        0.8835    -0.6934    -0.0224 C.ar  1 <1>  -0.1435 
 13 C        2.2002    -0.7624     0.6967 C.3   1 <1>   0.1435 
 14 H1       2.5451    -1.8015     0.7436 H     1 <1>   0.0000 
 15 H2       2.0511    -0.4052     1.7225 H     1 <1>   0.0000 
 16 C        3.2507     0.0890    -0.0079 C.3   1 <1>   0.2800 
 17 H        4.1229     0.2171     0.6460 H     1 <1>   0.0000 
 18 O        3.6803    -0.5784    -1.2247 O.3   1 <1>  -0.4300 
 19 C        2.6952     1.4688    -0.4007 C.3   1 <1>   0.4235 
 20 H        3.3667     1.8793    -1.1680 H     1 <1>   0.0000 
 21 C        2.7201     2.4632     0.7536 C.ar  1 <1>  -0.1435 
 22 O        1.4212     1.4531    -1.0640 O.3   1 <1>  -0.3625 
 23 C        1.5903     2.7215     1.5446 C.ar  1 <1>  -0.1500 
 24 H        0.6449     2.2235     1.3423 H     1 <1>   0.1500 
 25 C        1.6520     3.6270     2.6087 C.ar  1 <1>  -0.1500 
 26 H        0.7582     3.8063     3.1990 H     1 <1>   0.1500 
 27 C        2.8483     4.2826     2.8927 C.ar  1 <1>   0.0825 
 28 O        2.9210     5.1677     3.9324 O.3   1 <1>  -0.5325 
 29 H        2.0678     5.1784     4.3939 H     1 <1>   0.4500 
 30 C        3.9807     4.0363     2.1190 C.ar  1 <1>   0.0825 
 31 O        5.1497     4.6849     2.4097 O.3   1 <1>  -0.5325 
 32 H        5.8444     4.3656     1.8130 H     1 <1>   0.4500 
 33 C        3.9219     3.1313     1.0572 C.ar  1 <1>  -0.1500 
 34 H        4.8074     2.9394     0.4555 H     1 <1>   0.1500 
 35 C        4.7025    -1.4623    -1.1014 C.2   1 <1>   0.6338 
 36 C        5.0555    -2.0356    -2.4105 C.ar  1 <1>   0.0862 
 37 O        5.2906    -1.7419    -0.0672 O.2   1 <1>  -0.5700 
 38 C        4.2153    -1.9144    -3.5257 C.ar  1 <1>  -0.1500 
 39 H        3.2662    -1.3920    -3.4499 H     1 <1>   0.1500 
 40 C        4.6125    -2.4792    -4.7340 C.ar  1 <1>   0.0825 
 41 O        3.8393    -2.4007    -5.8614 O.3   1 <1>  -0.5325 
 42 H        3.0293    -1.9042    -5.6495 H     1 <1>   0.4500 
 43 C        5.8268    -3.1562    -4.8443 C.ar  1 <1>   0.0825 
 44 O        6.1688    -3.6889    -6.0579 O.3   1 <1>  -0.5325 
 45 H        5.4114    -3.4720    -6.6378 H     1 <1>   0.4500 
 46 C        6.6591    -3.2824    -3.7384 C.ar  1 <1>   0.0825 
 47 O        7.8459    -3.9495    -3.8540 O.3   1 <1>  -0.5325 
 48 H        8.2743    -3.9827    -2.9838 H     1 <1>   0.4500 
 49 C        6.2758    -2.7257    -2.5171 C.ar  1 <1>  -0.1500 
 50 H        6.9202    -2.8155    -1.6453 H     1 <1>   0.1500 
@<TRIPOS>BOND
  1   1   2  ar  
  2   1  12  ar  
  3   1  22  1   
  4   2   3  1   
  5   2   4  ar  
  6   4   5  1   
  7   4   7  ar  
  8   5   6  1   
  9   7   8  1   
 10   7   9  ar  
 11   9  10  1   
 12   9  12  ar  
 13  10  11  1   
 14  12  13  1   
 15  13  14  1   
 16  13  15  1   
 17  13  16  1   
 18  16  17  1   
 19  16  18  1   
 20  16  19  1   
 21  18  35  1   
 22  19  20  1   
 23  19  21  1   
 24  19  22  1   
 25  21  23  ar  
 26  21  33  ar  
 27  23  24  1   
 28  23  25  ar  
 29  25  26  1   
 30  25  27  ar  
 31  27  28  1   
 32  27  30  ar  
 33  28  29  1   
 34  30  31  1   
 35  30  33  ar  
 36  31  32  1   
 37  33  34  1   
 38  35  36  1   
 39  35  37  2   
 40  36  38  ar  
 41  36  49  ar  
 42  38  39  1   
 43  38  40  ar  
 44  40  41  1   
 45  40  43  ar  
 46  41  42  1   
 47  43  44  1   
 48  43  46  ar  
 49  44  45  1   
 50  46  47  1   
 51  46  49  ar  
 52  47  48  1   
 53  49  50  1   
@<TRIPOS>SUBSTRUCTURE
  1 <1>   0 RESIDUE 1 * * 1
# MOE 2007.09 (io_trps.svl 2007.09)
