@<TRIPOS>MOLECULE
J18_15
18 18 1 0 0 
SMALL
USER_CHARGES


@<TRIPOS>ATOM
  1 C        1.1647     0.7200     0.0807 C.ar  1 <1>   0.0825 
  2 O        2.3366     1.4258     0.1214 O.3   1 <1>  -0.5325 
  3 H        2.1250     2.2727    -0.3197 H     1 <1>   0.4500 
  4 C        0.0543     1.3115    -0.5188 C.ar  1 <1>   0.0825 
  5 O        0.2182     2.5707    -1.0297 O.3   1 <1>  -0.5325 
  6 H       -0.6266     2.8625    -1.4153 H     1 <1>   0.4500 
  7 C       -1.1599     0.6379    -0.5866 C.ar  1 <1>  -0.1500 
  8 H       -2.0263     1.0986    -1.0539 H     1 <1>   0.1500 
  9 C       -1.2573    -0.6513    -0.0422 C.ar  1 <1>   0.0862 
 10 C       -0.1406    -1.2498     0.5622 C.ar  1 <1>  -0.1500 
 11 H       -0.2192    -2.2485     0.9829 H     1 <1>   0.1500 
 12 C        1.0706    -0.5580     0.6211 C.ar  1 <1>   0.0825 
 13 O        2.1673    -1.1253     1.2057 O.3   1 <1>  -0.5325 
 14 H        1.9393    -2.0106     1.5310 H     1 <1>   0.4500 
 15 C       -2.5491    -1.3377    -0.1279 C.2   1 <1>   0.6338 
 16 O       -3.5588    -0.8789    -0.6374 O.2   1 <1>  -0.5700 
 17 O       -2.5290    -2.5657     0.4243 O.3   1 <1>  -0.6500 
 18 H       -3.4376    -2.9144     0.3045 H     1 <1>   0.5000 
@<TRIPOS>BOND
  1   1   2  1   
  2   1   4  ar  
  3   1  12  ar  
  4   2   3  1   
  5   4   5  1   
  6   4   7  ar  
  7   5   6  1   
  8   7   8  1   
  9   7   9  ar  
 10   9  10  ar  
 11   9  15  1   
 12  10  11  1   
 13  10  12  ar  
 14  12  13  1   
 15  13  14  1   
 16  15  16  2   
 17  15  17  1   
 18  17  18  1   
@<TRIPOS>SUBSTRUCTURE
  1 <1>   0 RESIDUE 1 * * 1
# MOE 2007.09 (io_trps.svl 2007.09)
