@<TRIPOS>MOLECULE
J18_24
20 20 1 0 0 
SMALL
USER_CHARGES


@<TRIPOS>ATOM
  1 C        1.2067     0.6331    -0.0278 C.ar  1 <1>   0.0284 
  2 C        2.4615     1.3828     0.1278 C.2   1 <1>  -0.1784 
  3 H        2.7119     2.0616    -0.6846 H     1 <1>   0.1500 
  4 C        3.2510     1.2853     1.2022 C.2   1 <1>  -0.1356 
  5 H        3.0249     0.6329     2.0372 H     1 <1>   0.1500 
  6 C        0.0914     1.3301    -0.5207 C.ar  1 <1>  -0.1500 
  7 H        0.1626     2.3915    -0.7502 H     1 <1>   0.1500 
  8 C       -1.1303     0.6807    -0.7155 C.ar  1 <1>  -0.1500 
  9 H       -1.9867     1.2352    -1.0914 H     1 <1>   0.1500 
 10 C       -1.2512    -0.6771    -0.4297 C.ar  1 <1>  -0.1500 
 11 H       -2.2019    -1.1812    -0.5817 H     1 <1>   0.1500 
 12 C       -0.1511    -1.3907     0.0448 C.ar  1 <1>  -0.1500 
 13 H       -0.2635    -2.4506     0.2532 H     1 <1>   0.1500 
 14 C        1.0705    -0.7387     0.2378 C.ar  1 <1>   0.0825 
 15 O        2.1504    -1.4584     0.6776 O.3   1 <1>  -0.5325 
 16 H        1.8961    -2.3912     0.7676 H     1 <1>   0.4500 
 17 C        4.4768     2.0791     1.2792 C.2   1 <1>   0.7056 
 18 O        4.9013     2.8705     0.4539 O.2   1 <1>  -0.5700 
 19 O        5.1192     1.8238     2.4346 O.3   1 <1>  -0.6500 
 20 H        5.9217     2.3851     2.4086 H     1 <1>   0.5000 
@<TRIPOS>BOND
  1   1   2  1   
  2   1   6  ar  
  3   1  14  ar  
  4   2   3  1   
  5   2   4  2   
  6   4   5  1   
  7   4  17  1   
  8   6   7  1   
  9   6   8  ar  
 10   8   9  1   
 11   8  10  ar  
 12  10  11  1   
 13  10  12  ar  
 14  12  13  1   
 15  12  14  ar  
 16  14  15  1   
 17  15  16  1   
 18  17  18  2   
 19  17  19  1   
 20  19  20  1   
@<TRIPOS>SUBSTRUCTURE
  1 <1>   0 RESIDUE 1 * * 1
# MOE 2007.09 (io_trps.svl 2007.09)
