@<TRIPOS>MOLECULE
J18_20
36 38 1 0 0 
SMALL
USER_CHARGES


@<TRIPOS>ATOM
  1 C        1.2397     0.7712     0.1561 C.ar  1 <1>   0.0862 
  2 C        0.0084     1.1852     0.6790 C.ar  1 <1>   0.0825 
  3 O       -0.1062     2.3745     1.3417 O.3   1 <1>  -0.5325 
  4 H       -1.0220     2.5165     1.6289 H     1 <1>   0.4500 
  5 C       -1.1316     0.3870     0.5282 C.ar  1 <1>  -0.1500 
  6 H       -2.0857     0.7079     0.9337 H     1 <1>   0.1500 
  7 C       -1.0340    -0.8216    -0.1554 C.ar  1 <1>   0.0825 
  8 O       -2.1165    -1.6313    -0.3354 O.3   1 <1>  -0.5325 
  9 H       -2.8966    -1.2215     0.0732 H     1 <1>   0.4500 
 10 C        0.1795    -1.2482    -0.6772 C.ar  1 <1>  -0.1500 
 11 H        0.2409    -2.1956    -1.2053 H     1 <1>   0.1500 
 12 C        1.3173    -0.4613    -0.5052 C.ar  1 <1>   0.0825 
 13 O        2.4715    -0.9698    -1.0408 O.3   1 <1>  -0.3625 
 14 C        3.6531    -0.4806    -0.3897 C.3   1 <1>   0.4235 
 15 C        4.8254    -1.2156    -1.0146 C.ar  1 <1>  -0.1435 
 16 H2       3.6210    -0.7761     0.6708 H     1 <1>   0.0000 
 17 C        3.6815     1.0381    -0.4854 C.3   1 <1>   0.0610 
 18 H1       3.6358     1.3915    -1.5222 H     1 <1>   0.0000 
 19 H2       4.5829     1.4368    -0.0067 H     1 <1>   0.0000 
 20 C        2.4712     1.5871     0.2285 C.2   1 <1>   0.4228 
 21 O        2.5186     2.6792     0.7873 O.2   1 <1>  -0.5700 
 22 C        4.9541    -2.5985    -0.7724 C.ar  1 <1>  -0.1500 
 23 H        4.2222    -3.1073    -0.1461 H     1 <1>   0.1500 
 24 C        5.9989    -3.3492    -1.3287 C.ar  1 <1>  -0.1500 
 25 H        6.0385    -4.4100    -1.1061 H     1 <1>   0.1500 
 26 C        6.9395    -2.7275    -2.1432 C.ar  1 <1>   0.0825 
 27 O        8.0108    -3.3238    -2.7578 O.3   1 <1>  -0.3625 
 28 C        8.1722    -4.7217    -2.5417 C.3   1 <1>   0.2800 
 29 H1       9.0602    -5.0443    -3.0935 H     1 <1>   0.0000 
 30 H2       7.3157    -5.2822    -2.9306 H     1 <1>   0.0000 
 31 H3       8.3403    -4.9398    -1.4819 H     1 <1>   0.0000 
 32 C        6.8110    -1.3563    -2.3852 C.ar  1 <1>   0.0825 
 33 O        7.7238    -0.7211    -3.1861 O.3   1 <1>  -0.5325 
 34 H        8.3470    -1.4241    -3.4562 H     1 <1>   0.4500 
 35 C        5.7753    -0.6010    -1.8382 C.ar  1 <1>  -0.1500 
 36 H        5.7330     0.4575    -2.0751 H     1 <1>   0.1500 
@<TRIPOS>BOND
  1   1   2  ar  
  2   1  12  ar  
  3   1  20  1   
  4   2   3  1   
  5   2   5  ar  
  6   3   4  1   
  7   5   6  1   
  8   5   7  ar  
  9   7   8  1   
 10   7  10  ar  
 11   8   9  1   
 12  10  11  1   
 13  10  12  ar  
 14  12  13  1   
 15  13  14  1   
 16  14  15  1   
 17  14  16  1   
 18  14  17  1   
 19  15  22  ar  
 20  15  35  ar  
 21  17  18  1   
 22  17  19  1   
 23  17  20  1   
 24  20  21  2   
 25  22  23  1   
 26  22  24  ar  
 27  24  25  1   
 28  24  26  ar  
 29  26  27  1   
 30  26  32  ar  
 31  27  28  1   
 32  28  29  1   
 33  28  30  1   
 34  28  31  1   
 35  32  33  1   
 36  32  35  ar  
 37  33  34  1   
 38  35  36  1   
@<TRIPOS>SUBSTRUCTURE
  1 <1>   0 RESIDUE 1 * * 1
# MOE 2007.09 (io_trps.svl 2007.09)
