@<TRIPOS>MOLECULE
J18_22
30 32 1 0 0 
SMALL
USER_CHARGES


@<TRIPOS>ATOM
  1 C        1.3894     0.5739    -0.5261 C.ar  1 <1>   0.0825 
  2 C        0.2348     1.2617    -0.9061 C.ar  1 <1>  -0.1500 
  3 H        0.3073     2.2271    -1.3994 H     1 <1>   0.1500 
  4 C       -1.0120     0.7065    -0.6491 C.ar  1 <1>   0.0825 
  5 O       -2.1127     1.4143    -1.0339 O.3   1 <1>  -0.5325 
  6 H       -2.9149     0.9209    -0.7951 H     1 <1>   0.4500 
  7 C       -1.1231    -0.5287    -0.0191 C.ar  1 <1>  -0.1500 
  8 H       -2.1017    -0.9543     0.1776 H     1 <1>   0.1500 
  9 C        0.0385    -1.2136     0.3585 C.ar  1 <1>   0.0825 
 10 O       -0.0913    -2.4247     0.9789 O.3   1 <1>  -0.5325 
 11 H       -1.0273    -2.6608     1.0731 H     1 <1>   0.4500 
 12 C        1.3051    -0.6663     0.1078 C.ar  1 <1>   0.0862 
 13 C        2.5651    -1.3330     0.4842 C.2   1 <1>   0.4694 
 14 O        2.5936    -2.4317     1.0259 O.2   1 <1>  -0.5700 
 15 C        3.8320    -0.6104     0.1813 C.2   1 <1>   0.0911 
 16 O        5.0128    -1.2104     0.5832 O.3   1 <1>  -0.5267 
 17 H        5.7562    -0.6046     0.4268 H     1 <1>   0.4500 
 18 C        3.7541     0.5738    -0.4479 C.2   1 <1>   0.0483 
 19 C        4.9428     1.3616    -0.8042 C.ar  1 <1>   0.0284 
 20 O        2.5767     1.1942    -0.8152 O.3   1 <1>  -0.1592 
 21 C        5.8515     0.9000    -1.7672 C.ar  1 <1>  -0.1500 
 22 H        5.6841    -0.0448    -2.2807 H     1 <1>   0.1500 
 23 C        6.9850     1.6523    -2.0850 C.ar  1 <1>  -0.1500 
 24 H        7.6861     1.2883    -2.8316 H     1 <1>   0.1500 
 25 C        7.2141     2.8721    -1.4498 C.ar  1 <1>  -0.1500 
 26 H        8.0949     3.4577    -1.6992 H     1 <1>   0.1500 
 27 C        6.3091     3.3439    -0.4997 C.ar  1 <1>  -0.1500 
 28 H        6.4821     4.2979    -0.0090 H     1 <1>   0.1500 
 29 C        5.1763     2.5931    -0.1782 C.ar  1 <1>  -0.1500 
 30 H        4.4799     2.9752     0.5652 H     1 <1>   0.1500 
@<TRIPOS>BOND
  1   1   2  ar  
  2   1  12  ar  
  3   1  20  1   
  4   2   3  1   
  5   2   4  ar  
  6   4   5  1   
  7   4   7  ar  
  8   5   6  1   
  9   7   8  1   
 10   7   9  ar  
 11   9  10  1   
 12   9  12  ar  
 13  10  11  1   
 14  12  13  1   
 15  13  14  2   
 16  13  15  1   
 17  15  16  1   
 18  15  18  2   
 19  16  17  1   
 20  18  19  1   
 21  18  20  1   
 22  19  21  ar  
 23  19  29  ar  
 24  21  22  1   
 25  21  23  ar  
 26  23  24  1   
 27  23  25  ar  
 28  25  26  1   
 29  25  27  ar  
 30  27  28  1   
 31  27  29  ar  
 32  29  30  1   
@<TRIPOS>SUBSTRUCTURE
  1 <1>   0 RESIDUE 1 * * 1
# MOE 2007.09 (io_trps.svl 2007.09)
