@<TRIPOS>MOLECULE
J18_06
36 38 1 0 0 
SMALL
USER_CHARGES


@<TRIPOS>ATOM
  1 C        1.0558     0.4814    -0.9975 C.ar  1 <1>   0.0825 
  2 C       -0.0421     0.6175    -1.8507 C.ar  1 <1>  -0.1500 
  3 H       -0.0456     1.4149    -2.5874 H     1 <1>   0.1500 
  4 C       -1.1130    -0.2625    -1.7346 C.ar  1 <1>   0.0825 
  5 O       -2.2062    -0.1630    -2.5452 O.3   1 <1>  -0.5325 
  6 H       -2.0688     0.5674    -3.1716 H     1 <1>   0.4500 
  7 C       -1.1045    -1.2742    -0.7816 C.ar  1 <1>  -0.1500 
  8 H       -1.9575    -1.9413    -0.7084 H     1 <1>   0.1500 
  9 C        0.0029    -1.4092     0.0542 C.ar  1 <1>   0.0825 
 10 O        0.0352    -2.3955     1.0005 O.3   1 <1>  -0.5325 
 11 H       -0.7959    -2.8978     0.9630 H     1 <1>   0.4500 
 12 C        1.1029    -0.5485    -0.0517 C.ar  1 <1>  -0.1435 
 13 C        2.2920    -0.7061     0.8499 C.3   1 <1>   0.1435 
 14 H1       2.5696    -1.7626     0.9512 H     1 <1>   0.0000 
 15 H2       2.0261    -0.3529     1.8550 H     1 <1>   0.0000 
 16 C        3.5004     0.0648     0.3250 C.3   1 <1>   0.2800 
 17 H        3.9416    -0.4882    -0.5149 H     1 <1>   0.0000 
 18 O        4.4649     0.1364     1.3772 O.3   1 <1>  -0.6800 
 19 H        5.3004     0.4548     0.9907 H     1 <1>   0.4000 
 20 C        3.0341     1.4604    -0.1258 C.3   1 <1>   0.4235 
 21 H        2.5752     2.0002     0.7149 H     1 <1>   0.0000 
 22 C        4.2026     2.2916    -0.6374 C.ar  1 <1>  -0.1435 
 23 O        2.0622     1.3901    -1.1814 O.3   1 <1>  -0.3625 
 24 C        4.7102     2.1072    -1.9362 C.ar  1 <1>  -0.1500 
 25 H        4.2498     1.3767    -2.5963 H     1 <1>   0.1500 
 26 C        5.7926     2.8672    -2.3670 C.ar  1 <1>   0.0825 
 27 O        6.3182     2.7342    -3.6246 O.3   1 <1>  -0.5325 
 28 H        5.7875     2.0731    -4.1036 H     1 <1>   0.4500 
 29 C        6.3881     3.8014    -1.5233 C.ar  1 <1>   0.0825 
 30 O        7.4538     4.5193    -1.9950 O.3   1 <1>  -0.5325 
 31 H        7.5744     4.1947    -2.9097 H     1 <1>   0.4500 
 32 C        5.9010     3.9888    -0.2354 C.ar  1 <1>   0.0825 
 33 O        6.4949     4.9040     0.5864 O.3   1 <1>  -0.5325 
 34 H        6.0288     4.9205     1.4371 H     1 <1>   0.4500 
 35 C        4.8110     3.2383     0.2101 C.ar  1 <1>  -0.1500 
 36 H        4.4281     3.3772     1.2186 H     1 <1>   0.1500 
@<TRIPOS>BOND
  1   1   2  ar  
  2   1  12  ar  
  3   1  23  1   
  4   2   3  1   
  5   2   4  ar  
  6   4   5  1   
  7   4   7  ar  
  8   5   6  1   
  9   7   8  1   
 10   7   9  ar  
 11   9  10  1   
 12   9  12  ar  
 13  10  11  1   
 14  12  13  1   
 15  13  14  1   
 16  13  15  1   
 17  13  16  1   
 18  16  17  1   
 19  16  18  1   
 20  16  20  1   
 21  18  19  1   
 22  20  21  1   
 23  20  22  1   
 24  20  23  1   
 25  22  24  ar  
 26  22  35  ar  
 27  24  25  1   
 28  24  26  ar  
 29  26  27  1   
 30  26  29  ar  
 31  27  28  1   
 32  29  30  1   
 33  29  32  ar  
 34  30  31  1   
 35  32  33  1   
 36  32  35  ar  
 37  33  34  1   
 38  35  36  1   
@<TRIPOS>SUBSTRUCTURE
  1 <1>   0 RESIDUE 1 * * 1
# MOE 2007.09 (io_trps.svl 2007.09)
