@<TRIPOS>MOLECULE
J18_08
73 77 1 0 0 
SMALL
USER_CHARGES


@<TRIPOS>ATOM
  1 C        1.6073     1.1487     0.5927 C.ar  1 <1>   0.0825 
  2 C        1.0502     2.3177     1.1099 C.ar  1 <1>  -0.1500 
  3 H        1.4843     3.2866     0.8778 H     1 <1>   0.1500 
  4 C       -0.0757     2.2404     1.9300 C.ar  1 <1>   0.0825 
  5 O       -0.5890     3.4099     2.4121 O.3   1 <1>  -0.5325 
  6 H       -1.3782     3.2140     2.9454 H     1 <1>   0.4500 
  7 C       -0.6527     1.0114     2.2444 C.ar  1 <1>  -0.1500 
  8 H       -1.5267     0.9375     2.8837 H     1 <1>   0.1500 
  9 C       -0.0890    -0.1494     1.7228 C.ar  1 <1>   0.0825 
 10 O       -0.6731    -1.3458     2.0506 O.3   1 <1>  -0.5325 
 11 H       -0.1627    -2.0628     1.5962 H     1 <1>   0.4500 
 12 C        1.0367    -0.0787     0.8968 C.ar  1 <1>   0.0862 
 13 C        1.6346    -1.2939     0.3460 C.2   1 <1>   0.4694 
 14 O        1.1128    -2.3703     0.6238 O.2   1 <1>  -0.5700 
 15 C        2.8423    -1.1370    -0.5013 C.2   1 <1>   0.0911 
 16 O        3.4704    -2.2361    -1.0640 O.3   1 <1>  -0.3567 
 17 C        3.7910    -3.2896    -0.1442 C.3   1 <1>   0.5600 
 18 H        3.7100    -2.9385     0.8947 H     1 <1>   0.0000 
 19 C        3.2793     0.1164    -0.7277 C.2   1 <1>   0.0483 
 20 C        4.4944     0.3739    -1.5223 C.ar  1 <1>   0.0284 
 21 O        2.7152     1.2694    -0.2036 O.3   1 <1>  -0.1592 
 22 C        5.5670     1.0641    -0.9330 C.ar  1 <1>  -0.1500 
 23 H        5.4845     1.4274     0.0878 H     1 <1>   0.1500 
 24 C        6.7397     1.2477    -1.6562 C.ar  1 <1>   0.0825 
 25 O        7.8273     1.8915    -1.1341 O.3   1 <1>  -0.5325 
 26 H        7.5786     2.2730    -0.2734 H     1 <1>   0.4500 
 27 C        6.8537     0.7607    -2.9551 C.ar  1 <1>   0.0825 
 28 O        8.0251     0.9324    -3.6352 O.3   1 <1>  -0.5325 
 29 H        8.5976     1.4117    -3.0022 H     1 <1>   0.4500 
 30 C        5.7982     0.1012    -3.5636 C.ar  1 <1>  -0.1500 
 31 H        5.8955    -0.2675    -4.5802 H     1 <1>   0.1500 
 32 C        4.6145    -0.0883    -2.8463 C.ar  1 <1>  -0.1500 
 33 H        3.7906    -0.6167    -3.3231 H     1 <1>   0.1500 
 34 O        2.9341    -4.4114    -0.3674 O.3   1 <1>  -0.5600 
 35 C        3.1646    -5.4736     0.5708 C.3   1 <1>   0.2800 
 36 C        2.0695    -6.5273     0.3641 C.3   1 <1>   0.2800 
 37 H1       1.1107    -6.0154     0.2170 H     1 <1>   0.0000 
 38 O        1.9901    -7.3807     1.5035 O.3   1 <1>  -0.5600 
 39 C        0.9179    -8.3301     1.4037 C.3   1 <1>   0.5600 
 40 H        1.0858    -8.9212     0.4954 H     1 <1>   0.0000 
 41 H3       2.2672    -7.1196    -0.5375 H     1 <1>   0.0000 
 42 H2       3.0682    -5.0851     1.5941 H     1 <1>   0.0000 
 43 C        4.5808    -6.0309     0.3577 C.3   1 <1>   0.2800 
 44 H1       4.6641    -6.4820    -0.6392 H     1 <1>   0.0000 
 45 O        4.9192    -7.0411     1.3063 O.3   1 <1>  -0.6800 
 46 H        5.8853    -7.1632     1.2112 H     1 <1>   0.4000 
 47 C        5.5998    -4.8949     0.4799 C.3   1 <1>   0.2800 
 48 O        6.8967    -5.4007     0.1397 O.3   1 <1>  -0.6800 
 49 H        7.4646    -4.6070     0.0681 H     1 <1>   0.4000 
 50 H2       5.6766    -4.5648     1.5239 H     1 <1>   0.0000 
 51 C        5.2406    -3.7184    -0.4270 C.3   1 <1>   0.2800 
 52 H1       5.3637    -4.0062    -1.4787 H     1 <1>   0.0000 
 53 O        6.1740    -2.6592    -0.1783 O.3   1 <1>  -0.6800 
 54 H        5.9400    -1.9327    -0.7873 H     1 <1>   0.4000 
 55 O       -0.3408    -7.6649     1.3522 O.3   1 <1>  -0.5600 
 56 C       -1.4803    -8.5348     1.3439 C.3   1 <1>   0.2800 
 57 C       -1.6335    -9.2247    -0.0095 C.3   1 <1>   0.0000 
 58 H1      -1.6682    -8.4764    -0.8090 H     1 <1>   0.0000 
 59 H2      -2.5560    -9.8125    -0.0459 H     1 <1>   0.0000 
 60 H3      -0.7970    -9.8868    -0.2456 H     1 <1>   0.0000 
 61 H2      -2.3427    -7.8657     1.4563 H     1 <1>   0.0000 
 62 C       -1.4761    -9.4989     2.5476 C.3   1 <1>   0.2800 
 63 H1      -2.2792   -10.2378     2.4434 H     1 <1>   0.0000 
 64 O       -1.7307    -8.7414     3.7397 O.3   1 <1>  -0.6800 
 65 H       -2.6795    -8.5203     3.7503 H     1 <1>   0.4000 
 66 C       -0.1323   -10.2019     2.7323 C.3   1 <1>   0.2800 
 67 O        0.0534   -11.2113     1.7355 O.3   1 <1>  -0.6800 
 68 H        0.9983   -11.4617     1.8176 H     1 <1>   0.4000 
 69 H2      -0.1006   -10.7140     3.7017 H     1 <1>   0.0000 
 70 C        1.0257    -9.2123     2.6558 C.3   1 <1>   0.2800 
 71 O        2.2532    -9.9621     2.6287 O.3   1 <1>  -0.6800 
 72 H        2.9550    -9.2917     2.4932 H     1 <1>   0.4000 
 73 H2       1.0392    -8.5846     3.5554 H     1 <1>   0.0000 
@<TRIPOS>BOND
  1   1   2  ar  
  2   1  12  ar  
  3   1  21  1   
  4   2   3  1   
  5   2   4  ar  
  6   4   5  1   
  7   4   7  ar  
  8   5   6  1   
  9   7   8  1   
 10   7   9  ar  
 11   9  10  1   
 12   9  12  ar  
 13  10  11  1   
 14  12  13  1   
 15  13  14  2   
 16  13  15  1   
 17  15  16  1   
 18  15  19  2   
 19  16  17  1   
 20  17  18  1   
 21  17  34  1   
 22  17  51  1   
 23  19  20  1   
 24  19  21  1   
 25  20  22  ar  
 26  20  32  ar  
 27  22  23  1   
 28  22  24  ar  
 29  24  25  1   
 30  24  27  ar  
 31  25  26  1   
 32  27  28  1   
 33  27  30  ar  
 34  28  29  1   
 35  30  31  1   
 36  30  32  ar  
 37  32  33  1   
 38  34  35  1   
 39  35  36  1   
 40  35  42  1   
 41  35  43  1   
 42  36  37  1   
 43  36  38  1   
 44  36  41  1   
 45  38  39  1   
 46  39  40  1   
 47  39  55  1   
 48  39  70  1   
 49  43  44  1   
 50  43  45  1   
 51  43  47  1   
 52  45  46  1   
 53  47  48  1   
 54  47  50  1   
 55  47  51  1   
 56  48  49  1   
 57  51  52  1   
 58  51  53  1   
 59  53  54  1   
 60  55  56  1   
 61  56  57  1   
 62  56  61  1   
 63  56  62  1   
 64  57  58  1   
 65  57  59  1   
 66  57  60  1   
 67  62  63  1   
 68  62  64  1   
 69  62  66  1   
 70  64  65  1   
 71  66  67  1   
 72  66  69  1   
 73  66  70  1   
 74  67  68  1   
 75  70  71  1   
 76  70  73  1   
 77  71  72  1   
@<TRIPOS>SUBSTRUCTURE
  1 <1>   0 RESIDUE 1 * * 1
# MOE 2007.09 (io_trps.svl 2007.09)
