@<TRIPOS>MOLECULE
J18_25
33 35 1 0 0 
SMALL
USER_CHARGES


@<TRIPOS>ATOM
  1 C        1.2938     0.7142     0.1191 C.ar  1 <1>   0.0862 
  2 C        0.1524     1.4330     0.4954 C.ar  1 <1>   0.0825 
  3 O        0.1746     2.7978     0.5566 O.3   1 <1>  -0.5325 
  4 H       -0.6901     3.1395     0.8341 H     1 <1>   0.4500 
  5 C       -1.0350     0.7646     0.8155 C.ar  1 <1>  -0.1500 
  6 H       -1.9186     1.3218     1.1096 H     1 <1>   0.1500 
  7 C       -1.0749    -0.6250     0.7489 C.ar  1 <1>   0.0825 
  8 O       -2.2056    -1.3231     1.0557 O.3   1 <1>  -0.5325 
  9 H       -2.9073    -0.7031     1.3143 H     1 <1>   0.4500 
 10 C        0.0467    -1.3523     0.3732 C.ar  1 <1>  -0.1500 
 11 H        0.0021    -2.4369     0.3312 H     1 <1>   0.1500 
 12 C        1.2345    -0.6840     0.0770 C.ar  1 <1>   0.0825 
 13 O        2.2976    -1.4884    -0.2489 O.3   1 <1>  -0.3625 
 14 C        3.5817    -0.8916     0.0126 C.3   1 <1>   0.4235 
 15 C        3.8996    -0.9261     1.5057 C.ar  1 <1>  -0.1435 
 16 H2       4.3188    -1.5571    -0.4569 H     1 <1>   0.0000 
 17 C        3.6693     0.4380    -0.7239 C.3   1 <1>   0.0610 
 18 H1       3.5313     0.2904    -1.8020 H     1 <1>   0.0000 
 19 H2       4.6401     0.9190    -0.5668 H     1 <1>   0.0000 
 20 C        2.5672     1.3563    -0.2639 C.2   1 <1>   0.4228 
 21 O        2.7366     2.5724    -0.2594 O.2   1 <1>  -0.5700 
 22 C        4.4361     0.1681     2.2034 C.ar  1 <1>  -0.1500 
 23 H        4.6578     1.1083     1.7039 H     1 <1>   0.1500 
 24 C        4.6941     0.0889     3.5767 C.ar  1 <1>  -0.1500 
 25 H        5.0991     0.9583     4.0865 H     1 <1>   0.1500 
 26 C        4.4255    -1.0902     4.2664 C.ar  1 <1>   0.0825 
 27 O        4.6592    -1.1749     5.6102 O.3   1 <1>  -0.5325 
 28 H        5.0423    -0.3399     5.9210 H     1 <1>   0.4500 
 29 C        3.9148    -2.1939     3.5881 C.ar  1 <1>   0.0825 
 30 O        3.6635    -3.3491     4.2750 O.3   1 <1>  -0.5325 
 31 H        3.3466    -4.0274     3.6582 H     1 <1>   0.4500 
 32 C        3.6597    -2.1181     2.2185 C.ar  1 <1>  -0.1500 
 33 H        3.2572    -2.9801     1.6913 H     1 <1>   0.1500 
@<TRIPOS>BOND
  1   1   2  ar  
  2   1  12  ar  
  3   1  20  1   
  4   2   3  1   
  5   2   5  ar  
  6   3   4  1   
  7   5   6  1   
  8   5   7  ar  
  9   7   8  1   
 10   7  10  ar  
 11   8   9  1   
 12  10  11  1   
 13  10  12  ar  
 14  12  13  1   
 15  13  14  1   
 16  14  15  1   
 17  14  16  1   
 18  14  17  1   
 19  15  22  ar  
 20  15  32  ar  
 21  17  18  1   
 22  17  19  1   
 23  17  20  1   
 24  20  21  2   
 25  22  23  1   
 26  22  24  ar  
 27  24  25  1   
 28  24  26  ar  
 29  26  27  1   
 30  26  29  ar  
 31  27  28  1   
 32  29  30  1   
 33  29  32  ar  
 34  30  31  1   
 35  32  33  1   
@<TRIPOS>SUBSTRUCTURE
  1 <1>   0 RESIDUE 1 * * 1
# MOE 2007.09 (io_trps.svl 2007.09)
