@<TRIPOS>MOLECULE
J18_18
29 31 1 0 0 
SMALL
USER_CHARGES


@<TRIPOS>ATOM
  1 C        1.4051     0.6585    -0.0079 C.ar  1 <1>   0.1560 
  2 C        0.1556     1.1389    -0.4362 C.ar  1 <1>  -0.1500 
  3 H        0.0862     2.0651    -1.0043 H     1 <1>   0.1500 
  4 C       -1.0097     0.4345    -0.1221 C.ar  1 <1>   0.0825 
  5 O       -2.2369     0.8732    -0.5238 O.3   1 <1>  -0.5325 
  6 H       -2.1510     1.6887    -1.0448 H     1 <1>   0.4500 
  7 C       -0.9625    -0.7401     0.6224 C.ar  1 <1>  -0.1500 
  8 H       -1.8774    -1.2749     0.8627 H     1 <1>   0.1500 
  9 C        0.2652    -1.2228     1.0525 C.ar  1 <1>   0.0825 
 10 O        0.2773    -2.3826     1.7787 O.3   1 <1>  -0.5325 
 11 H        1.2122    -2.5864     2.0254 H     1 <1>   0.4500 
 12 C        1.4366    -0.5304     0.7352 C.ar  1 <1>   0.0862 
 13 C        2.7338    -1.0695     1.1372 C.2   1 <1>   0.4694 
 14 O        2.8041    -2.0583     1.8546 O.2   1 <1>  -0.5700 
 15 C        3.9058    -0.3917     0.5819 C.2   1 <1>  -0.1356 
 16 H        4.8730    -0.8595     0.7336 H     1 <1>   0.1500 
 17 C        3.7195     0.7404    -0.1100 C.2   1 <1>   0.1196 
 18 C        4.8784     1.4242    -0.6996 C.ar  1 <1>   0.0284 
 19 O        2.5286     1.4263    -0.2663 O.3   1 <1>   0.6960 
 20 C        5.4752     0.9196    -1.8646 C.ar  1 <1>  -0.1500 
 21 H        5.0988     0.0192    -2.3469 H     1 <1>   0.1500 
 22 C        6.5737     1.5701    -2.4301 C.ar  1 <1>  -0.1500 
 23 H        7.0349     1.1767    -3.3332 H     1 <1>   0.1500 
 24 C        7.0848     2.7227    -1.8365 C.ar  1 <1>  -0.1500 
 25 H        7.9426     3.2255    -2.2767 H     1 <1>   0.1500 
 26 C        6.5024     3.2275    -0.6751 C.ar  1 <1>  -0.1500 
 27 H        6.9112     4.1227    -0.2115 H     1 <1>   0.1500 
 28 C        5.4029     2.5817    -0.1051 C.ar  1 <1>  -0.1500 
 29 H        4.9797     2.9916     0.8099 H     1 <1>   0.1500 
@<TRIPOS>BOND
  1   1   2  ar  
  2   1  12  ar  
  3   1  19  1   
  4   2   3  1   
  5   2   4  ar  
  6   4   5  1   
  7   4   7  ar  
  8   5   6  1   
  9   7   8  1   
 10   7   9  ar  
 11   9  10  1   
 12   9  12  ar  
 13  10  11  1   
 14  12  13  1   
 15  13  14  2   
 16  13  15  1   
 17  15  16  1   
 18  15  17  2   
 19  17  18  1   
 20  17  19  1   
 21  18  20  ar  
 22  18  28  ar  
 23  20  21  1   
 24  20  22  ar  
 25  22  23  1   
 26  22  24  ar  
 27  24  25  1   
 28  24  26  ar  
 29  26  27  1   
 30  26  28  ar  
 31  28  29  1   
@<TRIPOS>SUBSTRUCTURE
  1 <1>   0 RESIDUE 1 * * 1
# MOE 2007.09 (io_trps.svl 2007.09)
