@<TRIPOS>MOLECULE
J19_04
31 33 1 0 0 
SMALL
USER_CHARGES


@<TRIPOS>ATOM
  1 C        1.3902     0.5878    -0.4973 C.ar  1 <1>   0.0825 
  2 C        0.2447     1.2828    -0.8909 C.ar  1 <1>  -0.1500 
  3 H        0.3284     2.2372    -1.4036 H     1 <1>   0.1500 
  4 C       -1.0087     0.7494    -0.6223 C.ar  1 <1>   0.0825 
  5 O       -2.0994     1.4643    -1.0214 O.3   1 <1>  -0.5325 
  6 H       -2.9083     0.9868    -0.7731 H     1 <1>   0.4500 
  7 C       -1.1355    -0.4709     0.0329 C.ar  1 <1>  -0.1500 
  8 H       -2.1195    -0.8795     0.2389 H     1 <1>   0.1500 
  9 C        0.0172    -1.1631     0.4239 C.ar  1 <1>   0.0825 
 10 O       -0.1267    -2.3587     1.0700 O.3   1 <1>  -0.5325 
 11 H       -1.0654    -2.5827     1.1672 H     1 <1>   0.4500 
 12 C        1.2903    -0.6380     0.1614 C.ar  1 <1>   0.0862 
 13 C        2.5415    -1.3140     0.5499 C.2   1 <1>   0.4694 
 14 O        2.5562    -2.4075     1.1028 O.2   1 <1>  -0.5700 
 15 C        3.8173    -0.6075     0.2428 C.2   1 <1>   0.0911 
 16 O        4.9894    -1.2096     0.6662 O.3   1 <1>  -0.5267 
 17 H        5.7369    -0.6064     0.5210 H     1 <1>   0.4500 
 18 C        3.7548     0.5639    -0.4119 C.2   1 <1>   0.0483 
 19 C        4.9504     1.3341    -0.7851 C.ar  1 <1>   0.0284 
 20 O        2.5848     1.1864    -0.7993 O.3   1 <1>  -0.1592 
 21 C        5.8744     0.8286    -1.7128 C.ar  1 <1>  -0.1500 
 22 H        5.7164    -0.1426    -2.1785 H     1 <1>   0.1500 
 23 C        7.0081     1.5696    -2.0602 C.ar  1 <1>  -0.1500 
 24 H        7.7096     1.1586    -2.7797 H     1 <1>   0.1500 
 25 C        7.2105     2.8207    -1.4845 C.ar  1 <1>   0.0825 
 26 O        8.3017     3.5789    -1.7961 O.3   1 <1>  -0.5325 
 27 H        8.8478     3.0902    -2.4336 H     1 <1>   0.4500 
 28 C        6.2991     3.3404    -0.5714 C.ar  1 <1>  -0.1500 
 29 H        6.4641     4.3205    -0.1337 H     1 <1>   0.1500 
 30 C        5.1684     2.5992    -0.2224 C.ar  1 <1>  -0.1500 
 31 H        4.4604     3.0165     0.4907 H     1 <1>   0.1500 
@<TRIPOS>BOND
  1   1   2  ar  
  2   1  12  ar  
  3   1  20  1   
  4   2   3  1   
  5   2   4  ar  
  6   4   5  1   
  7   4   7  ar  
  8   5   6  1   
  9   7   8  1   
 10   7   9  ar  
 11   9  10  1   
 12   9  12  ar  
 13  10  11  1   
 14  12  13  1   
 15  13  14  2   
 16  13  15  1   
 17  15  16  1   
 18  15  18  2   
 19  16  17  1   
 20  18  19  1   
 21  18  20  1   
 22  19  21  ar  
 23  19  30  ar  
 24  21  22  1   
 25  21  23  ar  
 26  23  24  1   
 27  23  25  ar  
 28  25  26  1   
 29  25  28  ar  
 30  26  27  1   
 31  28  29  1   
 32  28  30  ar  
 33  30  31  1   
@<TRIPOS>SUBSTRUCTURE
  1 <1>   0 RESIDUE 1 * * 1
# MOE 2007.09 (io_trps.svl 2007.09)
