@<TRIPOS>MOLECULE
J19_07
31 33 1 0 0 
SMALL
USER_CHARGES


@<TRIPOS>ATOM
  1 C        1.6422    -0.0006    -0.7092 C.ar  1 <1>   0.0825 
  2 C        0.6631    -0.1344    -1.6922 C.ar  1 <1>  -0.1500 
  3 H        0.8698     0.1493    -2.7200 H     1 <1>   0.1500 
  4 C       -0.5886    -0.6356    -1.3478 C.ar  1 <1>   0.0825 
  5 O       -1.5183    -0.7490    -2.3393 O.3   1 <1>  -0.5325 
  6 H       -2.3407    -1.1060    -1.9644 H     1 <1>   0.4500 
  7 C       -0.8758    -1.0059    -0.0356 C.ar  1 <1>  -0.1500 
  8 H       -1.8504    -1.3977     0.2401 H     1 <1>   0.1500 
  9 C        0.1079    -0.8705     0.9466 C.ar  1 <1>  -0.1500 
 10 H       -0.1119    -1.1572     1.9730 H     1 <1>   0.1500 
 11 C        1.3662    -0.3666     0.6033 C.ar  1 <1>   0.0862 
 12 C        2.4141    -0.2123     1.6163 C.2   1 <1>   0.4694 
 13 O        2.2077    -0.5348     2.7810 O.2   1 <1>  -0.5700 
 14 C        3.7130     0.3483     1.1599 C.2   1 <1>   0.0911 
 15 O        4.6942     0.5314     2.1167 O.3   1 <1>  -0.5267 
 16 H        5.4439     1.0122     1.7281 H     1 <1>   0.4500 
 17 C        3.8468     0.6469    -0.1452 C.2   1 <1>   0.0483 
 18 O        2.8560     0.4972    -1.1001 O.3   1 <1>  -0.1592 
 19 C        5.0912     1.1847    -0.7121 C.ar  1 <1>   0.0284 
 20 C        6.2404     0.3826    -0.8029 C.ar  1 <1>  -0.1500 
 21 H        6.2168    -0.6469    -0.4557 H     1 <1>   0.1500 
 22 C        7.4006     0.9196    -1.3500 C.ar  1 <1>   0.0825 
 23 O        8.5565     0.1978    -1.4683 O.3   1 <1>  -0.5325 
 24 H        8.3952    -0.7045    -1.1413 H     1 <1>   0.4500 
 25 C        7.4257     2.2353    -1.8058 C.ar  1 <1>   0.0825 
 26 O        8.5794     2.7382    -2.3380 O.3   1 <1>  -0.5325 
 27 H        9.2111     1.9928    -2.2768 H     1 <1>   0.4500 
 28 C        6.2972     3.0370    -1.7291 C.ar  1 <1>  -0.1500 
 29 H        6.3244     4.0591    -2.0933 H     1 <1>   0.1500 
 30 C        5.1254     2.5090    -1.1825 C.ar  1 <1>  -0.1500 
 31 H        4.2378     3.1364    -1.1272 H     1 <1>   0.1500 
@<TRIPOS>BOND
  1   1   2  ar  
  2   1  11  ar  
  3   1  18  1   
  4   2   3  1   
  5   2   4  ar  
  6   4   5  1   
  7   4   7  ar  
  8   5   6  1   
  9   7   8  1   
 10   7   9  ar  
 11   9  10  1   
 12   9  11  ar  
 13  11  12  1   
 14  12  13  2   
 15  12  14  1   
 16  14  15  1   
 17  14  17  2   
 18  15  16  1   
 19  17  18  1   
 20  17  19  1   
 21  19  20  ar  
 22  19  30  ar  
 23  20  21  1   
 24  20  22  ar  
 25  22  23  1   
 26  22  25  ar  
 27  23  24  1   
 28  25  26  1   
 29  25  28  ar  
 30  26  27  1   
 31  28  29  1   
 32  28  30  ar  
 33  30  31  1   
@<TRIPOS>SUBSTRUCTURE
  1 <1>   0 RESIDUE 1 * * 1
# MOE 2007.09 (io_trps.svl 2007.09)
