@<TRIPOS>MOLECULE
J19_16
33 35 1 0 0 
SMALL
USER_CHARGES


@<TRIPOS>ATOM
  1 C        1.4030     0.5210    -0.4280 C.ar  1 <1>   0.2100 
  2 C        0.2380     1.1960    -0.8120 C.ar  1 <1>  -0.1500 
  3 H        0.2840     2.1700    -1.2950 H     1 <1>   0.1500 
  4 C       -1.0070     0.6170    -0.5800 C.ar  1 <1>   0.0820 
  5 O       -2.1060     1.3190    -0.9800 O.3   1 <1>  -0.5320 
  6 H       -2.9130     0.8140    -0.7810 H     1 <1>   0.4500 
  7 C       -1.1210    -0.6260     0.0340 C.ar  1 <1>  -0.1500 
  8 H       -2.0980    -1.0650     0.2100 H     1 <1>   0.1500 
  9 C        0.0400    -1.2970     0.4180 C.ar  1 <1>   0.0820 
 10 O       -0.0370    -2.5210     1.0220 O.3   1 <1>  -0.5320 
 11 H       -0.9690    -2.7850     1.1160 H     1 <1>   0.4500 
 12 C        2.5100    -1.3620     0.5480 C.ar  1 <1>  -0.1500 
 13 H        2.5000    -2.3350     1.0340 H     1 <1>   0.1500 
 14 C        3.6910    -0.7110     0.2580 C.ar  1 <1>   0.0820 
 15 O        4.8890    -1.2700     0.5870 O.3   1 <1>  -0.5320 
 16 H        4.7550    -2.1120     1.0590 H     1 <1>   0.4500 
 17 C        1.3140    -0.7400     0.1930 C.ar  1 <1>   0.0000 
 18 C        3.6450     0.5440    -0.3730 C.ar  1 <1>   0.2100 
 19 O        2.5230     1.0520    -0.6460 O.2   1 <1>   0.5800 
 20 C        4.8450     1.3100    -0.7470 C.ar  1 <1>   0.0000 
 21 C        5.8820     0.7150    -1.4900 C.ar  1 <1>  -0.1500 
 22 H        5.8130    -0.3300    -1.7850 H     1 <1>   0.1500 
 23 C        7.0030     1.4590    -1.8480 C.ar  1 <1>   0.0820 
 24 O        8.0350     0.9180    -2.5650 O.3   1 <1>  -0.5320 
 25 H        7.8500    -0.0260    -2.7140 H     1 <1>   0.4500 
 26 C        7.1150     2.7960    -1.4820 C.ar  1 <1>   0.0820 
 27 O        8.2350     3.4850    -1.8560 O.3   1 <1>  -0.5320 
 28 H        8.7740     2.8330    -2.3480 H     1 <1>   0.4500 
 29 C        6.1040     3.4030    -0.7490 C.ar  1 <1>   0.0820 
 30 O        6.2340     4.7130    -0.3860 O.3   1 <1>  -0.5320 
 31 H        5.4730     4.9830     0.1530 H     1 <1>   0.4500 
 32 C        4.9700     2.6690    -0.3850 C.ar  1 <1>  -0.1500 
 33 H        4.1910     3.1540     0.2000 H     1 <1>   0.1500 
@<TRIPOS>BOND
  1   1   2  ar  
  2   1  17  ar  
  3   1  19  ar  
  4   2   3  1   
  5   2   4  ar  
  6   4   5  1   
  7   4   7  ar  
  8   5   6  1   
  9   7   8  1   
 10   7   9  ar  
 11   9  10  1   
 12   9  17  ar  
 13  10  11  1   
 14  12  13  1   
 15  12  14  ar  
 16  12  17  ar  
 17  14  15  1   
 18  14  18  ar  
 19  15  16  1   
 20  18  19  ar  
 21  18  20  1   
 22  20  21  ar  
 23  20  32  ar  
 24  21  22  1   
 25  21  23  ar  
 26  23  24  1   
 27  23  26  ar  
 28  24  25  1   
 29  26  27  1   
 30  26  29  ar  
 31  27  28  1   
 32  29  30  1   
 33  29  32  ar  
 34  30  31  1   
 35  32  33  1   
@<TRIPOS>SUBSTRUCTURE
  1 <1>   0 RESIDUE 1 * * 1
# MOE 2007.09 (io_trps.svl 2007.09)
