@<TRIPOS>MOLECULE
J19_21
36 37 1 0 0 
SMALL
USER_CHARGES


@<TRIPOS>ATOM
  1 C        0.7260     1.6910    -0.7640 C.3   1 <1>   0.2800 
  2 O        1.6100     2.7440    -0.3660 O.3   1 <1>  -0.6800 
  3 H        2.4410     2.6130    -0.8620 H     1 <1>   0.4000 
  4 H2       0.6140     1.7710    -1.8530 H     1 <1>   0.0000 
  5 C       -0.6190     1.9360    -0.0900 C.3   1 <1>   0.2800 
  6 O       -1.1570     3.1950    -0.5170 O.3   1 <1>  -0.6800 
  7 H       -0.4060     3.8200    -0.4570 H     1 <1>   0.4000 
  8 H2      -0.4970     2.0220     0.9980 H     1 <1>   0.0000 
  9 C       -1.6160     0.8290    -0.4290 C.3   1 <1>   0.2800 
 10 H1      -1.8650     0.8840    -1.4970 H     1 <1>   0.0000 
 11 O       -2.8180     1.0820     0.2960 O.3   1 <1>  -0.6800 
 12 H       -2.9940     2.0360     0.1740 H     1 <1>   0.4000 
 13 C       -1.0000    -0.5430    -0.0980 C.3   1 <1>   0.2800 
 14 C       -1.8800    -1.7120    -0.5630 C.3   1 <1>   0.2800 
 15 O       -3.0140    -1.8910     0.2730 O.3   1 <1>  -0.6800 
 16 H       -3.5570    -2.5920    -0.1240 H     1 <1>   0.4000 
 17 H2      -1.3020    -2.6430    -0.5490 H     1 <1>   0.0000 
 18 H3      -2.2160    -1.5580    -1.5940 H     1 <1>   0.0000 
 19 H2      -0.8530    -0.6330     0.9860 H     1 <1>   0.0000 
 20 O        0.2660    -0.6840    -0.7660 O.3   1 <1>  -0.5600 
 21 C        1.2420     0.2960    -0.3750 C.3   1 <1>   0.5600 
 22 O        2.4450     0.0420    -1.1120 O.3   1 <1>  -0.3620 
 23 C        3.6410     0.0390    -0.4520 C.ar  1 <1>   0.0820 
 24 H2       1.3990     0.1990     0.7060 H     1 <1>   0.0000 
 25 C        4.6560    -0.6810    -1.0860 C.ar  1 <1>  -0.1500 
 26 H        4.4510    -1.2100    -2.0140 H     1 <1>   0.1500 
 27 C        5.9350    -0.7310    -0.5350 C.ar  1 <1>   0.0820 
 28 O        6.8780    -1.4610    -1.1990 O.3   1 <1>  -0.5320 
 29 H        7.7230    -1.4120    -0.7210 H     1 <1>   0.4500 
 30 C        6.2320    -0.0560     0.6430 C.ar  1 <1>  -0.1500 
 31 H        7.2300    -0.0920     1.0660 H     1 <1>   0.1500 
 32 C        5.2200     0.6730     1.2620 C.ar  1 <1>   0.0820 
 33 O        5.4540     1.3770     2.4100 O.3   1 <1>  -0.5320 
 34 H        6.3870     1.2780     2.6610 H     1 <1>   0.4500 
 35 C        3.9300     0.7250     0.7280 C.ar  1 <1>  -0.1500 
 36 H        3.1900     1.3280     1.2450 H     1 <1>   0.1500 
@<TRIPOS>BOND
  1   1   2  1   
  2   1   4  1   
  3   1   5  1   
  4   1  21  1   
  5   2   3  1   
  6   5   6  1   
  7   5   8  1   
  8   5   9  1   
  9   6   7  1   
 10   9  10  1   
 11   9  11  1   
 12   9  13  1   
 13  11  12  1   
 14  13  14  1   
 15  13  19  1   
 16  13  20  1   
 17  14  15  1   
 18  14  17  1   
 19  14  18  1   
 20  15  16  1   
 21  20  21  1   
 22  21  22  1   
 23  21  24  1   
 24  22  23  1   
 25  23  25  ar  
 26  23  35  ar  
 27  25  26  1   
 28  25  27  ar  
 29  27  28  1   
 30  27  30  ar  
 31  28  29  1   
 32  30  31  1   
 33  30  32  ar  
 34  32  33  1   
 35  32  35  ar  
 36  33  34  1   
 37  35  36  1   
@<TRIPOS>SUBSTRUCTURE
  1 <1>   0 RESIDUE 1 * * 1
# MOE 2007.09 (io_trps.svl 2007.09)
