@<TRIPOS>MOLECULE
J19_03
47 49 1 0 0 
SMALL
USER_CHARGES


@<TRIPOS>ATOM
  1 C        1.4353     0.9429    -0.1738 C.ar  1 <1>   0.0284 
  2 C        2.6825     1.7258    -0.2686 C.2   1 <1>   0.0483 
  3 C        0.2252     1.4099    -0.7082 C.ar  1 <1>  -0.1500 
  4 H        0.1760     2.3733    -1.2115 H     1 <1>   0.1500 
  5 C       -0.9458     0.6424    -0.6268 C.ar  1 <1>  -0.1500 
  6 H       -1.8532     1.0529    -1.0580 H     1 <1>   0.1500 
  7 C       -0.9237    -0.6105    -0.0147 C.ar  1 <1>   0.0825 
  8 O       -1.9878    -1.4591     0.1271 O.3   1 <1>  -0.3625 
  9 C       -3.2342    -1.0227    -0.4011 C.3   1 <1>   0.2800 
 10 H1      -3.9721    -1.8073    -0.2079 H     1 <1>   0.0000 
 11 H2      -3.1755    -0.8807    -1.4853 H     1 <1>   0.0000 
 12 H3      -3.5780    -0.1117     0.0998 H     1 <1>   0.0000 
 13 C        0.2781    -1.0859     0.5131 C.ar  1 <1>  -0.1500 
 14 H        0.3094    -2.0628     0.9894 H     1 <1>   0.1500 
 15 C        1.4464    -0.3210     0.4326 C.ar  1 <1>  -0.1500 
 16 H        2.3645    -0.7254     0.8536 H     1 <1>   0.1500 
 17 O        3.8040     0.9677    -0.5474 O.3   1 <1>  -0.1592 
 18 C        5.0190     1.5984    -0.6708 C.ar  1 <1>   0.0825 
 19 C        5.1783     2.9761    -0.5071 C.ar  1 <1>   0.0862 
 20 C        3.9870     3.7682    -0.1662 C.2   1 <1>   0.4694 
 21 C        2.7096     3.0466    -0.0714 C.2   1 <1>  -0.1356 
 22 O        4.0095     4.9724     0.0494 O.2   1 <1>  -0.5700 
 23 C        6.1246     0.7896    -0.9720 C.ar  1 <1>   0.0825 
 24 O        5.9345    -0.5597    -1.1593 O.3   1 <1>  -0.3625 
 25 C        6.1748    -1.2670     0.0573 C.3   1 <1>   0.2800 
 26 H1       5.9845    -2.3280    -0.1300 H     1 <1>   0.0000 
 27 H2       5.4948    -0.9364     0.8502 H     1 <1>   0.0000 
 28 H3       7.2152    -1.1626     0.3825 H     1 <1>   0.0000 
 29 C        7.3949     1.3511    -1.1506 C.ar  1 <1>   0.0825 
 30 O        8.4135     0.5036    -1.5045 O.3   1 <1>  -0.3625 
 31 C        9.5762     0.6320    -0.6882 C.3   1 <1>   0.2800 
 32 H1      10.0536    -0.3514    -0.6353 H     1 <1>   0.0000 
 33 H2       9.3430     0.9443     0.3364 H     1 <1>   0.0000 
 34 H3      10.2893     1.3205    -1.1505 H     1 <1>   0.0000 
 35 C        7.5417     2.7393    -1.0404 C.ar  1 <1>   0.0825 
 36 O        8.7619     3.3302    -1.2632 O.3   1 <1>  -0.3625 
 37 C        8.8811     3.6991    -2.6385 C.3   1 <1>   0.2800 
 38 H1       9.8651     4.1571    -2.7766 H     1 <1>   0.0000 
 39 H2       8.1221     4.4363    -2.9220 H     1 <1>   0.0000 
 40 H3       8.8219     2.8216    -3.2918 H     1 <1>   0.0000 
 41 C        6.4480     3.5452    -0.6730 C.ar  1 <1>   0.0825 
 42 O        6.6311     4.9024    -0.5820 O.3   1 <1>  -0.3625 
 43 C        7.1083     5.2546     0.7172 C.3   1 <1>   0.2800 
 44 H1       7.1085     6.3463     0.7883 H     1 <1>   0.0000 
 45 H2       8.1354     4.9060     0.8671 H     1 <1>   0.0000 
 46 H3       6.4580     4.8635     1.5077 H     1 <1>   0.0000 
 47 H        1.8369     3.6385     0.1751 H     1 <1>   0.1500 
@<TRIPOS>BOND
  1   1   2  1   
  2   1   3  ar  
  3   1  15  ar  
  4   2  17  1   
  5   2  21  2   
  6   3   4  1   
  7   3   5  ar  
  8   5   6  1   
  9   5   7  ar  
 10   7   8  1   
 11   7  13  ar  
 12   8   9  1   
 13   9  10  1   
 14   9  11  1   
 15   9  12  1   
 16  13  14  1   
 17  13  15  ar  
 18  15  16  1   
 19  17  18  1   
 20  18  19  ar  
 21  18  23  ar  
 22  19  20  1   
 23  19  41  ar  
 24  20  21  1   
 25  20  22  2   
 26  21  47  1   
 27  23  24  1   
 28  23  29  ar  
 29  24  25  1   
 30  25  26  1   
 31  25  27  1   
 32  25  28  1   
 33  29  30  1   
 34  29  35  ar  
 35  30  31  1   
 36  31  32  1   
 37  31  33  1   
 38  31  34  1   
 39  35  36  1   
 40  35  41  ar  
 41  36  37  1   
 42  37  38  1   
 43  37  39  1   
 44  37  40  1   
 45  41  42  1   
 46  42  43  1   
 47  43  44  1   
 48  43  45  1   
 49  43  46  1   
@<TRIPOS>SUBSTRUCTURE
  1 <1>   0 RESIDUE 1 * * 1
# MOE 2007.09 (io_trps.svl 2007.09)
