@<TRIPOS>MOLECULE
J19_17
39 41 1 0 0 
SMALL
USER_CHARGES


@<TRIPOS>ATOM
  1 C        1.3300     0.4730    -0.3700 C.ar  1 <1>   0.2100 
  2 C        0.1750     1.1760    -0.7290 C.ar  1 <1>  -0.1500 
  3 H        0.2340     2.1590    -1.1940 H     1 <1>   0.1500 
  4 C       -1.0780     0.6160    -0.4940 C.ar  1 <1>   0.0820 
  5 O       -2.1670     1.3470    -0.8680 O.3   1 <1>  -0.5320 
  6 H       -2.9820     0.8560    -0.6650 H     1 <1>   0.4500 
  7 C       -1.2090    -0.6360     0.0970 C.ar  1 <1>  -0.1500 
  8 H       -2.1920    -1.0610     0.2760 H     1 <1>   0.1500 
  9 C       -0.0570    -1.3360     0.4560 C.ar  1 <1>   0.0820 
 10 O       -0.1510    -2.5700     1.0380 O.3   1 <1>  -0.5320 
 11 H       -1.0870    -2.8180     1.1350 H     1 <1>   0.4500 
 12 C        2.4150    -1.4440     0.5610 C.ar  1 <1>  -0.1500 
 13 H        2.3940    -2.4250     1.0300 H     1 <1>   0.1500 
 14 C        3.6050    -0.8050     0.2740 C.ar  1 <1>   0.0820 
 15 O        4.7960    -1.3880     0.5890 O.3   1 <1>  -0.5320 
 16 H        4.6510    -2.2380     1.0440 H     1 <1>   0.4500 
 17 C        1.2250    -0.7970     0.2290 C.ar  1 <1>   0.0000 
 18 C        3.5730     0.4610    -0.3340 C.ar  1 <1>   0.2100 
 19 O        2.4570     0.9890    -0.5900 O.2   1 <1>   0.5800 
 20 C        4.7800     1.2230    -0.7000 C.ar  1 <1>   0.0000 
 21 C        5.8210     0.6240    -1.4380 C.ar  1 <1>  -0.1500 
 22 H        5.7290    -0.4210    -1.7230 H     1 <1>   0.1500 
 23 C        6.9530     1.3530    -1.7990 C.ar  1 <1>   0.0820 
 24 O        8.0280     0.8840    -2.5100 O.3   1 <1>  -0.3620 
 25 C        8.0190    -0.4980    -2.8520 C.3   1 <1>   0.2800 
 26 H1       8.9520    -0.7170    -3.3800 H     1 <1>   0.0000 
 27 H2       7.1910    -0.7300    -3.5290 H     1 <1>   0.0000 
 28 H3       7.9880    -1.1270    -1.9560 H     1 <1>   0.0000 
 29 C        7.0430     2.6990    -1.4260 C.ar  1 <1>   0.0820 
 30 O        8.1640     3.4030    -1.7930 O.3   1 <1>  -0.5320 
 31 H        8.7210     2.7660    -2.2810 H     1 <1>   0.4500 
 32 C        6.0320     3.3290    -0.6950 C.ar  1 <1>   0.0820 
 33 O        6.2400     4.6460    -0.3840 O.3   1 <1>  -0.3620 
 34 C        5.2430     5.3140     0.3760 C.3   1 <1>   0.2800 
 35 H1       5.5760     6.3440     0.5340 H     1 <1>   0.0000 
 36 H2       5.1190     4.8500     1.3600 H     1 <1>   0.0000 
 37 H3       4.2920     5.3510    -0.1670 H     1 <1>   0.0000 
 38 C        4.9020     2.5820    -0.3400 C.ar  1 <1>  -0.1500 
 39 H        4.1100     3.0480     0.2390 H     1 <1>   0.1500 
@<TRIPOS>BOND
  1   1   2  ar  
  2   1  17  ar  
  3   1  19  ar  
  4   2   3  1   
  5   2   4  ar  
  6   4   5  1   
  7   4   7  ar  
  8   5   6  1   
  9   7   8  1   
 10   7   9  ar  
 11   9  10  1   
 12   9  17  ar  
 13  10  11  1   
 14  12  13  1   
 15  12  14  ar  
 16  12  17  ar  
 17  14  15  1   
 18  14  18  ar  
 19  15  16  1   
 20  18  19  ar  
 21  18  20  1   
 22  20  21  ar  
 23  20  38  ar  
 24  21  22  1   
 25  21  23  ar  
 26  23  24  1   
 27  23  29  ar  
 28  24  25  1   
 29  25  26  1   
 30  25  27  1   
 31  25  28  1   
 32  29  30  1   
 33  29  32  ar  
 34  30  31  1   
 35  32  33  1   
 36  32  38  ar  
 37  33  34  1   
 38  34  35  1   
 39  34  36  1   
 40  34  37  1   
 41  38  39  1   
@<TRIPOS>SUBSTRUCTURE
  1 <1>   0 RESIDUE 1 * * 1
# MOE 2007.09 (io_trps.svl 2007.09)
