6741
     RDKit          2D

 27 30  0  0  1  0  0  0  0  0999 V2000
    8.0319    2.3480    0.0000 O   0  0  0  0  0  0  0  0  0  0  0  0
    4.7950    1.5917    0.0000 O   0  0  0  0  0  0  0  0  0  0  0  0
    9.0465    2.9775    0.0000 O   0  0  0  0  0  0  0  0  0  0  0  0
   10.8722    2.1609    0.0000 O   0  0  0  0  0  0  0  0  0  0  0  0
    2.0000   -1.9606    0.0000 O   0  0  0  0  0  0  0  0  0  0  0  0
    7.3931    1.0917    0.0000 C   0  0  0  0  0  0  0  0  0  0  0  0
    7.3931    0.0917    0.0000 C   0  0  0  0  0  0  0  0  0  0  0  0
    6.5271   -0.4083    0.0000 C   0  0  0  0  0  0  0  0  0  0  0  0
    5.6610    0.0917    0.0000 C   0  0  0  0  0  0  0  0  0  0  0  0
    8.3393    1.3964    0.0000 C   0  0  0  0  0  0  0  0  0  0  0  0
    6.5271    1.5917    0.0000 C   0  0  0  0  0  0  0  0  0  0  0  0
    5.6610    1.0917    0.0000 C   0  0  0  0  0  0  0  0  0  0  0  0
    8.3393   -0.2130    0.0000 C   0  0  0  0  0  0  0  0  0  0  0  0
    4.7510   -0.4151    0.0000 C   0  0  0  0  0  0  0  0  0  0  0  0
    8.9229    0.5917    0.0000 C   0  0  0  0  0  0  0  0  0  0  0  0
    6.5431   -1.4498    0.0000 C   0  0  0  0  0  0  0  0  0  0  0  0
    5.6451   -1.9775    0.0000 C   0  0  0  0  0  0  0  0  0  0  0  0
    7.3931    2.0917    0.0000 C   0  0  0  0  0  0  0  0  0  0  0  0
    4.7430   -1.4567    0.0000 C   0  0  0  0  0  0  0  0  0  0  0  0
    9.1493    1.9828    0.0000 C   0  0  0  0  0  0  0  0  0  0  0  0
    4.7587    0.5848    0.0000 C   0  0  0  0  0  0  0  0  0  0  0  0
    3.8242    0.1490    0.0000 C   0  0  0  0  0  0  0  0  0  0  0  0
    5.6489   -2.9775    0.0000 C   0  0  0  0  0  0  0  0  0  0  0  0
    3.8076   -2.0064    0.0000 C   0  0  0  0  0  0  0  0  0  0  0  0
   10.0622    1.5745    0.0000 C   0  0  0  0  0  0  0  0  0  0  0  0
    2.8763   -0.3790    0.0000 C   0  0  0  0  0  0  0  0  0  0  0  0
    2.8680   -1.4640    0.0000 C   0  0  0  0  0  0  0  0  0  0  0  0
 10  1  1  6
 12  2  1  1
  3 20  2  0
  4 25  1  0
  5 27  2  0
  6  7  1  0
  6 10  1  0
  6 11  1  0
  6 18  1  1
  7  8  1  0
  7 13  1  1
  8  9  1  0
  8 16  1  6
  9 12  1  1
  9 14  1  0
 10 15  1  0
 10 20  1  0
 11 12  1  0
 13 15  1  0
 14 19  1  0
 14 21  1  1
 14 22  1  0
 16 17  1  0
 17 19  1  0
 17 23  1  6
 19 24  2  0
 20 25  1  0
 22 26  2  0
 24 27  1  0
 26 27  1  0
M  END
>  <PUBCHEM_COMPOUND_CID>  (1) 
6741

>  <PUBCHEM_COMPOUND_CANONICALIZED>  (1) 
1

>  <PUBCHEM_CACTVS_COMPLEXITY>  (1) 
754

>  <PUBCHEM_CACTVS_HBOND_ACCEPTOR>  (1) 
5

>  <PUBCHEM_CACTVS_HBOND_DONOR>  (1) 
3

>  <PUBCHEM_CACTVS_ROTATABLE_BOND>  (1) 
2

>  <PUBCHEM_CACTVS_SUBSKEYS>  (1) 
AAADceB4OAAAAAAAAAAAAAAAAAAAAYAAAAAwYIAAAAAAAGDAAAAAGgAACAAAD1SggAICAAAAAgCIAqBSAAIAAAAgAAAICAFAAEgAEBIAAQAAQAAFgAAIAYPIzPDPgAAAAAAAAADAAAYAADAAAYAADAAAAA==

>  <PUBCHEM_IUPAC_OPENEYE_NAME>  (1) 
(6S,8S,9S,10R,11S,13S,14S,17R)-11,17-dihydroxy-17-(2-hydroxyacetyl)-6,10,13-trimethyl-7,8,9,11,12,14,15,16-octahydro-6H-cyclopenta[a]phenanthren-3-one

>  <PUBCHEM_IUPAC_CAS_NAME>  (1) 
(6S,8S,9S,10R,11S,13S,14S,17R)-11,17-dihydroxy-17-(2-hydroxy-1-oxoethyl)-6,10,13-trimethyl-7,8,9,11,12,14,15,16-octahydro-6H-cyclopenta[a]phenanthren-3-one

>  <PUBCHEM_IUPAC_NAME_MARKUP>  (1) 
(6<I>S</I>,8<I>S</I>,9<I>S</I>,10<I>R</I>,11<I>S</I>,13<I>S</I>,14<I>S</I>,17<I>R</I>)-11,17-dihydroxy-17-(2-hydroxyacetyl)-6,10,13-trimethyl-7,8,9,11,12,14,15,16-octahydro-6<I>H</I>-cyclopenta[a]phenanthren-3-one

>  <PUBCHEM_IUPAC_NAME>  (1) 
(6S,8S,9S,10R,11S,13S,14S,17R)-11,17-dihydroxy-17-(2-hydroxyacetyl)-6,10,13-trimethyl-7,8,9,11,12,14,15,16-octahydro-6H-cyclopenta[a]phenanthren-3-one

>  <PUBCHEM_IUPAC_SYSTEMATIC_NAME>  (1) 
(6S,8S,9S,10R,11S,13S,14S,17R)-6,10,13-trimethyl-11,17-bis(oxidanyl)-17-(2-oxidanylethanoyl)-7,8,9,11,12,14,15,16-octahydro-6H-cyclopenta[a]phenanthren-3-one

>  <PUBCHEM_IUPAC_TRADITIONAL_NAME>  (1) 
(6S,8S,9S,10R,11S,13S,14S,17R)-17-glycoloyl-11,17-dihydroxy-6,10,13-trimethyl-7,8,9,11,12,14,15,16-octahydro-6H-cyclopenta[a]phenanthren-3-one

>  <PUBCHEM_IUPAC_INCHI>  (1) 
InChI=1S/C22H30O5/c1-12-8-14-15-5-7-22(27,18(26)11-23)21(15,3)10-17(25)19(14)20(2)6-4-13(24)9-16(12)20/h4,6,9,12,14-15,17,19,23,25,27H,5,7-8,10-11H2,1-3H3/t12-,14-,15-,17-,19+,20-,21-,22-/m0/s1

>  <PUBCHEM_IUPAC_INCHIKEY>  (1) 
VHRSUDSXCMQTMA-PJHHCJLFSA-N

>  <PUBCHEM_XLOGP3>  (1) 
1.9

>  <PUBCHEM_EXACT_MASS>  (1) 
374.20932405

>  <PUBCHEM_MOLECULAR_FORMULA>  (1) 
C22H30O5

>  <PUBCHEM_MOLECULAR_WEIGHT>  (1) 
374.5

>  <PUBCHEM_OPENEYE_CAN_SMILES>  (1) 
CC1CC2C3CCC(C3(CC(C2C4(C1=CC(=O)C=C4)C)O)C)(C(=O)CO)O

>  <PUBCHEM_OPENEYE_ISO_SMILES>  (1) 
C[C@H]1C[C@H]2[C@@H]3CC[C@@]([C@]3(C[C@@H]([C@@H]2[C@@]4(C1=CC(=O)C=C4)C)O)C)(C(=O)CO)O

>  <PUBCHEM_CACTVS_TPSA>  (1) 
94.8

>  <PUBCHEM_MONOISOTOPIC_WEIGHT>  (1) 
374.20932405

>  <PUBCHEM_TOTAL_CHARGE>  (1) 
0

>  <PUBCHEM_HEAVY_ATOM_COUNT>  (1) 
27

>  <PUBCHEM_ATOM_DEF_STEREO_COUNT>  (1) 
8

>  <PUBCHEM_ATOM_UDEF_STEREO_COUNT>  (1) 
0

>  <PUBCHEM_BOND_DEF_STEREO_COUNT>  (1) 
0

>  <PUBCHEM_BOND_UDEF_STEREO_COUNT>  (1) 
0

>  <PUBCHEM_ISOTOPIC_ATOM_COUNT>  (1) 
0

>  <PUBCHEM_COMPONENT_COUNT>  (1) 
1

>  <PUBCHEM_CACTVS_TAUTO_COUNT>  (1) 
-1

>  <PUBCHEM_COORDINATE_TYPE>  (1) 
1
5
255

>  <PUBCHEM_BONDANNOTATIONS>  (1) 
10  1  6
14  21  5
17  23  6
12  2  5
6  18  5
7  28  6
8  29  5
9  30  6

$$$$
