6441419
     RDKit          2D

 33 34  0  0  0  0  0  0  0  0999 V2000
    2.8660   -4.2500    0.0000 O   0  0  0  0  0  0  0  0  0  0  0  0
   10.6603    3.2500    0.0000 O   0  0  0  0  0  0  0  0  0  0  0  0
    4.5981   -5.2500    0.0000 O   0  0  0  0  0  0  0  0  0  0  0  0
   10.6603    5.2500    0.0000 O   0  0  0  0  0  0  0  0  0  0  0  0
    4.5981    0.7500    0.0000 O   0  0  0  0  0  0  0  0  0  0  0  0
    5.4641    2.2500    0.0000 O   0  0  0  0  0  0  0  0  0  0  0  0
    6.3301   -5.2500    0.0000 O   0  0  0  0  0  0  0  0  0  0  0  0
    9.7942    6.7500    0.0000 O   0  0  0  0  0  0  0  0  0  0  0  0
    4.5981   -2.2500    0.0000 C   0  0  0  0  0  0  0  0  0  0  0  0
    8.0622    3.7500    0.0000 C   0  0  0  0  0  0  0  0  0  0  0  0
    3.7320   -2.7500    0.0000 C   0  0  0  0  0  0  0  0  0  0  0  0
    8.9282    3.2500    0.0000 C   0  0  0  0  0  0  0  0  0  0  0  0
    3.7320   -3.7500    0.0000 C   0  0  0  0  0  0  0  0  0  0  0  0
    9.7942    3.7500    0.0000 C   0  0  0  0  0  0  0  0  0  0  0  0
    4.5981   -4.2500    0.0000 C   0  0  0  0  0  0  0  0  0  0  0  0
    9.7942    4.7500    0.0000 C   0  0  0  0  0  0  0  0  0  0  0  0
    5.4641   -2.7500    0.0000 C   0  0  0  0  0  0  0  0  0  0  0  0
    8.0622    4.7500    0.0000 C   0  0  0  0  0  0  0  0  0  0  0  0
    6.3301    0.7500    0.0000 C   0  0  0  0  0  0  0  0  0  0  0  0
    4.5981   -1.2500    0.0000 C   0  0  0  0  0  0  0  0  0  0  0  0
    7.1962    3.2500    0.0000 C   0  0  0  0  0  0  0  0  0  0  0  0
    5.4641   -3.7500    0.0000 C   0  0  0  0  0  0  0  0  0  0  0  0
    8.9282    5.2500    0.0000 C   0  0  0  0  0  0  0  0  0  0  0  0
    5.4641    0.2500    0.0000 C   0  0  0  0  0  0  0  0  0  0  0  0
    6.3301    1.7500    0.0000 C   0  0  0  0  0  0  0  0  0  0  0  0
    5.4641   -0.7500    0.0000 C   0  0  0  0  0  0  0  0  0  0  0  0
    7.1962    2.2500    0.0000 C   0  0  0  0  0  0  0  0  0  0  0  0
    2.0000   -3.7500    0.0000 C   0  0  0  0  0  0  0  0  0  0  0  0
   11.5263    3.7500    0.0000 C   0  0  0  0  0  0  0  0  0  0  0  0
    5.4641   -5.7500    0.0000 C   0  0  0  0  0  0  0  0  0  0  0  0
   10.6603    6.2500    0.0000 C   0  0  0  0  0  0  0  0  0  0  0  0
    5.4641   -6.7500    0.0000 C   0  0  0  0  0  0  0  0  0  0  0  0
   11.5263    6.7500    0.0000 C   0  0  0  0  0  0  0  0  0  0  0  0
  1 13  1  0
  1 28  1  0
  2 14  1  0
  2 29  1  0
  3 15  1  0
  3 30  1  0
  4 16  1  0
  4 31  1  0
  5 24  2  0
  6 25  2  0
  7 30  2  0
  8 31  2  0
  9 11  2  0
  9 17  1  0
  9 20  1  0
 10 12  2  0
 10 18  1  0
 10 21  1  0
 11 13  1  0
 12 14  1  0
 13 15  2  0
 14 16  2  0
 15 22  1  0
 16 23  1  0
 17 22  2  0
 18 23  2  0
 19 24  1  0
 19 25  1  0
 20 26  2  0
 21 27  2  0
 24 26  1  0
 25 27  1  0
 30 32  1  0
 31 33  1  0
M  END
>  <PUBCHEM_COMPOUND_CID>  (1) 
6441419

>  <PUBCHEM_COMPOUND_CANONICALIZED>  (1) 
1

>  <PUBCHEM_CACTVS_COMPLEXITY>  (1) 
694

>  <PUBCHEM_CACTVS_HBOND_ACCEPTOR>  (1) 
8

>  <PUBCHEM_CACTVS_HBOND_DONOR>  (1) 
0

>  <PUBCHEM_CACTVS_ROTATABLE_BOND>  (1) 
12

>  <PUBCHEM_CACTVS_SUBSKEYS>  (1) 
AAADceB4PAAAAAAAAAAAAAAAAAAAAAAAAAAwYAAAAAAAAAABQAAAGgAAAAAADASAmAIyDoAABACIAqDSCAACCAAgIAAIiAEGiMgNJjKMMRqCOiKkwBEKqYeAwBAOIAABAAAAQABAAAIAAACAAAAAAAAAAA==

>  <PUBCHEM_IUPAC_OPENEYE_NAME>  (1) 
[4-[(1E,6E)-7-(4-acetoxy-3-methoxy-phenyl)-3,5-dioxo-hepta-1,6-dienyl]-2-methoxy-phenyl] acetate

>  <PUBCHEM_IUPAC_CAS_NAME>  (1) 
acetic acid [4-[(1E,6E)-7-(4-acetyloxy-3-methoxyphenyl)-3,5-dioxohepta-1,6-dienyl]-2-methoxyphenyl] ester

>  <PUBCHEM_IUPAC_NAME_MARKUP>  (1) 
[4-[(1<I>E</I>,6<I>E</I>)-7-(4-acetyloxy-3-methoxyphenyl)-3,5-dioxohepta-1,6-dienyl]-2-methoxyphenyl] acetate

>  <PUBCHEM_IUPAC_NAME>  (1) 
[4-[(1E,6E)-7-(4-acetyloxy-3-methoxyphenyl)-3,5-dioxohepta-1,6-dienyl]-2-methoxyphenyl] acetate

>  <PUBCHEM_IUPAC_SYSTEMATIC_NAME>  (1) 
[4-[(1E,6E)-7-(4-acetyloxy-3-methoxy-phenyl)-3,5-bis(oxidanylidene)hepta-1,6-dienyl]-2-methoxy-phenyl] ethanoate

>  <PUBCHEM_IUPAC_TRADITIONAL_NAME>  (1) 
acetic acid [4-[(1E,6E)-7-(4-acetoxy-3-methoxy-phenyl)-3,5-diketo-hepta-1,6-dienyl]-2-methoxy-phenyl] ester

>  <PUBCHEM_IUPAC_INCHI>  (1) 
InChI=1S/C25H24O8/c1-16(26)32-22-11-7-18(13-24(22)30-3)5-9-20(28)15-21(29)10-6-19-8-12-23(33-17(2)27)25(14-19)31-4/h5-14H,15H2,1-4H3/b9-5+,10-6+

>  <PUBCHEM_IUPAC_INCHIKEY>  (1) 
GQRYDKSIXWXTSH-NXZHAISVSA-N

>  <PUBCHEM_XLOGP3_AA>  (1) 
3.4

>  <PUBCHEM_EXACT_MASS>  (1) 
452.14711772

>  <PUBCHEM_MOLECULAR_FORMULA>  (1) 
C25H24O8

>  <PUBCHEM_MOLECULAR_WEIGHT>  (1) 
452.5

>  <PUBCHEM_OPENEYE_CAN_SMILES>  (1) 
CC(=O)OC1=C(C=C(C=C1)C=CC(=O)CC(=O)C=CC2=CC(=C(C=C2)OC(=O)C)OC)OC

>  <PUBCHEM_OPENEYE_ISO_SMILES>  (1) 
CC(=O)OC1=C(C=C(C=C1)/C=C/C(=O)CC(=O)/C=C/C2=CC(=C(C=C2)OC(=O)C)OC)OC

>  <PUBCHEM_CACTVS_TPSA>  (1) 
105

>  <PUBCHEM_MONOISOTOPIC_WEIGHT>  (1) 
452.14711772

>  <PUBCHEM_TOTAL_CHARGE>  (1) 
0

>  <PUBCHEM_HEAVY_ATOM_COUNT>  (1) 
33

>  <PUBCHEM_ATOM_DEF_STEREO_COUNT>  (1) 
0

>  <PUBCHEM_ATOM_UDEF_STEREO_COUNT>  (1) 
0

>  <PUBCHEM_BOND_DEF_STEREO_COUNT>  (1) 
2

>  <PUBCHEM_BOND_UDEF_STEREO_COUNT>  (1) 
0

>  <PUBCHEM_ISOTOPIC_ATOM_COUNT>  (1) 
0

>  <PUBCHEM_COMPONENT_COUNT>  (1) 
1

>  <PUBCHEM_CACTVS_TAUTO_COUNT>  (1) 
2

>  <PUBCHEM_COORDINATE_TYPE>  (1) 
1
5
255

>  <PUBCHEM_BONDANNOTATIONS>  (1) 
10  12  8
10  18  8
11  13  8
12  14  8
13  15  8
14  16  8
15  22  8
16  23  8
17  22  8
18  23  8
9  11  8
9  17  8

$$$$
