95168
     RDKit          2D

 30 33  0  0  0  0  0  0  0  0999 V2000
   10.4366    1.3006    0.0000 O   0  0  0  0  0  0  0  0  0  0  0  0
    6.9006    1.3284    0.0000 O   0  0  0  0  0  0  0  0  0  0  0  0
    8.6605   -1.7063    0.0000 O   0  0  0  0  0  0  0  0  0  0  0  0
    6.9121   -1.7409    0.0000 O   0  0  0  0  0  0  0  0  0  0  0  0
    2.5381   -2.2404    0.0000 O   0  0  0  0  0  0  0  0  0  0  0  0
   10.4446    2.3422    0.0000 C   0  0  0  0  0  0  0  0  0  0  0  0
    9.5266    0.7937    0.0000 C   0  0  0  0  0  0  0  0  0  0  0  0
    8.6605    1.2937    0.0000 C   0  0  0  0  0  0  0  0  0  0  0  0
    9.5266   -0.2063    0.0000 C   0  0  0  0  0  0  0  0  0  0  0  0
    7.7945    0.7937    0.0000 C   0  0  0  0  0  0  0  0  0  0  0  0
    9.5425    2.8630    0.0000 C   0  0  0  0  0  0  0  0  0  0  0  0
    7.7945   -0.2063    0.0000 C   0  0  0  0  0  0  0  0  0  0  0  0
    8.6445    2.3352    0.0000 C   0  0  0  0  0  0  0  0  0  0  0  0
    8.6605   -0.7063    0.0000 C   0  0  0  0  0  0  0  0  0  0  0  0
   10.9479    3.2063    0.0000 C   0  0  0  0  0  0  0  0  0  0  0  0
   11.4446    2.3383    0.0000 C   0  0  0  0  0  0  0  0  0  0  0  0
   10.3926   -0.7063    0.0000 C   0  0  0  0  0  0  0  0  0  0  0  0
    6.9006   -0.7409    0.0000 C   0  0  0  0  0  0  0  0  0  0  0  0
    5.9945   -0.2271    0.0000 C   0  0  0  0  0  0  0  0  0  0  0  0
   10.3926   -1.7063    0.0000 C   0  0  0  0  0  0  0  0  0  0  0  0
    5.9945    0.8145    0.0000 C   0  0  0  0  0  0  0  0  0  0  0  0
    5.1304   -0.7304    0.0000 C   0  0  0  0  0  0  0  0  0  0  0  0
   11.2586   -2.2063    0.0000 C   0  0  0  0  0  0  0  0  0  0  0  0
    4.2625   -0.2338    0.0000 C   0  0  0  0  0  0  0  0  0  0  0  0
    5.1343   -1.7304    0.0000 C   0  0  0  0  0  0  0  0  0  0  0  0
   11.2586   -3.2063    0.0000 C   0  0  0  0  0  0  0  0  0  0  0  0
   12.1246   -1.7063    0.0000 C   0  0  0  0  0  0  0  0  0  0  0  0
    3.3984   -0.7371    0.0000 C   0  0  0  0  0  0  0  0  0  0  0  0
    4.2702   -2.2338    0.0000 C   0  0  0  0  0  0  0  0  0  0  0  0
    3.4022   -1.7371    0.0000 C   0  0  0  0  0  0  0  0  0  0  0  0
  1  6  1  0
  1  7  1  0
  2 10  1  0
  2 21  1  0
  3 14  1  0
  4 18  2  0
  5 30  1  0
  6 11  1  0
  6 15  1  0
  6 16  1  0
  7  8  2  0
  7  9  1  0
  8 10  1  0
  8 13  1  0
  9 14  2  0
  9 17  1  0
 10 12  2  0
 11 13  2  0
 12 14  1  0
 12 18  1  0
 17 20  1  0
 18 19  1  0
 19 21  2  0
 19 22  1  0
 20 23  2  0
 22 24  2  0
 22 25  1  0
 23 26  1  0
 23 27  1  0
 24 28  1  0
 25 29  2  0
 28 30  2  0
 29 30  1  0
M  END
>  <PUBCHEM_COMPOUND_CID>  (1) 
95168

>  <PUBCHEM_COMPOUND_CANONICALIZED>  (1) 
1

>  <PUBCHEM_CACTVS_COMPLEXITY>  (1) 
752

>  <PUBCHEM_CACTVS_HBOND_ACCEPTOR>  (1) 
5

>  <PUBCHEM_CACTVS_HBOND_DONOR>  (1) 
2

>  <PUBCHEM_CACTVS_ROTATABLE_BOND>  (1) 
3

>  <PUBCHEM_CACTVS_SUBSKEYS>  (1) 
AAADceB4OAAAAAAAAAAAAAAAAAAAAAAAAAAwYIEAAAAAAACBQAAAGgAACAAADESgmAIyBoAABgCIAqBSAAACCAAkIAAIiAEGCMgMJzaGNRqCeWCl4BUIuYeI7PzOIAACCAAIAABAAAQQABAAAAAAAAAAAA==

>  <PUBCHEM_IUPAC_OPENEYE_NAME>  (1) 
5-hydroxy-3-(4-hydroxyphenyl)-8,8-dimethyl-6-(3-methylbut-2-enyl)pyrano[2,3-h]chromen-4-one

>  <PUBCHEM_IUPAC_CAS_NAME>  (1) 
5-hydroxy-3-(4-hydroxyphenyl)-8,8-dimethyl-6-(3-methylbut-2-enyl)-4-pyrano[2,3-h][1]benzopyranone

>  <PUBCHEM_IUPAC_NAME_MARKUP>  (1) 
5-hydroxy-3-(4-hydroxyphenyl)-8,8-dimethyl-6-(3-methylbut-2-enyl)pyrano[2,3-h]chromen-4-one

>  <PUBCHEM_IUPAC_NAME>  (1) 
5-hydroxy-3-(4-hydroxyphenyl)-8,8-dimethyl-6-(3-methylbut-2-enyl)pyrano[2,3-h]chromen-4-one

>  <PUBCHEM_IUPAC_SYSTEMATIC_NAME>  (1) 
3-(4-hydroxyphenyl)-8,8-dimethyl-6-(3-methylbut-2-enyl)-5-oxidanyl-pyrano[2,3-h]chromen-4-one

>  <PUBCHEM_IUPAC_TRADITIONAL_NAME>  (1) 
5-hydroxy-3-(4-hydroxyphenyl)-8,8-dimethyl-6-(3-methylbut-2-enyl)pyrano[2,3-h]chromen-4-one

>  <PUBCHEM_IUPAC_INCHI>  (1) 
InChI=1S/C25H24O5/c1-14(2)5-10-17-21(27)20-22(28)19(15-6-8-16(26)9-7-15)13-29-24(20)18-11-12-25(3,4)30-23(17)18/h5-9,11-13,26-27H,10H2,1-4H3

>  <PUBCHEM_IUPAC_INCHIKEY>  (1) 
DCTLJGWMHPGCOS-UHFFFAOYSA-N

>  <PUBCHEM_XLOGP3_AA>  (1) 
5.9

>  <PUBCHEM_EXACT_MASS>  (1) 
404.16237386

>  <PUBCHEM_MOLECULAR_FORMULA>  (1) 
C25H24O5

>  <PUBCHEM_MOLECULAR_WEIGHT>  (1) 
404.5

>  <PUBCHEM_OPENEYE_CAN_SMILES>  (1) 
CC(=CCC1=C2C(=C3C(=C1O)C(=O)C(=CO3)C4=CC=C(C=C4)O)C=CC(O2)(C)C)C

>  <PUBCHEM_OPENEYE_ISO_SMILES>  (1) 
CC(=CCC1=C2C(=C3C(=C1O)C(=O)C(=CO3)C4=CC=C(C=C4)O)C=CC(O2)(C)C)C

>  <PUBCHEM_CACTVS_TPSA>  (1) 
76

>  <PUBCHEM_MONOISOTOPIC_WEIGHT>  (1) 
404.16237386

>  <PUBCHEM_TOTAL_CHARGE>  (1) 
0

>  <PUBCHEM_HEAVY_ATOM_COUNT>  (1) 
30

>  <PUBCHEM_ATOM_DEF_STEREO_COUNT>  (1) 
0

>  <PUBCHEM_ATOM_UDEF_STEREO_COUNT>  (1) 
0

>  <PUBCHEM_BOND_DEF_STEREO_COUNT>  (1) 
0

>  <PUBCHEM_BOND_UDEF_STEREO_COUNT>  (1) 
0

>  <PUBCHEM_ISOTOPIC_ATOM_COUNT>  (1) 
0

>  <PUBCHEM_COMPONENT_COUNT>  (1) 
1

>  <PUBCHEM_CACTVS_TAUTO_COUNT>  (1) 
-1

>  <PUBCHEM_COORDINATE_TYPE>  (1) 
1
5
255

>  <PUBCHEM_BONDANNOTATIONS>  (1) 
10  12  8
12  14  8
12  18  8
18  19  8
19  21  8
2  10  8
2  21  8
22  24  8
22  25  8
24  28  8
25  29  8
28  30  8
29  30  8
7  8  8
7  9  8
8  10  8
9  14  8

$$$$
