101712
     RDKit          2D

 38 42  0  0  1  0  0  0  0  0999 V2000
    6.0580    0.9315    0.0000 O   0  0  0  0  0  0  0  0  0  0  0  0
    8.9765    1.8798    0.0000 O   0  0  0  0  0  0  0  0  0  0  0  0
    6.8671   -3.6563    0.0000 O   0  0  0  0  0  0  0  0  0  0  0  0
    5.1350   -3.6563    0.0000 O   0  0  0  0  0  0  0  0  0  0  0  0
    5.1350   -2.6563    0.0000 O   0  0  0  0  0  0  0  0  0  0  0  0
    9.9100    5.4618    0.0000 O   0  0  0  0  0  0  0  0  0  0  0  0
    6.8671   -5.6563    0.0000 O   0  0  0  0  0  0  0  0  0  0  0  0
    5.1350   -6.6563    0.0000 O   0  0  0  0  0  0  0  0  0  0  0  0
    3.4030   -5.6563    0.0000 O   0  0  0  0  0  0  0  0  0  0  0  0
    8.1797    6.4648    0.0000 O   0  0  0  0  0  0  0  0  0  0  0  0
    2.5369   -4.1563    0.0000 O   0  0  0  0  0  0  0  0  0  0  0  0
    7.6761    0.9315    0.0000 C   0  0  0  0  0  0  0  0  0  0  0  0
    7.3671    1.8826    0.0000 C   0  0  0  0  0  0  0  0  0  0  0  0
    6.8671    0.3437    0.0000 C   0  0  0  0  0  0  0  0  0  0  0  0
    8.1728    2.4648    0.0000 C   0  0  0  0  0  0  0  0  0  0  0  0
    6.3671    1.8826    0.0000 C   0  0  0  0  0  0  0  0  0  0  0  0
    8.6702    0.9341    0.0000 C   0  0  0  0  0  0  0  0  0  0  0  0
    6.8671   -0.6563    0.0000 C   0  0  0  0  0  0  0  0  0  0  0  0
    8.1745    3.4648    0.0000 C   0  0  0  0  0  0  0  0  0  0  0  0
    6.0010   -1.1563    0.0000 C   0  0  0  0  0  0  0  0  0  0  0  0
    7.7331   -1.1563    0.0000 C   0  0  0  0  0  0  0  0  0  0  0  0
    9.0414    3.9633    0.0000 C   0  0  0  0  0  0  0  0  0  0  0  0
    7.3094    3.9663    0.0000 C   0  0  0  0  0  0  0  0  0  0  0  0
    6.0010   -2.1563    0.0000 C   0  0  0  0  0  0  0  0  0  0  0  0
    7.7331   -2.1563    0.0000 C   0  0  0  0  0  0  0  0  0  0  0  0
    6.8671   -2.6563    0.0000 C   0  0  0  0  0  0  0  0  0  0  0  0
    6.0010   -4.1563    0.0000 C   0  0  0  0  0  0  0  0  0  0  0  0
    6.0010   -5.1563    0.0000 C   0  0  0  0  0  0  0  0  0  0  0  0
    5.1350   -5.6563    0.0000 C   0  0  0  0  0  0  0  0  0  0  0  0
    4.2690   -5.1563    0.0000 C   0  0  0  0  0  0  0  0  0  0  0  0
    9.0432    4.9633    0.0000 C   0  0  0  0  0  0  0  0  0  0  0  0
    4.2690   -4.1563    0.0000 C   0  0  0  0  0  0  0  0  0  0  0  0
    7.3111    4.9663    0.0000 C   0  0  0  0  0  0  0  0  0  0  0  0
    8.1780    5.4648    0.0000 C   0  0  0  0  0  0  0  0  0  0  0  0
    3.4030   -3.6563    0.0000 C   0  0  0  0  0  0  0  0  0  0  0  0
    4.2690   -2.1563    0.0000 C   0  0  0  0  0  0  0  0  0  0  0  0
   10.7752    4.9603    0.0000 C   0  0  0  0  0  0  0  0  0  0  0  0
    7.3146    6.9663    0.0000 C   0  0  0  0  0  0  0  0  0  0  0  0
  1 14  1  0
  1 16  1  0
  2 15  1  0
  2 17  1  0
  3 26  1  0
 27  3  1  1
  4 27  1  0
  4 32  1  0
  5 24  1  0
  5 36  1  0
  6 31  1  0
  6 37  1  0
 28  7  1  6
 29  8  1  1
 30  9  1  6
 10 34  1  0
 10 38  1  0
 11 35  1  0
 12 13  1  0
 12 14  1  0
 12 17  1  6
 13 15  1  0
 13 16  1  6
 14 18  1  1
 15 19  1  6
 18 20  2  0
 18 21  1  0
 19 22  2  0
 19 23  1  0
 20 24  1  0
 21 25  2  0
 22 31  1  0
 23 33  2  0
 24 26  2  0
 25 26  1  0
 27 28  1  0
 28 29  1  0
 29 30  1  0
 30 32  1  0
 31 34  2  0
 32 35  1  1
 33 34  1  0
M  END
>  <PUBCHEM_COMPOUND_CID>  (1) 
101712

>  <PUBCHEM_COMPOUND_CANONICALIZED>  (1) 
1

>  <PUBCHEM_CACTVS_COMPLEXITY>  (1) 
757

>  <PUBCHEM_CACTVS_HBOND_ACCEPTOR>  (1) 
11

>  <PUBCHEM_CACTVS_HBOND_DONOR>  (1) 
4

>  <PUBCHEM_CACTVS_ROTATABLE_BOND>  (1) 
8

>  <PUBCHEM_CACTVS_SUBSKEYS>  (1) 
AAADcfB4PAAAAAAAAAAAAAAAAAAAASJAAAA0YIAAAAASAAABQAAAGgAACAAADRSwmAMyDoAABgCAAiBCAAACCAAgIAAIiAAGiIgdNiKEMRqieCKlwBEPqAfA4PwOoAABAAAAQABAAAIAAACAAAAAAAAAAA==

>  <PUBCHEM_IUPAC_OPENEYE_NAME>  (1) 
(2S,3R,4S,5S,6R)-2-[4-[(3R,3aR,6S,6aR)-3-(3,4-dimethoxyphenyl)-1,3,3a,4,6,6a-hexahydrofuro[3,4-c]furan-6-yl]-2-methoxy-phenoxy]-6-(hydroxymethyl)tetrahydropyran-3,4,5-triol

>  <PUBCHEM_IUPAC_CAS_NAME>  (1) 
(2S,3R,4S,5S,6R)-2-[4-[(3R,3aR,6S,6aR)-3-(3,4-dimethoxyphenyl)-1,3,3a,4,6,6a-hexahydrofuro[3,4-c]furan-6-yl]-2-methoxyphenoxy]-6-(hydroxymethyl)oxane-3,4,5-triol

>  <PUBCHEM_IUPAC_NAME_MARKUP>  (1) 
(2<I>S</I>,3<I>R</I>,4<I>S</I>,5<I>S</I>,6<I>R</I>)-2-[4-[(3<I>R</I>,3<I>a</I><I>R</I>,6<I>S</I>,6<I>a</I><I>R</I>)-3-(3,4-dimethoxyphenyl)-1,3,3<I>a</I>,4,6,6<I>a</I>-hexahydrofuro[3,4-c]furan-6-yl]-2-methoxyphenoxy]-6-(hydroxymethyl)oxane-3,4,5-triol

>  <PUBCHEM_IUPAC_NAME>  (1) 
(2S,3R,4S,5S,6R)-2-[4-[(3R,3aR,6S,6aR)-3-(3,4-dimethoxyphenyl)-1,3,3a,4,6,6a-hexahydrofuro[3,4-c]furan-6-yl]-2-methoxyphenoxy]-6-(hydroxymethyl)oxane-3,4,5-triol

>  <PUBCHEM_IUPAC_SYSTEMATIC_NAME>  (1) 
(2S,3R,4S,5S,6R)-2-[4-[(3R,3aR,6S,6aR)-3-(3,4-dimethoxyphenyl)-1,3,3a,4,6,6a-hexahydrofuro[3,4-c]furan-6-yl]-2-methoxy-phenoxy]-6-(hydroxymethyl)oxane-3,4,5-triol

>  <PUBCHEM_IUPAC_TRADITIONAL_NAME>  (1) 
(2S,3R,4S,5S,6R)-2-[4-[(3R,3aR,6S,6aR)-3-(3,4-dimethoxyphenyl)-1,3,3a,4,6,6a-hexahydrofuro[3,4-c]furan-6-yl]-2-methoxy-phenoxy]-6-methylol-tetrahydropyran-3,4,5-triol

>  <PUBCHEM_IUPAC_INCHI>  (1) 
InChI=1S/C27H34O11/c1-32-17-6-4-13(8-19(17)33-2)25-15-11-36-26(16(15)12-35-25)14-5-7-18(20(9-14)34-3)37-27-24(31)23(30)22(29)21(10-28)38-27/h4-9,15-16,21-31H,10-12H2,1-3H3/t15-,16-,21+,22+,23-,24+,25-,26+,27+/m0/s1

>  <PUBCHEM_IUPAC_INCHIKEY>  (1) 
KFFCKOBAHMGTMW-LGQRSHAYSA-N

>  <PUBCHEM_XLOGP3>  (1) 
0

>  <PUBCHEM_EXACT_MASS>  (1) 
534.21011190

>  <PUBCHEM_MOLECULAR_FORMULA>  (1) 
C27H34O11

>  <PUBCHEM_MOLECULAR_WEIGHT>  (1) 
534.6

>  <PUBCHEM_OPENEYE_CAN_SMILES>  (1) 
COC1=C(C=C(C=C1)C2C3COC(C3CO2)C4=CC(=C(C=C4)OC5C(C(C(C(O5)CO)O)O)O)OC)OC

>  <PUBCHEM_OPENEYE_ISO_SMILES>  (1) 
COC1=C(C=C(C=C1)[C@H]2[C@H]3CO[C@@H]([C@H]3CO2)C4=CC(=C(C=C4)O[C@H]5[C@@H]([C@H]([C@@H]([C@H](O5)CO)O)O)O)OC)OC

>  <PUBCHEM_CACTVS_TPSA>  (1) 
146

>  <PUBCHEM_MONOISOTOPIC_WEIGHT>  (1) 
534.21011190

>  <PUBCHEM_TOTAL_CHARGE>  (1) 
0

>  <PUBCHEM_HEAVY_ATOM_COUNT>  (1) 
38

>  <PUBCHEM_ATOM_DEF_STEREO_COUNT>  (1) 
9

>  <PUBCHEM_ATOM_UDEF_STEREO_COUNT>  (1) 
0

>  <PUBCHEM_BOND_DEF_STEREO_COUNT>  (1) 
0

>  <PUBCHEM_BOND_UDEF_STEREO_COUNT>  (1) 
0

>  <PUBCHEM_ISOTOPIC_ATOM_COUNT>  (1) 
0

>  <PUBCHEM_COMPONENT_COUNT>  (1) 
1

>  <PUBCHEM_CACTVS_TAUTO_COUNT>  (1) 
-1

>  <PUBCHEM_COORDINATE_TYPE>  (1) 
1
5
255

>  <PUBCHEM_BONDANNOTATIONS>  (1) 
12  39  5
13  40  5
14  18  5
15  19  6
18  20  8
18  21  8
19  22  8
19  23  8
20  24  8
21  25  8
22  31  8
23  33  8
24  26  8
25  26  8
27  3  5
31  34  8
32  35  5
33  34  8
28  7  6
29  8  5
30  9  6

$$$$
