2543
     RDKit          2D

 23 25  0  0  0  0  0  0  0  0999 V2000
    8.9942   -2.1016    0.0000 O   0  0  0  0  0  0  0  0  0  0  0  0
    7.2458    0.9330    0.0000 O   0  0  0  0  0  0  0  0  0  0  0  0
    9.8602   -1.6016    0.0000 C   0  0  0  0  0  0  0  0  0  0  0  0
    9.8602   -0.6016    0.0000 C   0  0  0  0  0  0  0  0  0  0  0  0
    8.9942   -0.1016    0.0000 C   0  0  0  0  0  0  0  0  0  0  0  0
    8.1282   -0.6016    0.0000 C   0  0  0  0  0  0  0  0  0  0  0  0
    8.1282   -1.6016    0.0000 C   0  0  0  0  0  0  0  0  0  0  0  0
   10.3602   -2.4676    0.0000 C   0  0  0  0  0  0  0  0  0  0  0  0
   10.8602   -1.6016    0.0000 C   0  0  0  0  0  0  0  0  0  0  0  0
    6.3282   -1.6224    0.0000 C   0  0  0  0  0  0  0  0  0  0  0  0
    5.4641   -2.1258    0.0000 C   0  0  0  0  0  0  0  0  0  0  0  0
    7.2342   -2.1363    0.0000 C   0  0  0  0  0  0  0  0  0  0  0  0
   10.7702   -0.0948    0.0000 C   0  0  0  0  0  0  0  0  0  0  0  0
    7.2342   -0.0670    0.0000 C   0  0  0  0  0  0  0  0  0  0  0  0
    8.9781    0.9399    0.0000 C   0  0  0  0  0  0  0  0  0  0  0  0
    4.5961   -1.6291    0.0000 C   0  0  0  0  0  0  0  0  0  0  0  0
    6.3282   -0.5808    0.0000 C   0  0  0  0  0  0  0  0  0  0  0  0
    9.8762    1.4676    0.0000 C   0  0  0  0  0  0  0  0  0  0  0  0
    3.7320   -2.1324    0.0000 C   0  0  0  0  0  0  0  0  0  0  0  0
   10.7783    0.9468    0.0000 C   0  0  0  0  0  0  0  0  0  0  0  0
    2.8641   -1.6358    0.0000 C   0  0  0  0  0  0  0  0  0  0  0  0
    9.8723    2.4676    0.0000 C   0  0  0  0  0  0  0  0  0  0  0  0
    2.0000   -2.1391    0.0000 C   0  0  0  0  0  0  0  0  0  0  0  0
  1  3  1  0
  1  7  1  0
  2 14  1  0
  3  4  1  0
  3  8  1  0
  3  9  1  0
  4  5  2  0
  4 13  1  0
  5  6  1  0
  5 15  1  0
  6  7  2  0
  6 14  1  0
  7 12  1  0
 10 11  1  0
 10 12  2  0
 10 17  1  0
 11 16  1  0
 13 20  2  0
 14 17  2  0
 15 18  2  0
 16 19  1  0
 18 20  1  0
 18 22  1  0
 19 21  1  0
 21 23  1  0
M  END
>  <PUBCHEM_COMPOUND_CID>  (1) 
2543

>  <PUBCHEM_COMPOUND_CANONICALIZED>  (1) 
1

>  <PUBCHEM_CACTVS_COMPLEXITY>  (1) 
391

>  <PUBCHEM_CACTVS_HBOND_ACCEPTOR>  (1) 
2

>  <PUBCHEM_CACTVS_HBOND_DONOR>  (1) 
1

>  <PUBCHEM_CACTVS_ROTATABLE_BOND>  (1) 
4

>  <PUBCHEM_CACTVS_SUBSKEYS>  (1) 
AAADceB4MAAAAAAAAAAAAAAAAAAAAAAAAAA0YIAAAAAAAACRQAAAGgAACAAADESAmAAyBoAABgCAAiBCAAACCAAgIAAIiAAGCIgMJyKGMRqCeCClwBUIuAeA4PwOwAADCAAYAACAAAYQADAAAAAAAAAAAA==

>  <PUBCHEM_IUPAC_OPENEYE_NAME>  (1) 
6,6,9-trimethyl-3-pentyl-benzo[c]chromen-1-ol

>  <PUBCHEM_IUPAC_CAS_NAME>  (1) 
6,6,9-trimethyl-3-pentyl-1-benzo[c][1]benzopyranol

>  <PUBCHEM_IUPAC_NAME_MARKUP>  (1) 
6,6,9-trimethyl-3-pentylbenzo[c]chromen-1-ol

>  <PUBCHEM_IUPAC_NAME>  (1) 
6,6,9-trimethyl-3-pentylbenzo[c]chromen-1-ol

>  <PUBCHEM_IUPAC_SYSTEMATIC_NAME>  (1) 
6,6,9-trimethyl-3-pentyl-benzo[c]chromen-1-ol

>  <PUBCHEM_IUPAC_TRADITIONAL_NAME>  (1) 
cannabinol

>  <PUBCHEM_IUPAC_INCHI>  (1) 
InChI=1S/C21H26O2/c1-5-6-7-8-15-12-18(22)20-16-11-14(2)9-10-17(16)21(3,4)23-19(20)13-15/h9-13,22H,5-8H2,1-4H3

>  <PUBCHEM_IUPAC_INCHIKEY>  (1) 
VBGLYOIFKLUMQG-UHFFFAOYSA-N

>  <PUBCHEM_XLOGP3_AA>  (1) 
6.1

>  <PUBCHEM_EXACT_MASS>  (1) 
310.193280068

>  <PUBCHEM_MOLECULAR_FORMULA>  (1) 
C21H26O2

>  <PUBCHEM_MOLECULAR_WEIGHT>  (1) 
310.4

>  <PUBCHEM_OPENEYE_CAN_SMILES>  (1) 
CCCCCC1=CC(=C2C(=C1)OC(C3=C2C=C(C=C3)C)(C)C)O

>  <PUBCHEM_OPENEYE_ISO_SMILES>  (1) 
CCCCCC1=CC(=C2C(=C1)OC(C3=C2C=C(C=C3)C)(C)C)O

>  <PUBCHEM_CACTVS_TPSA>  (1) 
29.5

>  <PUBCHEM_MONOISOTOPIC_WEIGHT>  (1) 
310.193280068

>  <PUBCHEM_TOTAL_CHARGE>  (1) 
0

>  <PUBCHEM_HEAVY_ATOM_COUNT>  (1) 
23

>  <PUBCHEM_ATOM_DEF_STEREO_COUNT>  (1) 
0

>  <PUBCHEM_ATOM_UDEF_STEREO_COUNT>  (1) 
0

>  <PUBCHEM_BOND_DEF_STEREO_COUNT>  (1) 
0

>  <PUBCHEM_BOND_UDEF_STEREO_COUNT>  (1) 
0

>  <PUBCHEM_ISOTOPIC_ATOM_COUNT>  (1) 
0

>  <PUBCHEM_COMPONENT_COUNT>  (1) 
1

>  <PUBCHEM_CACTVS_TAUTO_COUNT>  (1) 
-1

>  <PUBCHEM_COORDINATE_TYPE>  (1) 
1
5
255

>  <PUBCHEM_BONDANNOTATIONS>  (1) 
10  12  8
10  17  8
13  20  8
14  17  8
15  18  8
18  20  8
4  13  8
4  5  8
5  15  8
6  14  8
6  7  8
7  12  8

$$$$
