JBB44_0001.mol
  ChemDraw04092412592D

 53 57  0  0  1  0  0  0  0  0999 V2000
   -5.3033    0.7225    0.0000 C   0  0  0  0  0  0  0  0  0  0  0  0
   -5.3033   -0.1025    0.0000 C   0  0  0  0  0  0  0  0  0  0  0  0
   -4.5888   -0.5150    0.0000 C   0  0  0  0  0  0  0  0  0  0  0  0
   -3.8743   -0.1025    0.0000 C   0  0  0  0  0  0  0  0  0  0  0  0
   -3.8743    0.7225    0.0000 C   0  0  0  0  0  0  0  0  0  0  0  0
   -4.5888    1.1350    0.0000 C   0  0  0  0  0  0  0  0  0  0  0  0
   -4.0054    1.7184    0.0000 C   0  0  0  0  0  0  0  0  0  0  0  0
   -5.0910    1.7895    0.0000 C   0  0  0  0  0  0  0  0  0  0  0  0
   -3.1599    1.1350    0.0000 O   0  0  0  0  0  0  0  0  0  0  0  0
   -6.0177    1.1350    0.0000 O   0  0  0  0  0  0  0  0  0  0  0  0
   -4.5888   -1.3400    0.0000 O   0  0  0  0  0  0  0  0  0  0  0  0
   -6.0177   -0.5150    0.0000 C   0  0  0  0  0  0  0  0  0  0  0  0
   -6.7322   -0.1025    0.0000 O   0  0  0  0  0  0  0  0  0  0  0  0
   -6.0177   -1.3400    0.0000 C   0  0  0  0  0  0  0  0  0  0  0  0
   -2.5005   -0.7179    0.0000 C   0  0  0  0  0  0  0  0  0  0  0  0
   -1.0759   -0.1152    0.0000 C   0  0  0  0  0  0  0  0  0  0  0  0
   -0.3615   -0.5276    0.0000 C   0  0  0  0  0  0  0  0  0  0  0  0
    0.3530   -0.1152    0.0000 C   0  0  0  0  0  0  0  0  0  0  0  0
    0.3530    0.7098    0.0000 C   0  0  0  0  0  0  0  0  0  0  0  0
   -0.3615    1.1223    0.0000 C   0  0  0  0  0  0  0  0  0  0  0  0
   -1.0759    0.7098    0.0000 C   0  0  0  0  0  0  0  0  0  0  0  0
    1.0675   -0.5277    0.0000 C   0  0  0  0  0  0  0  0  0  0  0  0
    1.7820   -0.1152    0.0000 C   0  0  0  0  0  0  0  0  0  0  0  0
    1.7820    0.7098    0.0000 C   0  0  0  0  0  0  0  0  0  0  0  0
    1.0675    1.1223    0.0000 C   0  0  0  0  0  0  0  0  0  0  0  0
    2.4964    1.1223    0.0000 C   0  0  0  0  0  0  0  0  0  0  0  0
    3.2109    0.7098    0.0000 C   0  0  0  0  0  0  0  0  0  0  0  0
    2.4964    1.9473    0.0000 C   0  0  0  0  0  0  0  0  0  0  0  0
    3.9254    1.1223    0.0000 C   0  0  0  0  0  0  0  0  0  0  0  0
    4.6398    0.7098    0.0000 C   0  0  0  0  0  0  0  0  0  0  0  0
    4.6398   -0.1152    0.0000 C   0  0  0  0  0  0  0  0  0  0  0  0
    5.3543   -0.5277    0.0000 C   0  0  0  0  0  0  0  0  0  0  0  0
    6.0688   -0.1152    0.0000 C   0  0  0  0  0  0  0  0  0  0  0  0
    6.0688    0.7098    0.0000 C   0  0  0  0  0  0  0  0  0  0  0  0
    5.3543    1.1223    0.0000 C   0  0  0  0  0  0  0  0  0  0  0  0
    3.9254   -0.5277    0.0000 C   0  0  0  0  0  0  0  0  0  0  0  0
    3.9254   -1.3527    0.0000 C   0  0  0  0  0  0  0  0  0  0  0  0
    4.6398   -1.7652    0.0000 C   0  0  0  0  0  0  0  0  0  0  0  0
    5.3543   -1.3527    0.0000 C   0  0  0  0  0  0  0  0  0  0  0  0
    3.8429    0.0984    0.0000 C   0  0  0  0  0  0  0  0  0  0  0  0
    6.0688   -0.9402    0.0000 H   0  0  0  0  0  0  0  0  0  0  0  0
    5.4620   -2.1706    0.0000 C   0  0  0  0  0  0  0  0  0  0  0  0
    5.3543    1.9473    0.0000 C   0  0  0  0  0  0  0  0  0  0  0  0
   -0.3615    1.9473    0.0000 C   0  0  0  0  0  0  0  0  0  0  0  0
   -1.0759    2.3598    0.0000 O   0  0  0  0  0  0  0  0  0  0  0  0
    0.3530    2.3598    0.0000 C   0  0  0  0  0  0  0  0  0  0  0  0
    1.0675    1.9473    0.0000 C   0  0  0  0  0  0  0  0  0  0  0  0
    1.7820    2.3598    0.0000 C   0  0  0  0  0  0  0  0  0  0  0  0
   -1.7904    1.1223    0.0000 O   0  0  0  0  0  0  0  0  0  0  0  0
   -0.3615   -1.3526    0.0000 O   0  0  0  0  0  0  0  0  0  0  0  0
    6.1512   -1.5662    0.0000 C   0  0  0  0  0  0  0  0  0  0  0  0
    6.7322   -0.9852    0.0000 O   0  0  0  0  0  0  0  0  0  0  0  0
    6.3639   -2.3598    0.0000 O   0  0  0  0  0  0  0  0  0  0  0  0
 51 52  2  0      
 51 53  1  0      
 39 51  1  1      
  1  2  2  0      
  2  3  1  0      
  3  4  1  0      
  4  5  2  0      
  5  6  1  0      
  6  1  1  0      
  6  7  1  0      
  6  8  1  0      
  5  9  1  0      
  1 10  1  0      
  3 11  2  0      
  2 12  1  0      
 12 13  2  0      
 12 14  1  0      
  4 15  1  0      
 15 16  1  0      
 16 17  2  0      
 17 18  1  0      
 18 19  2  0      
 19 20  1  0      
 20 21  2  0      
 21 16  1  0      
 18 22  1  0      
 22 23  1  0      
 23 24  1  0      
 24 25  1  0      
 25 19  1  0      
 24 26  1  6      
 26 27  2  0      
 26 28  1  0      
 27 29  1  0      
 30 29  1  6      
 30 31  1  0      
 31 32  1  0      
 32 33  1  0      
 33 34  1  0      
 34 35  1  0      
 35 30  1  0      
 31 36  1  0      
 36 37  1  0      
 37 38  1  0      
 38 39  1  0      
 39 32  1  0      
 31 40  1  6      
 32 41  1  1      
 39 42  1  0      
 35 43  2  0      
 20 44  1  0      
 44 45  2  0      
 44 46  1  0      
 46 47  1  0      
 47 48  1  0      
 21 49  1  0      
 17 50  1  0      
M  STY  1   1 SUP
M  SLB  1   1   1
M  SAL   1  3  51  52  53
M  SBL   1  1   3
M  SMT   1 COOH
M  SBV   1   3   -0.7969    0.2135
M  END
