JBB43_0002.mol
  ChemDraw04112415442D

 29 32  0  0  1  0  0  0  0  0999 V2000
   -3.1739    0.0000    0.0000 C   0  0  0  0  0  0  0  0  0  0  0  0
   -3.1739   -0.8250    0.0000 C   0  0  0  0  0  0  0  0  0  0  0  0
   -2.4594   -1.2375    0.0000 O   0  0  0  0  0  0  0  0  0  0  0  0
   -1.7450   -0.8250    0.0000 C   0  0  0  0  0  0  0  0  0  0  0  0
   -1.7450    0.0000    0.0000 C   0  0  0  0  0  0  0  0  0  0  0  0
   -2.4594    0.4125    0.0000 C   0  0  0  0  0  0  0  0  0  0  0  0
   -2.4594    1.2375    0.0000 C   0  0  0  0  0  0  0  0  0  0  0  0
   -3.1739    1.6500    0.0000 C   0  0  0  0  0  0  0  0  0  0  0  0
   -3.8884    1.2375    0.0000 C   0  0  0  0  0  0  0  0  0  0  0  0
   -3.8884    0.4125    0.0000 C   0  0  0  0  0  0  0  0  0  0  0  0
   -3.1739    2.4750    0.0000 C   0  0  0  0  0  0  0  0  0  0  0  0
   -1.7450    0.8250    0.0000 H   0  0  0  0  0  0  0  0  0  0  0  0
   -3.8884   -0.4125    0.0000 H   0  0  0  0  0  0  0  0  0  0  0  0
   -3.5864   -1.5395    0.0000 C   0  0  0  0  0  0  0  0  0  0  0  0
   -3.9708   -1.0385    0.0000 C   0  0  0  0  0  0  0  0  0  0  0  0
   -1.0305   -1.2375    0.0000 C   0  0  0  0  0  0  0  0  0  0  0  0
   -0.3160   -0.8250    0.0000 C   0  0  0  0  0  0  0  0  0  0  0  0
   -0.3160    0.0000    0.0000 C   0  0  0  0  0  0  0  0  0  0  0  0
   -1.0305    0.4125    0.0000 C   0  0  0  0  0  0  0  0  0  0  0  0
   -1.0305    1.2375    0.0000 O   0  0  0  0  0  0  0  0  0  0  0  0
    0.3984   -1.2375    0.0000 C   0  0  0  0  0  0  0  0  0  0  0  0
    1.1129   -0.8250    0.0000 C   0  0  0  0  0  0  0  0  0  0  0  0
    1.8274   -1.2375    0.0000 C   0  0  0  0  0  0  0  0  0  0  0  0
    1.8274   -2.0625    0.0000 C   0  0  0  0  0  0  0  0  0  0  0  0
    2.5419   -2.4750    0.0000 C   0  0  0  0  0  0  0  0  0  0  0  0
    3.2563   -2.0625    0.0000 C   0  0  0  0  0  0  0  0  0  0  0  0
    3.2563   -1.2375    0.0000 C   0  0  0  0  0  0  0  0  0  0  0  0
    2.5419   -0.8250    0.0000 C   0  0  0  0  0  0  0  0  0  0  0  0
    3.9708   -2.4750    0.0000 O   0  0  0  0  0  0  0  0  0  0  0  0
  1  2  1  0      
  2  3  1  0      
  3  4  1  0      
  4  5  1  0      
  5  6  1  0      
  6  1  1  0      
  6  7  1  0      
  7  8  1  0      
  8  9  2  0      
  9 10  1  0      
 10  1  1  0      
  8 11  1  0      
  6 12  1  6      
  1 13  1  1      
  2 14  1  0      
  2 15  1  0      
  4 16  2  0      
 16 17  1  0      
 17 18  2  0      
 18 19  1  0      
 19  5  2  0      
 19 20  1  0      
 17 21  1  0      
 21 22  2  0      
 22 23  1  0      
 23 24  2  0      
 24 25  1  0      
 25 26  2  0      
 26 27  1  0      
 27 28  2  0      
 28 23  1  0      
 26 29  1  0      
M  END
