275182
     RDKit          2D

 45 51  0  0  1  0  0  0  0  0999 V2000
    7.2066    1.1579    0.0000 O   0  0  0  0  0  0  0  0  0  0  0  0
    7.7556    3.6124    0.0000 O   0  0  0  0  0  0  0  0  0  0  0  0
    6.6743    3.6035    0.0000 O   0  0  0  0  0  0  0  0  0  0  0  0
    8.9657    4.1739    0.0000 O   0  0  0  0  0  0  0  0  0  0  0  0
    5.9340   -3.0475    0.0000 O   0  0  0  0  0  0  0  0  0  0  0  0
    7.5064   -4.2892    0.0000 O   0  0  0  0  0  0  0  0  0  0  0  0
    9.8338   -0.3345    0.0000 N   0  0  0  0  0  0  0  0  0  0  0  0
    2.8660    1.6592    0.0000 N   0  0  0  0  0  0  0  0  0  0  0  0
    8.9657    0.1667    0.0000 C   0  0  0  0  0  0  0  0  0  0  0  0
    3.7341    1.1579    0.0000 C   0  0  0  0  0  0  0  0  0  0  0  0
    8.9657    1.1691    0.0000 C   0  0  0  0  0  0  0  0  0  0  0  0
   10.7020    0.1667    0.0000 C   0  0  0  0  0  0  0  0  0  0  0  0
    9.8338    1.6703    0.0000 C   0  0  0  0  0  0  0  0  0  0  0  0
    4.6022    1.6592    0.0000 C   0  0  0  0  0  0  0  0  0  0  0  0
   10.7020    1.1691    0.0000 C   0  0  0  0  0  0  0  0  0  0  0  0
    8.0976   -0.3345    0.0000 C   0  0  0  0  0  0  0  0  0  0  0  0
    2.8660    2.6616    0.0000 C   0  0  0  0  0  0  0  0  0  0  0  0
    4.6022    2.6616    0.0000 C   0  0  0  0  0  0  0  0  0  0  0  0
    3.7341    3.1628    0.0000 C   0  0  0  0  0  0  0  0  0  0  0  0
    3.7341    0.1555    0.0000 C   0  0  0  0  0  0  0  0  0  0  0  0
    8.0976    1.6703    0.0000 C   0  0  0  0  0  0  0  0  0  0  0  0
    5.4704    1.1579    0.0000 C   0  0  0  0  0  0  0  0  0  0  0  0
    9.8338   -1.3345    0.0000 C   0  0  0  0  0  0  0  0  0  0  0  0
    9.8338    2.6727    0.0000 C   0  0  0  0  0  0  0  0  0  0  0  0
    6.3385    1.6592    0.0000 C   0  0  0  0  0  0  0  0  0  0  0  0
    7.9431   -1.3162    0.0000 C   0  0  0  0  0  0  0  0  0  0  0  0
    5.4704    3.1628    0.0000 C   0  0  0  0  0  0  0  0  0  0  0  0
    8.0976    2.6727    0.0000 C   0  0  0  0  0  0  0  0  0  0  0  0
    2.0000    1.1591    0.0000 C   0  0  0  0  0  0  0  0  0  0  0  0
    4.2424   -0.6253    0.0000 C   0  0  0  0  0  0  0  0  0  0  0  0
    6.3385    2.6616    0.0000 C   0  0  0  0  0  0  0  0  0  0  0  0
    8.9657    3.1739    0.0000 C   0  0  0  0  0  0  0  0  0  0  0  0
    7.0114   -1.6860    0.0000 C   0  0  0  0  0  0  0  0  0  0  0  0
    8.7292   -1.9383    0.0000 C   0  0  0  0  0  0  0  0  0  0  0  0
    5.2438   -0.5814    0.0000 C   0  0  0  0  0  0  0  0  0  0  0  0
    3.7797   -1.5144    0.0000 C   0  0  0  0  0  0  0  0  0  0  0  0
    6.8657   -2.6778    0.0000 C   0  0  0  0  0  0  0  0  0  0  0  0
    8.5835   -2.9300    0.0000 C   0  0  0  0  0  0  0  0  0  0  0  0
    5.3198   -2.3160    0.0000 C   0  0  0  0  0  0  0  0  0  0  0  0
    5.7826   -1.4268    0.0000 C   0  0  0  0  0  0  0  0  0  0  0  0
    4.3184   -2.3598    0.0000 C   0  0  0  0  0  0  0  0  0  0  0  0
    7.6518   -3.2998    0.0000 C   0  0  0  0  0  0  0  0  0  0  0  0
    8.3984    4.3784    0.0000 C   0  0  0  0  0  0  0  0  0  0  0  0
    6.0264    4.3653    0.0000 C   0  0  0  0  0  0  0  0  0  0  0  0
    9.8318    4.6739    0.0000 C   0  0  0  0  0  0  0  0  0  0  0  0
  1 21  1  0
  1 25  1  0
  2 28  1  0
  2 43  1  0
  3 31  1  0
  3 44  1  0
  4 32  1  0
  4 45  1  0
  5 37  1  0
  5 39  1  0
  6 42  1  0
  9  7  1  6
  7 12  1  0
  7 23  1  0
 10  8  1  6
  8 17  1  0
  8 29  1  0
  9 11  1  0
  9 16  1  0
 10 14  1  0
 10 20  1  0
 11 13  2  0
 11 21  1  0
 12 15  1  0
 13 15  1  0
 13 24  1  0
 14 18  2  0
 14 22  1  0
 16 26  1  0
 17 19  1  0
 18 19  1  0
 18 27  1  0
 20 30  1  0
 21 28  2  0
 22 25  2  0
 24 32  2  0
 25 31  1  0
 26 33  1  0
 26 34  2  0
 27 31  2  0
 28 32  1  0
 30 35  2  0
 30 36  1  0
 33 37  2  0
 34 38  1  0
 35 40  1  0
 36 41  2  0
 37 42  1  0
 38 42  2  0
 39 40  2  0
 39 41  1  0
M  END
>  <PUBCHEM_COMPOUND_CID>  (1) 
275182

>  <PUBCHEM_COMPOUND_CANONICALIZED>  (1) 
1

>  <PUBCHEM_CACTVS_COMPLEXITY>  (1) 
963

>  <PUBCHEM_CACTVS_HBOND_ACCEPTOR>  (1) 
8

>  <PUBCHEM_CACTVS_HBOND_DONOR>  (1) 
1

>  <PUBCHEM_CACTVS_ROTATABLE_BOND>  (1) 
3

>  <PUBCHEM_CACTVS_SUBSKEYS>  (1) 
AAADcfB/OAAAAAAAAAAAAAAAAAAAAAAAAAA8eMGCAAAAAACxVAAAHgAACAAADCzBmAYyBoMABgCAAiBCAACCCAAgIAAIiAAOjIgNJyKGsRuGeCvnwBWLuAew8P8OoAABCAAYQABAAAIQADCAAAAAAAAAAA==

>  <PUBCHEM_IUPAC_OPENEYE_NAME>  (1) 
(1S,14R)-20,21,25-trimethoxy-15,30-dimethyl-7,23-dioxa-15,30-diazaheptacyclo[22.6.2.23,6.18,12.114,18.027,31.022,33]hexatriaconta-3(36),4,6(35),8,10,12(34),18,20,22(33),24,26,31-dodecaen-9-ol

>  <PUBCHEM_IUPAC_CAS_NAME>  (1) 
(1S,14R)-20,21,25-trimethoxy-15,30-dimethyl-7,23-dioxa-15,30-diazaheptacyclo[22.6.2.23,6.18,12.114,18.027,31.022,33]hexatriaconta-3(36),4,6(35),8,10,12(34),18,20,22(33),24,26,31-dodecaen-9-ol

>  <PUBCHEM_IUPAC_NAME_MARKUP>  (1) 
(1<I>S</I>,14<I>R</I>)-20,21,25-trimethoxy-15,30-dimethyl-7,23-dioxa-15,30-diazaheptacyclo[22.6.2.2<SUP>3,6</SUP>.1<SUP>8,12</SUP>.1<SUP>14,18</SUP>.0<SUP>27,31</SUP>.0<SUP>22,33</SUP>]hexatriaconta-3(36),4,6(35),8,10,12(34),18,20,22(33),24,26,31-dodecaen-9-ol

>  <PUBCHEM_IUPAC_NAME>  (1) 
(1S,14R)-20,21,25-trimethoxy-15,30-dimethyl-7,23-dioxa-15,30-diazaheptacyclo[22.6.2.23,6.18,12.114,18.027,31.022,33]hexatriaconta-3(36),4,6(35),8,10,12(34),18,20,22(33),24,26,31-dodecaen-9-ol

>  <PUBCHEM_IUPAC_SYSTEMATIC_NAME>  (1) 
(1S,14R)-20,21,25-trimethoxy-15,30-dimethyl-7,23-dioxa-15,30-diazaheptacyclo[22.6.2.23,6.18,12.114,18.027,31.022,33]hexatriaconta-3(36),4,6(35),8,10,12(34),18,20,22(33),24,26,31-dodecaen-9-ol

>  <PUBCHEM_IUPAC_TRADITIONAL_NAME>  (1) 
(1S,14R)-20,21,25-trimethoxy-15,30-dimethyl-7,23-dioxa-15,30-diazaheptacyclo[22.6.2.23,6.18,12.114,18.027,31.022,33]hexatriaconta-3(36),4,6(35),8,10,12(34),18,20,22(33),24,26,31-dodecaen-9-ol

>  <PUBCHEM_IUPAC_INCHI>  (1) 
InChI=1S/C37H40N2O6/c1-38-14-12-24-19-32(41-3)33-21-27(24)28(38)16-22-6-9-26(10-7-22)44-31-18-23(8-11-30(31)40)17-29-35-25(13-15-39(29)2)20-34(42-4)36(43-5)37(35)45-33/h6-11,18-21,28-29,40H,12-17H2,1-5H3/t28-,29+/m0/s1

>  <PUBCHEM_IUPAC_INCHIKEY>  (1) 
DFOCUWZXJBAUSQ-URLMMPGGSA-N

>  <PUBCHEM_XLOGP3_AA>  (1) 
6.1

>  <PUBCHEM_EXACT_MASS>  (1) 
608.28863700

>  <PUBCHEM_MOLECULAR_FORMULA>  (1) 
C37H40N2O6

>  <PUBCHEM_MOLECULAR_WEIGHT>  (1) 
608.7

>  <PUBCHEM_OPENEYE_CAN_SMILES>  (1) 
CN1CCC2=CC(=C3C=C2C1CC4=CC=C(C=C4)OC5=C(C=CC(=C5)CC6C7=C(O3)C(=C(C=C7CCN6C)OC)OC)O)OC

>  <PUBCHEM_OPENEYE_ISO_SMILES>  (1) 
CN1CCC2=CC(=C3C=C2[C@@H]1CC4=CC=C(C=C4)OC5=C(C=CC(=C5)C[C@@H]6C7=C(O3)C(=C(C=C7CCN6C)OC)OC)O)OC

>  <PUBCHEM_CACTVS_TPSA>  (1) 
72.9

>  <PUBCHEM_MONOISOTOPIC_WEIGHT>  (1) 
608.28863700

>  <PUBCHEM_TOTAL_CHARGE>  (1) 
0

>  <PUBCHEM_HEAVY_ATOM_COUNT>  (1) 
45

>  <PUBCHEM_ATOM_DEF_STEREO_COUNT>  (1) 
2

>  <PUBCHEM_ATOM_UDEF_STEREO_COUNT>  (1) 
0

>  <PUBCHEM_BOND_DEF_STEREO_COUNT>  (1) 
0

>  <PUBCHEM_BOND_UDEF_STEREO_COUNT>  (1) 
0

>  <PUBCHEM_ISOTOPIC_ATOM_COUNT>  (1) 
0

>  <PUBCHEM_COMPONENT_COUNT>  (1) 
1

>  <PUBCHEM_CACTVS_TAUTO_COUNT>  (1) 
-1

>  <PUBCHEM_COORDINATE_TYPE>  (1) 
1
5
255

>  <PUBCHEM_BONDANNOTATIONS>  (1) 
10  47  5
11  13  8
11  21  8
13  24  8
14  18  8
14  22  8
18  27  8
21  28  8
22  25  8
24  32  8
25  31  8
26  33  8
26  34  8
27  31  8
28  32  8
30  35  8
30  36  8
33  37  8
34  38  8
35  40  8
36  41  8
37  42  8
38  42  8
39  40  8
39  41  8
9  46  5

$$$$
