5316145
     RDKit          2D

 42 47  0  0  0  0  0  0  0  0999 V2000
   13.8904   -0.2643    0.0000 O   0  0  0  0  0  0  0  0  0  0  0  0
   10.3984    1.7704    0.0000 O   0  0  0  0  0  0  0  0  0  0  0  0
    6.0682    0.2704    0.0000 O   0  0  0  0  0  0  0  0  0  0  0  0
   10.3984   -0.2296    0.0000 O   0  0  0  0  0  0  0  0  0  0  0  0
   12.1304    2.7704    0.0000 O   0  0  0  0  0  0  0  0  0  0  0  0
   13.8788    2.8050    0.0000 O   0  0  0  0  0  0  0  0  0  0  0  0
    4.3198   -2.7642    0.0000 O   0  0  0  0  0  0  0  0  0  0  0  0
    6.0682   -2.7296    0.0000 O   0  0  0  0  0  0  0  0  0  0  0  0
   18.2528   -1.7638    0.0000 O   0  0  0  0  0  0  0  0  0  0  0  0
    2.5381    0.2945    0.0000 O   0  0  0  0  0  0  0  0  0  0  0  0
   12.9965    1.2704    0.0000 C   0  0  0  0  0  0  0  0  0  0  0  0
   12.9965    0.2704    0.0000 C   0  0  0  0  0  0  0  0  0  0  0  0
   11.2644    1.2704    0.0000 C   0  0  0  0  0  0  0  0  0  0  0  0
   12.1304    1.7704    0.0000 C   0  0  0  0  0  0  0  0  0  0  0  0
   11.2644    0.2704    0.0000 C   0  0  0  0  0  0  0  0  0  0  0  0
   14.7965    0.2496    0.0000 C   0  0  0  0  0  0  0  0  0  0  0  0
   12.1304   -0.2296    0.0000 C   0  0  0  0  0  0  0  0  0  0  0  0
   13.8904    1.8050    0.0000 C   0  0  0  0  0  0  0  0  0  0  0  0
    7.8003    0.2704    0.0000 C   0  0  0  0  0  0  0  0  0  0  0  0
   14.7965    1.2912    0.0000 C   0  0  0  0  0  0  0  0  0  0  0  0
    6.9343   -0.2296    0.0000 C   0  0  0  0  0  0  0  0  0  0  0  0
   15.6606   -0.2538    0.0000 C   0  0  0  0  0  0  0  0  0  0  0  0
    5.2022   -1.2296    0.0000 C   0  0  0  0  0  0  0  0  0  0  0  0
    9.5323    1.2704    0.0000 C   0  0  0  0  0  0  0  0  0  0  0  0
    5.2022   -0.2296    0.0000 C   0  0  0  0  0  0  0  0  0  0  0  0
    7.8003    1.2704    0.0000 C   0  0  0  0  0  0  0  0  0  0  0  0
    8.6663   -0.2296    0.0000 C   0  0  0  0  0  0  0  0  0  0  0  0
    6.9343   -1.2296    0.0000 C   0  0  0  0  0  0  0  0  0  0  0  0
    6.0682   -1.7296    0.0000 C   0  0  0  0  0  0  0  0  0  0  0  0
    8.6663    1.7704    0.0000 C   0  0  0  0  0  0  0  0  0  0  0  0
    9.5323    0.2704    0.0000 C   0  0  0  0  0  0  0  0  0  0  0  0
    4.3083   -1.7643    0.0000 C   0  0  0  0  0  0  0  0  0  0  0  0
    4.3083    0.3051    0.0000 C   0  0  0  0  0  0  0  0  0  0  0  0
   16.5285    0.2429    0.0000 C   0  0  0  0  0  0  0  0  0  0  0  0
   15.6567   -1.2538    0.0000 C   0  0  0  0  0  0  0  0  0  0  0  0
    3.4022   -0.2088    0.0000 C   0  0  0  0  0  0  0  0  0  0  0  0
    3.4022   -1.2504    0.0000 C   0  0  0  0  0  0  0  0  0  0  0  0
   17.3926   -0.2604    0.0000 C   0  0  0  0  0  0  0  0  0  0  0  0
   16.5208   -1.7571    0.0000 C   0  0  0  0  0  0  0  0  0  0  0  0
   17.3887   -1.2604    0.0000 C   0  0  0  0  0  0  0  0  0  0  0  0
   10.3984   -1.2296    0.0000 C   0  0  0  0  0  0  0  0  0  0  0  0
   19.1208   -1.2671    0.0000 C   0  0  0  0  0  0  0  0  0  0  0  0
  1 12  1  0
  1 16  1  0
  2 13  1  0
  2 24  1  0
  3 21  1  0
  3 25  1  0
  4 15  1  0
  4 41  1  0
  5 14  1  0
  6 18  2  0
  7 32  1  0
  8 29  2  0
  9 40  1  0
  9 42  1  0
 10 36  1  0
 11 12  2  0
 11 14  1  0
 11 18  1  0
 12 17  1  0
 13 14  2  0
 13 15  1  0
 15 17  2  0
 16 20  2  0
 16 22  1  0
 18 20  1  0
 19 21  1  0
 19 26  2  0
 19 27  1  0
 21 28  2  0
 22 34  2  0
 22 35  1  0
 23 25  2  0
 23 29  1  0
 23 32  1  0
 24 30  2  0
 24 31  1  0
 25 33  1  0
 26 30  1  0
 27 31  2  0
 28 29  1  0
 32 37  2  0
 33 36  2  0
 34 38  1  0
 35 39  2  0
 36 37  1  0
 38 40  2  0
 39 40  1  0
M  END
>  <PUBCHEM_COMPOUND_CID>  (1) 
5316145

>  <PUBCHEM_COMPOUND_CANONICALIZED>  (1) 
1

>  <PUBCHEM_CACTVS_COMPLEXITY>  (1) 
1060

>  <PUBCHEM_CACTVS_HBOND_ACCEPTOR>  (1) 
10

>  <PUBCHEM_CACTVS_HBOND_DONOR>  (1) 
3

>  <PUBCHEM_CACTVS_ROTATABLE_BOND>  (1) 
6

>  <PUBCHEM_CACTVS_SUBSKEYS>  (1) 
AAADceB8PAAAAAAAAAAAAAAAAAAAAAAAAAAwYMGCAAAAAACBVAAAGgAACAAADASAmAIyBoAABgCIAqBSAAACCAAkIAAIiAEGiMgNJzaGNRqCeWOl4BULuQfK7LzOIQABCAAIQABCAAIQABCAAAAAAAAAAA==

>  <PUBCHEM_IUPAC_OPENEYE_NAME>  (1) 
6-[4-(5,7-dihydroxy-4-oxo-chromen-2-yl)phenoxy]-5-hydroxy-7-methoxy-2-(4-methoxyphenyl)chromen-4-one

>  <PUBCHEM_IUPAC_CAS_NAME>  (1) 
6-[4-(5,7-dihydroxy-4-oxo-1-benzopyran-2-yl)phenoxy]-5-hydroxy-7-methoxy-2-(4-methoxyphenyl)-1-benzopyran-4-one

>  <PUBCHEM_IUPAC_NAME_MARKUP>  (1) 
6-[4-(5,7-dihydroxy-4-oxochromen-2-yl)phenoxy]-5-hydroxy-7-methoxy-2-(4-methoxyphenyl)chromen-4-one

>  <PUBCHEM_IUPAC_NAME>  (1) 
6-[4-(5,7-dihydroxy-4-oxochromen-2-yl)phenoxy]-5-hydroxy-7-methoxy-2-(4-methoxyphenyl)chromen-4-one

>  <PUBCHEM_IUPAC_SYSTEMATIC_NAME>  (1) 
6-[4-[5,7-bis(oxidanyl)-4-oxidanylidene-chromen-2-yl]phenoxy]-7-methoxy-2-(4-methoxyphenyl)-5-oxidanyl-chromen-4-one

>  <PUBCHEM_IUPAC_TRADITIONAL_NAME>  (1) 
6-[4-(5,7-dihydroxy-4-keto-chromen-2-yl)phenoxy]-5-hydroxy-7-methoxy-2-(4-methoxyphenyl)chromone

>  <PUBCHEM_IUPAC_INCHI>  (1) 
InChI=1S/C32H22O10/c1-38-19-7-3-16(4-8-19)25-14-23(36)30-27(42-25)15-28(39-2)32(31(30)37)40-20-9-5-17(6-10-20)24-13-22(35)29-21(34)11-18(33)12-26(29)41-24/h3-15,33-34,37H,1-2H3

>  <PUBCHEM_IUPAC_INCHIKEY>  (1) 
XLXOFHHXAZAIHM-UHFFFAOYSA-N

>  <PUBCHEM_XLOGP3_AA>  (1) 
5.9

>  <PUBCHEM_EXACT_MASS>  (1) 
566.12129689

>  <PUBCHEM_MOLECULAR_FORMULA>  (1) 
C32H22O10

>  <PUBCHEM_MOLECULAR_WEIGHT>  (1) 
566.5

>  <PUBCHEM_OPENEYE_CAN_SMILES>  (1) 
COC1=CC=C(C=C1)C2=CC(=O)C3=C(C(=C(C=C3O2)OC)OC4=CC=C(C=C4)C5=CC(=O)C6=C(C=C(C=C6O5)O)O)O

>  <PUBCHEM_OPENEYE_ISO_SMILES>  (1) 
COC1=CC=C(C=C1)C2=CC(=O)C3=C(C(=C(C=C3O2)OC)OC4=CC=C(C=C4)C5=CC(=O)C6=C(C=C(C=C6O5)O)O)O

>  <PUBCHEM_CACTVS_TPSA>  (1) 
141

>  <PUBCHEM_MONOISOTOPIC_WEIGHT>  (1) 
566.12129689

>  <PUBCHEM_TOTAL_CHARGE>  (1) 
0

>  <PUBCHEM_HEAVY_ATOM_COUNT>  (1) 
42

>  <PUBCHEM_ATOM_DEF_STEREO_COUNT>  (1) 
0

>  <PUBCHEM_ATOM_UDEF_STEREO_COUNT>  (1) 
0

>  <PUBCHEM_BOND_DEF_STEREO_COUNT>  (1) 
0

>  <PUBCHEM_BOND_UDEF_STEREO_COUNT>  (1) 
0

>  <PUBCHEM_ISOTOPIC_ATOM_COUNT>  (1) 
0

>  <PUBCHEM_COMPONENT_COUNT>  (1) 
1

>  <PUBCHEM_CACTVS_TAUTO_COUNT>  (1) 
-1

>  <PUBCHEM_COORDINATE_TYPE>  (1) 
1
5
255

>  <PUBCHEM_BONDANNOTATIONS>  (1) 
1  12  8
1  16  8
11  12  8
11  14  8
11  18  8
12  17  8
13  14  8
13  15  8
15  17  8
16  20  8
18  20  8
19  26  8
19  27  8
21  28  8
22  34  8
22  35  8
23  25  8
23  29  8
23  32  8
24  30  8
24  31  8
25  33  8
26  30  8
27  31  8
28  29  8
3  21  8
3  25  8
32  37  8
33  36  8
34  38  8
35  39  8
36  37  8
38  40  8
39  40  8

$$$$
