441207
     RDKit          2D

 54 61  0  0  1  0  0  0  0  0999 V2000
   18.3182   -1.3888    0.0000 O   0  0  0  0  0  0  0  0  0  0  0  0
   12.9292   -2.4619    0.0000 O   0  0  0  0  0  0  0  0  0  0  0  0
   19.5591    3.4894    0.0000 O   0  0  0  0  0  0  0  0  0  0  0  0
   12.0632   -0.9619    0.0000 O   0  0  0  0  0  0  0  0  0  0  0  0
   21.3186    3.7719    0.0000 O   0  0  0  0  0  0  0  0  0  0  0  0
    9.4651   -2.4619    0.0000 O   0  0  0  0  0  0  0  0  0  0  0  0
    9.4651   -0.4619    0.0000 O   0  0  0  0  0  0  0  0  0  0  0  0
    7.7331   -0.4619    0.0000 O   0  0  0  0  0  0  0  0  0  0  0  0
    6.0010   -2.4619    0.0000 O   0  0  0  0  0  0  0  0  0  0  0  0
    7.7331   -3.4619    0.0000 O   0  0  0  0  0  0  0  0  0  0  0  0
    4.2690   -2.4619    0.0000 O   0  0  0  0  0  0  0  0  0  0  0  0
    4.2690    0.5381    0.0000 O   0  0  0  0  0  0  0  0  0  0  0  0
    2.5369   -0.4619    0.0000 O   0  0  0  0  0  0  0  0  0  0  0  0
   18.3144   -0.3888    0.0000 C   0  0  0  0  0  0  0  0  0  0  0  0
   17.4503   -0.8921    0.0000 C   0  0  0  0  0  0  0  0  0  0  0  0
   16.5823   -0.3954    0.0000 C   0  0  0  0  0  0  0  0  0  0  0  0
   18.3105    0.6112    0.0000 C   0  0  0  0  0  0  0  0  0  0  0  0
   15.6743   -0.9058    0.0000 C   0  0  0  0  0  0  0  0  0  0  0  0
   15.6703   -1.9474    0.0000 C   0  0  0  0  0  0  0  0  0  0  0  0
   16.5785    0.6046    0.0000 C   0  0  0  0  0  0  0  0  0  0  0  0
   17.4426    1.1079    0.0000 C   0  0  0  0  0  0  0  0  0  0  0  0
   19.2556    0.9196    0.0000 C   0  0  0  0  0  0  0  0  0  0  0  0
   17.4704   -1.9335    0.0000 C   0  0  0  0  0  0  0  0  0  0  0  0
   19.2618   -0.6898    0.0000 C   0  0  0  0  0  0  0  0  0  0  0  0
   16.5744   -2.4647    0.0000 C   0  0  0  0  0  0  0  0  0  0  0  0
   19.8423    0.1171    0.0000 C   0  0  0  0  0  0  0  0  0  0  0  0
   14.7453   -0.3453    0.0000 C   0  0  0  0  0  0  0  0  0  0  0  0
   14.7370   -2.5007    0.0000 C   0  0  0  0  0  0  0  0  0  0  0  0
   18.3067    1.6112    0.0000 C   0  0  0  0  0  0  0  0  0  0  0  0
   15.6782    0.0942    0.0000 C   0  0  0  0  0  0  0  0  0  0  0  0
   13.7994   -0.8769    0.0000 C   0  0  0  0  0  0  0  0  0  0  0  0
   13.7953   -1.9619    0.0000 C   0  0  0  0  0  0  0  0  0  0  0  0
   19.5626    1.8713    0.0000 C   0  0  0  0  0  0  0  0  0  0  0  0
   18.9731    2.6791    0.0000 C   0  0  0  0  0  0  0  0  0  0  0  0
   20.5130    2.1824    0.0000 C   0  0  0  0  0  0  0  0  0  0  0  0
   12.0632   -1.9619    0.0000 C   0  0  0  0  0  0  0  0  0  0  0  0
   20.5108    3.1824    0.0000 C   0  0  0  0  0  0  0  0  0  0  0  0
   11.1972   -2.4619    0.0000 C   0  0  0  0  0  0  0  0  0  0  0  0
   10.3312   -1.9619    0.0000 C   0  0  0  0  0  0  0  0  0  0  0  0
   11.1972   -0.4619    0.0000 C   0  0  0  0  0  0  0  0  0  0  0  0
   10.3312   -0.9619    0.0000 C   0  0  0  0  0  0  0  0  0  0  0  0
   11.1972    0.5381    0.0000 C   0  0  0  0  0  0  0  0  0  0  0  0
    8.5991   -0.9619    0.0000 C   0  0  0  0  0  0  0  0  0  0  0  0
    8.5991   -1.9619    0.0000 C   0  0  0  0  0  0  0  0  0  0  0  0
    7.7331   -2.4619    0.0000 C   0  0  0  0  0  0  0  0  0  0  0  0
    6.8671   -0.9619    0.0000 C   0  0  0  0  0  0  0  0  0  0  0  0
    6.8671   -1.9619    0.0000 C   0  0  0  0  0  0  0  0  0  0  0  0
    6.0010   -0.4619    0.0000 C   0  0  0  0  0  0  0  0  0  0  0  0
    5.1350   -1.9619    0.0000 C   0  0  0  0  0  0  0  0  0  0  0  0
    5.1350   -0.9619    0.0000 C   0  0  0  0  0  0  0  0  0  0  0  0
    4.2690   -0.4619    0.0000 C   0  0  0  0  0  0  0  0  0  0  0  0
    3.4030   -1.9619    0.0000 C   0  0  0  0  0  0  0  0  0  0  0  0
    3.4030   -0.9619    0.0000 C   0  0  0  0  0  0  0  0  0  0  0  0
    2.5369   -2.4619    0.0000 C   0  0  0  0  0  0  0  0  0  0  0  0
 14  1  1  1
 32  2  1  1
 36  2  1  1
  3 34  1  0
  3 37  1  0
  4 36  1  0
  4 40  1  0
  5 37  2  0
 39  6  1  6
 41  7  1  6
 43  7  1  1
  8 43  1  0
  8 46  1  0
 47  9  1  6
 49  9  1  6
 45 10  1  6
 11 49  1  0
 11 52  1  0
 51 12  1  1
 53 13  1  1
 14 15  1  0
 14 17  1  0
 14 24  1  0
 15 16  1  0
 15 23  1  6
 16 18  1  0
 16 20  1  1
 17 21  1  0
 17 22  1  0
 17 29  1  1
 18 19  1  0
 18 27  1  0
 18 30  1  1
 19 25  1  6
 19 28  1  0
 20 21  1  0
 22 26  1  0
 22 33  1  1
 23 25  1  0
 24 26  1  0
 27 31  1  0
 28 32  1  0
 31 32  1  0
 33 34  1  0
 33 35  2  0
 35 37  1  0
 36 38  1  0
 38 39  1  0
 39 41  1  0
 40 41  1  0
 40 42  1  1
 43 44  1  0
 44 45  1  0
 45 47  1  0
 46 47  1  0
 46 48  1  1
 49 50  1  0
 50 51  1  0
 51 53  1  0
 52 53  1  0
 52 54  1  6
M  END
>  <PUBCHEM_COMPOUND_CID>  (1) 
441207

>  <PUBCHEM_COMPOUND_CANONICALIZED>  (1) 
1

>  <PUBCHEM_CACTVS_COMPLEXITY>  (1) 
1410

>  <PUBCHEM_CACTVS_HBOND_ACCEPTOR>  (1) 
13

>  <PUBCHEM_CACTVS_HBOND_DONOR>  (1) 
5

>  <PUBCHEM_CACTVS_ROTATABLE_BOND>  (1) 
7

>  <PUBCHEM_CACTVS_SUBSKEYS>  (1) 
AAADcfB8PAAAAAAAAAAAAAAAAAAAAYIAAAA0aNECAAAAAGDAAAAAGgAACAAAD1SwgAMCCAAABgCIAiDSCAAAAAAgAAAACAAAAEgRFAIAIQAiUAAFgAAPIQPA4PwPgAAAAAAAAADAAAYAADAAAYAADAAAAA==

>  <PUBCHEM_IUPAC_OPENEYE_NAME>  (1) 
3-[(3S,5R,8R,9S,10S,13R,14S,17R)-3-[(2R,4S,5S,6R)-5-[(2S,4S,5S,6R)-5-[(2S,4S,5S,6R)-4,5-dihydroxy-6-methyl-tetrahydropyran-2-yl]oxy-4-hydroxy-6-methyl-tetrahydropyran-2-yl]oxy-4-hydroxy-6-methyl-tetrahydropyran-2-yl]oxy-14-hydroxy-10,13-dimethyl-1,2,3,4,5,6,7,8,9,11,12,15,16,17-tetradecahydrocyclopenta[a]phenanthren-17-yl]-2H-furan-5-one

>  <PUBCHEM_IUPAC_CAS_NAME>  (1) 
3-[(3S,5R,8R,9S,10S,13R,14S,17R)-3-[[(2R,4S,5S,6R)-5-[[(2S,4S,5S,6R)-5-[[(2S,4S,5S,6R)-4,5-dihydroxy-6-methyl-2-oxanyl]oxy]-4-hydroxy-6-methyl-2-oxanyl]oxy]-4-hydroxy-6-methyl-2-oxanyl]oxy]-14-hydroxy-10,13-dimethyl-1,2,3,4,5,6,7,8,9,11,12,15,16,17-tetradecahydrocyclopenta[a]phenanthren-17-yl]-2H-furan-5-one

>  <PUBCHEM_IUPAC_NAME_MARKUP>  (1) 
3-[(3<I>S</I>,5<I>R</I>,8<I>R</I>,9<I>S</I>,10<I>S</I>,13<I>R</I>,14<I>S</I>,17<I>R</I>)-3-[(2<I>R</I>,4<I>S</I>,5<I>S</I>,6<I>R</I>)-5-[(2<I>S</I>,4<I>S</I>,5<I>S</I>,6<I>R</I>)-5-[(2<I>S</I>,4<I>S</I>,5<I>S</I>,6<I>R</I>)-4,5-dihydroxy-6-methyloxan-2-yl]oxy-4-hydroxy-6-methyloxan-2-yl]oxy-4-hydroxy-6-methyloxan-2-yl]oxy-14-hydroxy-10,13-dimethyl-1,2,3,4,5,6,7,8,9,11,12,15,16,17-tetradecahydrocyclopenta[a]phenanthren-17-yl]-2<I>H</I>-furan-5-one

>  <PUBCHEM_IUPAC_NAME>  (1) 
3-[(3S,5R,8R,9S,10S,13R,14S,17R)-3-[(2R,4S,5S,6R)-5-[(2S,4S,5S,6R)-5-[(2S,4S,5S,6R)-4,5-dihydroxy-6-methyloxan-2-yl]oxy-4-hydroxy-6-methyloxan-2-yl]oxy-4-hydroxy-6-methyloxan-2-yl]oxy-14-hydroxy-10,13-dimethyl-1,2,3,4,5,6,7,8,9,11,12,15,16,17-tetradecahydrocyclopenta[a]phenanthren-17-yl]-2H-furan-5-one

>  <PUBCHEM_IUPAC_SYSTEMATIC_NAME>  (1) 
3-[(3S,5R,8R,9S,10S,13R,14S,17R)-10,13-dimethyl-3-[(2R,4S,5S,6R)-6-methyl-5-[(2S,4S,5S,6R)-6-methyl-5-[(2S,4S,5S,6R)-6-methyl-4,5-bis(oxidanyl)oxan-2-yl]oxy-4-oxidanyl-oxan-2-yl]oxy-4-oxidanyl-oxan-2-yl]oxy-14-oxidanyl-1,2,3,4,5,6,7,8,9,11,12,15,16,17-tetradecahydrocyclopenta[a]phenanthren-17-yl]-2H-furan-5-one

>  <PUBCHEM_IUPAC_TRADITIONAL_NAME>  (1) 
3-[(3S,5R,8R,9S,10S,13R,14S,17R)-3-[(2R,4S,5S,6R)-5-[(2S,4S,5S,6R)-5-[(2S,4S,5S,6R)-4,5-dihydroxy-6-methyl-tetrahydropyran-2-yl]oxy-4-hydroxy-6-methyl-tetrahydropyran-2-yl]oxy-4-hydroxy-6-methyl-tetrahydropyran-2-yl]oxy-14-hydroxy-10,13-dimethyl-1,2,3,4,5,6,7,8,9,11,12,15,16,17-tetradecahydrocyclopenta[a]phenanthren-17-yl]-2H-furan-5-one

>  <PUBCHEM_IUPAC_INCHI>  (1) 
InChI=1S/C41H64O13/c1-20-36(46)29(42)16-34(49-20)53-38-22(3)51-35(18-31(38)44)54-37-21(2)50-33(17-30(37)43)52-25-8-11-39(4)24(15-25)6-7-28-27(39)9-12-40(5)26(10-13-41(28,40)47)23-14-32(45)48-19-23/h14,20-22,24-31,33-38,42-44,46-47H,6-13,15-19H2,1-5H3/t20-,21-,22-,24-,25+,26-,27+,28-,29+,30+,31+,33+,34+,35+,36-,37-,38-,39+,40-,41+/m1/s1

>  <PUBCHEM_IUPAC_INCHIKEY>  (1) 
WDJUZGPOPHTGOT-XUDUSOBPSA-N

>  <PUBCHEM_XLOGP3>  (1) 
2.3

>  <PUBCHEM_EXACT_MASS>  (1) 
764.43469209

>  <PUBCHEM_MOLECULAR_FORMULA>  (1) 
C41H64O13

>  <PUBCHEM_MOLECULAR_WEIGHT>  (1) 
764.9

>  <PUBCHEM_OPENEYE_CAN_SMILES>  (1) 
CC1C(C(CC(O1)OC2C(OC(CC2O)OC3C(OC(CC3O)OC4CCC5(C(C4)CCC6C5CCC7(C6(CCC7C8=CC(=O)OC8)O)C)C)C)C)O)O

>  <PUBCHEM_OPENEYE_ISO_SMILES>  (1) 
C[C@@H]1[C@H]([C@H](C[C@@H](O1)O[C@@H]2[C@H](O[C@H](C[C@@H]2O)O[C@@H]3[C@H](O[C@H](C[C@@H]3O)O[C@H]4CC[C@]5([C@@H](C4)CC[C@@H]6[C@@H]5CC[C@]7([C@@]6(CC[C@@H]7C8=CC(=O)OC8)O)C)C)C)C)O)O

>  <PUBCHEM_CACTVS_TPSA>  (1) 
183

>  <PUBCHEM_MONOISOTOPIC_WEIGHT>  (1) 
764.43469209

>  <PUBCHEM_TOTAL_CHARGE>  (1) 
0

>  <PUBCHEM_HEAVY_ATOM_COUNT>  (1) 
54

>  <PUBCHEM_ATOM_DEF_STEREO_COUNT>  (1) 
20

>  <PUBCHEM_ATOM_UDEF_STEREO_COUNT>  (1) 
0

>  <PUBCHEM_BOND_DEF_STEREO_COUNT>  (1) 
0

>  <PUBCHEM_BOND_UDEF_STEREO_COUNT>  (1) 
0

>  <PUBCHEM_ISOTOPIC_ATOM_COUNT>  (1) 
0

>  <PUBCHEM_COMPONENT_COUNT>  (1) 
1

>  <PUBCHEM_CACTVS_TAUTO_COUNT>  (1) 
-1

>  <PUBCHEM_COORDINATE_TYPE>  (1) 
1
5
255

>  <PUBCHEM_BONDANNOTATIONS>  (1) 
14  1  5
45  10  6
51  12  5
53  13  5
15  55  5
16  56  6
17  29  5
18  30  5
19  57  5
32  2  5
36  2  5
22  33  5
40  42  5
46  48  5
52  54  6
39  6  6
41  7  6
43  7  5
47  9  6
49  9  6

$$$$
