JBB41_0007
  -OEChem-04162408222D

141148  0     1  0  0  0  0  0999 V2000
    7.1519   -4.1288    0.0000 O   0  0  0  0  0  0  0  0  0  0  0  0
    5.4568    0.0614    0.0000 O   0  0  0  0  0  0  0  0  0  0  0  0
    6.1596    6.4431    0.0000 O   0  0  0  0  0  0  0  0  0  0  0  0
    5.4199   -4.1288    0.0000 O   0  0  0  0  0  0  0  0  0  0  0  0
    4.6731    5.5540    0.0000 O   0  0  0  0  0  0  0  0  0  0  0  0
    7.1519   -6.1288    0.0000 O   0  0  0  0  0  0  0  0  0  0  0  0
    5.4199   -7.1288    0.0000 O   0  0  0  0  0  0  0  0  0  0  0  0
    4.6464    7.2858    0.0000 O   0  0  0  0  0  0  0  0  0  0  0  0
    3.6878   -6.1288    0.0000 O   0  0  0  0  0  0  0  0  0  0  0  0
    6.2859   -7.6288    0.0000 O   0  0  0  0  0  0  0  0  0  0  0  0
    7.1327    8.1903    0.0000 O   0  0  0  0  0  0  0  0  0  0  0  0
    2.8218   -4.6288    0.0000 O   0  0  0  0  0  0  0  0  0  0  0  0
    3.6878   -3.1288    0.0000 O   0  0  0  0  0  0  0  0  0  0  0  0
    6.1062    9.9068    0.0000 O   0  0  0  0  0  0  0  0  0  0  0  0
    4.1064    9.8759    0.0000 O   0  0  0  0  0  0  0  0  0  0  0  0
    8.8840   -7.1288    0.0000 O   0  0  0  0  0  0  0  0  0  0  0  0
    8.8840   -9.1288    0.0000 O   0  0  0  0  0  0  0  0  0  0  0  0
    2.6199    8.9869    0.0000 O   0  0  0  0  0  0  0  0  0  0  0  0
    7.1519  -10.1288    0.0000 O   0  0  0  0  0  0  0  0  0  0  0  0
    5.4199  -10.1288    0.0000 O   0  0  0  0  0  0  0  0  0  0  0  0
    4.5538   -8.6288    0.0000 O   0  0  0  0  0  0  0  0  0  0  0  0
    8.0530    0.5714    0.0000 C   0  0  2  0  0  0  0  0  0  0  0  0
    7.1768   -0.9735    0.0000 C   0  0  2  0  0  0  0  0  0  0  0  0
    7.1889    0.0680    0.0000 C   0  0  1  0  0  0  0  0  0  0  0  0
    8.0491    1.5714    0.0000 C   0  0  1  0  0  0  0  0  0  0  0  0
    8.0769   -1.4978    0.0000 C   0  0  2  0  0  0  0  0  0  0  0  0
    8.9649    0.0680    0.0000 C   0  0  0  0  0  0  0  0  0  0  0  0
    8.0894   -2.5827    0.0000 C   0  0  0  0  0  0  0  0  0  0  0  0
    8.9770   -0.9735    0.0000 C   0  0  0  0  0  0  0  0  0  0  0  0
    7.1812    2.0680    0.0000 C   0  0  0  0  0  0  0  0  0  0  0  0
    7.1611    3.1095    0.0000 C   0  0  1  0  0  0  0  0  0  0  0  0
    8.0571    3.6407    0.0000 C   0  0  1  0  0  0  0  0  0  0  0  0
    8.9572    2.0817    0.0000 C   0  0  0  0  0  0  0  0  0  0  0  0
    6.2269   -1.4978    0.0000 C   0  0  0  0  0  0  0  0  0  0  0  0
    8.9612    3.1234    0.0000 C   0  0  0  0  0  0  0  0  0  0  0  0
    7.1519   -3.1288    0.0000 C   0  0  2  0  0  0  0  0  0  0  0  0
    6.3209    0.5647    0.0000 C   0  0  0  0  0  0  0  0  0  0  0  0
    9.0371    0.7488    0.0000 C   0  0  0  0  0  0  0  0  0  0  0  0
    6.2144   -2.5827    0.0000 C   0  0  0  0  0  0  0  0  0  0  0  0
    6.3128   -0.4702    0.0000 C   0  0  0  0  0  0  0  0  0  0  0  0
    9.0346    1.4015    0.0000 C   0  0  0  0  0  0  0  0  0  0  0  0
    6.3171    1.5647    0.0000 C   0  0  0  0  0  0  0  0  0  0  0  0
    6.2072    3.6264    0.0000 C   0  0  0  0  0  0  0  0  0  0  0  0
    8.0613    4.7257    0.0000 C   0  0  0  0  0  0  0  0  0  0  0  0
    6.1863    4.7112    0.0000 C   0  0  1  0  0  0  0  0  0  0  0  0
    9.0894   -2.5750    0.0000 C   0  0  0  0  0  0  0  0  0  0  0  0
    8.5961   -3.4449    0.0000 C   0  0  0  0  0  0  0  0  0  0  0  0
    7.1196    5.2645    0.0000 C   0  0  0  0  0  0  0  0  0  0  0  0
    8.9173    4.1507    0.0000 C   0  0  0  0  0  0  0  0  0  0  0  0
    5.1864    4.6958    0.0000 C   0  0  0  0  0  0  0  0  0  0  0  0
    5.6730    5.5694    0.0000 C   0  0  0  0  0  0  0  0  0  0  0  0
    6.2859   -4.6288    0.0000 C   0  0  2  0  0  0  0  0  0  0  0  0
    6.2859   -5.6288    0.0000 C   0  0  1  0  0  0  0  0  0  0  0  0
    5.4199   -6.1288    0.0000 C   0  0  2  0  0  0  0  0  0  0  0  0
    4.5538   -4.6288    0.0000 C   0  0  1  0  0  0  0  0  0  0  0  0
    4.5538   -5.6288    0.0000 C   0  0  1  0  0  0  0  0  0  0  0  0
    5.6463    7.3013    0.0000 C   0  0  2  0  0  0  0  0  0  0  0  0
    6.1329    8.1749    0.0000 C   0  0  1  0  0  0  0  0  0  0  0  0
    7.1519   -7.1288    0.0000 C   0  0  2  0  0  0  0  0  0  0  0  0
    3.6878   -4.1288    0.0000 C   0  0  0  0  0  0  0  0  0  0  0  0
    5.6196    9.0331    0.0000 C   0  0  2  0  0  0  0  0  0  0  0  0
    4.1331    8.1441    0.0000 C   0  0  1  0  0  0  0  0  0  0  0  0
    4.6197    9.0177    0.0000 C   0  0  1  0  0  0  0  0  0  0  0  0
    8.0180   -7.6288    0.0000 C   0  0  1  0  0  0  0  0  0  0  0  0
    8.0180   -8.6288    0.0000 C   0  0  2  0  0  0  0  0  0  0  0  0
    3.1332    8.1286    0.0000 C   0  0  0  0  0  0  0  0  0  0  0  0
    6.2859   -8.6288    0.0000 C   0  0  1  0  0  0  0  0  0  0  0  0
    7.1519   -9.1288    0.0000 C   0  0  1  0  0  0  0  0  0  0  0  0
    5.4199   -9.1288    0.0000 C   0  0  0  0  0  0  0  0  0  0  0  0
    7.9234   -0.3598    0.0000 H   0  0  0  0  0  0  0  0  0  0  0  0
    8.8163   -1.9171    0.0000 H   0  0  0  0  0  0  0  0  0  0  0  0
    9.5770   -0.0310    0.0000 H   0  0  0  0  0  0  0  0  0  0  0  0
    9.1672    0.6541    0.0000 H   0  0  0  0  0  0  0  0  0  0  0  0
    9.1928   -1.5548    0.0000 H   0  0  0  0  0  0  0  0  0  0  0  0
    9.5866   -0.8604    0.0000 H   0  0  0  0  0  0  0  0  0  0  0  0
    6.4350    2.6676    0.0000 H   0  0  0  0  0  0  0  0  0  0  0  0
    9.1640    1.4972    0.0000 H   0  0  0  0  0  0  0  0  0  0  0  0
    9.5684    2.1855    0.0000 H   0  0  0  0  0  0  0  0  0  0  0  0
    6.0246   -0.9117    0.0000 H   0  0  0  0  0  0  0  0  0  0  0  0
    5.6149   -1.5968    0.0000 H   0  0  0  0  0  0  0  0  0  0  0  0
    9.5716    3.0149    0.0000 H   0  0  0  0  0  0  0  0  0  0  0  0
    9.1725    3.7062    0.0000 H   0  0  0  0  0  0  0  0  0  0  0  0
    7.6894   -3.4378    0.0000 H   0  0  0  0  0  0  0  0  0  0  0  0
    9.1471    0.1387    0.0000 H   0  0  0  0  0  0  0  0  0  0  0  0
    9.6473    0.8588    0.0000 H   0  0  0  0  0  0  0  0  0  0  0  0
    8.9271    1.3590    0.0000 H   0  0  0  0  0  0  0  0  0  0  0  0
    5.6048   -2.4696    0.0000 H   0  0  0  0  0  0  0  0  0  0  0  0
    5.9986   -3.1640    0.0000 H   0  0  0  0  0  0  0  0  0  0  0  0
    6.6248    0.0656    0.0000 H   0  0  0  0  0  0  0  0  0  0  0  0
    5.7770   -0.1581    0.0000 H   0  0  0  0  0  0  0  0  0  0  0  0
    6.0007   -1.0059    0.0000 H   0  0  0  0  0  0  0  0  0  0  0  0
    8.9293    0.7905    0.0000 H   0  0  0  0  0  0  0  0  0  0  0  0
    9.6456    1.2962    0.0000 H   0  0  0  0  0  0  0  0  0  0  0  0
    9.1399    2.0125    0.0000 H   0  0  0  0  0  0  0  0  0  0  0  0
    5.7790    1.8726    0.0000 H   0  0  0  0  0  0  0  0  0  0  0  0
    5.5944    3.7207    0.0000 H   0  0  0  0  0  0  0  0  0  0  0  0
    6.0094    3.0388    0.0000 H   0  0  0  0  0  0  0  0  0  0  0  0
    8.6717    4.6172    0.0000 H   0  0  0  0  0  0  0  0  0  0  0  0
    8.2726    5.3086    0.0000 H   0  0  0  0  0  0  0  0  0  0  0  0
    9.0942   -3.1950    0.0000 H   0  0  0  0  0  0  0  0  0  0  0  0
    9.7094   -2.5702    0.0000 H   0  0  0  0  0  0  0  0  0  0  0  0
    9.0846   -1.9550    0.0000 H   0  0  0  0  0  0  0  0  0  0  0  0
    8.0616   -3.7590    0.0000 H   0  0  0  0  0  0  0  0  0  0  0  0
    8.9102   -3.9794    0.0000 H   0  0  0  0  0  0  0  0  0  0  0  0
    9.1306   -3.1307    0.0000 H   0  0  0  0  0  0  0  0  0  0  0  0
    7.5150    5.7420    0.0000 H   0  0  0  0  0  0  0  0  0  0  0  0
    6.7168    5.7359    0.0000 H   0  0  0  0  0  0  0  0  0  0  0  0
    9.2335    3.6174    0.0000 H   0  0  0  0  0  0  0  0  0  0  0  0
    9.4506    4.4668    0.0000 H   0  0  0  0  0  0  0  0  0  0  0  0
    8.6011    4.6840    0.0000 H   0  0  0  0  0  0  0  0  0  0  0  0
    5.1768    5.3157    0.0000 H   0  0  0  0  0  0  0  0  0  0  0  0
    4.5665    4.6862    0.0000 H   0  0  0  0  0  0  0  0  0  0  0  0
    5.1960    4.0759    0.0000 H   0  0  0  0  0  0  0  0  0  0  0  0
    6.2859   -4.0088    0.0000 H   0  0  0  0  0  0  0  0  0  0  0  0
    6.2859   -6.2488    0.0000 H   0  0  0  0  0  0  0  0  0  0  0  0
    4.8829   -6.4388    0.0000 H   0  0  0  0  0  0  0  0  0  0  0  0
    4.5538   -4.0088    0.0000 H   0  0  0  0  0  0  0  0  0  0  0  0
    4.0169   -5.3188    0.0000 H   0  0  0  0  0  0  0  0  0  0  0  0
    6.2662    7.3108    0.0000 H   0  0  0  0  0  0  0  0  0  0  0  0
    6.4346    8.7166    0.0000 H   0  0  0  0  0  0  0  0  0  0  0  0
    7.6889   -6.8188    0.0000 H   0  0  0  0  0  0  0  0  0  0  0  0
    4.8829   -7.4388    0.0000 H   0  0  0  0  0  0  0  0  0  0  0  0
    5.3013    9.5652    0.0000 H   0  0  0  0  0  0  0  0  0  0  0  0
    3.6878   -6.7488    0.0000 H   0  0  0  0  0  0  0  0  0  0  0  0
    3.8314    7.6024    0.0000 H   0  0  0  0  0  0  0  0  0  0  0  0
    3.9998    9.0081    0.0000 H   0  0  0  0  0  0  0  0  0  0  0  0
    8.5549   -7.9388    0.0000 H   0  0  0  0  0  0  0  0  0  0  0  0
    7.4344    8.7320    0.0000 H   0  0  0  0  0  0  0  0  0  0  0  0
    8.0180   -9.2488    0.0000 H   0  0  0  0  0  0  0  0  0  0  0  0
    2.5540    7.9076    0.0000 H   0  0  0  0  0  0  0  0  0  0  0  0
    3.2503    7.5198    0.0000 H   0  0  0  0  0  0  0  0  0  0  0  0
    2.2849   -4.3188    0.0000 H   0  0  0  0  0  0  0  0  0  0  0  0
    5.7490   -8.3188    0.0000 H   0  0  0  0  0  0  0  0  0  0  0  0
    6.6150   -9.4388    0.0000 H   0  0  0  0  0  0  0  0  0  0  0  0
    5.7879   10.4388    0.0000 H   0  0  0  0  0  0  0  0  0  0  0  0
    4.4081   10.4176    0.0000 H   0  0  0  0  0  0  0  0  0  0  0  0
    8.8840   -6.5088    0.0000 H   0  0  0  0  0  0  0  0  0  0  0  0
    9.4209   -8.8188    0.0000 H   0  0  0  0  0  0  0  0  0  0  0  0
    2.0000    8.9773    0.0000 H   0  0  0  0  0  0  0  0  0  0  0  0
    7.6889  -10.4388    0.0000 H   0  0  0  0  0  0  0  0  0  0  0  0
    5.9568  -10.4388    0.0000 H   0  0  0  0  0  0  0  0  0  0  0  0
 36  1  1  1  0  0  0
 52  1  1  1  0  0  0
  2 37  2  0  0  0  0
  3 51  1  0  0  0  0
 57  3  1  6  0  0  0
  4 52  1  0  0  0  0
  4 55  1  0  0  0  0
  5 51  2  0  0  0  0
 53  6  1  6  0  0  0
 59  6  1  1  0  0  0
 54  7  1  1  0  0  0
  7122  1  0  0  0  0
  8 57  1  0  0  0  0
  8 62  1  0  0  0  0
 56  9  1  6  0  0  0
  9124  1  0  0  0  0
 10 59  1  0  0  0  0
 10 67  1  0  0  0  0
 58 11  1  1  0  0  0
 11128  1  0  0  0  0
 12 60  1  0  0  0  0
 12132  1  0  0  0  0
 13 60  2  0  0  0  0
 61 14  1  6  0  0  0
 14135  1  0  0  0  0
 63 15  1  1  0  0  0
 15136  1  0  0  0  0
 64 16  1  6  0  0  0
 16137  1  0  0  0  0
 65 17  1  1  0  0  0
 17138  1  0  0  0  0
 18 66  1  0  0  0  0
 18139  1  0  0  0  0
 68 19  1  6  0  0  0
 19140  1  0  0  0  0
 20 69  1  0  0  0  0
 20141  1  0  0  0  0
 21 69  2  0  0  0  0
 22 24  1  0  0  0  0
 22 25  1  0  0  0  0
 22 27  1  0  0  0  0
 22 38  1  1  0  0  0
 23 24  1  0  0  0  0
 23 26  1  0  0  0  0
 23 34  1  0  0  0  0
 23 40  1  1  0  0  0
 24 37  1  0  0  0  0
 24 70  1  6  0  0  0
 25 30  1  0  0  0  0
 25 33  1  0  0  0  0
 25 41  1  6  0  0  0
 26 28  1  0  0  0  0
 26 29  1  0  0  0  0
 26 71  1  6  0  0  0
 27 29  1  0  0  0  0
 27 72  1  0  0  0  0
 27 73  1  0  0  0  0
 28 36  1  0  0  0  0
 28 46  1  0  0  0  0
 28 47  1  0  0  0  0
 29 74  1  0  0  0  0
 29 75  1  0  0  0  0
 30 31  1  0  0  0  0
 30 42  2  0  0  0  0
 31 32  1  0  0  0  0
 31 43  1  0  0  0  0
 31 76  1  1  0  0  0
 32 35  1  0  0  0  0
 32 44  1  0  0  0  0
 32 49  1  1  0  0  0
 33 35  1  0  0  0  0
 33 77  1  0  0  0  0
 33 78  1  0  0  0  0
 34 39  1  0  0  0  0
 34 79  1  0  0  0  0
 34 80  1  0  0  0  0
 35 81  1  0  0  0  0
 35 82  1  0  0  0  0
 36 39  1  0  0  0  0
 36 83  1  0  0  0  0
 37 42  1  0  0  0  0
 38 84  1  0  0  0  0
 38 85  1  0  0  0  0
 38 86  1  0  0  0  0
 39 87  1  0  0  0  0
 39 88  1  0  0  0  0
 40 89  1  0  0  0  0
 40 90  1  0  0  0  0
 40 91  1  0  0  0  0
 41 92  1  0  0  0  0
 41 93  1  0  0  0  0
 41 94  1  0  0  0  0
 42 95  1  0  0  0  0
 43 45  1  0  0  0  0
 43 96  1  0  0  0  0
 43 97  1  0  0  0  0
 44 48  1  0  0  0  0
 44 98  1  0  0  0  0
 44 99  1  0  0  0  0
 45 48  1  0  0  0  0
 45 50  1  6  0  0  0
 45 51  1  0  0  0  0
 46100  1  0  0  0  0
 46101  1  0  0  0  0
 46102  1  0  0  0  0
 47103  1  0  0  0  0
 47104  1  0  0  0  0
 47105  1  0  0  0  0
 48106  1  0  0  0  0
 48107  1  0  0  0  0
 49108  1  0  0  0  0
 49109  1  0  0  0  0
 49110  1  0  0  0  0
 50111  1  0  0  0  0
 50112  1  0  0  0  0
 50113  1  0  0  0  0
 52 53  1  0  0  0  0
 52114  1  0  0  0  0
 53 54  1  0  0  0  0
 53115  1  0  0  0  0
 54 56  1  0  0  0  0
 54116  1  0  0  0  0
 55 56  1  0  0  0  0
 55 60  1  1  0  0  0
 55117  1  0  0  0  0
 56118  1  0  0  0  0
 57 58  1  0  0  0  0
 57119  1  0  0  0  0
 58 61  1  0  0  0  0
 58120  1  0  0  0  0
 59 64  1  0  0  0  0
 59121  1  0  0  0  0
 61 63  1  0  0  0  0
 61123  1  0  0  0  0
 62 63  1  0  0  0  0
 62 66  1  6  0  0  0
 62125  1  0  0  0  0
 63126  1  0  0  0  0
 64 65  1  0  0  0  0
 64127  1  0  0  0  0
 65 68  1  0  0  0  0
 65129  1  0  0  0  0
 66130  1  0  0  0  0
 66131  1  0  0  0  0
 67 68  1  0  0  0  0
 67 69  1  1  0  0  0
 67133  1  0  0  0  0
 68134  1  0  0  0  0
M  END
> <PUBCHEM_COMPOUND_CID>
14187172

> <PUBCHEM_COMPOUND_CANONICALIZED>
1

> <PUBCHEM_CACTVS_COMPLEXITY>
2050

> <PUBCHEM_CACTVS_HBOND_ACCEPTOR>
21

> <PUBCHEM_CACTVS_HBOND_DONOR>
11

> <PUBCHEM_CACTVS_ROTATABLE_BOND>
10

> <PUBCHEM_CACTVS_SUBSKEYS>
AAADcfB8PgAAAAAAAAAAAAAAAAAAAAAAAAA0aNGCAAAAAADAAAAAGgAACAAADxSwgAMCCAAABgCIAqDSCAIAAAAgAAAACAFAAEgREBYAAQQiQAAFoAAPAQPK7PzPgAAAAAAAAADAAAYAADAAAAAAAAAAAA==

> <PUBCHEM_IUPAC_OPENEYE_NAME>
(2S,3S,4S,5R,6R)-6-[(2R,3R,4S,5S,6S)-2-[[(3S,4aR,6aR,6bS,8aS,11S,12aR,14aR,14bS)-4,4,6a,6b,8a,11,14b-heptamethyl-14-oxo-11-[(2S,3R,4S,5S,6R)-3,4,5-trihydroxy-6-(hydroxymethyl)tetrahydropyran-2-yl]oxycarbonyl-2,3,4a,5,6,7,8,9,10,12,12a,14a-dodecahydro-1H-picen-3-yl]oxy]-6-carboxy-4,5-dihydroxy-tetrahydropyran-3-yl]oxy-3,4,5-trihydroxy-tetrahydropyran-2-carboxylic acid

> <PUBCHEM_IUPAC_CAS_NAME>
(2S,3S,4S,5R,6R)-6-[[(2R,3R,4S,5S,6S)-2-[[(3S,4aR,6aR,6bS,8aS,11S,12aR,14aR,14bS)-4,4,6a,6b,8a,11,14b-heptamethyl-14-oxo-11-[oxo-[[(2S,3R,4S,5S,6R)-3,4,5-trihydroxy-6-(hydroxymethyl)-2-oxanyl]oxy]methyl]-2,3,4a,5,6,7,8,9,10,12,12a,14a-dodecahydro-1H-picen-3-yl]oxy]-6-carboxy-4,5-dihydroxy-3-oxanyl]oxy]-3,4,5-trihydroxy-2-oxanecarboxylic acid

> <PUBCHEM_IUPAC_NAME_MARKUP>
(2<I>S</I>,3<I>S</I>,4<I>S</I>,5<I>R</I>,6<I>R</I>)-6-[(2<I>R</I>,3<I>R</I>,4<I>S</I>,5<I>S</I>,6<I>S</I>)-2-[[(3<I>S</I>,4<I>a</I><I>R</I>,6<I>a</I><I>R</I>,6<I>b</I><I>S</I>,8<I>a</I><I>S</I>,11<I>S</I>,12<I>a</I><I>R</I>,14<I>a</I><I>R</I>,14<I>b</I><I>S</I>)-4,4,6<I>a</I>,6<I>b</I>,8<I>a</I>,11,14<I>b</I>-heptamethyl-14-oxo-11-[(2<I>S</I>,3<I>R</I>,4<I>S</I>,5<I>S</I>,6<I>R</I>)-3,4,5-trihydroxy-6-(hydroxymethyl)oxan-2-yl]oxycarbonyl-2,3,4<I>a</I>,5,6,7,8,9,10,12,12<I>a</I>,14<I>a</I>-dodecahydro-1<I>H</I>-picen-3-yl]oxy]-6-carboxy-4,5-dihydroxyoxan-3-yl]oxy-3,4,5-trihydroxyoxane-2-carboxylic acid

> <PUBCHEM_IUPAC_NAME>
(2S,3S,4S,5R,6R)-6-[(2R,3R,4S,5S,6S)-2-[[(3S,4aR,6aR,6bS,8aS,11S,12aR,14aR,14bS)-4,4,6a,6b,8a,11,14b-heptamethyl-14-oxo-11-[(2S,3R,4S,5S,6R)-3,4,5-trihydroxy-6-(hydroxymethyl)oxan-2-yl]oxycarbonyl-2,3,4a,5,6,7,8,9,10,12,12a,14a-dodecahydro-1H-picen-3-yl]oxy]-6-carboxy-4,5-dihydroxyoxan-3-yl]oxy-3,4,5-trihydroxyoxane-2-carboxylic acid

> <PUBCHEM_IUPAC_SYSTEMATIC_NAME>
(2S,3S,4S,5R,6R)-6-[(2R,3R,4S,5S,6S)-2-[[(3S,4aR,6aR,6bS,8aS,11S,12aR,14aR,14bS)-11-[(2S,3R,4S,5S,6R)-6-(hydroxymethyl)-3,4,5-tris(oxidanyl)oxan-2-yl]oxycarbonyl-4,4,6a,6b,8a,11,14b-heptamethyl-14-oxidanylidene-2,3,4a,5,6,7,8,9,10,12,12a,14a-dodecahydro-1H-picen-3-yl]oxy]-6-carboxy-4,5-bis(oxidanyl)oxan-3-yl]oxy-3,4,5-tris(oxidanyl)oxane-2-carboxylic acid

> <PUBCHEM_IUPAC_TRADITIONAL_NAME>
(2S,3S,4S,5R,6R)-6-[(2R,3R,4S,5S,6S)-2-[[(3S,4aR,6aR,6bS,8aS,11S,12aR,14aR,14bS)-14-keto-4,4,6a,6b,8a,11,14b-heptamethyl-11-[(2S,3R,4S,5S,6R)-3,4,5-trihydroxy-6-methylol-tetrahydropyran-2-yl]oxycarbonyl-2,3,4a,5,6,7,8,9,10,12,12a,14a-dodecahydro-1H-picen-3-yl]oxy]-6-carboxy-4,5-dihydroxy-tetrahydropyran-3-yl]oxy-3,4,5-trihydroxy-tetrahydropyran-2-carboxylic acid

> <PUBCHEM_IUPAC_INCHI>
InChI=1S/C48H72O21/c1-43(2)23-8-11-48(7)36(21(50)16-19-20-17-45(4,13-12-44(20,3)14-15-47(19,48)6)42(63)69-39-31(57)26(52)25(51)22(18-49)64-39)46(23,5)10-9-24(43)65-41-35(30(56)29(55)34(67-41)38(61)62)68-40-32(58)27(53)28(54)33(66-40)37(59)60/h16,20,22-36,39-41,49,51-58H,8-15,17-18H2,1-7H3,(H,59,60)(H,61,62)/t20-,22+,23-,24-,25+,26-,27-,28-,29-,30-,31+,32+,33-,34-,35+,36+,39-,40-,41+,44+,45-,46-,47+,48+/m0/s1

> <PUBCHEM_IUPAC_INCHIKEY>
HJFOOTRGDAPZMV-SMVKYPPISA-N

> <PUBCHEM_XLOGP3_AA>
1.9

> <PUBCHEM_EXACT_MASS>
984.45660930

> <PUBCHEM_MOLECULAR_FORMULA>
C48H72O21

> <PUBCHEM_MOLECULAR_WEIGHT>
985.1

> <PUBCHEM_REFERENCE_STANDARDIZATION>
Bypass - this structure was created from CID 14187172

> <PUBCHEM_OPENEYE_CAN_SMILES>
CC1(C2CCC3(C(C2(CCC1OC4C(C(C(C(O4)C(=O)O)O)O)OC5C(C(C(C(O5)C(=O)O)O)O)O)C)C(=O)C=C6C3(CCC7(C6CC(CC7)(C)C(=O)OC8C(C(C(C(O8)CO)O)O)O)C)C)C)C

> <PUBCHEM_OPENEYE_ISO_SMILES>
C[C@]12CC[C@](C[C@H]1C3=CC(=O)[C@@H]4[C@]5(CC[C@@H](C([C@@H]5CC[C@]4([C@@]3(CC2)C)C)(C)C)O[C@H]6[C@@H]([C@H]([C@@H]([C@H](O6)C(=O)O)O)O)O[C@H]7[C@@H]([C@H]([C@@H]([C@H](O7)C(=O)O)O)O)O)C)(C)C(=O)O[C@H]8[C@@H]([C@H]([C@@H]([C@H](O8)CO)O)O)O

> <PUBCHEM_CACTVS_TPSA>
346

> <PUBCHEM_MONOISOTOPIC_WEIGHT>
984.45660930

> <PUBCHEM_TOTAL_CHARGE>
0

> <PUBCHEM_HEAVY_ATOM_COUNT>
69

> <PUBCHEM_ATOM_DEF_STEREO_COUNT>
24

> <PUBCHEM_ATOM_UDEF_STEREO_COUNT>
0

> <PUBCHEM_BOND_DEF_STEREO_COUNT>
0

> <PUBCHEM_BOND_UDEF_STEREO_COUNT>
0

> <PUBCHEM_ISOTOPIC_ATOM_COUNT>
0

> <PUBCHEM_COMPONENT_COUNT>
1

> <PUBCHEM_CACTVS_TAUTO_COUNT>
-1

> <PUBCHEM_COORDINATE_TYPE>
1
5
255

> <PUBCHEM_BONDANNOTATIONS>
36  1  5
52  1  5
58  11  5
61  14  6
63  15  5
64  16  6
65  17  5
68  19  6
22  38  5
23  40  5
24  70  6
25  41  6
26  71  6
57  3  6
31  76  5
32  49  5
45  50  6
55  60  5
53  6  6
59  6  5
62  66  6
67  69  5
54  7  5
56  9  6

$$$$
