JBB41_0019.mol
  ChemDraw04092412262D

 33 36  0  0  1  0  0  0  0  0999 V2000
   -0.3572    1.6500    0.0000 C   0  0  0  0  0  0  0  0  0  0  0  0
   -0.3572    0.8250    0.0000 C   0  0  0  0  0  0  0  0  0  0  0  0
   -1.0717    0.4125    0.0000 C   0  0  0  0  0  0  0  0  0  0  0  0
   -1.7862    0.8250    0.0000 C   0  0  0  0  0  0  0  0  0  0  0  0
   -2.5006    0.4125    0.0000 C   0  0  0  0  0  0  0  0  0  0  0  0
   -2.5006   -0.4125    0.0000 O   0  0  0  0  0  0  0  0  0  0  0  0
   -3.2151    0.8250    0.0000 C   0  0  0  0  0  0  0  0  0  0  0  0
   -3.2151    1.6500    0.0000 C   0  0  0  0  0  0  0  0  0  0  0  0
   -3.9296    2.0625    0.0000 O   0  0  0  0  0  0  0  0  0  0  0  0
   -2.5006    2.0625    0.0000 C   0  0  0  0  0  0  0  0  0  0  0  0
   -1.7862    1.6500    0.0000 C   0  0  0  0  0  0  0  0  0  0  0  0
   -1.0717    2.0625    0.0000 O   0  0  0  0  0  0  0  0  0  0  0  0
    0.3572    2.0625    0.0000 C   0  0  0  0  0  0  0  0  0  0  0  0
    1.0717    1.6500    0.0000 C   0  0  0  0  0  0  0  0  0  0  0  0
    1.7862    2.0625    0.0000 C   0  0  0  0  0  0  0  0  0  0  0  0
    2.5006    1.6500    0.0000 O   0  0  0  0  0  0  0  0  0  0  0  0
    1.7862    2.8875    0.0000 C   0  0  0  0  0  0  0  0  0  0  0  0
    2.5006    3.3000    0.0000 O   0  0  0  0  0  0  0  0  0  0  0  0
    1.0717    3.3000    0.0000 C   0  0  0  0  0  0  0  0  0  0  0  0
    0.3572    2.8875    0.0000 C   0  0  0  0  0  0  0  0  0  0  0  0
    0.3572   -0.4125    0.0000 C   0  0  0  0  0  0  0  0  0  0  0  0
    1.0717   -0.8250    0.0000 C   0  0  0  0  0  0  0  0  0  0  0  0
    1.0717   -1.6500    0.0000 C   0  0  0  0  0  0  0  0  0  0  0  0
    1.7862   -2.0625    0.0000 C   0  0  0  0  0  0  0  0  0  0  0  0
    2.5006   -1.6500    0.0000 C   0  0  0  0  0  0  0  0  0  0  0  0
    3.2151   -2.0625    0.0000 C   0  0  0  0  0  0  0  0  0  0  0  0
    3.9296   -1.6500    0.0000 O   0  0  0  0  0  0  0  0  0  0  0  0
    3.2151   -2.8875    0.0000 C   0  0  0  0  0  0  0  0  0  0  0  0
    3.9296   -3.3000    0.0000 O   0  0  0  0  0  0  0  0  0  0  0  0
    2.5006   -3.3000    0.0000 C   0  0  0  0  0  0  0  0  0  0  0  0
    1.7862   -2.8875    0.0000 C   0  0  0  0  0  0  0  0  0  0  0  0
   -0.3572   -0.8250    0.0000 O   0  0  0  0  0  0  0  0  0  0  0  0
    0.3572    0.4125    0.0000 O   0  0  0  0  0  0  0  0  0  0  0  0
  1  2  1  0      
  2  3  1  0      
  3  4  1  0      
  4  5  1  0      
  5  6  1  0      
  5  7  2  0      
  7  8  1  0      
  8  9  1  0      
  8 10  2  0      
 10 11  1  0      
  4 11  2  0      
 11 12  1  0      
  1 12  1  0      
  1 13  1  6      
 13 14  1  0      
 14 15  2  0      
 15 16  1  0      
 15 17  1  0      
 17 18  1  0      
 17 19  2  0      
 19 20  1  0      
 13 20  2  0      
 21 22  1  0      
 23 24  1  0      
 24 25  1  0      
 25 26  2  0      
 26 27  1  0      
 26 28  1  0      
 28 29  1  0      
 28 30  2  0      
 30 31  1  0      
 24 31  2  0      
 21 32  2  0      
 21 33  1  0      
  2 33  1  6      
 22 23  2  0      
M  END
