135410114
     RDKit          2D

 56 57  0  0  1  0  0  0  0  0999 V2000
   21.3660    2.0981    0.0000 O   0  0  0  0  0  0  0  0  0  0  0  0
   18.7680    3.5981    0.0000 O   0  0  0  0  0  0  0  0  0  0  0  0
   21.0000    0.7321    0.0000 O   0  0  0  0  0  0  0  0  0  0  0  0
   18.5000    1.5981    0.0000 O   0  0  0  0  0  0  0  0  0  0  0  0
   14.5000   -0.1340    0.0000 O   0  0  0  0  0  0  0  0  0  0  0  0
   13.0000    0.7321    0.0000 O   0  0  0  0  0  0  0  0  0  0  0  0
   11.0000   -1.0000    0.0000 O   0  0  0  0  0  0  0  0  0  0  0  0
    5.5000   -3.5981    0.0000 O   0  0  0  0  0  0  0  0  0  0  0  0
    4.0000   -1.0000    0.0000 O   0  0  0  0  0  0  0  0  0  0  0  0
    4.0000   -4.4641    0.0000 O   0  0  0  0  0  0  0  0  0  0  0  0
   18.5000   -0.1340    0.0000 N   0  0  0  0  0  0  0  0  0  0  0  0
    2.5000   -3.5981    0.0000 N   0  0  0  0  0  0  0  0  0  0  0  0
   20.5000    3.5981    0.0000 C   0  0  0  0  0  0  0  0  0  0  0  0
   19.6340    3.0981    0.0000 C   0  0  0  0  0  0  0  0  0  0  0  0
   20.5000    1.5981    0.0000 C   0  0  0  0  0  0  0  0  0  0  0  0
   19.6340    2.0981    0.0000 C   0  0  0  0  0  0  0  0  0  0  0  0
   21.3660    3.0981    0.0000 C   0  0  0  0  0  0  0  0  0  0  0  0
   20.0000    0.7321    0.0000 C   0  0  0  0  0  0  0  0  0  0  0  0
   21.0000    4.4641    0.0000 C   0  0  0  0  0  0  0  0  0  0  0  0
   20.0000    4.4641    0.0000 C   0  0  0  0  0  0  0  0  0  0  0  0
   20.5000   -0.1340    0.0000 C   0  0  0  0  0  0  0  0  0  0  0  0
   22.2320    3.5981    0.0000 C   0  0  0  0  0  0  0  0  0  0  0  0
   19.0000    0.7321    0.0000 C   0  0  0  0  0  0  0  0  0  0  0  0
   20.0000   -1.0000    0.0000 C   0  0  0  0  0  0  0  0  0  0  0  0
   23.0981    3.0981    0.0000 C   0  0  0  0  0  0  0  0  0  0  0  0
   17.5000   -0.1340    0.0000 C   0  0  0  0  0  0  0  0  0  0  0  0
   23.9641    3.5981    0.0000 C   0  0  0  0  0  0  0  0  0  0  0  0
   17.0000   -1.0000    0.0000 C   0  0  0  0  0  0  0  0  0  0  0  0
   24.8301    3.0981    0.0000 C   0  0  0  0  0  0  0  0  0  0  0  0
   16.0000   -1.0000    0.0000 C   0  0  0  0  0  0  0  0  0  0  0  0
   13.0000   -1.0000    0.0000 C   0  0  0  0  0  0  0  0  0  0  0  0
   24.8301    2.0981    0.0000 C   0  0  0  0  0  0  0  0  0  0  0  0
   14.0000   -1.0000    0.0000 C   0  0  0  0  0  0  0  0  0  0  0  0
   12.5000   -0.1340    0.0000 C   0  0  0  0  0  0  0  0  0  0  0  0
   14.5000   -1.8660    0.0000 C   0  0  0  0  0  0  0  0  0  0  0  0
   15.5000   -1.8660    0.0000 C   0  0  0  0  0  0  0  0  0  0  0  0
   12.5000   -1.8660    0.0000 C   0  0  0  0  0  0  0  0  0  0  0  0
   11.5000   -0.1340    0.0000 C   0  0  0  0  0  0  0  0  0  0  0  0
   14.0000   -2.7320    0.0000 C   0  0  0  0  0  0  0  0  0  0  0  0
   11.0000    0.7321    0.0000 C   0  0  0  0  0  0  0  0  0  0  0  0
   14.0000    0.7321    0.0000 C   0  0  0  0  0  0  0  0  0  0  0  0
   10.0000    0.7321    0.0000 C   0  0  0  0  0  0  0  0  0  0  0  0
    9.5000   -0.1340    0.0000 C   0  0  0  0  0  0  0  0  0  0  0  0
    8.5000   -0.1340    0.0000 C   0  0  0  0  0  0  0  0  0  0  0  0
    8.0000   -1.0000    0.0000 C   0  0  0  0  0  0  0  0  0  0  0  0
    7.0000   -1.0000    0.0000 C   0  0  0  0  0  0  0  0  0  0  0  0
    6.5000   -1.8660    0.0000 C   0  0  0  0  0  0  0  0  0  0  0  0
    5.5000   -1.8660    0.0000 C   0  0  0  0  0  0  0  0  0  0  0  0
    5.0000   -2.7320    0.0000 C   0  0  0  0  0  0  0  0  0  0  0  0
    5.0000   -1.0000    0.0000 C   0  0  0  0  0  0  0  0  0  0  0  0
    4.0000   -2.7320    0.0000 C   0  0  0  0  0  0  0  0  0  0  0  0
    3.5000   -3.5981    0.0000 C   0  0  0  0  0  0  0  0  0  0  0  0
    3.5000   -1.8660    0.0000 C   0  0  0  0  0  0  0  0  0  0  0  0
    2.5000   -1.8660    0.0000 C   0  0  0  0  0  0  0  0  0  0  0  0
    2.0000   -2.7320    0.0000 C   0  0  0  0  0  0  0  0  0  0  0  0
    2.0000   -4.4641    0.0000 C   0  0  0  0  0  0  0  0  0  0  0  0
  1 15  1  0
  1 17  1  0
 14  2  1  6
 15  3  1  1
  4 23  2  0
 33  5  1  1
  5 41  1  0
  6 34  1  0
 38  7  1  1
  8 49  2  0
  9 53  1  0
 10 52  2  0
 11 23  1  0
 11 26  1  0
 12 52  1  0
 12 55  1  0
 12 56  1  0
 13 14  1  0
 13 17  1  0
 13 19  1  0
 13 20  1  0
 14 16  1  0
 15 16  1  0
 15 18  1  0
 17 22  1  6
 18 21  1  0
 18 23  1  0
 21 24  1  0
 22 25  2  0
 25 27  1  0
 26 28  1  0
 27 29  2  0
 28 30  2  0
 29 32  1  0
 30 36  1  0
 31 33  1  0
 31 34  1  0
 31 37  1  1
 33 35  1  0
 34 38  1  0
 35 36  2  0
 35 39  1  0
 38 40  1  0
 40 42  2  0
 42 43  1  0
 43 44  2  0
 44 45  1  0
 45 46  2  0
 46 47  1  0
 47 48  2  0
 48 49  1  0
 48 50  1  0
 49 51  1  0
 51 52  1  0
 51 53  2  0
 53 54  1  0
 54 55  2  0
M  END
>  <PUBCHEM_COMPOUND_CID>  (1) 
135410114

>  <PUBCHEM_COMPOUND_CANONICALIZED>  (1) 
1

>  <PUBCHEM_CACTVS_COMPLEXITY>  (1) 
1680

>  <PUBCHEM_CACTVS_HBOND_ACCEPTOR>  (1) 
10

>  <PUBCHEM_CACTVS_HBOND_DONOR>  (1) 
6

>  <PUBCHEM_CACTVS_ROTATABLE_BOND>  (1) 
19

>  <PUBCHEM_CACTVS_SUBSKEYS>  (1) 
AAADcfB/PAAAAAAAAAAAAAAAAAAAAAAAAAAkQAAAAAAAAAAAAAAAHgAQCAAADxThgAYCCAPABgCIAqFWUACAAAAgIgAICIEIAEgZFB4IoQAGUAAH9gCNsYPY/ObPAAAAAAAAAAAAAAAAAAAAAAAAAAAAAA==

>  <PUBCHEM_IUPAC_OPENEYE_NAME>  (1) 
2-[(2S,4S,6S)-2,4-dihydroxy-5,5-dimethyl-6-[(1E,3Z)-penta-1,3-dienyl]tetrahydropyran-2-yl]-N-[(2E,4Z,6R,7S,9S,10Z,12E,14E,16E)-8,9-dihydroxy-18-(4-hydroxy-1-methyl-2-oxo-3-pyridyl)-6-methoxy-5,7,17-trimethyl-18-oxo-octadeca-2,4,10,12,14,16-hexaenyl]butanamide

>  <PUBCHEM_IUPAC_CAS_NAME>  (1) 
2-[(2S,4S,6S)-2,4-dihydroxy-5,5-dimethyl-6-[(1E,3Z)-penta-1,3-dienyl]-2-oxanyl]-N-[(2E,4Z,6R,7S,9S,10Z,12E,14E,16E)-8,9-dihydroxy-18-(4-hydroxy-1-methyl-2-oxo-3-pyridinyl)-6-methoxy-5,7,17-trimethyl-18-oxooctadeca-2,4,10,12,14,16-hexaenyl]butanamide

>  <PUBCHEM_IUPAC_NAME_MARKUP>  (1) 
2-[(2<I>S</I>,4<I>S</I>,6<I>S</I>)-2,4-dihydroxy-5,5-dimethyl-6-[(1<I>E</I>,3<I>Z</I>)-penta-1,3-dienyl]oxan-2-yl]-<I>N</I>-[(2<I>E</I>,4<I>Z</I>,6<I>R</I>,7<I>S</I>,9<I>S</I>,10<I>Z</I>,12<I>E</I>,14<I>E</I>,16<I>E</I>)-8,9-dihydroxy-18-(4-hydroxy-1-methyl-2-oxopyridin-3-yl)-6-methoxy-5,7,17-trimethyl-18-oxooctadeca-2,4,10,12,14,16-hexaenyl]butanamide

>  <PUBCHEM_IUPAC_NAME>  (1) 
2-[(2S,4S,6S)-2,4-dihydroxy-5,5-dimethyl-6-[(1E,3Z)-penta-1,3-dienyl]oxan-2-yl]-N-[(2E,4Z,6R,7S,9S,10Z,12E,14E,16E)-8,9-dihydroxy-18-(4-hydroxy-1-methyl-2-oxopyridin-3-yl)-6-methoxy-5,7,17-trimethyl-18-oxooctadeca-2,4,10,12,14,16-hexaenyl]butanamide

>  <PUBCHEM_IUPAC_SYSTEMATIC_NAME>  (1) 
2-[(2S,4S,6S)-5,5-dimethyl-2,4-bis(oxidanyl)-6-[(1E,3Z)-penta-1,3-dienyl]oxan-2-yl]-N-[(2E,4Z,6R,7S,9S,10Z,12E,14E,16E)-6-methoxy-5,7,17-trimethyl-18-(1-methyl-4-oxidanyl-2-oxidanylidene-pyridin-3-yl)-8,9-bis(oxidanyl)-18-oxidanylidene-octadeca-2,4,10,12,14,16-hexaenyl]butanamide

>  <PUBCHEM_IUPAC_TRADITIONAL_NAME>  (1) 
2-[(2S,4S,6S)-2,4-dihydroxy-5,5-dimethyl-6-[(1E,3Z)-penta-1,3-dienyl]tetrahydropyran-2-yl]-N-[(2E,4Z,6R,7S,9S,10Z,12E,14E,16E)-8,9-dihydroxy-18-(4-hydroxy-2-keto-1-methyl-3-pyridyl)-18-keto-6-methoxy-5,7,17-trimethyl-octadeca-2,4,10,12,14,16-hexaenyl]butyramide

>  <PUBCHEM_IUPAC_INCHI>  (1) 
InChI=1S/C44H62N2O10/c1-10-12-16-24-36-43(6,7)35(49)28-44(54,56-36)32(11-2)41(52)45-26-20-19-22-30(4)40(55-9)31(5)39(51)34(48)23-18-15-13-14-17-21-29(3)38(50)37-33(47)25-27-46(8)42(37)53/h10,12-25,27,31-32,34-36,39-40,47-49,51,54H,11,26,28H2,1-9H3,(H,45,52)/b12-10-,15-13+,17-14+,20-19+,23-18-,24-16+,29-21+,30-22-/t31-,32?,34-,35-,36-,39?,40-,44-/m0/s1

>  <PUBCHEM_IUPAC_INCHIKEY>  (1) 
HMBDLBWGDMNPDW-SUXULKRESA-N

>  <PUBCHEM_XLOGP3_AA>  (1) 
5.9

>  <PUBCHEM_EXACT_MASS>  (1) 
778.44044618

>  <PUBCHEM_MOLECULAR_FORMULA>  (1) 
C44H62N2O10

>  <PUBCHEM_MOLECULAR_WEIGHT>  (1) 
779.0

>  <PUBCHEM_OPENEYE_CAN_SMILES>  (1) 
CCC(C(=O)NCC=CC=C(C)C(C(C)C(C(C=CC=CC=CC=C(C)C(=O)C1=C(C=CN(C1=O)C)O)O)O)OC)C2(CC(C(C(O2)C=CC=CC)(C)C)O)O

>  <PUBCHEM_OPENEYE_ISO_SMILES>  (1) 
CCC(C(=O)NC/C=C/C=C(/C)\[C@@H]([C@@H](C)C([C@H](/C=C\C=C\C=C\C=C(/C)\C(=O)C1=C(C=CN(C1=O)C)O)O)O)OC)[C@@]2(C[C@@H](C([C@@H](O2)/C=C/C=C\C)(C)C)O)O

>  <PUBCHEM_CACTVS_TPSA>  (1) 
186

>  <PUBCHEM_MONOISOTOPIC_WEIGHT>  (1) 
778.44044618

>  <PUBCHEM_TOTAL_CHARGE>  (1) 
0

>  <PUBCHEM_HEAVY_ATOM_COUNT>  (1) 
56

>  <PUBCHEM_ATOM_DEF_STEREO_COUNT>  (1) 
6

>  <PUBCHEM_ATOM_UDEF_STEREO_COUNT>  (1) 
2

>  <PUBCHEM_BOND_DEF_STEREO_COUNT>  (1) 
8

>  <PUBCHEM_BOND_UDEF_STEREO_COUNT>  (1) 
0

>  <PUBCHEM_ISOTOPIC_ATOM_COUNT>  (1) 
0

>  <PUBCHEM_COMPONENT_COUNT>  (1) 
1

>  <PUBCHEM_CACTVS_TAUTO_COUNT>  (1) 
-1

>  <PUBCHEM_COORDINATE_TYPE>  (1) 
1
5
255

>  <PUBCHEM_BONDANNOTATIONS>  (1) 
12  52  8
12  55  8
17  22  6
18  21  3
14  2  6
15  3  5
31  37  5
33  5  5
51  52  8
51  53  8
53  54  8
54  55  8
34  6  3
38  7  5

$$$$
