442793
     RDKit          2D

 21 21  0  0  1  0  0  0  0  0999 V2000
    8.5991   -0.7500    0.0000 O   0  0  0  0  0  0  0  0  0  0  0  0
    7.7331    0.7500    0.0000 O   0  0  0  0  0  0  0  0  0  0  0  0
    4.2690    4.7500    0.0000 O   0  0  0  0  0  0  0  0  0  0  0  0
    2.5369    3.7500    0.0000 O   0  0  0  0  0  0  0  0  0  0  0  0
    7.7331   -2.2500    0.0000 C   0  0  0  0  0  0  0  0  0  0  0  0
    7.7331   -1.2500    0.0000 C   0  0  0  0  0  0  0  0  0  0  0  0
    8.5991   -2.7500    0.0000 C   0  0  0  0  0  0  0  0  0  0  0  0
    6.8671   -0.7500    0.0000 C   0  0  0  0  0  0  0  0  0  0  0  0
    8.5991   -3.7500    0.0000 C   0  0  0  0  0  0  0  0  0  0  0  0
    6.8671    0.2500    0.0000 C   0  0  0  0  0  0  0  0  0  0  0  0
    9.4651   -4.2500    0.0000 C   0  0  0  0  0  0  0  0  0  0  0  0
    6.0010    0.7500    0.0000 C   0  0  0  0  0  0  0  0  0  0  0  0
    6.0010    1.7500    0.0000 C   0  0  0  0  0  0  0  0  0  0  0  0
    5.1350    2.2500    0.0000 C   0  0  0  0  0  0  0  0  0  0  0  0
    9.4651   -5.2500    0.0000 C   0  0  0  0  0  0  0  0  0  0  0  0
    5.1350    3.2500    0.0000 C   0  0  0  0  0  0  0  0  0  0  0  0
    4.2690    1.7500    0.0000 C   0  0  0  0  0  0  0  0  0  0  0  0
    4.2690    3.7500    0.0000 C   0  0  0  0  0  0  0  0  0  0  0  0
    3.4030    2.2500    0.0000 C   0  0  0  0  0  0  0  0  0  0  0  0
    3.4030    3.2500    0.0000 C   0  0  0  0  0  0  0  0  0  0  0  0
    5.1350    5.2500    0.0000 C   0  0  0  0  0  0  0  0  0  0  0  0
  6  1  1  1
  2 10  2  0
  3 18  1  0
  3 21  1  0
  4 20  1  0
  5  6  1  0
  5  7  1  0
  6  8  1  0
  7  9  1  0
  8 10  1  0
  9 11  1  0
 10 12  1  0
 11 15  1  0
 12 13  1  0
 13 14  1  0
 14 16  2  0
 14 17  1  0
 16 18  1  0
 17 19  2  0
 18 20  2  0
 19 20  1  0
M  END
>  <PUBCHEM_COMPOUND_CID>  (1) 
442793

>  <PUBCHEM_COMPOUND_CANONICALIZED>  (1) 
1

>  <PUBCHEM_CACTVS_COMPLEXITY>  (1) 
293

>  <PUBCHEM_CACTVS_HBOND_ACCEPTOR>  (1) 
4

>  <PUBCHEM_CACTVS_HBOND_DONOR>  (1) 
2

>  <PUBCHEM_CACTVS_ROTATABLE_BOND>  (1) 
10

>  <PUBCHEM_CACTVS_SUBSKEYS>  (1) 
AAADceB4OAAAAAAAAAAAAAAAAAAAAAAAAAAwAAAAAAAAAAABAAAAGgAACAAADBSgmAIyBoAABgCIAqBSAAACCAAgIAAIiAEGiIgNNjaGMRqAcCMk4BELuAeIyPCOIAABAAAAQABAAAIAAACAAAAAAAAAAA==

>  <PUBCHEM_IUPAC_OPENEYE_NAME>  (1) 
(5S)-5-hydroxy-1-(4-hydroxy-3-methoxy-phenyl)decan-3-one

>  <PUBCHEM_IUPAC_CAS_NAME>  (1) 
(5S)-5-hydroxy-1-(4-hydroxy-3-methoxyphenyl)-3-decanone

>  <PUBCHEM_IUPAC_NAME_MARKUP>  (1) 
(5<I>S</I>)-5-hydroxy-1-(4-hydroxy-3-methoxyphenyl)decan-3-one

>  <PUBCHEM_IUPAC_NAME>  (1) 
(5S)-5-hydroxy-1-(4-hydroxy-3-methoxyphenyl)decan-3-one

>  <PUBCHEM_IUPAC_SYSTEMATIC_NAME>  (1) 
(5S)-1-(3-methoxy-4-oxidanyl-phenyl)-5-oxidanyl-decan-3-one

>  <PUBCHEM_IUPAC_TRADITIONAL_NAME>  (1) 
(5S)-5-hydroxy-1-(4-hydroxy-3-methoxy-phenyl)decan-3-one

>  <PUBCHEM_IUPAC_INCHI>  (1) 
InChI=1S/C17H26O4/c1-3-4-5-6-14(18)12-15(19)9-7-13-8-10-16(20)17(11-13)21-2/h8,10-11,14,18,20H,3-7,9,12H2,1-2H3/t14-/m0/s1

>  <PUBCHEM_IUPAC_INCHIKEY>  (1) 
NLDDIKRKFXEWBK-AWEZNQCLSA-N

>  <PUBCHEM_XLOGP3>  (1) 
2.5

>  <PUBCHEM_EXACT_MASS>  (1) 
294.18310931

>  <PUBCHEM_MOLECULAR_FORMULA>  (1) 
C17H26O4

>  <PUBCHEM_MOLECULAR_WEIGHT>  (1) 
294.4

>  <PUBCHEM_OPENEYE_CAN_SMILES>  (1) 
CCCCCC(CC(=O)CCC1=CC(=C(C=C1)O)OC)O

>  <PUBCHEM_OPENEYE_ISO_SMILES>  (1) 
CCCCC[C@@H](CC(=O)CCC1=CC(=C(C=C1)O)OC)O

>  <PUBCHEM_CACTVS_TPSA>  (1) 
66.8

>  <PUBCHEM_MONOISOTOPIC_WEIGHT>  (1) 
294.18310931

>  <PUBCHEM_TOTAL_CHARGE>  (1) 
0

>  <PUBCHEM_HEAVY_ATOM_COUNT>  (1) 
21

>  <PUBCHEM_ATOM_DEF_STEREO_COUNT>  (1) 
1

>  <PUBCHEM_ATOM_UDEF_STEREO_COUNT>  (1) 
0

>  <PUBCHEM_BOND_DEF_STEREO_COUNT>  (1) 
0

>  <PUBCHEM_BOND_UDEF_STEREO_COUNT>  (1) 
0

>  <PUBCHEM_ISOTOPIC_ATOM_COUNT>  (1) 
0

>  <PUBCHEM_COMPONENT_COUNT>  (1) 
1

>  <PUBCHEM_CACTVS_TAUTO_COUNT>  (1) 
-1

>  <PUBCHEM_COORDINATE_TYPE>  (1) 
1
5
255

>  <PUBCHEM_BONDANNOTATIONS>  (1) 
6  1  5
14  16  8
14  17  8
16  18  8
17  19  8
18  20  8
19  20  8

$$$$
