MCSJ11_0005.mol
  ChemDraw02132413002D

 24 26  0  0  0  0  0  0  0  0999 V2000
   -2.4906    2.2596    0.0000 C   0  0  0  0  0  0  0  0  0  0  0  0
   -2.4906    1.4379    0.0000 C   0  0  0  0  0  0  0  0  0  0  0  0
   -1.7790    1.0271    0.0000 C   0  0  0  0  0  0  0  0  0  0  0  0
   -1.0674    1.4379    0.0000 C   0  0  0  0  0  0  0  0  0  0  0  0
   -1.0674    2.2596    0.0000 C   0  0  0  0  0  0  0  0  0  0  0  0
   -1.7790    2.6704    0.0000 C   0  0  0  0  0  0  0  0  0  0  0  0
   -0.3558    1.0271    0.0000 O   0  0  0  0  0  0  0  0  0  0  0  0
    0.3558    1.4379    0.0000 C   0  0  0  0  0  0  0  0  0  0  0  0
    0.3558    2.2596    0.0000 C   0  0  0  0  0  0  0  0  0  0  0  0
   -0.3558    2.6704    0.0000 C   0  0  0  0  0  0  0  0  0  0  0  0
    1.0674    1.0271    0.0000 C   0  0  0  0  0  0  0  0  0  0  0  0
   -3.2021    1.0271    0.0000 O   0  0  0  0  0  0  0  0  0  0  0  0
    1.0674    0.2054    0.0000 C   0  0  0  0  0  0  0  0  0  0  0  0
    1.7790   -0.2054    0.0000 C   0  0  0  0  0  0  0  0  0  0  0  0
    2.4906    0.2054    0.0000 C   0  0  0  0  0  0  0  0  0  0  0  0
    2.4906    1.0271    0.0000 C   0  0  0  0  0  0  0  0  0  0  0  0
    1.7790    1.4379    0.0000 C   0  0  0  0  0  0  0  0  0  0  0  0
    3.2021    1.4379    0.0000 O   0  0  0  0  0  0  0  0  0  0  0  0
    3.2021   -0.2054    0.0000 O   0  0  0  0  0  0  0  0  0  0  0  0
    1.7790   -1.0271    0.0000 C   0  0  0  0  0  0  0  0  0  0  0  0
    2.4906   -1.4379    0.0000 C   0  0  0  0  0  0  0  0  0  0  0  0
    2.4906   -2.2596    0.0000 C   0  0  0  0  0  0  0  0  0  0  0  0
    3.2021   -2.6704    0.0000 C   0  0  0  0  0  0  0  0  0  0  0  0
    1.7790   -2.6704    0.0000 C   0  0  0  0  0  0  0  0  0  0  0  0
  1  2  2  0      
  2  3  1  0      
  3  4  2  0      
  4  5  1  0      
  5  6  2  0      
  6  1  1  0      
  4  7  1  0      
  7  8  1  0      
  8  9  1  0      
  9 10  1  0      
 10  5  1  0      
  8 11  1  0      
  2 12  1  0      
 11 13  2  0      
 13 14  1  0      
 14 15  2  0      
 15 16  1  0      
 16 17  2  0      
 17 11  1  0      
 16 18  1  0      
 15 19  1  0      
 14 20  1  0      
 20 21  1  0      
 21 22  2  0      
 22 23  1  0      
 22 24  1  0      
M  END
