MCSJ31_0018
  -OEChem-07172407422D

120122  0     1  0  0  0  0  0999 V2000
   10.5724    8.1685    0.0000 O   0  0  0  0  0  0  0  0  0  0  0  0
    7.9743    9.6685    0.0000 O   0  0  0  0  0  0  0  0  0  0  0  0
   10.2063    6.8025    0.0000 O   0  0  0  0  0  0  0  0  0  0  0  0
    7.9743    7.6685    0.0000 O   0  0  0  0  0  0  0  0  0  0  0  0
    8.2118   -1.9623    0.0000 O   0  0  0  0  0  0  0  0  0  0  0  0
   10.7063    5.9364    0.0000 O   0  0  0  0  0  0  0  0  0  0  0  0
   10.5912   -2.9792    0.0000 O   0  0  0  0  0  0  0  0  0  0  0  0
    8.9745   -4.4350    0.0000 O   0  0  0  0  0  0  0  0  0  0  0  0
    8.2064   -0.1257    0.0000 O   0  0  0  0  0  0  0  0  0  0  0  0
    3.2271   -6.9632    0.0000 O   0  0  0  0  0  0  0  0  0  0  0  0
    5.6542   -8.7265    0.0000 O   0  0  0  0  0  0  0  0  0  0  0  0
    2.2091   -8.3644    0.0000 O   0  0  0  0  0  0  0  0  0  0  0  0
    9.2064    5.0704    0.0000 N   0  0  0  0  0  0  0  0  0  0  0  0
    2.9136   -9.9467    0.0000 N   0  0  0  0  0  0  0  0  0  0  0  0
    9.7064    9.6685    0.0000 C   0  0  0  0  0  0  0  0  0  0  0  0
    8.8403    9.1685    0.0000 C   0  0  2  0  0  0  0  0  0  0  0  0
    9.7064    7.6685    0.0000 C   0  0  1  0  0  0  0  0  0  0  0  0
    8.8403    8.1685    0.0000 C   0  0  2  0  0  0  0  0  0  0  0  0
   10.5724    9.1685    0.0000 C   0  0  2  0  0  0  0  0  0  0  0  0
    9.2064    6.8025    0.0000 C   0  0  2  0  0  0  0  0  0  0  0  0
   10.2063   10.5345    0.0000 C   0  0  0  0  0  0  0  0  0  0  0  0
    9.2064   10.5345    0.0000 C   0  0  0  0  0  0  0  0  0  0  0  0
    8.2064    6.8025    0.0000 C   0  0  0  0  0  0  0  0  0  0  0  0
   11.4384    9.6685    0.0000 C   0  0  0  0  0  0  0  0  0  0  0  0
    9.7064    5.9364    0.0000 C   0  0  0  0  0  0  0  0  0  0  0  0
    9.2064   -1.8578    0.0000 C   0  0  2  0  0  0  0  0  0  0  0  0
    9.6131   -2.7713    0.0000 C   0  0  2  0  0  0  0  0  0  0  0  0
    9.7064   -0.9918    0.0000 C   0  0  1  0  0  0  0  0  0  0  0  0
    7.7064    5.9364    0.0000 C   0  0  0  0  0  0  0  0  0  0  0  0
    8.8699   -3.4404    0.0000 C   0  0  2  0  0  0  0  0  0  0  0  0
    8.0039   -2.9404    0.0000 C   0  0  1  0  0  0  0  0  0  0  0  0
   12.3044    9.1685    0.0000 C   0  0  0  0  0  0  0  0  0  0  0  0
    9.2064   -0.1257    0.0000 C   0  0  1  0  0  0  0  0  0  0  0  0
   10.7063   -0.9918    0.0000 C   0  0  0  0  0  0  0  0  0  0  0  0
    9.7064    4.2044    0.0000 C   0  0  0  0  0  0  0  0  0  0  0  0
    9.7064    0.7403    0.0000 C   0  0  0  0  0  0  0  0  0  0  0  0
    7.0904   -3.3472    0.0000 C   0  0  0  0  0  0  0  0  0  0  0  0
   13.1705    9.6685    0.0000 C   0  0  0  0  0  0  0  0  0  0  0  0
    9.2064    3.3384    0.0000 C   0  0  0  0  0  0  0  0  0  0  0  0
    9.2064    1.6063    0.0000 C   0  0  0  0  0  0  0  0  0  0  0  0
   10.7063    0.7403    0.0000 C   0  0  0  0  0  0  0  0  0  0  0  0
    9.7064    2.4724    0.0000 C   0  0  0  0  0  0  0  0  0  0  0  0
    6.9858   -4.3417    0.0000 C   0  0  0  0  0  0  0  0  0  0  0  0
   14.0365    9.1685    0.0000 C   0  0  0  0  0  0  0  0  0  0  0  0
    7.7064    0.7403    0.0000 C   0  0  0  0  0  0  0  0  0  0  0  0
   14.0365    8.1685    0.0000 C   0  0  0  0  0  0  0  0  0  0  0  0
    6.0723   -4.7484    0.0000 C   0  0  0  0  0  0  0  0  0  0  0  0
    5.9678   -5.7430    0.0000 C   0  0  0  0  0  0  0  0  0  0  0  0
    5.0542   -6.1497    0.0000 C   0  0  0  0  0  0  0  0  0  0  0  0
    4.9497   -7.1442    0.0000 C   0  0  0  0  0  0  0  0  0  0  0  0
    5.7587   -7.7320    0.0000 C   0  0  0  0  0  0  0  0  0  0  0  0
    4.0362   -7.5510    0.0000 C   0  0  0  0  0  0  0  0  0  0  0  0
    3.9316   -8.5455    0.0000 C   0  0  0  0  0  0  0  0  0  0  0  0
    3.0181   -8.9522    0.0000 C   0  0  0  0  0  0  0  0  0  0  0  0
    4.7406   -9.1333    0.0000 C   0  0  0  0  0  0  0  0  0  0  0  0
    4.6361  -10.1278    0.0000 C   0  0  0  0  0  0  0  0  0  0  0  0
    3.7226  -10.5345    0.0000 C   0  0  0  0  0  0  0  0  0  0  0  0
    2.0000  -10.3535    0.0000 C   0  0  0  0  0  0  0  0  0  0  0  0
    8.3034    8.8585    0.0000 H   0  0  0  0  0  0  0  0  0  0  0  0
    8.8403    7.5485    0.0000 H   0  0  0  0  0  0  0  0  0  0  0  0
   11.1093    8.8585    0.0000 H   0  0  0  0  0  0  0  0  0  0  0  0
    8.8964    7.3394    0.0000 H   0  0  0  0  0  0  0  0  0  0  0  0
   10.7433   10.2245    0.0000 H   0  0  0  0  0  0  0  0  0  0  0  0
   10.5163   11.0715    0.0000 H   0  0  0  0  0  0  0  0  0  0  0  0
    9.6694   10.8445    0.0000 H   0  0  0  0  0  0  0  0  0  0  0  0
    9.7433   10.8445    0.0000 H   0  0  0  0  0  0  0  0  0  0  0  0
    8.8964   11.0715    0.0000 H   0  0  0  0  0  0  0  0  0  0  0  0
    8.6694   10.2245    0.0000 H   0  0  0  0  0  0  0  0  0  0  0  0
    8.3140    7.4131    0.0000 H   0  0  0  0  0  0  0  0  0  0  0  0
    7.6237    7.0145    0.0000 H   0  0  0  0  0  0  0  0  0  0  0  0
   11.4384   10.2885    0.0000 H   0  0  0  0  0  0  0  0  0  0  0  0
    7.9743   10.2885    0.0000 H   0  0  0  0  0  0  0  0  0  0  0  0
   10.8263    6.8025    0.0000 H   0  0  0  0  0  0  0  0  0  0  0  0
    7.4374    7.9785    0.0000 H   0  0  0  0  0  0  0  0  0  0  0  0
    8.7434   -1.1449    0.0000 H   0  0  0  0  0  0  0  0  0  0  0  0
   10.0033   -2.2895    0.0000 H   0  0  0  0  0  0  0  0  0  0  0  0
   10.0163   -0.4548    0.0000 H   0  0  0  0  0  0  0  0  0  0  0  0
    9.4488   -3.6626    0.0000 H   0  0  0  0  0  0  0  0  0  0  0  0
    7.1694    6.2464    0.0000 H   0  0  0  0  0  0  0  0  0  0  0  0
    7.3964    5.3995    0.0000 H   0  0  0  0  0  0  0  0  0  0  0  0
    8.2433    5.6264    0.0000 H   0  0  0  0  0  0  0  0  0  0  0  0
    7.5221   -2.5503    0.0000 H   0  0  0  0  0  0  0  0  0  0  0  0
   12.3044    8.5485    0.0000 H   0  0  0  0  0  0  0  0  0  0  0  0
    8.8964   -0.6627    0.0000 H   0  0  0  0  0  0  0  0  0  0  0  0
    8.5864    5.0704    0.0000 H   0  0  0  0  0  0  0  0  0  0  0  0
   10.7063   -1.6118    0.0000 H   0  0  0  0  0  0  0  0  0  0  0  0
   11.3263   -0.9918    0.0000 H   0  0  0  0  0  0  0  0  0  0  0  0
   10.7063   -0.3718    0.0000 H   0  0  0  0  0  0  0  0  0  0  0  0
   10.1813    3.8059    0.0000 H   0  0  0  0  0  0  0  0  0  0  0  0
   10.1813    4.6029    0.0000 H   0  0  0  0  0  0  0  0  0  0  0  0
    6.5888   -2.9828    0.0000 H   0  0  0  0  0  0  0  0  0  0  0  0
   10.7828   -3.5689    0.0000 H   0  0  0  0  0  0  0  0  0  0  0  0
   13.1705   10.2885    0.0000 H   0  0  0  0  0  0  0  0  0  0  0  0
    9.5409   -4.6872    0.0000 H   0  0  0  0  0  0  0  0  0  0  0  0
    8.5864    3.3384    0.0000 H   0  0  0  0  0  0  0  0  0  0  0  0
    8.5864    1.6063    0.0000 H   0  0  0  0  0  0  0  0  0  0  0  0
   10.7063    0.1203    0.0000 H   0  0  0  0  0  0  0  0  0  0  0  0
   11.3263    0.7403    0.0000 H   0  0  0  0  0  0  0  0  0  0  0  0
   10.7063    1.3603    0.0000 H   0  0  0  0  0  0  0  0  0  0  0  0
   10.3263    2.4724    0.0000 H   0  0  0  0  0  0  0  0  0  0  0  0
    7.4874   -4.7061    0.0000 H   0  0  0  0  0  0  0  0  0  0  0  0
   14.5734    9.4785    0.0000 H   0  0  0  0  0  0  0  0  0  0  0  0
    8.2433    1.0503    0.0000 H   0  0  0  0  0  0  0  0  0  0  0  0
    7.3964    1.2772    0.0000 H   0  0  0  0  0  0  0  0  0  0  0  0
    7.1694    0.4303    0.0000 H   0  0  0  0  0  0  0  0  0  0  0  0
    5.5707   -4.3840    0.0000 H   0  0  0  0  0  0  0  0  0  0  0  0
   13.4165    8.1685    0.0000 H   0  0  0  0  0  0  0  0  0  0  0  0
   14.0365    7.5485    0.0000 H   0  0  0  0  0  0  0  0  0  0  0  0
   14.6565    8.1685    0.0000 H   0  0  0  0  0  0  0  0  0  0  0  0
    6.4694   -6.1074    0.0000 H   0  0  0  0  0  0  0  0  0  0  0  0
    4.5526   -5.7853    0.0000 H   0  0  0  0  0  0  0  0  0  0  0  0
    5.3943   -8.2336    0.0000 H   0  0  0  0  0  0  0  0  0  0  0  0
    6.2603   -8.0964    0.0000 H   0  0  0  0  0  0  0  0  0  0  0  0
    6.1231   -7.2304    0.0000 H   0  0  0  0  0  0  0  0  0  0  0  0
    5.1377  -10.4922    0.0000 H   0  0  0  0  0  0  0  0  0  0  0  0
    3.6578  -11.1511    0.0000 H   0  0  0  0  0  0  0  0  0  0  0  0
    1.7478   -9.7871    0.0000 H   0  0  0  0  0  0  0  0  0  0  0  0
    1.4336  -10.6057    0.0000 H   0  0  0  0  0  0  0  0  0  0  0  0
    2.2522  -10.9199    0.0000 H   0  0  0  0  0  0  0  0  0  0  0  0
    6.1558   -9.0910    0.0000 H   0  0  0  0  0  0  0  0  0  0  0  0
  1 17  1  0  0  0  0
  1 19  1  0  0  0  0
 16  2  1  6  0  0  0
  2 72  1  0  0  0  0
 17  3  1  1  0  0  0
  3 73  1  0  0  0  0
 18  4  1  6  0  0  0
  4 74  1  0  0  0  0
  5 26  1  0  0  0  0
  5 31  1  0  0  0  0
  6 25  2  0  0  0  0
 27  7  1  1  0  0  0
  7 92  1  0  0  0  0
 30  8  1  1  0  0  0
  8 94  1  0  0  0  0
 33  9  1  6  0  0  0
  9 45  1  0  0  0  0
 10 52  2  0  0  0  0
 11 55  1  0  0  0  0
 11120  1  0  0  0  0
 12 54  2  0  0  0  0
 13 25  1  0  0  0  0
 13 35  1  0  0  0  0
 13 85  1  0  0  0  0
 14 54  1  0  0  0  0
 14 57  1  0  0  0  0
 14 58  1  0  0  0  0
 15 16  1  0  0  0  0
 15 19  1  0  0  0  0
 15 21  1  0  0  0  0
 15 22  1  0  0  0  0
 16 18  1  0  0  0  0
 16 59  1  0  0  0  0
 17 18  1  0  0  0  0
 17 20  1  0  0  0  0
 18 60  1  0  0  0  0
 19 24  1  6  0  0  0
 19 61  1  0  0  0  0
 20 23  1  1  0  0  0
 20 25  1  0  0  0  0
 20 62  1  0  0  0  0
 21 63  1  0  0  0  0
 21 64  1  0  0  0  0
 21 65  1  0  0  0  0
 22 66  1  0  0  0  0
 22 67  1  0  0  0  0
 22 68  1  0  0  0  0
 23 29  1  0  0  0  0
 23 69  1  0  0  0  0
 23 70  1  0  0  0  0
 24 32  2  0  0  0  0
 24 71  1  0  0  0  0
 26 27  1  0  0  0  0
 26 28  1  0  0  0  0
 26 75  1  6  0  0  0
 27 30  1  0  0  0  0
 27 76  1  0  0  0  0
 28 33  1  0  0  0  0
 28 34  1  1  0  0  0
 28 77  1  0  0  0  0
 29 79  1  0  0  0  0
 29 80  1  0  0  0  0
 29 81  1  0  0  0  0
 30 31  1  0  0  0  0
 30 78  1  0  0  0  0
 31 37  1  1  0  0  0
 31 82  1  0  0  0  0
 32 38  1  0  0  0  0
 32 83  1  0  0  0  0
 33 36  1  0  0  0  0
 33 84  1  0  0  0  0
 34 86  1  0  0  0  0
 34 87  1  0  0  0  0
 34 88  1  0  0  0  0
 35 39  1  0  0  0  0
 35 89  1  0  0  0  0
 35 90  1  0  0  0  0
 36 40  2  0  0  0  0
 36 41  1  0  0  0  0
 37 43  2  0  0  0  0
 37 91  1  0  0  0  0
 38 44  2  0  0  0  0
 38 93  1  0  0  0  0
 39 42  2  0  0  0  0
 39 95  1  0  0  0  0
 40 42  1  0  0  0  0
 40 96  1  0  0  0  0
 41 97  1  0  0  0  0
 41 98  1  0  0  0  0
 41 99  1  0  0  0  0
 42100  1  0  0  0  0
 43 47  1  0  0  0  0
 43101  1  0  0  0  0
 44 46  1  0  0  0  0
 44102  1  0  0  0  0
 45103  1  0  0  0  0
 45104  1  0  0  0  0
 45105  1  0  0  0  0
 46107  1  0  0  0  0
 46108  1  0  0  0  0
 46109  1  0  0  0  0
 47 48  2  0  0  0  0
 47106  1  0  0  0  0
 48 49  1  0  0  0  0
 48110  1  0  0  0  0
 49 50  2  0  0  0  0
 49111  1  0  0  0  0
 50 51  1  0  0  0  0
 50 52  1  0  0  0  0
 51112  1  0  0  0  0
 51113  1  0  0  0  0
 51114  1  0  0  0  0
 52 53  1  0  0  0  0
 53 54  1  0  0  0  0
 53 55  2  0  0  0  0
 55 56  1  0  0  0  0
 56 57  2  0  0  0  0
 56115  1  0  0  0  0
 57116  1  0  0  0  0
 58117  1  0  0  0  0
 58118  1  0  0  0  0
 58119  1  0  0  0  0
M  END
> <PUBCHEM_COMPOUND_CID>
135509117

> <PUBCHEM_COMPOUND_CANONICALIZED>
1

> <PUBCHEM_CACTVS_COMPLEXITY>
1750

> <PUBCHEM_CACTVS_HBOND_ACCEPTOR>
12

> <PUBCHEM_CACTVS_HBOND_DONOR>
7

> <PUBCHEM_CACTVS_ROTATABLE_BOND>
17

> <PUBCHEM_CACTVS_SUBSKEYS>
AAADcfB/PAAAAAAAAAAAAAAAAAAAASAAAAAkQAAAAAAAAAAAAAAAHgAQCAAADxThgAYCCAPABgCIAqFWUACAAAAgIgAICIEIAEgZFB4IoQAGUAAH9gCPsYP6/P7PAAAAAAAAAAAAAAAAAAAAAAAAAAAAAA==

> <PUBCHEM_IUPAC_OPENEYE_NAME>
(2S)-N-[(2E,4E,6S,7R)-7-[(2S,3S,4R,5R)-3,4-dihydroxy-5-[(1E,3E,5E)-7-(4-hydroxy-1-methyl-2-oxo-3-pyridyl)-6-methyl-7-oxo-hepta-1,3,5-trienyl]tetrahydrofuran-2-yl]-6-methoxy-5-methyl-octa-2,4-dienyl]-2-[(2R,3R,4R,6S)-2,3,4-trihydroxy-5,5-dimethyl-6-[(1E,3Z)-penta-1,3-dienyl]tetrahydropyran-2-yl]butanamide

> <PUBCHEM_IUPAC_CAS_NAME>
(2S)-N-[(2E,4E,6S,7R)-7-[(2S,3S,4R,5R)-3,4-dihydroxy-5-[(1E,3E,5E)-7-(4-hydroxy-1-methyl-2-oxo-3-pyridinyl)-6-methyl-7-oxohepta-1,3,5-trienyl]-2-oxolanyl]-6-methoxy-5-methylocta-2,4-dienyl]-2-[(2R,3R,4R,6S)-2,3,4-trihydroxy-5,5-dimethyl-6-[(1E,3Z)-penta-1,3-dienyl]-2-oxanyl]butanamide

> <PUBCHEM_IUPAC_NAME_MARKUP>
(2<I>S</I>)-<I>N</I>-[(2<I>E</I>,4<I>E</I>,6<I>S</I>,7<I>R</I>)-7-[(2<I>S</I>,3<I>S</I>,4<I>R</I>,5<I>R</I>)-3,4-dihydroxy-5-[(1<I>E</I>,3<I>E</I>,5<I>E</I>)-7-(4-hydroxy-1-methyl-2-oxopyridin-3-yl)-6-methyl-7-oxohepta-1,3,5-trienyl]oxolan-2-yl]-6-methoxy-5-methylocta-2,4-dienyl]-2-[(2<I>R</I>,3<I>R</I>,4<I>R</I>,6<I>S</I>)-2,3,4-trihydroxy-5,5-dimethyl-6-[(1<I>E</I>,3<I>Z</I>)-penta-1,3-dienyl]oxan-2-yl]butanamide

> <PUBCHEM_IUPAC_NAME>
(2S)-N-[(2E,4E,6S,7R)-7-[(2S,3S,4R,5R)-3,4-dihydroxy-5-[(1E,3E,5E)-7-(4-hydroxy-1-methyl-2-oxopyridin-3-yl)-6-methyl-7-oxohepta-1,3,5-trienyl]oxolan-2-yl]-6-methoxy-5-methylocta-2,4-dienyl]-2-[(2R,3R,4R,6S)-2,3,4-trihydroxy-5,5-dimethyl-6-[(1E,3Z)-penta-1,3-dienyl]oxan-2-yl]butanamide

> <PUBCHEM_IUPAC_SYSTEMATIC_NAME>
(2S)-2-[(2R,3R,4R,6S)-5,5-dimethyl-2,3,4-tris(oxidanyl)-6-[(1E,3Z)-penta-1,3-dienyl]oxan-2-yl]-N-[(2E,4E,6S,7R)-6-methoxy-5-methyl-7-[(2S,3S,4R,5R)-5-[(1E,3E,5E)-6-methyl-7-(1-methyl-4-oxidanyl-2-oxidanylidene-pyridin-3-yl)-7-oxidanylidene-hepta-1,3,5-trienyl]-3,4-bis(oxidanyl)oxolan-2-yl]octa-2,4-dienyl]butanamide

> <PUBCHEM_IUPAC_TRADITIONAL_NAME>
(2S)-N-[(2E,4E,6S,7R)-7-[(2S,3S,4R,5R)-3,4-dihydroxy-5-[(1E,3E,5E)-7-(4-hydroxy-2-keto-1-methyl-3-pyridyl)-7-keto-6-methyl-hepta-1,3,5-trienyl]tetrahydrofuran-2-yl]-6-methoxy-5-methyl-octa-2,4-dienyl]-2-[(2R,3R,4R,6S)-2,3,4-trihydroxy-5,5-dimethyl-6-[(1E,3Z)-penta-1,3-dienyl]tetrahydropyran-2-yl]butyramide

> <PUBCHEM_IUPAC_INCHI>
InChI=1S/C44H62N2O12/c1-10-12-14-22-32-43(6,7)39(51)40(52)44(55,58-32)29(11-2)41(53)45-24-18-17-20-27(4)37(56-9)28(5)38-36(50)35(49)31(57-38)21-16-13-15-19-26(3)34(48)33-30(47)23-25-46(8)42(33)54/h10,12-23,25,28-29,31-32,35-40,47,49-52,55H,11,24H2,1-9H3,(H,45,53)/b12-10-,15-13+,18-17+,21-16+,22-14+,26-19+,27-20+/t28-,29-,31-,32+,35+,36+,37-,38+,39+,40-,44-/m1/s1

> <PUBCHEM_IUPAC_INCHIKEY>
NTAHMPNXQOYXSX-WKSONYIQSA-N

> <PUBCHEM_XLOGP3_AA>
4

> <PUBCHEM_EXACT_MASS>
810.43027542

> <PUBCHEM_MOLECULAR_FORMULA>
C44H62N2O12

> <PUBCHEM_MOLECULAR_WEIGHT>
811.0

> <PUBCHEM_OPENEYE_CAN_SMILES>
CCC(C(=O)NCC=CC=C(C)C(C(C)C1C(C(C(O1)C=CC=CC=C(C)C(=O)C2=C(C=CN(C2=O)C)O)O)O)OC)C3(C(C(C(C(O3)C=CC=CC)(C)C)O)O)O

> <PUBCHEM_OPENEYE_ISO_SMILES>
CC[C@H](C(=O)NC/C=C/C=C(\C)/[C@H]([C@@H](C)[C@H]1[C@H]([C@H]([C@H](O1)/C=C/C=C/C=C(\C)/C(=O)C2=C(C=CN(C2=O)C)O)O)O)OC)[C@@]3([C@@H]([C@@H](C([C@@H](O3)/C=C/C=C\C)(C)C)O)O)O

> <PUBCHEM_CACTVS_TPSA>
216

> <PUBCHEM_MONOISOTOPIC_WEIGHT>
810.43027542

> <PUBCHEM_TOTAL_CHARGE>
0

> <PUBCHEM_HEAVY_ATOM_COUNT>
58

> <PUBCHEM_ATOM_DEF_STEREO_COUNT>
11

> <PUBCHEM_ATOM_UDEF_STEREO_COUNT>
0

> <PUBCHEM_BOND_DEF_STEREO_COUNT>
7

> <PUBCHEM_BOND_UDEF_STEREO_COUNT>
0

> <PUBCHEM_ISOTOPIC_ATOM_COUNT>
0

> <PUBCHEM_COMPONENT_COUNT>
1

> <PUBCHEM_CACTVS_TAUTO_COUNT>
-1

> <PUBCHEM_COORDINATE_TYPE>
1
5
255

> <PUBCHEM_BONDANNOTATIONS>
14  54  8
14  57  8
19  24  6
16  2  6
20  23  5
26  75  6
28  34  5
17  3  5
31  37  5
18  4  6
53  54  8
53  55  8
55  56  8
56  57  8
27  7  5
30  8  5
33  9  6

$$$$
