4756
     RDKit          2D

 16 17  0  0  0  0  0  0  0  0999 V2000
    6.3301   -2.1900    0.0000 N   0  0  0  0  0  0  0  0  0  0  0  0
    4.5981   -0.1900    0.0000 N   0  0  0  0  0  0  0  0  0  0  0  0
    4.5981    0.8100    0.0000 N   0  0  0  0  0  0  0  0  0  0  0  0
    4.5981   -2.1900    0.0000 N   0  0  0  0  0  0  0  0  0  0  0  0
    8.0622   -2.1900    0.0000 N   0  0  0  0  0  0  0  0  0  0  0  0
    5.4641   -0.6900    0.0000 C   0  0  0  0  0  0  0  0  0  0  0  0
    5.4641   -1.6900    0.0000 C   0  0  0  0  0  0  0  0  0  0  0  0
    6.3301   -0.1900    0.0000 C   0  0  0  0  0  0  0  0  0  0  0  0
    7.1962   -0.6900    0.0000 C   0  0  0  0  0  0  0  0  0  0  0  0
    7.1962   -1.6900    0.0000 C   0  0  0  0  0  0  0  0  0  0  0  0
    3.7320    1.3100    0.0000 C   0  0  0  0  0  0  0  0  0  0  0  0
    2.8660    0.8100    0.0000 C   0  0  0  0  0  0  0  0  0  0  0  0
    3.7320    2.3100    0.0000 C   0  0  0  0  0  0  0  0  0  0  0  0
    2.0000    1.3100    0.0000 C   0  0  0  0  0  0  0  0  0  0  0  0
    2.8660    2.8100    0.0000 C   0  0  0  0  0  0  0  0  0  0  0  0
    2.0000    2.3100    0.0000 C   0  0  0  0  0  0  0  0  0  0  0  0
  1  7  2  0
  1 10  1  0
  2  3  2  0
  2  6  1  0
  3 11  1  0
  4  7  1  0
  5 10  1  0
  6  7  1  0
  6  8  2  0
  8  9  1  0
  9 10  2  0
 11 12  2  0
 11 13  1  0
 12 14  1  0
 13 15  2  0
 14 16  2  0
 15 16  1  0
M  END
>  <PUBCHEM_COMPOUND_CID>  (1) 
4756

>  <PUBCHEM_COMPOUND_CANONICALIZED>  (1) 
1

>  <PUBCHEM_CACTVS_COMPLEXITY>  (1) 
237

>  <PUBCHEM_CACTVS_HBOND_ACCEPTOR>  (1) 
5

>  <PUBCHEM_CACTVS_HBOND_DONOR>  (1) 
2

>  <PUBCHEM_CACTVS_ROTATABLE_BOND>  (1) 
2

>  <PUBCHEM_CACTVS_SUBSKEYS>  (1) 
AAADccBzgAAAAAAAAAAAAAAAAAAAAAAAAAA8QAAAAAAAAAABwAAAHAAYAAAACAiBEgAx8JJIEACiACZiZACCgCkhEiAImCAwdJiIYOLAkZGUIAhgkALIyCcQAAAAAAAAAAAAAAAAAAAAAAAAAAAAAAAAAA==

>  <PUBCHEM_IUPAC_OPENEYE_NAME>  (1) 
3-phenylazopyridine-2,6-diamine

>  <PUBCHEM_IUPAC_CAS_NAME>  (1) 
3-phenyldiazenylpyridine-2,6-diamine

>  <PUBCHEM_IUPAC_NAME_MARKUP>  (1) 
3-phenyldiazenylpyridine-2,6-diamine

>  <PUBCHEM_IUPAC_NAME>  (1) 
3-phenyldiazenylpyridine-2,6-diamine

>  <PUBCHEM_IUPAC_SYSTEMATIC_NAME>  (1) 
3-phenyldiazenylpyridine-2,6-diamine

>  <PUBCHEM_IUPAC_TRADITIONAL_NAME>  (1) 
(6-amino-3-phenylazo-2-pyridyl)amine

>  <PUBCHEM_IUPAC_INCHI>  (1) 
InChI=1S/C11H11N5/c12-10-7-6-9(11(13)14-10)16-15-8-4-2-1-3-5-8/h1-7H,(H4,12,13,14)

>  <PUBCHEM_IUPAC_INCHIKEY>  (1) 
QPFYXYFORQJZEC-UHFFFAOYSA-N

>  <PUBCHEM_XLOGP3_AA>  (1) 
1.9

>  <PUBCHEM_EXACT_MASS>  (1) 
213.10144537

>  <PUBCHEM_MOLECULAR_FORMULA>  (1) 
C11H11N5

>  <PUBCHEM_MOLECULAR_WEIGHT>  (1) 
213.24

>  <PUBCHEM_OPENEYE_CAN_SMILES>  (1) 
C1=CC=C(C=C1)N=NC2=C(N=C(C=C2)N)N

>  <PUBCHEM_OPENEYE_ISO_SMILES>  (1) 
C1=CC=C(C=C1)N=NC2=C(N=C(C=C2)N)N

>  <PUBCHEM_CACTVS_TPSA>  (1) 
89.6

>  <PUBCHEM_MONOISOTOPIC_WEIGHT>  (1) 
213.10144537

>  <PUBCHEM_TOTAL_CHARGE>  (1) 
0

>  <PUBCHEM_HEAVY_ATOM_COUNT>  (1) 
16

>  <PUBCHEM_ATOM_DEF_STEREO_COUNT>  (1) 
0

>  <PUBCHEM_ATOM_UDEF_STEREO_COUNT>  (1) 
0

>  <PUBCHEM_BOND_DEF_STEREO_COUNT>  (1) 
0

>  <PUBCHEM_BOND_UDEF_STEREO_COUNT>  (1) 
0

>  <PUBCHEM_ISOTOPIC_ATOM_COUNT>  (1) 
0

>  <PUBCHEM_COMPONENT_COUNT>  (1) 
1

>  <PUBCHEM_CACTVS_TAUTO_COUNT>  (1) 
-1

>  <PUBCHEM_COORDINATE_TYPE>  (1) 
1
5
255

>  <PUBCHEM_BONDANNOTATIONS>  (1) 
1  10  8
1  7  8
11  12  8
11  13  8
12  14  8
13  15  8
14  16  8
15  16  8
6  7  8
6  8  8
8  9  8
9  10  8

$$$$
