122724
     RDKit          2D

 33 37  0  0  1  0  0  0  0  0999 V2000
    2.6200   -2.1332    0.0000 O   0  0  0  0  0  0  0  0  0  0  0  0
    2.6400   -0.4013    0.0000 O   0  0  0  0  0  0  0  0  0  0  0  0
   12.2545    2.3305    0.0000 O   0  0  0  0  0  0  0  0  0  0  0  0
   10.4351    3.3623    0.0000 O   0  0  0  0  0  0  0  0  0  0  0  0
    6.9146   -0.8139    0.0000 C   0  0  0  0  0  0  0  0  0  0  0  0
    6.0046   -1.3208    0.0000 C   0  0  0  0  0  0  0  0  0  0  0  0
    7.7806   -1.3139    0.0000 C   0  0  0  0  0  0  0  0  0  0  0  0
    5.9966   -2.3624    0.0000 C   0  0  0  0  0  0  0  0  0  0  0  0
    7.7967   -2.3554    0.0000 C   0  0  0  0  0  0  0  0  0  0  0  0
    6.8986   -2.8832    0.0000 C   0  0  0  0  0  0  0  0  0  0  0  0
    6.9146    0.1861    0.0000 C   0  0  0  0  0  0  0  0  0  0  0  0
    5.0778   -0.7567    0.0000 C   0  0  0  0  0  0  0  0  0  0  0  0
    8.6466   -0.8139    0.0000 C   0  0  0  0  0  0  0  0  0  0  0  0
    5.0611   -2.9121    0.0000 C   0  0  0  0  0  0  0  0  0  0  0  0
    8.6466    0.1861    0.0000 C   0  0  0  0  0  0  0  0  0  0  0  0
    4.1299   -1.2846    0.0000 C   0  0  0  0  0  0  0  0  0  0  0  0
    7.7806    0.6861    0.0000 C   0  0  0  0  0  0  0  0  0  0  0  0
    6.0486   -0.3139    0.0000 C   0  0  0  0  0  0  0  0  0  0  0  0
    4.1215   -2.3696    0.0000 C   0  0  0  0  0  0  0  0  0  0  0  0
    8.6466   -1.8139    0.0000 C   0  0  0  0  0  0  0  0  0  0  0  0
    5.9889   -3.3623    0.0000 C   0  0  0  0  0  0  0  0  0  0  0  0
    9.5406    0.7208    0.0000 C   0  0  0  0  0  0  0  0  0  0  0  0
    9.5406   -1.3486    0.0000 C   0  0  0  0  0  0  0  0  0  0  0  0
    8.6466    1.1861    0.0000 C   0  0  0  0  0  0  0  0  0  0  0  0
    3.6399   -0.4129    0.0000 C   0  0  0  0  0  0  0  0  0  0  0  0
    3.1299   -1.2730    0.0000 C   0  0  0  0  0  0  0  0  0  0  0  0
   10.4467    0.2069    0.0000 C   0  0  0  0  0  0  0  0  0  0  0  0
   10.4467   -0.8347    0.0000 C   0  0  0  0  0  0  0  0  0  0  0  0
    9.5155    1.8055    0.0000 C   0  0  0  0  0  0  0  0  0  0  0  0
   11.3904    0.7422    0.0000 C   0  0  0  0  0  0  0  0  0  0  0  0
   10.4467    2.3624    0.0000 C   0  0  0  0  0  0  0  0  0  0  0  0
   11.3904    1.8272    0.0000 C   0  0  0  0  0  0  0  0  0  0  0  0
   12.2545    0.2388    0.0000 C   0  0  0  0  0  0  0  0  0  0  0  0
  1 26  1  0
  2 26  2  0
  3 32  1  0
  4 31  2  0
  5  6  1  0
  5  7  1  0
  5 11  1  0
  5 18  1  1
  6  8  1  0
  6 12  1  1
  7  9  1  0
  7 13  1  0
  7 20  1  6
  8 10  1  0
  8 14  1  0
  8 21  1  6
  9 10  1  0
 11 17  1  0
 12 16  1  0
 13 15  1  0
 13 23  2  0
 14 19  1  0
 15 17  1  0
 15 22  1  0
 15 24  1  6
 16 19  1  0
 16 25  1  6
 16 26  1  0
 22 27  1  0
 22 29  2  0
 23 28  1  0
 27 28  2  0
 27 30  1  0
 29 31  1  0
 30 32  2  0
 30 33  1  0
 31 32  1  0
M  END
>  <PUBCHEM_COMPOUND_CID>  (1) 
122724

>  <PUBCHEM_COMPOUND_CANONICALIZED>  (1) 
1

>  <PUBCHEM_CACTVS_COMPLEXITY>  (1) 
1100

>  <PUBCHEM_CACTVS_HBOND_ACCEPTOR>  (1) 
4

>  <PUBCHEM_CACTVS_HBOND_DONOR>  (1) 
2

>  <PUBCHEM_CACTVS_ROTATABLE_BOND>  (1) 
1

>  <PUBCHEM_CACTVS_SUBSKEYS>  (1) 
AAADcfB4OAAAAAAAAAAAAAAAAAAAAAAAAAAwYMECAAAAAADAAAAAGgAACAAADwSAgAACCAAAAgCIAqDSCAIAAAAgIAAACAFAAEgIABIAAAAAQAAEwAAIgQOIyPCPgAAAAAAAAACAAAQAACAAAAAAAAAAAA==

>  <PUBCHEM_IUPAC_OPENEYE_NAME>  (1) 
(2R,4aS,6aR,6aS,14aS,14bR)-10-hydroxy-2,4a,6a,6a,9,14a-hexamethyl-11-oxo-1,3,4,5,6,13,14,14b-octahydropicene-2-carboxylic acid

>  <PUBCHEM_IUPAC_CAS_NAME>  (1) 
(2R,4aS,6aR,6aS,14aS,14bR)-10-hydroxy-2,4a,6a,6a,9,14a-hexamethyl-11-oxo-1,3,4,5,6,13,14,14b-octahydropicene-2-carboxylic acid

>  <PUBCHEM_IUPAC_NAME_MARKUP>  (1) 
(2<I>R</I>,4<I>a</I><I>S</I>,6<I>a</I><I>R</I>,6<I>a</I><I>S</I>,14<I>a</I><I>S</I>,14<I>b</I><I>R</I>)-10-hydroxy-2,4<I>a</I>,6<I>a</I>,6<I>a</I>,9,14<I>a</I>-hexamethyl-11-oxo-1,3,4,5,6,13,14,14<I>b</I>-octahydropicene-2-carboxylic acid

>  <PUBCHEM_IUPAC_NAME>  (1) 
(2R,4aS,6aR,6aS,14aS,14bR)-10-hydroxy-2,4a,6a,6a,9,14a-hexamethyl-11-oxo-1,3,4,5,6,13,14,14b-octahydropicene-2-carboxylic acid

>  <PUBCHEM_IUPAC_SYSTEMATIC_NAME>  (1) 
(2R,4aS,6aR,6aS,14aS,14bR)-2,4a,6a,6a,9,14a-hexamethyl-10-oxidanyl-11-oxidanylidene-1,3,4,5,6,13,14,14b-octahydropicene-2-carboxylic acid

>  <PUBCHEM_IUPAC_TRADITIONAL_NAME>  (1) 
(2R,4aS,6aR,6aS,14aS,14bR)-10-hydroxy-11-keto-2,4a,6a,6a,9,14a-hexamethyl-1,3,4,5,6,13,14,14b-octahydropicene-2-carboxylic acid

>  <PUBCHEM_IUPAC_INCHI>  (1) 
InChI=1S/C29H38O4/c1-17-18-7-8-21-27(4,19(18)15-20(30)23(17)31)12-14-29(6)22-16-26(3,24(32)33)10-9-25(22,2)11-13-28(21,29)5/h7-8,15,22,31H,9-14,16H2,1-6H3,(H,32,33)/t22-,25-,26-,27+,28-,29+/m1/s1

>  <PUBCHEM_IUPAC_INCHIKEY>  (1) 
KQJSQWZMSAGSHN-JJWQIEBTSA-N

>  <PUBCHEM_XLOGP3_AA>  (1) 
5.9

>  <PUBCHEM_EXACT_MASS>  (1) 
450.27700969

>  <PUBCHEM_MOLECULAR_FORMULA>  (1) 
C29H38O4

>  <PUBCHEM_MOLECULAR_WEIGHT>  (1) 
450.6

>  <PUBCHEM_OPENEYE_CAN_SMILES>  (1) 
CC1=C(C(=O)C=C2C1=CC=C3C2(CCC4(C3(CCC5(C4CC(CC5)(C)C(=O)O)C)C)C)C)O

>  <PUBCHEM_OPENEYE_ISO_SMILES>  (1) 
CC1=C(C(=O)C=C2C1=CC=C3[C@]2(CC[C@@]4([C@@]3(CC[C@@]5([C@H]4C[C@](CC5)(C)C(=O)O)C)C)C)C)O

>  <PUBCHEM_CACTVS_TPSA>  (1) 
74.6

>  <PUBCHEM_MONOISOTOPIC_WEIGHT>  (1) 
450.27700969

>  <PUBCHEM_TOTAL_CHARGE>  (1) 
0

>  <PUBCHEM_HEAVY_ATOM_COUNT>  (1) 
33

>  <PUBCHEM_ATOM_DEF_STEREO_COUNT>  (1) 
6

>  <PUBCHEM_ATOM_UDEF_STEREO_COUNT>  (1) 
0

>  <PUBCHEM_BOND_DEF_STEREO_COUNT>  (1) 
0

>  <PUBCHEM_BOND_UDEF_STEREO_COUNT>  (1) 
0

>  <PUBCHEM_ISOTOPIC_ATOM_COUNT>  (1) 
0

>  <PUBCHEM_COMPONENT_COUNT>  (1) 
1

>  <PUBCHEM_CACTVS_TAUTO_COUNT>  (1) 
-1

>  <PUBCHEM_COORDINATE_TYPE>  (1) 
1
5
255

>  <PUBCHEM_BONDANNOTATIONS>  (1) 
15  24  6
16  25  6
5  18  5
6  34  6
7  20  6
8  21  6

$$$$
