446541
     RDKit          2D

 23 24  0  0  0  0  0  0  0  0999 V2000
   11.8610   -0.1550    0.0000 O   0  0  0  0  0  0  0  0  0  0  0  0
    7.7331   -1.1550    0.0000 O   0  0  0  0  0  0  0  0  0  0  0  0
    9.4651    1.8450    0.0000 O   0  0  0  0  0  0  0  0  0  0  0  0
   11.5880    1.6002    0.0000 O   0  0  0  0  0  0  0  0  0  0  0  0
    2.5369    0.8450    0.0000 O   0  0  0  0  0  0  0  0  0  0  0  0
    3.4030   -0.6550    0.0000 O   0  0  0  0  0  0  0  0  0  0  0  0
   10.3312   -0.6550    0.0000 C   0  0  0  0  0  0  0  0  0  0  0  0
    8.5991    0.3450    0.0000 C   0  0  0  0  0  0  0  0  0  0  0  0
   10.3312    0.3450    0.0000 C   0  0  0  0  0  0  0  0  0  0  0  0
    9.4651   -1.1550    0.0000 C   0  0  0  0  0  0  0  0  0  0  0  0
    8.5991   -0.6550    0.0000 C   0  0  0  0  0  0  0  0  0  0  0  0
    9.4651    0.8450    0.0000 C   0  0  0  0  0  0  0  0  0  0  0  0
    7.7331    0.8450    0.0000 C   0  0  0  0  0  0  0  0  0  0  0  0
   11.2774   -0.9597    0.0000 C   0  0  0  0  0  0  0  0  0  0  0  0
   11.2774    0.6497    0.0000 C   0  0  0  0  0  0  0  0  0  0  0  0
    6.8671    0.3450    0.0000 C   0  0  0  0  0  0  0  0  0  0  0  0
    9.4651   -2.1550    0.0000 C   0  0  0  0  0  0  0  0  0  0  0  0
    6.0010    0.8450    0.0000 C   0  0  0  0  0  0  0  0  0  0  0  0
    5.1350    0.3450    0.0000 C   0  0  0  0  0  0  0  0  0  0  0  0
    4.2690    0.8450    0.0000 C   0  0  0  0  0  0  0  0  0  0  0  0
    6.0010    1.8450    0.0000 C   0  0  0  0  0  0  0  0  0  0  0  0
    7.7331   -2.1550    0.0000 C   0  0  0  0  0  0  0  0  0  0  0  0
    3.4030    0.3450    0.0000 C   0  0  0  0  0  0  0  0  0  0  0  0
  1 14  1  0
  1 15  1  0
  2 11  1  0
  2 22  1  0
  3 12  1  0
  4 15  2  0
  5 23  1  0
  6 23  2  0
  7  9  2  0
  7 10  1  0
  7 14  1  0
  8 11  1  0
  8 12  2  0
  8 13  1  0
  9 12  1  0
  9 15  1  0
 10 11  2  0
 10 17  1  0
 13 16  1  0
 16 18  2  0
 18 19  1  0
 18 21  1  0
 19 20  1  0
 20 23  1  0
M  END
>  <PUBCHEM_COMPOUND_CID>  (1) 
446541

>  <PUBCHEM_COMPOUND_CANONICALIZED>  (1) 
1

>  <PUBCHEM_CACTVS_COMPLEXITY>  (1) 
486

>  <PUBCHEM_CACTVS_HBOND_ACCEPTOR>  (1) 
6

>  <PUBCHEM_CACTVS_HBOND_DONOR>  (1) 
2

>  <PUBCHEM_CACTVS_ROTATABLE_BOND>  (1) 
6

>  <PUBCHEM_CACTVS_SUBSKEYS>  (1) 
AAADceB4OAAAAAAAAAAAAAAAAAAAASAAAAAwAAAAAAAAAEgBAAAAGgAACAAADASgmAICDoAABgCIAiDSCAACCAAkIAAAiAEECMgMJzaGNRqCcWAl4BUIuQfK7PzO4AADCAAYAADAAAYQADAAAAAAAAAAAA==

>  <PUBCHEM_IUPAC_OPENEYE_NAME>  (1) 
(E)-6-(4-hydroxy-6-methoxy-7-methyl-3-oxo-1H-isobenzofuran-5-yl)-4-methyl-hex-4-enoic acid

>  <PUBCHEM_IUPAC_CAS_NAME>  (1) 
(E)-6-(4-hydroxy-6-methoxy-7-methyl-3-oxo-1H-isobenzofuran-5-yl)-4-methyl-4-hexenoic acid

>  <PUBCHEM_IUPAC_NAME_MARKUP>  (1) 
(<I>E</I>)-6-(4-hydroxy-6-methoxy-7-methyl-3-oxo-1<I>H</I>-2-benzofuran-5-yl)-4-methylhex-4-enoic acid

>  <PUBCHEM_IUPAC_NAME>  (1) 
(E)-6-(4-hydroxy-6-methoxy-7-methyl-3-oxo-1H-2-benzofuran-5-yl)-4-methylhex-4-enoic acid

>  <PUBCHEM_IUPAC_SYSTEMATIC_NAME>  (1) 
(E)-6-(6-methoxy-7-methyl-4-oxidanyl-3-oxidanylidene-1H-2-benzofuran-5-yl)-4-methyl-hex-4-enoic acid

>  <PUBCHEM_IUPAC_TRADITIONAL_NAME>  (1) 
(E)-6-(4-hydroxy-3-keto-6-methoxy-7-methyl-phthalan-5-yl)-4-methyl-hex-4-enoic acid

>  <PUBCHEM_IUPAC_INCHI>  (1) 
InChI=1S/C17H20O6/c1-9(5-7-13(18)19)4-6-11-15(20)14-12(8-23-17(14)21)10(2)16(11)22-3/h4,20H,5-8H2,1-3H3,(H,18,19)/b9-4+

>  <PUBCHEM_IUPAC_INCHIKEY>  (1) 
HPNSFSBZBAHARI-RUDMXATFSA-N

>  <PUBCHEM_XLOGP3_AA>  (1) 
3.2

>  <PUBCHEM_EXACT_MASS>  (1) 
320.12598835

>  <PUBCHEM_MOLECULAR_FORMULA>  (1) 
C17H20O6

>  <PUBCHEM_MOLECULAR_WEIGHT>  (1) 
320.3

>  <PUBCHEM_OPENEYE_CAN_SMILES>  (1) 
CC1=C2COC(=O)C2=C(C(=C1OC)CC=C(C)CCC(=O)O)O

>  <PUBCHEM_OPENEYE_ISO_SMILES>  (1) 
CC1=C2COC(=O)C2=C(C(=C1OC)C/C=C(\C)/CCC(=O)O)O

>  <PUBCHEM_CACTVS_TPSA>  (1) 
93.1

>  <PUBCHEM_MONOISOTOPIC_WEIGHT>  (1) 
320.12598835

>  <PUBCHEM_TOTAL_CHARGE>  (1) 
0

>  <PUBCHEM_HEAVY_ATOM_COUNT>  (1) 
23

>  <PUBCHEM_ATOM_DEF_STEREO_COUNT>  (1) 
0

>  <PUBCHEM_ATOM_UDEF_STEREO_COUNT>  (1) 
0

>  <PUBCHEM_BOND_DEF_STEREO_COUNT>  (1) 
1

>  <PUBCHEM_BOND_UDEF_STEREO_COUNT>  (1) 
0

>  <PUBCHEM_ISOTOPIC_ATOM_COUNT>  (1) 
0

>  <PUBCHEM_COMPONENT_COUNT>  (1) 
1

>  <PUBCHEM_CACTVS_TAUTO_COUNT>  (1) 
-1

>  <PUBCHEM_COORDINATE_TYPE>  (1) 
1
5
255

>  <PUBCHEM_BONDANNOTATIONS>  (1) 
10  11  8
7  10  8
7  9  8
8  11  8
8  12  8
9  12  8

$$$$
