16129778
     RDKit          2D

122132  0  0  1  0  0  0  0  0999 V2000
   12.9292    1.0000    0.0000 O   0  0  0  0  0  0  0  0  0  0  0  0
   12.9292   -2.0000    0.0000 O   0  0  0  0  0  0  0  0  0  0  0  0
   11.1972   -1.0000    0.0000 O   0  0  0  0  0  0  0  0  0  0  0  0
   14.6613   -1.0000    0.0000 O   0  0  0  0  0  0  0  0  0  0  0  0
   14.6613    1.0000    0.0000 O   0  0  0  0  0  0  0  0  0  0  0  0
   11.1972    2.0000    0.0000 O   0  0  0  0  0  0  0  0  0  0  0  0
   11.1972   -2.0000    0.0000 O   0  0  0  0  0  0  0  0  0  0  0  0
   10.3312    0.5000    0.0000 O   0  0  0  0  0  0  0  0  0  0  0  0
   15.5273    0.5000    0.0000 O   0  0  0  0  0  0  0  0  0  0  0  0
   13.7953    2.5000    0.0000 O   0  0  0  0  0  0  0  0  0  0  0  0
    9.4651    2.0000    0.0000 O   0  0  0  0  0  0  0  0  0  0  0  0
   10.3312   -5.5000    0.0000 O   0  0  0  0  0  0  0  0  0  0  0  0
    6.8671   -0.5000    0.0000 O   0  0  0  0  0  0  0  0  0  0  0  0
   17.2594   -3.5000    0.0000 O   0  0  0  0  0  0  0  0  0  0  0  0
   13.7953   -5.5000    0.0000 O   0  0  0  0  0  0  0  0  0  0  0  0
    8.5991   -3.5000    0.0000 O   0  0  0  0  0  0  0  0  0  0  0  0
   18.9914   -0.5000    0.0000 O   0  0  0  0  0  0  0  0  0  0  0  0
   18.1254    2.0000    0.0000 O   0  0  0  0  0  0  0  0  0  0  0  0
   12.0632   -6.5000    0.0000 O   0  0  0  0  0  0  0  0  0  0  0  0
    6.8671   -2.5000    0.0000 O   0  0  0  0  0  0  0  0  0  0  0  0
   16.3933    5.0000    0.0000 O   0  0  0  0  0  0  0  0  0  0  0  0
   18.9914   -2.5000    0.0000 O   0  0  0  0  0  0  0  0  0  0  0  0
   18.1254    4.0000    0.0000 O   0  0  0  0  0  0  0  0  0  0  0  0
   12.0632    5.5000    0.0000 O   0  0  0  0  0  0  0  0  0  0  0  0
    8.5991    5.5000    0.0000 O   0  0  0  0  0  0  0  0  0  0  0  0
   10.3312    6.5000    0.0000 O   0  0  0  0  0  0  0  0  0  0  0  0
   11.1972   -7.0000    0.0000 O   0  0  0  0  0  0  0  0  0  0  0  0
    6.0010   -2.0000    0.0000 O   0  0  0  0  0  0  0  0  0  0  0  0
   18.9914   -3.5000    0.0000 O   0  0  0  0  0  0  0  0  0  0  0  0
   18.9914    3.5000    0.0000 O   0  0  0  0  0  0  0  0  0  0  0  0
   11.1972    7.0000    0.0000 O   0  0  0  0  0  0  0  0  0  0  0  0
    6.8671   -6.5000    0.0000 O   0  0  0  0  0  0  0  0  0  0  0  0
    8.5991   -9.5000    0.0000 O   0  0  0  0  0  0  0  0  0  0  0  0
    4.2690    2.0000    0.0000 O   0  0  0  0  0  0  0  0  0  0  0  0
    2.5369   -1.0000    0.0000 O   0  0  0  0  0  0  0  0  0  0  0  0
   19.8574   -7.0000    0.0000 O   0  0  0  0  0  0  0  0  0  0  0  0
   16.3933   -7.0000    0.0000 O   0  0  0  0  0  0  0  0  0  0  0  0
    6.8671   -8.5000    0.0000 O   0  0  0  0  0  0  0  0  0  0  0  0
    2.5369    1.0000    0.0000 O   0  0  0  0  0  0  0  0  0  0  0  0
   22.4555    2.5000    0.0000 O   0  0  0  0  0  0  0  0  0  0  0  0
   20.7235   -0.5000    0.0000 O   0  0  0  0  0  0  0  0  0  0  0  0
   18.1254   -8.0000    0.0000 O   0  0  0  0  0  0  0  0  0  0  0  0
   22.4555    0.5000    0.0000 O   0  0  0  0  0  0  0  0  0  0  0  0
   15.5273    6.5000    0.0000 O   0  0  0  0  0  0  0  0  0  0  0  0
   13.7953    9.5000    0.0000 O   0  0  0  0  0  0  0  0  0  0  0  0
   15.5273    8.5000    0.0000 O   0  0  0  0  0  0  0  0  0  0  0  0
   12.9292   -1.0000    0.0000 C   0  0  0  0  0  0  0  0  0  0  0  0
   12.0632   -0.5000    0.0000 C   0  0  0  0  0  0  0  0  0  0  0  0
   13.7953   -0.5000    0.0000 C   0  0  0  0  0  0  0  0  0  0  0  0
   12.0632    0.5000    0.0000 C   0  0  0  0  0  0  0  0  0  0  0  0
   13.7953    0.5000    0.0000 C   0  0  0  0  0  0  0  0  0  0  0  0
   11.1972    1.0000    0.0000 C   0  0  0  0  0  0  0  0  0  0  0  0
   12.0632   -2.5000    0.0000 C   0  0  0  0  0  0  0  0  0  0  0  0
   10.3312   -0.5000    0.0000 C   0  0  0  0  0  0  0  0  0  0  0  0
   15.5273   -0.5000    0.0000 C   0  0  0  0  0  0  0  0  0  0  0  0
   14.6613    2.0000    0.0000 C   0  0  0  0  0  0  0  0  0  0  0  0
   12.0632   -3.5000    0.0000 C   0  0  0  0  0  0  0  0  0  0  0  0
    9.4651   -1.0000    0.0000 C   0  0  0  0  0  0  0  0  0  0  0  0
   16.3933   -1.0000    0.0000 C   0  0  0  0  0  0  0  0  0  0  0  0
   10.3312    2.5000    0.0000 C   0  0  0  0  0  0  0  0  0  0  0  0
   15.5273    2.5000    0.0000 C   0  0  0  0  0  0  0  0  0  0  0  0
   10.3312    3.5000    0.0000 C   0  0  0  0  0  0  0  0  0  0  0  0
   11.1972   -4.0000    0.0000 C   0  0  0  0  0  0  0  0  0  0  0  0
    8.5991   -0.5000    0.0000 C   0  0  0  0  0  0  0  0  0  0  0  0
   12.9292   -4.0000    0.0000 C   0  0  0  0  0  0  0  0  0  0  0  0
    9.4651   -2.0000    0.0000 C   0  0  0  0  0  0  0  0  0  0  0  0
   16.3933   -2.0000    0.0000 C   0  0  0  0  0  0  0  0  0  0  0  0
   17.2594   -0.5000    0.0000 C   0  0  0  0  0  0  0  0  0  0  0  0
   16.3933    2.0000    0.0000 C   0  0  0  0  0  0  0  0  0  0  0  0
   15.5273    3.5000    0.0000 C   0  0  0  0  0  0  0  0  0  0  0  0
   11.1972   -5.0000    0.0000 C   0  0  0  0  0  0  0  0  0  0  0  0
    7.7331   -1.0000    0.0000 C   0  0  0  0  0  0  0  0  0  0  0  0
   12.9292   -5.0000    0.0000 C   0  0  0  0  0  0  0  0  0  0  0  0
    8.5991   -2.5000    0.0000 C   0  0  0  0  0  0  0  0  0  0  0  0
   17.2594   -2.5000    0.0000 C   0  0  0  0  0  0  0  0  0  0  0  0
   18.1254   -1.0000    0.0000 C   0  0  0  0  0  0  0  0  0  0  0  0
   11.1972    4.0000    0.0000 C   0  0  0  0  0  0  0  0  0  0  0  0
    9.4651    4.0000    0.0000 C   0  0  0  0  0  0  0  0  0  0  0  0
   12.0632   -5.5000    0.0000 C   0  0  0  0  0  0  0  0  0  0  0  0
    7.7331   -2.0000    0.0000 C   0  0  0  0  0  0  0  0  0  0  0  0
   17.2594    2.5000    0.0000 C   0  0  0  0  0  0  0  0  0  0  0  0
   16.3933    4.0000    0.0000 C   0  0  0  0  0  0  0  0  0  0  0  0
   18.1254   -2.0000    0.0000 C   0  0  0  0  0  0  0  0  0  0  0  0
   17.2594    3.5000    0.0000 C   0  0  0  0  0  0  0  0  0  0  0  0
   11.1972    5.0000    0.0000 C   0  0  0  0  0  0  0  0  0  0  0  0
    9.4651    5.0000    0.0000 C   0  0  0  0  0  0  0  0  0  0  0  0
   10.3312    5.5000    0.0000 C   0  0  0  0  0  0  0  0  0  0  0  0
   10.3312   -6.5000    0.0000 C   0  0  0  0  0  0  0  0  0  0  0  0
    6.0010   -1.0000    0.0000 C   0  0  0  0  0  0  0  0  0  0  0  0
   18.1254   -4.0000    0.0000 C   0  0  0  0  0  0  0  0  0  0  0  0
   18.9914    2.5000    0.0000 C   0  0  0  0  0  0  0  0  0  0  0  0
    9.4651   -7.0000    0.0000 C   0  0  0  0  0  0  0  0  0  0  0  0
    5.1350   -0.5000    0.0000 C   0  0  0  0  0  0  0  0  0  0  0  0
   12.0632    6.5000    0.0000 C   0  0  0  0  0  0  0  0  0  0  0  0
   18.1254   -5.0000    0.0000 C   0  0  0  0  0  0  0  0  0  0  0  0
   19.8574    2.0000    0.0000 C   0  0  0  0  0  0  0  0  0  0  0  0
   12.9292    7.0000    0.0000 C   0  0  0  0  0  0  0  0  0  0  0  0
    9.4651   -8.0000    0.0000 C   0  0  0  0  0  0  0  0  0  0  0  0
    8.5991   -6.5000    0.0000 C   0  0  0  0  0  0  0  0  0  0  0  0
    4.2690   -1.0000    0.0000 C   0  0  0  0  0  0  0  0  0  0  0  0
    5.1350    0.5000    0.0000 C   0  0  0  0  0  0  0  0  0  0  0  0
   17.2594   -5.5000    0.0000 C   0  0  0  0  0  0  0  0  0  0  0  0
   18.9914   -5.5000    0.0000 C   0  0  0  0  0  0  0  0  0  0  0  0
   19.8574    1.0000    0.0000 C   0  0  0  0  0  0  0  0  0  0  0  0
   20.7235    2.5000    0.0000 C   0  0  0  0  0  0  0  0  0  0  0  0
    7.7331   -7.0000    0.0000 C   0  0  0  0  0  0  0  0  0  0  0  0
    8.5991   -8.5000    0.0000 C   0  0  0  0  0  0  0  0  0  0  0  0
    4.2690    1.0000    0.0000 C   0  0  0  0  0  0  0  0  0  0  0  0
    3.4030   -0.5000    0.0000 C   0  0  0  0  0  0  0  0  0  0  0  0
   18.9914   -6.5000    0.0000 C   0  0  0  0  0  0  0  0  0  0  0  0
   17.2594   -6.5000    0.0000 C   0  0  0  0  0  0  0  0  0  0  0  0
   12.9292    8.0000    0.0000 C   0  0  0  0  0  0  0  0  0  0  0  0
   13.7953    6.5000    0.0000 C   0  0  0  0  0  0  0  0  0  0  0  0
    7.7331   -8.0000    0.0000 C   0  0  0  0  0  0  0  0  0  0  0  0
    3.4030    0.5000    0.0000 C   0  0  0  0  0  0  0  0  0  0  0  0
   21.5895    2.0000    0.0000 C   0  0  0  0  0  0  0  0  0  0  0  0
   20.7235    0.5000    0.0000 C   0  0  0  0  0  0  0  0  0  0  0  0
   18.1254   -7.0000    0.0000 C   0  0  0  0  0  0  0  0  0  0  0  0
   21.5895    1.0000    0.0000 C   0  0  0  0  0  0  0  0  0  0  0  0
   14.6613    7.0000    0.0000 C   0  0  0  0  0  0  0  0  0  0  0  0
   13.7953    8.5000    0.0000 C   0  0  0  0  0  0  0  0  0  0  0  0
   14.6613    8.0000    0.0000 C   0  0  0  0  0  0  0  0  0  0  0  0
  1 50  1  0
  1 51  1  0
 47  2  1  1
  2 53  1  0
 48  3  1  6
  3 54  1  0
 49  4  1  6
  4 55  1  0
 51  5  1  1
  5 56  1  0
  6 52  1  0
  6 60  1  0
  7 53  2  0
  8 54  2  0
  9 55  2  0
 10 56  2  0
 11 60  2  0
 12 71  1  0
 12 88  1  0
 13 72  1  0
 13 89  1  0
 14 75  1  0
 14 90  1  0
 15 73  1  0
 16 74  1  0
 17 76  1  0
 18 81  1  0
 18 91  1  0
 19 79  1  0
 20 80  1  0
 21 82  1  0
 22 83  1  0
 23 84  1  0
 24 85  1  0
 24 94  1  0
 25 86  1  0
 26 87  1  0
 27 88  2  0
 28 89  2  0
 29 90  2  0
 30 91  2  0
 31 94  2  0
 32106  1  0
 33107  1  0
 34108  1  0
 35109  1  0
 36110  1  0
 37111  1  0
 38114  1  0
 39115  1  0
 40116  1  0
 41117  1  0
 42118  1  0
 43119  1  0
 44120  1  0
 45121  1  0
 46122  1  0
 47 48  1  0
 47 49  1  0
 48 50  1  0
 49 51  1  0
 50 52  1  1
 53 57  1  0
 54 58  1  0
 55 59  1  0
 56 61  1  0
 57 63  2  0
 57 65  1  0
 58 64  2  0
 58 66  1  0
 59 67  2  0
 59 68  1  0
 60 62  1  0
 61 69  2  0
 61 70  1  0
 62 77  2  0
 62 78  1  0
 63 71  1  0
 64 72  1  0
 65 73  2  0
 66 74  2  0
 67 75  1  0
 68 76  2  0
 69 81  1  0
 70 82  2  0
 71 79  2  0
 72 80  2  0
 73 79  1  0
 74 80  1  0
 75 83  2  0
 76 83  1  0
 77 85  1  0
 78 86  2  0
 81 84  2  0
 82 84  1  0
 85 87  2  0
 86 87  1  0
 88 92  1  0
 89 93  1  0
 90 95  1  0
 91 96  1  0
 92 98  2  0
 92 99  1  0
 93100  2  0
 93101  1  0
 94 97  1  0
 95102  2  0
 95103  1  0
 96104  2  0
 96105  1  0
 97112  2  0
 97113  1  0
 98107  1  0
 99106  2  0
100109  1  0
101108  2  0
102111  1  0
103110  2  0
104117  1  0
105116  2  0
106114  1  0
107114  2  0
108115  1  0
109115  2  0
110118  1  0
111118  2  0
112121  1  0
113120  2  0
116119  1  0
117119  2  0
120122  1  0
121122  2  0
M  END
>  <PUBCHEM_COMPOUND_CID>  (1) 
16129778

>  <PUBCHEM_COMPOUND_CANONICALIZED>  (1) 
1

>  <PUBCHEM_CACTVS_COMPLEXITY>  (1) 
3570

>  <PUBCHEM_CACTVS_HBOND_ACCEPTOR>  (1) 
46

>  <PUBCHEM_CACTVS_HBOND_DONOR>  (1) 
25

>  <PUBCHEM_CACTVS_ROTATABLE_BOND>  (1) 
31

>  <PUBCHEM_CACTVS_SUBSKEYS>  (1) 
AAADcfB8PgAAAAAAAAAAAAAAAAAAAAAAAAA0YMGDAAAAAAABVAAAGgAACAAADBSwmAMwDoAABgCIAiDSCAACCAAkIAAAiAEGiMgdJzKGNRqieyOlwBUPuYfK7DzOIAABCAAAQABAAAIQAACAAAAAAAAAAA==

>  <PUBCHEM_IUPAC_OPENEYE_NAME>  (1) 
[2,3-dihydroxy-5-[[(2R,3R,4S,5R,6S)-3,4,5,6-tetrakis[[3,4-dihydroxy-5-(3,4,5-trihydroxybenzoyl)oxy-benzoyl]oxy]tetrahydropyran-2-yl]methoxycarbonyl]phenyl] 3,4,5-trihydroxybenzoate

>  <PUBCHEM_IUPAC_CAS_NAME>  (1) 
3,4,5-trihydroxybenzoic acid [2,3-dihydroxy-5-[oxo-[[(2R,3R,4S,5R,6S)-3,4,5,6-tetrakis[[3,4-dihydroxy-5-[oxo-(3,4,5-trihydroxyphenyl)methoxy]phenyl]-oxomethoxy]-2-oxanyl]methoxy]methyl]phenyl] ester

>  <PUBCHEM_IUPAC_NAME_MARKUP>  (1) 
[2,3-dihydroxy-5-[[(2<I>R</I>,3<I>R</I>,4<I>S</I>,5<I>R</I>,6<I>S</I>)-3,4,5,6-tetrakis[[3,4-dihydroxy-5-(3,4,5-trihydroxybenzoyl)oxybenzoyl]oxy]oxan-2-yl]methoxycarbonyl]phenyl] 3,4,5-trihydroxybenzoate

>  <PUBCHEM_IUPAC_NAME>  (1) 
[2,3-dihydroxy-5-[[(2R,3R,4S,5R,6S)-3,4,5,6-tetrakis[[3,4-dihydroxy-5-(3,4,5-trihydroxybenzoyl)oxybenzoyl]oxy]oxan-2-yl]methoxycarbonyl]phenyl] 3,4,5-trihydroxybenzoate

>  <PUBCHEM_IUPAC_SYSTEMATIC_NAME>  (1) 
[2,3-bis(oxidanyl)-5-[[(2R,3R,4S,5R,6S)-3,4,5,6-tetrakis[[3,4-bis(oxidanyl)-5-[3,4,5-tris(oxidanyl)phenyl]carbonyloxy-phenyl]carbonyloxy]oxan-2-yl]methoxycarbonyl]phenyl] 3,4,5-tris(oxidanyl)benzoate

>  <PUBCHEM_IUPAC_TRADITIONAL_NAME>  (1) 
3,4,5-trihydroxybenzoic acid [2,3-dihydroxy-5-[[(2R,3R,4S,5R,6S)-3,4,5,6-tetrakis[(3-galloyloxy-4,5-dihydroxy-benzoyl)oxy]tetrahydropyran-2-yl]methoxycarbonyl]phenyl] ester

>  <PUBCHEM_IUPAC_INCHI>  (1) 
InChI=1S/C76H52O46/c77-32-1-22(2-33(78)53(32)92)67(103)113-47-16-27(11-42(87)58(47)97)66(102)112-21-52-63(119-72(108)28-12-43(88)59(98)48(17-28)114-68(104)23-3-34(79)54(93)35(80)4-23)64(120-73(109)29-13-44(89)60(99)49(18-29)115-69(105)24-5-36(81)55(94)37(82)6-24)65(121-74(110)30-14-45(90)61(100)50(19-30)116-70(106)25-7-38(83)56(95)39(84)8-25)76(118-52)122-75(111)31-15-46(91)62(101)51(20-31)117-71(107)26-9-40(85)57(96)41(86)10-26/h1-20,52,63-65,76-101H,21H2/t52-,63-,64+,65-,76+/m1/s1

>  <PUBCHEM_IUPAC_INCHIKEY>  (1) 
LRBQNJMCXXYXIU-PPKXGCFTSA-N

>  <PUBCHEM_XLOGP3_AA>  (1) 
6.2

>  <PUBCHEM_EXACT_MASS>  (1) 
1700.1729741

>  <PUBCHEM_MOLECULAR_FORMULA>  (1) 
C76H52O46

>  <PUBCHEM_MOLECULAR_WEIGHT>  (1) 
1701.2

>  <PUBCHEM_OPENEYE_CAN_SMILES>  (1) 
C1=C(C=C(C(=C1O)O)O)C(=O)OC2=CC(=CC(=C2O)O)C(=O)OCC3C(C(C(C(O3)OC(=O)C4=CC(=C(C(=C4)OC(=O)C5=CC(=C(C(=C5)O)O)O)O)O)OC(=O)C6=CC(=C(C(=C6)OC(=O)C7=CC(=C(C(=C7)O)O)O)O)O)OC(=O)C8=CC(=C(C(=C8)OC(=O)C9=CC(=C(C(=C9)O)O)O)O)O)OC(=O)C1=CC(=C(C(=C1)OC(=O)C1=CC(=C(C(=C1)O)O)O)O)O

>  <PUBCHEM_OPENEYE_ISO_SMILES>  (1) 
C1=C(C=C(C(=C1O)O)O)C(=O)OC2=CC(=CC(=C2O)O)C(=O)OC[C@@H]3[C@H]([C@@H]([C@H]([C@@H](O3)OC(=O)C4=CC(=C(C(=C4)OC(=O)C5=CC(=C(C(=C5)O)O)O)O)O)OC(=O)C6=CC(=C(C(=C6)OC(=O)C7=CC(=C(C(=C7)O)O)O)O)O)OC(=O)C8=CC(=C(C(=C8)OC(=O)C9=CC(=C(C(=C9)O)O)O)O)O)OC(=O)C1=CC(=C(C(=C1)OC(=O)C1=CC(=C(C(=C1)O)O)O)O)O

>  <PUBCHEM_CACTVS_TPSA>  (1) 
778

>  <PUBCHEM_MONOISOTOPIC_WEIGHT>  (1) 
1700.1729741

>  <PUBCHEM_TOTAL_CHARGE>  (1) 
0

>  <PUBCHEM_HEAVY_ATOM_COUNT>  (1) 
122

>  <PUBCHEM_ATOM_DEF_STEREO_COUNT>  (1) 
5

>  <PUBCHEM_ATOM_UDEF_STEREO_COUNT>  (1) 
0

>  <PUBCHEM_BOND_DEF_STEREO_COUNT>  (1) 
0

>  <PUBCHEM_BOND_UDEF_STEREO_COUNT>  (1) 
0

>  <PUBCHEM_ISOTOPIC_ATOM_COUNT>  (1) 
0

>  <PUBCHEM_COMPONENT_COUNT>  (1) 
1

>  <PUBCHEM_CACTVS_TAUTO_COUNT>  (1) 
-1

>  <PUBCHEM_COORDINATE_TYPE>  (1) 
1
5
255

>  <PUBCHEM_BONDANNOTATIONS>  (1) 
100  109  8
101  108  8
102  111  8
103  110  8
104  117  8
105  116  8
106  114  8
107  114  8
108  115  8
109  115  8
110  118  8
111  118  8
112  121  8
113  120  8
116  119  8
117  119  8
120  122  8
121  122  8
47  2  5
48  3  6
49  4  6
51  5  5
50  52  5
57  63  8
57  65  8
58  64  8
58  66  8
59  67  8
59  68  8
61  69  8
61  70  8
62  77  8
62  78  8
63  71  8
64  72  8
65  73  8
66  74  8
67  75  8
68  76  8
69  81  8
70  82  8
71  79  8
72  80  8
73  79  8
74  80  8
75  83  8
76  83  8
77  85  8
78  86  8
81  84  8
82  84  8
85  87  8
86  87  8
92  98  8
92  99  8
93  100  8
93  101  8
95  102  8
95  103  8
96  104  8
96  105  8
97  112  8
97  113  8
98  107  8
99  106  8

$$$$
