44259136
     RDKit          2D

 33 36  0  0  1  0  0  0  0  0999 V2000
    5.1350   -1.2857    0.0000 O   0  0  0  0  0  0  0  0  0  0  0  0
    6.8671   -1.2857    0.0000 O   0  0  0  0  0  0  0  0  0  0  0  0
    5.1350   -4.2857    0.0000 O   0  0  0  0  0  0  0  0  0  0  0  0
    3.4030   -3.2857    0.0000 O   0  0  0  0  0  0  0  0  0  0  0  0
    6.8671   -3.2857    0.0000 O   0  0  0  0  0  0  0  0  0  0  0  0
    2.5369   -1.7857    0.0000 O   0  0  0  0  0  0  0  0  0  0  0  0
    7.7331    1.2143    0.0000 O   0  0  0  0  0  0  0  0  0  0  0  0
    5.1350   -0.2857    0.0000 O   0  0  0  0  0  0  0  0  0  0  0  0
    4.2308    1.2112    0.0000 O   0  0  0  0  0  0  0  0  0  0  0  0
    5.9889    4.2836    0.0000 O   0  0  0  0  0  0  0  0  0  0  0  0
   11.1972    0.2143    0.0000 O   0  0  0  0  0  0  0  0  0  0  0  0
   11.1972   -1.7857    0.0000 O   0  0  0  0  0  0  0  0  0  0  0  0
    5.1350   -3.2857    0.0000 C   0  0  0  0  0  0  0  0  0  0  0  0
    4.2690   -2.7857    0.0000 C   0  0  0  0  0  0  0  0  0  0  0  0
    6.0010   -2.7857    0.0000 C   0  0  0  0  0  0  0  0  0  0  0  0
    4.2690   -1.7857    0.0000 C   0  0  0  0  0  0  0  0  0  0  0  0
    6.0010   -1.7857    0.0000 C   0  0  0  0  0  0  0  0  0  0  0  0
    3.4030   -1.2857    0.0000 C   0  0  0  0  0  0  0  0  0  0  0  0
    6.8671   -0.2857    0.0000 C   0  0  0  0  0  0  0  0  0  0  0  0
    7.7331    0.2143    0.0000 C   0  0  0  0  0  0  0  0  0  0  0  0
    6.0010    0.2143    0.0000 C   0  0  0  0  0  0  0  0  0  0  0  0
    6.0010    1.2143    0.0000 C   0  0  0  0  0  0  0  0  0  0  0  0
    6.8671    1.7143    0.0000 C   0  0  0  0  0  0  0  0  0  0  0  0
    8.5991   -0.2857    0.0000 C   0  0  0  0  0  0  0  0  0  0  0  0
    5.0910    1.7212    0.0000 C   0  0  0  0  0  0  0  0  0  0  0  0
    6.8831    2.7558    0.0000 C   0  0  0  0  0  0  0  0  0  0  0  0
    9.4651    0.2143    0.0000 C   0  0  0  0  0  0  0  0  0  0  0  0
    8.5991   -1.2857    0.0000 C   0  0  0  0  0  0  0  0  0  0  0  0
    5.0830    2.7628    0.0000 C   0  0  0  0  0  0  0  0  0  0  0  0
    5.9851    3.2836    0.0000 C   0  0  0  0  0  0  0  0  0  0  0  0
   10.3312   -0.2857    0.0000 C   0  0  0  0  0  0  0  0  0  0  0  0
    9.4651   -1.7857    0.0000 C   0  0  0  0  0  0  0  0  0  0  0  0
   10.3312   -1.2857    0.0000 C   0  0  0  0  0  0  0  0  0  0  0  0
  1 16  1  0
  1 17  1  0
 17  2  1  1
  2 19  1  0
  3 13  1  0
 14  4  1  6
  5 15  1  0
  6 18  1  0
  7 20  1  0
  7 23  1  0
  8 21  2  0
  9 25  1  0
 10 30  1  0
 11 31  1  0
 12 33  1  0
 13 14  1  0
 13 15  1  0
 14 16  1  0
 15 17  1  0
 16 18  1  1
 19 20  2  0
 19 21  1  0
 20 24  1  0
 21 22  1  0
 22 23  2  0
 22 25  1  0
 23 26  1  0
 24 27  2  0
 24 28  1  0
 25 29  2  0
 26 30  2  0
 27 31  1  0
 28 32  2  0
 29 30  1  0
 31 33  2  0
 32 33  1  0
M  END
>  <PUBCHEM_COMPOUND_CID>  (1) 
44259136

>  <PUBCHEM_COMPOUND_CANONICALIZED>  (1) 
1

>  <PUBCHEM_CACTVS_COMPLEXITY>  (1) 
758

>  <PUBCHEM_CACTVS_HBOND_ACCEPTOR>  (1) 
12

>  <PUBCHEM_CACTVS_HBOND_DONOR>  (1) 
8

>  <PUBCHEM_CACTVS_ROTATABLE_BOND>  (1) 
4

>  <PUBCHEM_CACTVS_SUBSKEYS>  (1) 
AAADceB4PAAAAAAAAAAAAAAAAAAAAAAAAAA0YIEAAAAAAACBQAAAGgAACAAADBSwmAMwDoAABgCIAqBSAAICCAAkIAAIiAFGiMgdNzaGNR6ieWGl4BUPuQfI7LzOIAABCAAIQABAAAIQABCAAAAAAAAAAA==

>  <PUBCHEM_IUPAC_OPENEYE_NAME>  (1) 
2-(3,4-dihydroxyphenyl)-5,7-dihydroxy-3-[(2S,5S,6R)-3,4,5-trihydroxy-6-(hydroxymethyl)tetrahydropyran-2-yl]oxy-chromen-4-one

>  <PUBCHEM_IUPAC_CAS_NAME>  (1) 
2-(3,4-dihydroxyphenyl)-5,7-dihydroxy-3-[[(2S,5S,6R)-3,4,5-trihydroxy-6-(hydroxymethyl)-2-oxanyl]oxy]-1-benzopyran-4-one

>  <PUBCHEM_IUPAC_NAME_MARKUP>  (1) 
2-(3,4-dihydroxyphenyl)-5,7-dihydroxy-3-[(2<I>S</I>,5<I>S</I>,6<I>R</I>)-3,4,5-trihydroxy-6-(hydroxymethyl)oxan-2-yl]oxychromen-4-one

>  <PUBCHEM_IUPAC_NAME>  (1) 
2-(3,4-dihydroxyphenyl)-5,7-dihydroxy-3-[(2S,5S,6R)-3,4,5-trihydroxy-6-(hydroxymethyl)oxan-2-yl]oxychromen-4-one

>  <PUBCHEM_IUPAC_SYSTEMATIC_NAME>  (1) 
2-[3,4-bis(oxidanyl)phenyl]-3-[(2S,5S,6R)-6-(hydroxymethyl)-3,4,5-tris(oxidanyl)oxan-2-yl]oxy-5,7-bis(oxidanyl)chromen-4-one

>  <PUBCHEM_IUPAC_TRADITIONAL_NAME>  (1) 
2-(3,4-dihydroxyphenyl)-5,7-dihydroxy-3-[(2S,5S,6R)-3,4,5-trihydroxy-6-methylol-tetrahydropyran-2-yl]oxy-chromone

>  <PUBCHEM_IUPAC_INCHI>  (1) 
InChI=1S/C21H20O12/c22-6-13-15(27)17(29)18(30)21(32-13)33-20-16(28)14-11(26)4-8(23)5-12(14)31-19(20)7-1-2-9(24)10(25)3-7/h1-5,13,15,17-18,21-27,29-30H,6H2/t13-,15-,17?,18?,21+/m1/s1

>  <PUBCHEM_IUPAC_INCHIKEY>  (1) 
OVSQVDMCBVZWGM-ZVIPYZFUSA-N

>  <PUBCHEM_XLOGP3_AA>  (1) 
0.4

>  <PUBCHEM_EXACT_MASS>  (1) 
464.09547607

>  <PUBCHEM_MOLECULAR_FORMULA>  (1) 
C21H20O12

>  <PUBCHEM_MOLECULAR_WEIGHT>  (1) 
464.4

>  <PUBCHEM_OPENEYE_CAN_SMILES>  (1) 
C1=CC(=C(C=C1C2=C(C(=O)C3=C(C=C(C=C3O2)O)O)OC4C(C(C(C(O4)CO)O)O)O)O)O

>  <PUBCHEM_OPENEYE_ISO_SMILES>  (1) 
C1=CC(=C(C=C1C2=C(C(=O)C3=C(C=C(C=C3O2)O)O)O[C@H]4C(C([C@@H]([C@H](O4)CO)O)O)O)O)O

>  <PUBCHEM_CACTVS_TPSA>  (1) 
207

>  <PUBCHEM_MONOISOTOPIC_WEIGHT>  (1) 
464.09547607

>  <PUBCHEM_TOTAL_CHARGE>  (1) 
0

>  <PUBCHEM_HEAVY_ATOM_COUNT>  (1) 
33

>  <PUBCHEM_ATOM_DEF_STEREO_COUNT>  (1) 
3

>  <PUBCHEM_ATOM_UDEF_STEREO_COUNT>  (1) 
2

>  <PUBCHEM_BOND_DEF_STEREO_COUNT>  (1) 
0

>  <PUBCHEM_BOND_UDEF_STEREO_COUNT>  (1) 
0

>  <PUBCHEM_ISOTOPIC_ATOM_COUNT>  (1) 
0

>  <PUBCHEM_COMPONENT_COUNT>  (1) 
1

>  <PUBCHEM_CACTVS_TAUTO_COUNT>  (1) 
-1

>  <PUBCHEM_COORDINATE_TYPE>  (1) 
1
5
255

>  <PUBCHEM_BONDANNOTATIONS>  (1) 
16  18  5
19  20  8
19  21  8
17  2  5
21  22  8
22  23  8
22  25  8
23  26  8
24  27  8
24  28  8
25  29  8
26  30  8
27  31  8
28  32  8
29  30  8
13  3  3
31  33  8
32  33  8
14  4  6
15  5  3
7  20  8
7  23  8

$$$$
