MCSJ18_0003
  -OEChem-07172407422D

 57 59  0     0  0  0  0  0  0999 V2000
    8.0901   -1.9711    0.0000 O   0  0  0  0  0  0  0  0  0  0  0  0
    6.3301    1.0635    0.0000 O   0  0  0  0  0  0  0  0  0  0  0  0
    4.5981   -1.9365    0.0000 O   0  0  0  0  0  0  0  0  0  0  0  0
    8.0785    1.0981    0.0000 O   0  0  0  0  0  0  0  0  0  0  0  0
   12.4525    1.5977    0.0000 O   0  0  0  0  0  0  0  0  0  0  0  0
   10.7166    2.5910    0.0000 O   0  0  0  0  0  0  0  0  0  0  0  0
    7.1962   -0.4365    0.0000 C   0  0  0  0  0  0  0  0  0  0  0  0
    5.4641   -0.4365    0.0000 C   0  0  0  0  0  0  0  0  0  0  0  0
    8.9962   -0.4156    0.0000 C   0  0  0  0  0  0  0  0  0  0  0  0
    9.8602    0.0877    0.0000 C   0  0  0  0  0  0  0  0  0  0  0  0
    7.1962   -1.4365    0.0000 C   0  0  0  0  0  0  0  0  0  0  0  0
    6.3301    0.0635    0.0000 C   0  0  0  0  0  0  0  0  0  0  0  0
    8.0901    0.0982    0.0000 C   0  0  0  0  0  0  0  0  0  0  0  0
    4.5981    0.0635    0.0000 C   0  0  0  0  0  0  0  0  0  0  0  0
   11.5923    0.0944    0.0000 C   0  0  0  0  0  0  0  0  0  0  0  0
    5.4641   -1.4365    0.0000 C   0  0  0  0  0  0  0  0  0  0  0  0
   10.7282   -0.4090    0.0000 C   0  0  0  0  0  0  0  0  0  0  0  0
    6.3301   -1.9365    0.0000 C   0  0  0  0  0  0  0  0  0  0  0  0
   12.4602   -0.4023    0.0000 C   0  0  0  0  0  0  0  0  0  0  0  0
    8.9962   -1.4573    0.0000 C   0  0  0  0  0  0  0  0  0  0  0  0
    9.8564    1.0877    0.0000 C   0  0  0  0  0  0  0  0  0  0  0  0
   11.5884    1.0944    0.0000 C   0  0  0  0  0  0  0  0  0  0  0  0
   10.7205    1.5910    0.0000 C   0  0  0  0  0  0  0  0  0  0  0  0
    3.7320   -0.4365    0.0000 C   0  0  0  0  0  0  0  0  0  0  0  0
   12.4641   -1.4023    0.0000 C   0  0  0  0  0  0  0  0  0  0  0  0
    2.8660    0.0635    0.0000 C   0  0  0  0  0  0  0  0  0  0  0  0
   13.3320   -1.8989    0.0000 C   0  0  0  0  0  0  0  0  0  0  0  0
    2.0000   -0.4365    0.0000 C   0  0  0  0  0  0  0  0  0  0  0  0
    2.8660    1.0635    0.0000 C   0  0  0  0  0  0  0  0  0  0  0  0
   13.3359   -2.8989    0.0000 C   0  0  0  0  0  0  0  0  0  0  0  0
   14.1961   -1.3956    0.0000 C   0  0  0  0  0  0  0  0  0  0  0  0
    4.9966    0.5385    0.0000 H   0  0  0  0  0  0  0  0  0  0  0  0
    4.1996    0.5385    0.0000 H   0  0  0  0  0  0  0  0  0  0  0  0
   10.7306   -1.0290    0.0000 H   0  0  0  0  0  0  0  0  0  0  0  0
    6.3301   -2.5565    0.0000 H   0  0  0  0  0  0  0  0  0  0  0  0
   13.0712   -0.5076    0.0000 H   0  0  0  0  0  0  0  0  0  0  0  0
   12.6700    0.1811    0.0000 H   0  0  0  0  0  0  0  0  0  0  0  0
    9.5319   -1.7693    0.0000 H   0  0  0  0  0  0  0  0  0  0  0  0
    9.3183    1.3956    0.0000 H   0  0  0  0  0  0  0  0  0  0  0  0
    3.7320   -1.0565    0.0000 H   0  0  0  0  0  0  0  0  0  0  0  0
   11.9284   -1.7144    0.0000 H   0  0  0  0  0  0  0  0  0  0  0  0
    5.7932    1.3735    0.0000 H   0  0  0  0  0  0  0  0  0  0  0  0
    4.5981   -2.5565    0.0000 H   0  0  0  0  0  0  0  0  0  0  0  0
    1.6900    0.1005    0.0000 H   0  0  0  0  0  0  0  0  0  0  0  0
    1.4631   -0.7465    0.0000 H   0  0  0  0  0  0  0  0  0  0  0  0
    2.3100   -0.9734    0.0000 H   0  0  0  0  0  0  0  0  0  0  0  0
    3.4860    1.0635    0.0000 H   0  0  0  0  0  0  0  0  0  0  0  0
    2.8660    1.6835    0.0000 H   0  0  0  0  0  0  0  0  0  0  0  0
    2.2460    1.0635    0.0000 H   0  0  0  0  0  0  0  0  0  0  0  0
   12.4501    2.2177    0.0000 H   0  0  0  0  0  0  0  0  0  0  0  0
   12.7159   -2.9013    0.0000 H   0  0  0  0  0  0  0  0  0  0  0  0
   13.3383   -3.5189    0.0000 H   0  0  0  0  0  0  0  0  0  0  0  0
   13.9559   -2.8966    0.0000 H   0  0  0  0  0  0  0  0  0  0  0  0
   14.5082   -1.9314    0.0000 H   0  0  0  0  0  0  0  0  0  0  0  0
   14.7319   -1.0835    0.0000 H   0  0  0  0  0  0  0  0  0  0  0  0
   13.8841   -0.8599    0.0000 H   0  0  0  0  0  0  0  0  0  0  0  0
   10.1785    2.8989    0.0000 H   0  0  0  0  0  0  0  0  0  0  0  0
  1 11  1  0  0  0  0
  1 20  1  0  0  0  0
  2 12  1  0  0  0  0
  2 42  1  0  0  0  0
  3 16  1  0  0  0  0
  3 43  1  0  0  0  0
  4 13  2  0  0  0  0
  5 22  1  0  0  0  0
  5 50  1  0  0  0  0
  6 23  1  0  0  0  0
  6 57  1  0  0  0  0
  7 11  2  0  0  0  0
  7 12  1  0  0  0  0
  7 13  1  0  0  0  0
  8 12  2  0  0  0  0
  8 14  1  0  0  0  0
  8 16  1  0  0  0  0
  9 10  1  0  0  0  0
  9 13  1  0  0  0  0
  9 20  2  0  0  0  0
 10 17  2  0  0  0  0
 10 21  1  0  0  0  0
 11 18  1  0  0  0  0
 14 24  1  0  0  0  0
 14 32  1  0  0  0  0
 14 33  1  0  0  0  0
 15 17  1  0  0  0  0
 15 19  1  0  0  0  0
 15 22  2  0  0  0  0
 16 18  2  0  0  0  0
 17 34  1  0  0  0  0
 18 35  1  0  0  0  0
 19 25  1  0  0  0  0
 19 36  1  0  0  0  0
 19 37  1  0  0  0  0
 20 38  1  0  0  0  0
 21 23  2  0  0  0  0
 21 39  1  0  0  0  0
 22 23  1  0  0  0  0
 24 26  2  0  0  0  0
 24 40  1  0  0  0  0
 25 27  2  0  0  0  0
 25 41  1  0  0  0  0
 26 28  1  0  0  0  0
 26 29  1  0  0  0  0
 27 30  1  0  0  0  0
 27 31  1  0  0  0  0
 28 44  1  0  0  0  0
 28 45  1  0  0  0  0
 28 46  1  0  0  0  0
 29 47  1  0  0  0  0
 29 48  1  0  0  0  0
 29 49  1  0  0  0  0
 30 51  1  0  0  0  0
 30 52  1  0  0  0  0
 30 53  1  0  0  0  0
 31 54  1  0  0  0  0
 31 55  1  0  0  0  0
 31 56  1  0  0  0  0
M  END
> <PUBCHEM_COMPOUND_CID>
21591148

> <PUBCHEM_COMPOUND_CANONICALIZED>
1

> <PUBCHEM_CACTVS_COMPLEXITY>
745

> <PUBCHEM_CACTVS_HBOND_ACCEPTOR>
6

> <PUBCHEM_CACTVS_HBOND_DONOR>
4

> <PUBCHEM_CACTVS_ROTATABLE_BOND>
5

> <PUBCHEM_CACTVS_SUBSKEYS>
AAADceB4OAAAAAAAAAAAAAAAAAAAAAAAAAAwYIAAAAAAAACBQAAAGgAACAAADASgmAIyBoAABgCIAqBSAAACCAAkIAAAiAEGiMgNJzaGNRqAcWEl4BUJuYeI7PzOIAADCAAIQABAAAYQABCAAAAAAAAAAA==

> <PUBCHEM_IUPAC_OPENEYE_NAME>
3-[3,4-dihydroxy-5-(3-methylbut-2-enyl)phenyl]-5,7-dihydroxy-6-(3-methylbut-2-enyl)chromen-4-one

> <PUBCHEM_IUPAC_CAS_NAME>
3-[3,4-dihydroxy-5-(3-methylbut-2-enyl)phenyl]-5,7-dihydroxy-6-(3-methylbut-2-enyl)-1-benzopyran-4-one

> <PUBCHEM_IUPAC_NAME_MARKUP>
3-[3,4-dihydroxy-5-(3-methylbut-2-enyl)phenyl]-5,7-dihydroxy-6-(3-methylbut-2-enyl)chromen-4-one

> <PUBCHEM_IUPAC_NAME>
3-[3,4-dihydroxy-5-(3-methylbut-2-enyl)phenyl]-5,7-dihydroxy-6-(3-methylbut-2-enyl)chromen-4-one

> <PUBCHEM_IUPAC_SYSTEMATIC_NAME>
6-(3-methylbut-2-enyl)-3-[3-(3-methylbut-2-enyl)-4,5-bis(oxidanyl)phenyl]-5,7-bis(oxidanyl)chromen-4-one

> <PUBCHEM_IUPAC_TRADITIONAL_NAME>
3-[3,4-dihydroxy-5-(3-methylbut-2-enyl)phenyl]-5,7-dihydroxy-6-(3-methylbut-2-enyl)chromone

> <PUBCHEM_IUPAC_INCHI>
InChI=1S/C25H26O6/c1-13(2)5-7-15-9-16(10-20(27)23(15)28)18-12-31-21-11-19(26)17(8-6-14(3)4)24(29)22(21)25(18)30/h5-6,9-12,26-29H,7-8H2,1-4H3

> <PUBCHEM_IUPAC_INCHIKEY>
QNLGNISMYMFVHP-UHFFFAOYSA-N

> <PUBCHEM_XLOGP3_AA>
6.2

> <PUBCHEM_EXACT_MASS>
422.17293854

> <PUBCHEM_MOLECULAR_FORMULA>
C25H26O6

> <PUBCHEM_MOLECULAR_WEIGHT>
422.5

> <PUBCHEM_OPENEYE_CAN_SMILES>
CC(=CCC1=C(C(=CC(=C1)C2=COC3=C(C2=O)C(=C(C(=C3)O)CC=C(C)C)O)O)O)C

> <PUBCHEM_OPENEYE_ISO_SMILES>
CC(=CCC1=C(C(=CC(=C1)C2=COC3=C(C2=O)C(=C(C(=C3)O)CC=C(C)C)O)O)O)C

> <PUBCHEM_CACTVS_TPSA>
107

> <PUBCHEM_MONOISOTOPIC_WEIGHT>
422.17293854

> <PUBCHEM_TOTAL_CHARGE>
0

> <PUBCHEM_HEAVY_ATOM_COUNT>
31

> <PUBCHEM_ATOM_DEF_STEREO_COUNT>
0

> <PUBCHEM_ATOM_UDEF_STEREO_COUNT>
0

> <PUBCHEM_BOND_DEF_STEREO_COUNT>
0

> <PUBCHEM_BOND_UDEF_STEREO_COUNT>
0

> <PUBCHEM_ISOTOPIC_ATOM_COUNT>
0

> <PUBCHEM_COMPONENT_COUNT>
1

> <PUBCHEM_CACTVS_TAUTO_COUNT>
828

> <PUBCHEM_COORDINATE_TYPE>
1
5
255

> <PUBCHEM_BONDANNOTATIONS>
1  11  8
1  20  8
10  17  8
10  21  8
11  18  8
15  17  8
15  22  8
16  18  8
21  23  8
22  23  8
7  11  8
7  12  8
7  13  8
8  12  8
8  16  8
9  13  8
9  20  8

$$$$
