162727
     RDKit          2D

 30 34  0  0  1  0  0  0  0  0999 V2000
   10.9848    2.3305    0.0000 O   0  0  0  0  0  0  0  0  0  0  0  0
    9.1654    3.3623    0.0000 O   0  0  0  0  0  0  0  0  0  0  0  0
    5.6449   -0.8139    0.0000 C   0  0  0  0  0  0  0  0  0  0  0  0
    6.5109   -1.3139    0.0000 C   0  0  0  0  0  0  0  0  0  0  0  0
    4.7349   -1.3208    0.0000 C   0  0  0  0  0  0  0  0  0  0  0  0
    4.7269   -2.3624    0.0000 C   0  0  0  0  0  0  0  0  0  0  0  0
    6.5270   -2.3554    0.0000 C   0  0  0  0  0  0  0  0  0  0  0  0
    5.6449    0.1861    0.0000 C   0  0  0  0  0  0  0  0  0  0  0  0
    5.6290   -2.8832    0.0000 C   0  0  0  0  0  0  0  0  0  0  0  0
    7.3770   -0.8139    0.0000 C   0  0  0  0  0  0  0  0  0  0  0  0
    7.3770    0.1861    0.0000 C   0  0  0  0  0  0  0  0  0  0  0  0
    6.5109    0.6861    0.0000 C   0  0  0  0  0  0  0  0  0  0  0  0
    3.8081   -0.7567    0.0000 C   0  0  0  0  0  0  0  0  0  0  0  0
    4.7789   -0.3139    0.0000 C   0  0  0  0  0  0  0  0  0  0  0  0
    3.7914   -2.9121    0.0000 C   0  0  0  0  0  0  0  0  0  0  0  0
    7.3770   -1.8139    0.0000 C   0  0  0  0  0  0  0  0  0  0  0  0
    4.7192   -3.3623    0.0000 C   0  0  0  0  0  0  0  0  0  0  0  0
    2.8602   -1.2846    0.0000 C   0  0  0  0  0  0  0  0  0  0  0  0
    8.2709    0.7208    0.0000 C   0  0  0  0  0  0  0  0  0  0  0  0
    2.8518   -2.3696    0.0000 C   0  0  0  0  0  0  0  0  0  0  0  0
    8.2709   -1.3486    0.0000 C   0  0  0  0  0  0  0  0  0  0  0  0
    7.3770    1.1861    0.0000 C   0  0  0  0  0  0  0  0  0  0  0  0
    9.1770    0.2069    0.0000 C   0  0  0  0  0  0  0  0  0  0  0  0
    9.1770   -0.8347    0.0000 C   0  0  0  0  0  0  0  0  0  0  0  0
    2.0000   -0.7746    0.0000 C   0  0  0  0  0  0  0  0  0  0  0  0
    8.2458    1.8055    0.0000 C   0  0  0  0  0  0  0  0  0  0  0  0
   10.1208    0.7422    0.0000 C   0  0  0  0  0  0  0  0  0  0  0  0
    9.1770    2.3624    0.0000 C   0  0  0  0  0  0  0  0  0  0  0  0
   10.1208    1.8272    0.0000 C   0  0  0  0  0  0  0  0  0  0  0  0
   10.9848    0.2388    0.0000 C   0  0  0  0  0  0  0  0  0  0  0  0
  1 29  1  0
  2 28  2  0
  3  4  1  0
  3  5  1  0
  3  8  1  0
  3 14  1  0
  4  7  1  0
  4 10  1  0
  4 16  1  0
  5  6  1  0
  5 13  1  0
  6  9  1  0
  6 15  1  0
  6 17  1  0
  7  9  1  0
  8 12  1  0
 10 11  1  0
 10 21  2  0
 11 12  1  0
 11 19  1  0
 11 22  1  0
 13 18  1  0
 15 20  1  0
 18 20  2  0
 18 25  1  0
 19 23  1  0
 19 26  2  0
 21 24  1  0
 23 24  2  0
 23 27  1  0
 26 28  1  0
 27 29  2  0
 27 30  1  0
 28 29  1  0
M  END
>  <PUBCHEM_COMPOUND_CID>  (1) 
162727

>  <PUBCHEM_COMPOUND_CANONICALIZED>  (1) 
1

>  <PUBCHEM_CACTVS_COMPLEXITY>  (1) 
1020

>  <PUBCHEM_CACTVS_HBOND_ACCEPTOR>  (1) 
2

>  <PUBCHEM_CACTVS_HBOND_DONOR>  (1) 
1

>  <PUBCHEM_CACTVS_ROTATABLE_BOND>  (1) 
0

>  <PUBCHEM_CACTVS_SUBSKEYS>  (1) 
AAADcfB4MAAAAAAAAAAAAAAAAAAAAAAAAAAwYIECAAAAAADAAAAAGgAACAAADwSAgAACAAAAAgCIAqBSAAIAAAAgIAAACABAAEgIAAIAAQAAQAAAwAAIgQMAgMAPgAAAAAAAAACAAAQAACAAAAAAAAAAAA==

>  <PUBCHEM_IUPAC_OPENEYE_NAME>  (1) 
3-hydroxy-4,6a,6b,8a,11,14a-hexamethyl-8,9,12,12a,13,14-hexahydro-7H-picen-2-one

>  <PUBCHEM_IUPAC_CAS_NAME>  (1) 
3-hydroxy-4,6a,6b,8a,11,14a-hexamethyl-8,9,12,12a,13,14-hexahydro-7H-picen-2-one

>  <PUBCHEM_IUPAC_NAME_MARKUP>  (1) 
3-hydroxy-4,6<I>a</I>,6<I>b</I>,8<I>a</I>,11,14<I>a</I>-hexamethyl-8,9,12,12<I>a</I>,13,14-hexahydro-7<I>H</I>-picen-2-one

>  <PUBCHEM_IUPAC_NAME>  (1) 
3-hydroxy-4,6a,6b,8a,11,14a-hexamethyl-8,9,12,12a,13,14-hexahydro-7H-picen-2-one

>  <PUBCHEM_IUPAC_SYSTEMATIC_NAME>  (1) 
4,6a,6b,8a,11,14a-hexamethyl-3-oxidanyl-8,9,12,12a,13,14-hexahydro-7H-picen-2-one

>  <PUBCHEM_IUPAC_TRADITIONAL_NAME>  (1) 
3-hydroxy-4,6a,6b,8a,11,14a-hexamethyl-8,9,12,12a,13,14-hexahydro-7H-picen-2-one

>  <PUBCHEM_IUPAC_INCHI>  (1) 
InChI=1S/C28H36O2/c1-17-9-10-25(3)11-13-27(5)22-8-7-19-18(2)24(30)21(29)16-20(19)26(22,4)12-14-28(27,6)23(25)15-17/h7-9,16,23,30H,10-15H2,1-6H3

>  <PUBCHEM_IUPAC_INCHIKEY>  (1) 
FLMDVQMCMIGPEK-UHFFFAOYSA-N

>  <PUBCHEM_XLOGP3_AA>  (1) 
6.1

>  <PUBCHEM_EXACT_MASS>  (1) 
404.271530387

>  <PUBCHEM_MOLECULAR_FORMULA>  (1) 
C28H36O2

>  <PUBCHEM_MOLECULAR_WEIGHT>  (1) 
404.6

>  <PUBCHEM_OPENEYE_CAN_SMILES>  (1) 
CC1=CCC2(CCC3(C4=CC=C5C(=C(C(=O)C=C5C4(CCC3(C2C1)C)C)O)C)C)C

>  <PUBCHEM_OPENEYE_ISO_SMILES>  (1) 
CC1=CCC2(CCC3(C4=CC=C5C(=C(C(=O)C=C5C4(CCC3(C2C1)C)C)O)C)C)C

>  <PUBCHEM_CACTVS_TPSA>  (1) 
37.3

>  <PUBCHEM_MONOISOTOPIC_WEIGHT>  (1) 
404.271530387

>  <PUBCHEM_TOTAL_CHARGE>  (1) 
0

>  <PUBCHEM_HEAVY_ATOM_COUNT>  (1) 
30

>  <PUBCHEM_ATOM_DEF_STEREO_COUNT>  (1) 
0

>  <PUBCHEM_ATOM_UDEF_STEREO_COUNT>  (1) 
5

>  <PUBCHEM_BOND_DEF_STEREO_COUNT>  (1) 
0

>  <PUBCHEM_BOND_UDEF_STEREO_COUNT>  (1) 
0

>  <PUBCHEM_ISOTOPIC_ATOM_COUNT>  (1) 
0

>  <PUBCHEM_COMPONENT_COUNT>  (1) 
1

>  <PUBCHEM_CACTVS_TAUTO_COUNT>  (1) 
-1

>  <PUBCHEM_COORDINATE_TYPE>  (1) 
1
5
255

>  <PUBCHEM_BONDANNOTATIONS>  (1) 
11  22  3
3  14  3
4  16  3
5  13  3
6  17  3

$$$$
