10343070
     RDKit          2D

 32 34  0  0  0  0  0  0  0  0999 V2000
    8.1301    0.5746    0.0000 O   0  0  0  0  0  0  0  0  0  0  0  0
    6.3817    3.6092    0.0000 O   0  0  0  0  0  0  0  0  0  0  0  0
    4.6000    0.5505    0.0000 O   0  0  0  0  0  0  0  0  0  0  0  0
    9.8622    2.5746    0.0000 O   0  0  0  0  0  0  0  0  0  0  0  0
    8.1301    3.5746    0.0000 O   0  0  0  0  0  0  0  0  0  0  0  0
   12.4602   -0.9254    0.0000 O   0  0  0  0  0  0  0  0  0  0  0  0
   12.4602    1.0746    0.0000 O   0  0  0  0  0  0  0  0  0  0  0  0
    7.2641    2.0746    0.0000 C   0  0  0  0  0  0  0  0  0  0  0  0
    5.4641    2.0954    0.0000 C   0  0  0  0  0  0  0  0  0  0  0  0
    7.2641    1.0746    0.0000 C   0  0  0  0  0  0  0  0  0  0  0  0
    6.3701    2.6093    0.0000 C   0  0  0  0  0  0  0  0  0  0  0  0
    8.9961    1.0746    0.0000 C   0  0  0  0  0  0  0  0  0  0  0  0
    9.8622    0.5746    0.0000 C   0  0  0  0  0  0  0  0  0  0  0  0
    4.6000    2.5988    0.0000 C   0  0  0  0  0  0  0  0  0  0  0  0
    5.4641    1.0538    0.0000 C   0  0  0  0  0  0  0  0  0  0  0  0
    8.1301    2.5746    0.0000 C   0  0  0  0  0  0  0  0  0  0  0  0
   10.7282   -0.9254    0.0000 C   0  0  0  0  0  0  0  0  0  0  0  0
    6.3701    0.5399    0.0000 C   0  0  0  0  0  0  0  0  0  0  0  0
    8.9961    2.0746    0.0000 C   0  0  0  0  0  0  0  0  0  0  0  0
    9.8622   -0.4254    0.0000 C   0  0  0  0  0  0  0  0  0  0  0  0
   10.7282   -1.9254    0.0000 C   0  0  0  0  0  0  0  0  0  0  0  0
   10.7282    1.0746    0.0000 C   0  0  0  0  0  0  0  0  0  0  0  0
   11.5942   -0.4254    0.0000 C   0  0  0  0  0  0  0  0  0  0  0  0
   11.5942    0.5746    0.0000 C   0  0  0  0  0  0  0  0  0  0  0  0
    3.7320    2.1021    0.0000 C   0  0  0  0  0  0  0  0  0  0  0  0
    9.8622   -2.4254    0.0000 C   0  0  0  0  0  0  0  0  0  0  0  0
    2.8680    2.6054    0.0000 C   0  0  0  0  0  0  0  0  0  0  0  0
    9.8622   -3.4254    0.0000 C   0  0  0  0  0  0  0  0  0  0  0  0
    2.0000    2.1088    0.0000 C   0  0  0  0  0  0  0  0  0  0  0  0
    2.8718    3.6054    0.0000 C   0  0  0  0  0  0  0  0  0  0  0  0
    8.9961   -3.9254    0.0000 C   0  0  0  0  0  0  0  0  0  0  0  0
   10.7282   -3.9254    0.0000 C   0  0  0  0  0  0  0  0  0  0  0  0
  1 10  1  0
  1 12  1  0
  2 11  1  0
  3 15  1  0
  4 19  1  0
  5 16  2  0
  6 23  1  0
  7 24  1  0
  8 10  2  0
  8 11  1  0
  8 16  1  0
  9 11  2  0
  9 14  1  0
  9 15  1  0
 10 18  1  0
 12 13  1  0
 12 19  2  0
 13 20  1  0
 13 22  2  0
 14 25  1  0
 15 18  2  0
 16 19  1  0
 17 20  2  0
 17 21  1  0
 17 23  1  0
 21 26  1  0
 22 24  1  0
 23 24  2  0
 25 27  2  0
 26 28  2  0
 27 29  1  0
 27 30  1  0
 28 31  1  0
 28 32  1  0
M  END
>  <PUBCHEM_COMPOUND_CID>  (1) 
10343070

>  <PUBCHEM_COMPOUND_CANONICALIZED>  (1) 
1

>  <PUBCHEM_CACTVS_COMPLEXITY>  (1) 
790

>  <PUBCHEM_CACTVS_HBOND_ACCEPTOR>  (1) 
7

>  <PUBCHEM_CACTVS_HBOND_DONOR>  (1) 
5

>  <PUBCHEM_CACTVS_ROTATABLE_BOND>  (1) 
5

>  <PUBCHEM_CACTVS_SUBSKEYS>  (1) 
AAADceB4OAAAAAAAAAAAAAAAAAAAAAAAAAAwYIAAAAAAAACBQAAAGgAACAAADASAmAAyBoAABgCIAqBSAAICCAAkIAAAiAFGiMgNJzaGNRqCeWGl4BUJuQfI7PzOIAADCAAIQABAAAYQABCAAAAAAAAAAA==

>  <PUBCHEM_IUPAC_OPENEYE_NAME>  (1) 
2-[3,4-dihydroxy-5-(3-methylbut-2-enyl)phenyl]-3,5,7-trihydroxy-6-(3-methylbut-2-enyl)chromen-4-one

>  <PUBCHEM_IUPAC_CAS_NAME>  (1) 
2-[3,4-dihydroxy-5-(3-methylbut-2-enyl)phenyl]-3,5,7-trihydroxy-6-(3-methylbut-2-enyl)-1-benzopyran-4-one

>  <PUBCHEM_IUPAC_NAME_MARKUP>  (1) 
2-[3,4-dihydroxy-5-(3-methylbut-2-enyl)phenyl]-3,5,7-trihydroxy-6-(3-methylbut-2-enyl)chromen-4-one

>  <PUBCHEM_IUPAC_NAME>  (1) 
2-[3,4-dihydroxy-5-(3-methylbut-2-enyl)phenyl]-3,5,7-trihydroxy-6-(3-methylbut-2-enyl)chromen-4-one

>  <PUBCHEM_IUPAC_SYSTEMATIC_NAME>  (1) 
6-(3-methylbut-2-enyl)-2-[3-(3-methylbut-2-enyl)-4,5-bis(oxidanyl)phenyl]-3,5,7-tris(oxidanyl)chromen-4-one

>  <PUBCHEM_IUPAC_TRADITIONAL_NAME>  (1) 
2-[3,4-dihydroxy-5-(3-methylbut-2-enyl)phenyl]-3,5,7-trihydroxy-6-(3-methylbut-2-enyl)chromone

>  <PUBCHEM_IUPAC_INCHI>  (1) 
InChI=1S/C25H26O7/c1-12(2)5-7-14-9-15(10-18(27)21(14)28)25-24(31)23(30)20-19(32-25)11-17(26)16(22(20)29)8-6-13(3)4/h5-6,9-11,26-29,31H,7-8H2,1-4H3

>  <PUBCHEM_IUPAC_INCHIKEY>  (1) 
NQBROFAEMRVICP-UHFFFAOYSA-N

>  <PUBCHEM_XLOGP3_AA>  (1) 
6

>  <PUBCHEM_EXACT_MASS>  (1) 
438.16785316

>  <PUBCHEM_MOLECULAR_FORMULA>  (1) 
C25H26O7

>  <PUBCHEM_MOLECULAR_WEIGHT>  (1) 
438.5

>  <PUBCHEM_OPENEYE_CAN_SMILES>  (1) 
CC(=CCC1=C(C(=CC(=C1)C2=C(C(=O)C3=C(O2)C=C(C(=C3O)CC=C(C)C)O)O)O)O)C

>  <PUBCHEM_OPENEYE_ISO_SMILES>  (1) 
CC(=CCC1=C(C(=CC(=C1)C2=C(C(=O)C3=C(O2)C=C(C(=C3O)CC=C(C)C)O)O)O)O)C

>  <PUBCHEM_CACTVS_TPSA>  (1) 
127

>  <PUBCHEM_MONOISOTOPIC_WEIGHT>  (1) 
438.16785316

>  <PUBCHEM_TOTAL_CHARGE>  (1) 
0

>  <PUBCHEM_HEAVY_ATOM_COUNT>  (1) 
32

>  <PUBCHEM_ATOM_DEF_STEREO_COUNT>  (1) 
0

>  <PUBCHEM_ATOM_UDEF_STEREO_COUNT>  (1) 
0

>  <PUBCHEM_BOND_DEF_STEREO_COUNT>  (1) 
0

>  <PUBCHEM_BOND_UDEF_STEREO_COUNT>  (1) 
0

>  <PUBCHEM_ISOTOPIC_ATOM_COUNT>  (1) 
0

>  <PUBCHEM_COMPONENT_COUNT>  (1) 
1

>  <PUBCHEM_CACTVS_TAUTO_COUNT>  (1) 
-1

>  <PUBCHEM_COORDINATE_TYPE>  (1) 
1
5
255

>  <PUBCHEM_BONDANNOTATIONS>  (1) 
1  10  8
1  12  8
10  18  8
12  19  8
13  20  8
13  22  8
15  18  8
16  19  8
17  20  8
17  23  8
22  24  8
23  24  8
8  10  8
8  11  8
8  16  8
9  11  8
9  15  8

$$$$
