21778345
     RDKit          2D

 34 36  0  0  1  0  0  0  0  0999 V2000
    5.5961    3.6830    0.0000 Br  0  0  0  0  0  0  0  0  0  0  0  0
    5.1688    0.3943    0.0000 Br  0  0  0  0  0  0  0  0  0  0  0  0
    2.1320   -3.3170    0.0000 Br  0  0  0  0  0  0  0  0  0  0  0  0
    2.4919    0.7387    0.0000 O   0  0  0  0  0  0  0  0  0  0  0  0
    4.7301   -2.8170    0.0000 O   0  0  0  0  0  0  0  0  0  0  0  0
    6.2370    1.4621    0.0000 O   0  0  0  0  0  0  0  0  0  0  0  0
    6.4621   -2.8170    0.0000 O   0  0  0  0  0  0  0  0  0  0  0  0
    6.4621    2.1830    0.0000 C   0  0  0  0  0  0  0  0  0  0  0  0
    6.4621    3.1830    0.0000 C   0  0  0  0  0  0  0  0  0  0  0  0
    5.5961    1.6830    0.0000 C   0  0  0  0  0  0  0  0  0  0  0  0
    7.3282    1.6830    0.0000 C   0  0  0  0  0  0  0  0  0  0  0  0
    7.3282    3.6830    0.0000 C   0  0  0  0  0  0  0  0  0  0  0  0
    4.5406    1.8220    0.0000 C   0  0  0  0  0  0  0  0  0  0  0  0
    8.1942    2.1830    0.0000 C   0  0  0  0  0  0  0  0  0  0  0  0
    8.1942    3.1830    0.0000 C   0  0  0  0  0  0  0  0  0  0  0  0
    5.5961    2.6830    0.0000 C   0  0  0  0  0  0  0  0  0  0  0  0
    4.2818    0.8560    0.0000 C   0  0  0  0  0  0  0  0  0  0  0  0
    3.4158    0.3560    0.0000 C   0  0  0  0  0  0  0  0  0  0  0  0
    7.3282    0.6830    0.0000 C   0  0  0  0  0  0  0  0  0  0  0  0
    3.1569   -0.6099    0.0000 C   0  0  0  0  0  0  0  0  0  0  0  0
    3.8640   -1.3170    0.0000 C   0  0  0  0  0  0  0  0  0  0  0  0
    9.0602    1.6830    0.0000 C   0  0  0  0  0  0  0  0  0  0  0  0
    3.2852    1.3475    0.0000 C   0  0  0  0  0  0  0  0  0  0  0  0
    6.4621    0.1830    0.0000 C   0  0  0  0  0  0  0  0  0  0  0  0
    3.8640   -2.3170    0.0000 C   0  0  0  0  0  0  0  0  0  0  0  0
    2.9980   -2.8170    0.0000 C   0  0  0  0  0  0  0  0  0  0  0  0
    6.4621   -0.8170    0.0000 C   0  0  0  0  0  0  0  0  0  0  0  0
    5.5883    0.7011    0.0000 C   0  0  0  0  0  0  0  0  0  0  0  0
    5.5961   -1.3170    0.0000 C   0  0  0  0  0  0  0  0  0  0  0  0
    3.4980   -3.6830    0.0000 C   0  0  0  0  0  0  0  0  0  0  0  0
    2.4980   -1.9510    0.0000 C   0  0  0  0  0  0  0  0  0  0  0  0
    5.5961   -2.3170    0.0000 C   0  0  0  0  0  0  0  0  0  0  0  0
    4.7066    0.1965    0.0000 C   0  0  0  0  0  0  0  0  0  0  0  0
    4.7105   -0.8193    0.0000 C   0  0  0  0  0  0  0  0  0  0  0  0
  9  1  1  1
 17  2  1  1
  3 26  1  0
 18  4  1  0
  5 25  1  0
  5 32  1  0
  6 28  1  0
  7 32  2  0
  8  9  1  0
  8 10  1  0
  8 11  1  0
  8 16  1  1
  9 12  1  0
 10 13  1  0
 11 14  2  0
 11 19  1  0
 12 15  1  0
 13 17  1  0
 14 15  1  0
 14 22  1  0
 17 18  1  0
 18 20  1  0
 18 23  1  1
 19 24  1  0
 20 21  1  0
 21 25  1  0
 24 27  2  0
 24 28  1  0
 25 26  1  6
 26 30  1  0
 26 31  1  0
 27 29  1  0
 28 33  2  0
 29 32  1  0
 29 34  2  0
 33 34  1  0
M  END
>  <PUBCHEM_COMPOUND_CID>  (1) 
21778345

>  <PUBCHEM_COMPOUND_CANONICALIZED>  (1) 
1

>  <PUBCHEM_CACTVS_COMPLEXITY>  (1) 
784

>  <PUBCHEM_CACTVS_HBOND_ACCEPTOR>  (1) 
4

>  <PUBCHEM_CACTVS_HBOND_DONOR>  (1) 
2

>  <PUBCHEM_CACTVS_ROTATABLE_BOND>  (1) 
1

>  <PUBCHEM_CACTVS_SUBSKEYS>  (1) 
AAADcfB4OAAAGAAAAAAAAAAAAAAAAAAAAAAwQAAAAAAAAAABAAAAGgBACAABzlSgmAIyDoAABgCIAiDSCAACAAAkIAAIiAEGCOgIJjKCNRqCcQAkwBEIuYfI7PzPIAACAAAIAABAAAQAABAAAAAAAAAAAA==

>  <PUBCHEM_IUPAC_OPENEYE_NAME>  (1) 
(7S,8S,11R,12S,15S)-7,11-dibromo-15-(1-bromo-1-methyl-ethyl)-12,21-dihydroxy-4,8,12-trimethyl-16-oxatricyclo[16.3.1.03,8]docosa-1(21),3,18(22),19-tetraen-17-one

>  <PUBCHEM_IUPAC_CAS_NAME>  (1) 
(7S,8S,11R,12S,15S)-7,11-dibromo-15-(2-bromopropan-2-yl)-12,21-dihydroxy-4,8,12-trimethyl-16-oxatricyclo[16.3.1.03,8]docosa-1(21),3,18(22),19-tetraen-17-one

>  <PUBCHEM_IUPAC_NAME_MARKUP>  (1) 
(7<I>S</I>,8<I>S</I>,11<I>R</I>,12<I>S</I>,15<I>S</I>)-7,11-dibromo-15-(2-bromopropan-2-yl)-12,21-dihydroxy-4,8,12-trimethyl-16-oxatricyclo[16.3.1.0<SUP>3,8</SUP>]docosa-1(21),3,18(22),19-tetraen-17-one

>  <PUBCHEM_IUPAC_NAME>  (1) 
(7S,8S,11R,12S,15S)-7,11-dibromo-15-(2-bromopropan-2-yl)-12,21-dihydroxy-4,8,12-trimethyl-16-oxatricyclo[16.3.1.03,8]docosa-1(21),3,18(22),19-tetraen-17-one

>  <PUBCHEM_IUPAC_SYSTEMATIC_NAME>  (1) 
(7S,8S,11R,12S,15S)-7,11-bis(bromanyl)-15-(2-bromanylpropan-2-yl)-4,8,12-trimethyl-12,21-bis(oxidanyl)-16-oxatricyclo[16.3.1.03,8]docosa-1(21),3,18(22),19-tetraen-17-one

>  <PUBCHEM_IUPAC_TRADITIONAL_NAME>  (1) 
(7S,8S,11R,12S,15S)-7,11-dibromo-15-(1-bromo-1-methyl-ethyl)-12,21-dihydroxy-4,8,12-trimethyl-16-oxatricyclo[16.3.1.03,8]docosa-1(21),3,18(22),19-tetraen-17-one

>  <PUBCHEM_IUPAC_INCHI>  (1) 
InChI=1S/C27H37Br3O4/c1-16-6-9-21(28)26(4)12-10-22(29)27(5,33)13-11-23(25(2,3)30)34-24(32)17-7-8-20(31)18(14-17)15-19(16)26/h7-8,14,21-23,31,33H,6,9-13,15H2,1-5H3/t21-,22+,23-,26-,27-/m0/s1

>  <PUBCHEM_IUPAC_INCHIKEY>  (1) 
SKIHYPQTROYIIT-VHXXJFIISA-N

>  <PUBCHEM_XLOGP3_AA>  (1) 
6.8

>  <PUBCHEM_EXACT_MASS>  (1) 
664.02215

>  <PUBCHEM_MOLECULAR_FORMULA>  (1) 
C27H37Br3O4

>  <PUBCHEM_MOLECULAR_WEIGHT>  (1) 
665.3

>  <PUBCHEM_OPENEYE_CAN_SMILES>  (1) 
CC1=C2CC3=C(C=CC(=C3)C(=O)OC(CCC(C(CCC2(C(CC1)Br)C)Br)(C)O)C(C)(C)Br)O

>  <PUBCHEM_OPENEYE_ISO_SMILES>  (1) 
CC1=C2CC3=C(C=CC(=C3)C(=O)O[C@@H](CC[C@]([C@@H](CC[C@@]2([C@H](CC1)Br)C)Br)(C)O)C(C)(C)Br)O

>  <PUBCHEM_CACTVS_TPSA>  (1) 
66.8

>  <PUBCHEM_MONOISOTOPIC_WEIGHT>  (1) 
662.02420

>  <PUBCHEM_TOTAL_CHARGE>  (1) 
0

>  <PUBCHEM_HEAVY_ATOM_COUNT>  (1) 
34

>  <PUBCHEM_ATOM_DEF_STEREO_COUNT>  (1) 
5

>  <PUBCHEM_ATOM_UDEF_STEREO_COUNT>  (1) 
0

>  <PUBCHEM_BOND_DEF_STEREO_COUNT>  (1) 
0

>  <PUBCHEM_BOND_UDEF_STEREO_COUNT>  (1) 
0

>  <PUBCHEM_ISOTOPIC_ATOM_COUNT>  (1) 
0

>  <PUBCHEM_COMPONENT_COUNT>  (1) 
1

>  <PUBCHEM_CACTVS_TAUTO_COUNT>  (1) 
-1

>  <PUBCHEM_COORDINATE_TYPE>  (1) 
1
5
255

>  <PUBCHEM_BONDANNOTATIONS>  (1) 
9  1  5
17  2  5
24  27  8
24  28  8
25  26  6
27  29  8
28  33  8
29  34  8
33  34  8
18  4  6
8  16  5

$$$$
