25880646
     RDKit          2D

 24 26  0  0  1  0  0  0  0  0999 V2000
    2.3100    3.0445    0.0000 O   0  0  0  0  0  0  0  0  0  0  0  0
    3.8100    3.9105    0.0000 O   0  0  0  0  0  0  0  0  0  0  0  0
    6.8892   -3.9105    0.0000 O   0  0  0  0  0  0  0  0  0  0  0  0
    8.1638   -2.6651    0.0000 O   0  0  0  0  0  0  0  0  0  0  0  0
    4.6760    0.6785    0.0000 C   0  0  0  0  0  0  0  0  0  0  0  0
    4.6760    1.6785    0.0000 C   0  0  0  0  0  0  0  0  0  0  0  0
    3.8100    2.1785    0.0000 C   0  0  0  0  0  0  0  0  0  0  0  0
    5.5700    0.1438    0.0000 C   0  0  0  0  0  0  0  0  0  0  0  0
    3.8100    0.1785    0.0000 C   0  0  0  0  0  0  0  0  0  0  0  0
    5.5700    2.2132    0.0000 C   0  0  0  0  0  0  0  0  0  0  0  0
    2.9440    1.6785    0.0000 C   0  0  0  0  0  0  0  0  0  0  0  0
    2.9440    0.6785    0.0000 C   0  0  0  0  0  0  0  0  0  0  0  0
    4.6760   -0.3215    0.0000 C   0  0  0  0  0  0  0  0  0  0  0  0
    6.4760    1.6993    0.0000 C   0  0  0  0  0  0  0  0  0  0  0  0
    6.4760    0.6577    0.0000 C   0  0  0  0  0  0  0  0  0  0  0  0
    5.5584   -0.8561    0.0000 C   0  0  0  0  0  0  0  0  0  0  0  0
    4.3100    3.0445    0.0000 C   0  0  0  0  0  0  0  0  0  0  0  0
    3.3100    3.0445    0.0000 C   0  0  0  0  0  0  0  0  0  0  0  0
    6.4186   -1.3661    0.0000 C   0  0  0  0  0  0  0  0  0  0  0  0
    7.3401    0.1543    0.0000 C   0  0  0  0  0  0  0  0  0  0  0  0
    6.4070   -2.3660    0.0000 C   0  0  0  0  0  0  0  0  0  0  0  0
    5.5913   -2.9444    0.0000 C   0  0  0  0  0  0  0  0  0  0  0  0
    7.2092   -2.9631    0.0000 C   0  0  0  0  0  0  0  0  0  0  0  0
    5.8893   -3.8990    0.0000 C   0  0  0  0  0  0  0  0  0  0  0  0
  1 18  1  0
  2 18  2  0
  3 23  1  0
  3 24  1  0
  4 23  2  0
  5  6  1  0
  5  8  1  0
  5  9  1  0
  5 13  1  6
  6  7  1  0
  6 10  1  6
  7 11  1  0
  7 17  1  1
  7 18  1  0
  8 15  1  0
  8 16  1  6
  9 12  1  0
 10 14  1  0
 11 12  1  0
 14 15  1  0
 15 20  2  0
 16 19  1  0
 19 21  1  0
 21 22  2  0
 21 23  1  0
 22 24  1  0
M  END
>  <PUBCHEM_COMPOUND_CID>  (1) 
25880646

>  <PUBCHEM_COMPOUND_CANONICALIZED>  (1) 
1

>  <PUBCHEM_CACTVS_COMPLEXITY>  (1) 
605

>  <PUBCHEM_CACTVS_HBOND_ACCEPTOR>  (1) 
4

>  <PUBCHEM_CACTVS_HBOND_DONOR>  (1) 
1

>  <PUBCHEM_CACTVS_ROTATABLE_BOND>  (1) 
4

>  <PUBCHEM_CACTVS_SUBSKEYS>  (1) 
AAADceB4OAAAAAAAAAAAAAAAAAAAAQAAAAAwYAAAAAAAAADAAAAAGgAACAAADwCggAICCAAABgCIAiDSCAAAAAAgAAAACAEAAEgABBIAIQACUAAEgAAIIYOIyPCPgAAAAAAAAAAAAAQAACAAAAAAAAAAAA==

>  <PUBCHEM_IUPAC_OPENEYE_NAME>  (1) 
(1S,4aR,5S,8aR)-1,4a-dimethyl-6-methylene-5-[2-(5-oxo-2H-furan-4-yl)ethyl]decalin-1-carboxylic acid

>  <PUBCHEM_IUPAC_CAS_NAME>  (1) 
(1S,4aR,5S,8aR)-1,4a-dimethyl-6-methylene-5-[2-(5-oxo-2H-furan-4-yl)ethyl]-3,4,5,7,8,8a-hexahydro-2H-naphthalene-1-carboxylic acid

>  <PUBCHEM_IUPAC_NAME_MARKUP>  (1) 
(1<I>S</I>,4<I>a</I><I>R</I>,5<I>S</I>,8<I>a</I><I>R</I>)-1,4<I>a</I>-dimethyl-6-methylidene-5-[2-(5-oxo-2<I>H</I>-furan-4-yl)ethyl]-3,4,5,7,8,8<I>a</I>-hexahydro-2<I>H</I>-naphthalene-1-carboxylic acid

>  <PUBCHEM_IUPAC_NAME>  (1) 
(1S,4aR,5S,8aR)-1,4a-dimethyl-6-methylidene-5-[2-(5-oxo-2H-furan-4-yl)ethyl]-3,4,5,7,8,8a-hexahydro-2H-naphthalene-1-carboxylic acid

>  <PUBCHEM_IUPAC_SYSTEMATIC_NAME>  (1) 
(1S,4aR,5S,8aR)-1,4a-dimethyl-6-methylidene-5-[2-(5-oxidanylidene-2H-furan-4-yl)ethyl]-3,4,5,7,8,8a-hexahydro-2H-naphthalene-1-carboxylic acid

>  <PUBCHEM_IUPAC_TRADITIONAL_NAME>  (1) 
(1S,4aR,5S,8aR)-5-[2-(5-keto-2H-furan-4-yl)ethyl]-1,4a-dimethyl-6-methylene-decalin-1-carboxylic acid

>  <PUBCHEM_IUPAC_INCHI>  (1) 
InChI=1S/C20H28O4/c1-13-5-8-16-19(2,10-4-11-20(16,3)18(22)23)15(13)7-6-14-9-12-24-17(14)21/h9,15-16H,1,4-8,10-12H2,2-3H3,(H,22,23)/t15-,16+,19+,20-/m0/s1

>  <PUBCHEM_IUPAC_INCHIKEY>  (1) 
FHQSDRHZGCMBKG-FIYPYCPBSA-N

>  <PUBCHEM_XLOGP3_AA>  (1) 
4.1

>  <PUBCHEM_EXACT_MASS>  (1) 
332.19875937

>  <PUBCHEM_MOLECULAR_FORMULA>  (1) 
C20H28O4

>  <PUBCHEM_MOLECULAR_WEIGHT>  (1) 
332.4

>  <PUBCHEM_OPENEYE_CAN_SMILES>  (1) 
CC12CCCC(C1CCC(=C)C2CCC3=CCOC3=O)(C)C(=O)O

>  <PUBCHEM_OPENEYE_ISO_SMILES>  (1) 
C[C@]12CCC[C@]([C@@H]1CCC(=C)[C@@H]2CCC3=CCOC3=O)(C)C(=O)O

>  <PUBCHEM_CACTVS_TPSA>  (1) 
63.6

>  <PUBCHEM_MONOISOTOPIC_WEIGHT>  (1) 
332.19875937

>  <PUBCHEM_TOTAL_CHARGE>  (1) 
0

>  <PUBCHEM_HEAVY_ATOM_COUNT>  (1) 
24

>  <PUBCHEM_ATOM_DEF_STEREO_COUNT>  (1) 
4

>  <PUBCHEM_ATOM_UDEF_STEREO_COUNT>  (1) 
0

>  <PUBCHEM_BOND_DEF_STEREO_COUNT>  (1) 
0

>  <PUBCHEM_BOND_UDEF_STEREO_COUNT>  (1) 
0

>  <PUBCHEM_ISOTOPIC_ATOM_COUNT>  (1) 
0

>  <PUBCHEM_COMPONENT_COUNT>  (1) 
1

>  <PUBCHEM_CACTVS_TAUTO_COUNT>  (1) 
1

>  <PUBCHEM_COORDINATE_TYPE>  (1) 
1
5
255

>  <PUBCHEM_BONDANNOTATIONS>  (1) 
5  13  6
6  25  5
7  17  5
8  16  6

$$$$
