MCSJ31_0019.mol
  ChemDraw04172416102D

 21 22  0  0  1  0  0  0  0  0999 V2000
    0.0628   -0.3781    0.0000 C   0  0  0  0  0  0  0  0  0  0  0  0
    0.7417   -0.8409    0.0000 C   0  0  0  0  0  0  0  0  0  0  0  0
    1.5269   -0.5987    0.0000 C   0  0  0  0  0  0  0  0  0  0  0  0
    1.8270    0.1661    0.0000 C   0  0  0  0  0  0  0  0  0  0  0  0
    1.4162    0.8777    0.0000 C   0  0  0  0  0  0  0  0  0  0  0  0
    0.6037    1.0002    0.0000 C   0  0  0  0  0  0  0  0  0  0  0  0
    0.0014    0.4413    0.0000 C   0  0  0  0  0  0  0  0  0  0  0  0
    0.7866    1.8012    0.0000 C   0  0  0  0  0  0  0  0  0  0  0  0
    2.6487    0.1661    0.0000 C   0  0  0  0  0  0  0  0  0  0  0  0
    0.6192   -1.6534    0.0000 C   0  0  0  0  0  0  0  0  0  0  0  0
   -0.3480   -1.0897    0.0000 H   0  0  0  0  0  0  0  0  0  0  0  0
   -0.7635    0.7415    0.0000 C   0  0  0  0  0  0  0  0  0  0  0  0
   -1.0054   -0.3781    0.0000 C   0  0  0  0  0  0  0  0  0  0  0  0
   -1.4162    0.3335    0.0000 C   0  0  0  0  0  0  0  0  0  0  0  0
   -2.2379    0.3335    0.0000 C   0  0  0  0  0  0  0  0  0  0  0  0
   -2.6487   -0.3781    0.0000 C   0  0  0  0  0  0  0  0  0  0  0  0
   -2.2379   -1.0897    0.0000 N   0  0  0  0  0  0  0  0  0  0  0  0
   -1.4162   -1.0897    0.0000 C   0  0  0  0  0  0  0  0  0  0  0  0
   -1.0054   -1.8012    0.0000 O   0  0  0  0  0  0  0  0  0  0  0  0
   -1.0054    1.0451    0.0000 O   0  0  0  0  0  0  0  0  0  0  0  0
    0.0014    1.5591    0.0000 O   0  0  0  0  0  0  0  0  0  0  0  0
  1  2  1  0      
  2  3  1  0      
  3  4  1  0      
  4  5  1  0      
  5  6  1  0      
  6  7  1  0      
  7  1  1  0      
  6  8  1  6      
  4  9  1  6      
  2 10  1  6      
  1 11  1  6      
  7 12  1  6      
  1 13  1  1      
 13 14  2  0      
 14 15  1  0      
 15 16  2  0      
 16 17  1  0      
 17 18  1  0      
 18 13  1  0      
 18 19  2  0      
 14 20  1  0      
  6 21  1  1      
M  END
