MCSJ31_0022
  -OEChem-07172407422D

 43 44  0     1  0  0  0  0  0999 V2000
    2.6340    0.6900    0.0000 O   0  0  0  0  0  0  0  0  0  0  0  0
    6.0981    0.6900    0.0000 O   0  0  0  0  0  0  0  0  0  0  0  0
    6.0981    2.6900    0.0000 O   0  0  0  0  0  0  0  0  0  0  0  0
    5.2320    2.1900    0.0000 N   0  0  0  0  0  0  0  0  0  0  0  0
    3.5000   -0.8100    0.0000 C   0  0  2  0  0  0  0  0  0  0  0  0
    4.3660   -0.3100    0.0000 C   0  0  1  0  0  0  0  0  0  0  0  0
    5.2320   -0.8100    0.0000 C   0  0  2  0  0  0  0  0  0  0  0  0
    3.5000   -1.8100    0.0000 C   0  0  0  0  0  0  0  0  0  0  0  0
    4.3660   -2.3100    0.0000 C   0  0  1  0  0  0  0  0  0  0  0  0
    5.2320   -1.8100    0.0000 C   0  0  0  0  0  0  0  0  0  0  0  0
    3.0000    0.0560    0.0000 C   0  0  0  0  0  0  0  0  0  0  0  0
    4.3660    0.6900    0.0000 C   0  0  0  0  0  0  0  0  0  0  0  0
    6.0981   -0.3100    0.0000 C   0  0  0  0  0  0  0  0  0  0  0  0
    2.5000   -0.8100    0.0000 C   0  0  0  0  0  0  0  0  0  0  0  0
    4.3660   -3.3100    0.0000 C   0  0  0  0  0  0  0  0  0  0  0  0
    3.5000    1.1900    0.0000 C   0  0  0  0  0  0  0  0  0  0  0  0
    5.2320    1.1900    0.0000 C   0  0  0  0  0  0  0  0  0  0  0  0
    2.0000   -1.6760    0.0000 C   0  0  0  0  0  0  0  0  0  0  0  0
    3.5000    2.1900    0.0000 C   0  0  0  0  0  0  0  0  0  0  0  0
    4.3660    2.6900    0.0000 C   0  0  0  0  0  0  0  0  0  0  0  0
    3.6299    0.1150    0.0000 H   0  0  0  0  0  0  0  0  0  0  0  0
    5.2320   -0.1900    0.0000 H   0  0  0  0  0  0  0  0  0  0  0  0
    2.8894   -1.7023    0.0000 H   0  0  0  0  0  0  0  0  0  0  0  0
    3.2880   -2.3926    0.0000 H   0  0  0  0  0  0  0  0  0  0  0  0
    4.9030   -2.6200    0.0000 H   0  0  0  0  0  0  0  0  0  0  0  0
    5.4441   -2.3926    0.0000 H   0  0  0  0  0  0  0  0  0  0  0  0
    5.8426   -1.7023    0.0000 H   0  0  0  0  0  0  0  0  0  0  0  0
    3.5369    0.3660    0.0000 H   0  0  0  0  0  0  0  0  0  0  0  0
    2.6900    0.5930    0.0000 H   0  0  0  0  0  0  0  0  0  0  0  0
    2.4631   -0.2540    0.0000 H   0  0  0  0  0  0  0  0  0  0  0  0
    6.4081   -0.8469    0.0000 H   0  0  0  0  0  0  0  0  0  0  0  0
    6.6350   -0.0000    0.0000 H   0  0  0  0  0  0  0  0  0  0  0  0
    5.7881    0.2269    0.0000 H   0  0  0  0  0  0  0  0  0  0  0  0
    2.1900   -0.2731    0.0000 H   0  0  0  0  0  0  0  0  0  0  0  0
    3.7460   -3.3100    0.0000 H   0  0  0  0  0  0  0  0  0  0  0  0
    4.3660   -3.9300    0.0000 H   0  0  0  0  0  0  0  0  0  0  0  0
    4.9860   -3.3100    0.0000 H   0  0  0  0  0  0  0  0  0  0  0  0
    1.3800   -1.6760    0.0000 H   0  0  0  0  0  0  0  0  0  0  0  0
    2.3100   -2.2130    0.0000 H   0  0  0  0  0  0  0  0  0  0  0  0
    2.9631    2.5000    0.0000 H   0  0  0  0  0  0  0  0  0  0  0  0
    4.3660    3.3100    0.0000 H   0  0  0  0  0  0  0  0  0  0  0  0
    2.0970    1.0000    0.0000 H   0  0  0  0  0  0  0  0  0  0  0  0
    6.0981    3.3100    0.0000 H   0  0  0  0  0  0  0  0  0  0  0  0
  1 16  1  0  0  0  0
  1 42  1  0  0  0  0
  2 17  2  0  0  0  0
  3  4  1  0  0  0  0
  3 43  1  0  0  0  0
  4 17  1  0  0  0  0
  4 20  1  0  0  0  0
  5  6  1  0  0  0  0
  5  8  1  0  0  0  0
  5 11  1  6  0  0  0
  5 14  1  0  0  0  0
  6  7  1  0  0  0  0
  6 12  1  0  0  0  0
  6 21  1  1  0  0  0
  7 10  1  0  0  0  0
  7 13  1  1  0  0  0
  7 22  1  0  0  0  0
  8  9  1  0  0  0  0
  8 23  1  0  0  0  0
  8 24  1  0  0  0  0
  9 10  1  0  0  0  0
  9 15  1  1  0  0  0
  9 25  1  0  0  0  0
 10 26  1  0  0  0  0
 10 27  1  0  0  0  0
 11 28  1  0  0  0  0
 11 29  1  0  0  0  0
 11 30  1  0  0  0  0
 12 16  2  0  0  0  0
 12 17  1  0  0  0  0
 13 31  1  0  0  0  0
 13 32  1  0  0  0  0
 13 33  1  0  0  0  0
 14 18  2  0  0  0  0
 14 34  1  0  0  0  0
 15 35  1  0  0  0  0
 15 36  1  0  0  0  0
 15 37  1  0  0  0  0
 16 19  1  0  0  0  0
 18 38  1  0  0  0  0
 18 39  1  0  0  0  0
 19 20  2  0  0  0  0
 19 40  1  0  0  0  0
 20 41  1  0  0  0  0
M  END
> <PUBCHEM_COMPOUND_CID>
54706232

> <PUBCHEM_COMPOUND_CANONICALIZED>
1

> <PUBCHEM_CACTVS_COMPLEXITY>
494

> <PUBCHEM_CACTVS_HBOND_ACCEPTOR>
3

> <PUBCHEM_CACTVS_HBOND_DONOR>
2

> <PUBCHEM_CACTVS_ROTATABLE_BOND>
2

> <PUBCHEM_CACTVS_SUBSKEYS>
AAADceB6MAAAAAAAAAAAAAAAAAAAAAAAAAAwQAAAAAAAAAAAAAAAHgAECAAADwTBgAQCAAIQAgCIAiFWUACAAAAgIgAoCAEIAEgIBBIAgAAEAAAAggAIkQMYiMCPgAAAAAAAAACAAAQAACAAAAAAAAAAAA==

> <PUBCHEM_IUPAC_OPENEYE_NAME>
1,4-dihydroxy-3-[(1R,2S,4R,6S)-2,4,6-trimethyl-2-vinyl-cyclohexyl]pyridin-2-one

> <PUBCHEM_IUPAC_CAS_NAME>
3-[(1R,2S,4R,6S)-2-ethenyl-2,4,6-trimethylcyclohexyl]-1,4-dihydroxy-2-pyridinone

> <PUBCHEM_IUPAC_NAME_MARKUP>
3-[(1<I>R</I>,2<I>S</I>,4<I>R</I>,6<I>S</I>)-2-ethenyl-2,4,6-trimethylcyclohexyl]-1,4-dihydroxypyridin-2-one

> <PUBCHEM_IUPAC_NAME>
3-[(1R,2S,4R,6S)-2-ethenyl-2,4,6-trimethylcyclohexyl]-1,4-dihydroxypyridin-2-one

> <PUBCHEM_IUPAC_SYSTEMATIC_NAME>
3-[(1R,2S,4R,6S)-2-ethenyl-2,4,6-trimethyl-cyclohexyl]-1,4-bis(oxidanyl)pyridin-2-one

> <PUBCHEM_IUPAC_TRADITIONAL_NAME>
1,4-dihydroxy-3-[(1R,2S,4R,6S)-2,4,6-trimethyl-2-vinyl-cyclohexyl]-2-pyridone

> <PUBCHEM_IUPAC_INCHI>
InChI=1S/C16H23NO3/c1-5-16(4)9-10(2)8-11(3)14(16)13-12(18)6-7-17(20)15(13)19/h5-7,10-11,14,18,20H,1,8-9H2,2-4H3/t10-,11+,14+,16-/m1/s1

> <PUBCHEM_IUPAC_INCHIKEY>
RUYMPIIPQAXOTF-PSHZPRKYSA-N

> <PUBCHEM_XLOGP3_AA>
3.2

> <PUBCHEM_EXACT_MASS>
277.16779360

> <PUBCHEM_MOLECULAR_FORMULA>
C16H23NO3

> <PUBCHEM_MOLECULAR_WEIGHT>
277.36

> <PUBCHEM_OPENEYE_CAN_SMILES>
CC1CC(C(C(C1)(C)C=C)C2=C(C=CN(C2=O)O)O)C

> <PUBCHEM_OPENEYE_ISO_SMILES>
C[C@@H]1C[C@@H]([C@H]([C@](C1)(C)C=C)C2=C(C=CN(C2=O)O)O)C

> <PUBCHEM_CACTVS_TPSA>
60.8

> <PUBCHEM_MONOISOTOPIC_WEIGHT>
277.16779360

> <PUBCHEM_TOTAL_CHARGE>
0

> <PUBCHEM_HEAVY_ATOM_COUNT>
20

> <PUBCHEM_ATOM_DEF_STEREO_COUNT>
4

> <PUBCHEM_ATOM_UDEF_STEREO_COUNT>
0

> <PUBCHEM_BOND_DEF_STEREO_COUNT>
0

> <PUBCHEM_BOND_UDEF_STEREO_COUNT>
0

> <PUBCHEM_ISOTOPIC_ATOM_COUNT>
0

> <PUBCHEM_COMPONENT_COUNT>
1

> <PUBCHEM_CACTVS_TAUTO_COUNT>
-1

> <PUBCHEM_COORDINATE_TYPE>
1
5
255

> <PUBCHEM_BONDANNOTATIONS>
12  16  8
12  17  8
16  19  8
19  20  8
4  17  8
4  20  8
5  11  6
6  21  5
7  13  5
9  15  5

$$$$
