11024923
     RDKit          2D

 27 30  0  0  1  0  0  0  0  0999 V2000
    6.3981   -0.2674    0.0000 O   0  0  0  0  0  0  0  0  0  0  0  0
    4.6497    2.7672    0.0000 O   0  0  0  0  0  0  0  0  0  0  0  0
    2.8680    1.7568    0.0000 O   0  0  0  0  0  0  0  0  0  0  0  0
    3.7320    1.2534    0.0000 N   0  0  0  0  0  0  0  0  0  0  0  0
    6.3981    1.7326    0.0000 C   0  0  0  0  0  0  0  0  0  0  0  0
    7.2641    1.2326    0.0000 C   0  0  0  0  0  0  0  0  0  0  0  0
    6.3820    2.7741    0.0000 C   0  0  0  0  0  0  0  0  0  0  0  0
    8.1741    1.7394    0.0000 C   0  0  0  0  0  0  0  0  0  0  0  0
    7.2800    3.3019    0.0000 C   0  0  0  0  0  0  0  0  0  0  0  0
    8.1821    2.7810    0.0000 C   0  0  0  0  0  0  0  0  0  0  0  0
    7.2641    0.2326    0.0000 C   0  0  0  0  0  0  0  0  0  0  0  0
    5.5320    1.2326    0.0000 C   0  0  0  0  0  0  0  0  0  0  0  0
    5.5103    3.2641    0.0000 C   0  0  0  0  0  0  0  0  0  0  0  0
    5.5320    0.2326    0.0000 C   0  0  0  0  0  0  0  0  0  0  0  0
    8.1301   -0.2674    0.0000 C   0  0  0  0  0  0  0  0  0  0  0  0
    4.6381    1.7673    0.0000 C   0  0  0  0  0  0  0  0  0  0  0  0
    4.6381   -0.3021    0.0000 C   0  0  0  0  0  0  0  0  0  0  0  0
    3.7320    0.2118    0.0000 C   0  0  0  0  0  0  0  0  0  0  0  0
    8.1301   -1.2674    0.0000 C   0  0  0  0  0  0  0  0  0  0  0  0
    4.6497   -1.3020    0.0000 C   0  0  0  0  0  0  0  0  0  0  0  0
    8.9962   -1.7674    0.0000 C   0  0  0  0  0  0  0  0  0  0  0  0
    5.5214   -1.7920    0.0000 C   0  0  0  0  0  0  0  0  0  0  0  0
    3.7895   -1.8120    0.0000 C   0  0  0  0  0  0  0  0  0  0  0  0
    2.0000    1.2601    0.0000 C   0  0  0  0  0  0  0  0  0  0  0  0
    5.5330   -2.7919    0.0000 C   0  0  0  0  0  0  0  0  0  0  0  0
    3.8010   -2.8119    0.0000 C   0  0  0  0  0  0  0  0  0  0  0  0
    4.6728   -3.3019    0.0000 C   0  0  0  0  0  0  0  0  0  0  0  0
  1 11  1  0
  1 14  1  0
  2 16  2  0
  3  4  1  0
  3 24  1  0
  4 16  1  0
  4 18  1  0
  5  6  1  0
  5  7  1  0
  5 12  1  1
  6  8  1  1
  6 11  1  0
  7  9  1  0
  7 13  1  6
  8 10  1  0
  9 10  1  0
 11 15  1  6
 12 14  2  0
 12 16  1  0
 14 17  1  0
 15 19  2  0
 17 18  2  0
 17 20  1  0
 19 21  1  0
 20 22  2  0
 20 23  1  0
 22 25  1  0
 23 26  2  0
 25 27  2  0
 26 27  1  0
M  END
>  <PUBCHEM_COMPOUND_CID>  (1) 
11024923

>  <PUBCHEM_COMPOUND_CANONICALIZED>  (1) 
1

>  <PUBCHEM_CACTVS_COMPLEXITY>  (1) 
671

>  <PUBCHEM_CACTVS_HBOND_ACCEPTOR>  (1) 
3

>  <PUBCHEM_CACTVS_HBOND_DONOR>  (1) 
0

>  <PUBCHEM_CACTVS_ROTATABLE_BOND>  (1) 
3

>  <PUBCHEM_CACTVS_SUBSKEYS>  (1) 
AAADceB6MAAAAAAAAAAAAAAAAAAAAAAAAAAwYIEAAAAAAACBAAAAHgAEAAAADRThmAYyAIIQBACIAiFWUACCCAAgIAAoiAEIAMgIJDKAsRCGMAAkwgEIqQeY3OLOgAAAAAAAAAAAAAQAACAAAAAAAAAAAA==

>  <PUBCHEM_IUPAC_OPENEYE_NAME>  (1) 
(6S,6aR,10R,10aS)-2-methoxy-10-methyl-4-phenyl-6-[(E)-prop-1-enyl]-6a,7,8,9,10,10a-hexahydro-6H-isochromeno[4,3-c]pyridin-1-one

>  <PUBCHEM_IUPAC_CAS_NAME>  (1) 
(6S,6aR,10R,10aS)-2-methoxy-10-methyl-4-phenyl-6-[(E)-prop-1-enyl]-6a,7,8,9,10,10a-hexahydro-6H-[2]benzopyrano[4,3-c]pyridin-1-one

>  <PUBCHEM_IUPAC_NAME_MARKUP>  (1) 
(6<I>S</I>,6<I>a</I><I>R</I>,10<I>R</I>,10<I>a</I><I>S</I>)-2-methoxy-10-methyl-4-phenyl-6-[(<I>E</I>)-prop-1-enyl]-6<I>a</I>,7,8,9,10,10<I>a</I>-hexahydro-6<I>H</I>-isochromeno[4,3-c]pyridin-1-one

>  <PUBCHEM_IUPAC_NAME>  (1) 
(6S,6aR,10R,10aS)-2-methoxy-10-methyl-4-phenyl-6-[(E)-prop-1-enyl]-6a,7,8,9,10,10a-hexahydro-6H-isochromeno[4,3-c]pyridin-1-one

>  <PUBCHEM_IUPAC_SYSTEMATIC_NAME>  (1) 
(6S,6aR,10R,10aS)-2-methoxy-10-methyl-4-phenyl-6-[(E)-prop-1-enyl]-6a,7,8,9,10,10a-hexahydro-6H-isochromeno[4,3-c]pyridin-1-one

>  <PUBCHEM_IUPAC_TRADITIONAL_NAME>  (1) 
(6S,6aR,10R,10aS)-2-methoxy-10-methyl-4-phenyl-6-[(E)-prop-1-enyl]-6a,7,8,9,10,10a-hexahydro-6H-isochromeno[4,3-c]pyridin-1-one

>  <PUBCHEM_IUPAC_INCHI>  (1) 
InChI=1S/C23H27NO3/c1-4-9-19-17-13-8-10-15(2)20(17)21-22(27-19)18(14-24(26-3)23(21)25)16-11-6-5-7-12-16/h4-7,9,11-12,14-15,17,19-20H,8,10,13H2,1-3H3/b9-4+/t15-,17+,19+,20+/m1/s1

>  <PUBCHEM_IUPAC_INCHIKEY>  (1) 
ORZSZSIBAZFLLT-NGNDUIQYSA-N

>  <PUBCHEM_XLOGP3_AA>  (1) 
4.3

>  <PUBCHEM_EXACT_MASS>  (1) 
365.19909372

>  <PUBCHEM_MOLECULAR_FORMULA>  (1) 
C23H27NO3

>  <PUBCHEM_MOLECULAR_WEIGHT>  (1) 
365.5

>  <PUBCHEM_OPENEYE_CAN_SMILES>  (1) 
CC=CC1C2CCCC(C2C3=C(O1)C(=CN(C3=O)OC)C4=CC=CC=C4)C

>  <PUBCHEM_OPENEYE_ISO_SMILES>  (1) 
C/C=C/[C@H]1[C@@H]2CCC[C@H]([C@@H]2C3=C(O1)C(=CN(C3=O)OC)C4=CC=CC=C4)C

>  <PUBCHEM_CACTVS_TPSA>  (1) 
38.8

>  <PUBCHEM_MONOISOTOPIC_WEIGHT>  (1) 
365.19909372

>  <PUBCHEM_TOTAL_CHARGE>  (1) 
0

>  <PUBCHEM_HEAVY_ATOM_COUNT>  (1) 
27

>  <PUBCHEM_ATOM_DEF_STEREO_COUNT>  (1) 
4

>  <PUBCHEM_ATOM_UDEF_STEREO_COUNT>  (1) 
0

>  <PUBCHEM_BOND_DEF_STEREO_COUNT>  (1) 
1

>  <PUBCHEM_BOND_UDEF_STEREO_COUNT>  (1) 
0

>  <PUBCHEM_ISOTOPIC_ATOM_COUNT>  (1) 
0

>  <PUBCHEM_COMPONENT_COUNT>  (1) 
1

>  <PUBCHEM_CACTVS_TAUTO_COUNT>  (1) 
-1

>  <PUBCHEM_COORDINATE_TYPE>  (1) 
1
5
255

>  <PUBCHEM_BONDANNOTATIONS>  (1) 
11  15  6
12  14  8
12  16  8
14  17  8
17  18  8
20  22  8
20  23  8
22  25  8
23  26  8
25  27  8
26  27  8
4  16  8
4  18  8
5  28  6
6  29  6
7  13  6

$$$$
