10206
     RDKit          2D

 45 52  0  0  1  0  0  0  0  0999 V2000
    7.3198    1.4306    0.0000 O   0  0  0  0  0  0  0  0  0  0  0  0
    7.4517    2.5195    0.0000 O   0  0  0  0  0  0  0  0  0  0  0  0
    8.8455    3.3243    0.0000 O   0  0  0  0  0  0  0  0  0  0  0  0
    6.2969    3.3502    0.0000 O   0  0  0  0  0  0  0  0  0  0  0  0
    5.1093   -4.0504    0.0000 O   0  0  0  0  0  0  0  0  0  0  0  0
    5.9128   -3.3549    0.0000 O   0  0  0  0  0  0  0  0  0  0  0  0
    9.9367   -1.2168    0.0000 N   0  0  0  0  0  0  0  0  0  0  0  0
    2.6865    0.5238    0.0000 N   0  0  0  0  0  0  0  0  0  0  0  0
    9.0386   -0.6891    0.0000 C   0  0  0  0  0  0  0  0  0  0  0  0
    9.0547    0.3525    0.0000 C   0  0  0  0  0  0  0  0  0  0  0  0
    3.6393    0.2914    0.0000 C   0  0  0  0  0  0  0  0  0  0  0  0
    9.9207    0.8525    0.0000 C   0  0  0  0  0  0  0  0  0  0  0  0
   10.8388   -0.6960    0.0000 C   0  0  0  0  0  0  0  0  0  0  0  0
   10.8307    0.3456    0.0000 C   0  0  0  0  0  0  0  0  0  0  0  0
    4.3417    1.0632    0.0000 C   0  0  0  0  0  0  0  0  0  0  0  0
    9.0638   -1.7324    0.0000 C   0  0  0  0  0  0  0  0  0  0  0  0
    2.3998    1.4617    0.0000 C   0  0  0  0  0  0  0  0  0  0  0  0
    4.0206    1.9899    0.0000 C   0  0  0  0  0  0  0  0  0  0  0  0
    3.0599    2.1871    0.0000 C   0  0  0  0  0  0  0  0  0  0  0  0
    8.1887    0.8525    0.0000 C   0  0  0  0  0  0  0  0  0  0  0  0
    3.2490   -0.6765    0.0000 C   0  0  0  0  0  0  0  0  0  0  0  0
    9.9207    1.8524    0.0000 C   0  0  0  0  0  0  0  0  0  0  0  0
    8.1887    1.8524    0.0000 C   0  0  0  0  0  0  0  0  0  0  0  0
    5.2685    1.5429    0.0000 C   0  0  0  0  0  0  0  0  0  0  0  0
    9.9328   -2.2168    0.0000 C   0  0  0  0  0  0  0  0  0  0  0  0
    6.3042    1.6707    0.0000 C   0  0  0  0  0  0  0  0  0  0  0  0
    9.0547    2.3524    0.0000 C   0  0  0  0  0  0  0  0  0  0  0  0
    8.7248   -2.7194    0.0000 C   0  0  0  0  0  0  0  0  0  0  0  0
    4.7728    2.6444    0.0000 C   0  0  0  0  0  0  0  0  0  0  0  0
    2.0000   -0.2033    0.0000 C   0  0  0  0  0  0  0  0  0  0  0  0
    3.2193   -1.7197    0.0000 C   0  0  0  0  0  0  0  0  0  0  0  0
    5.7603    2.5064    0.0000 C   0  0  0  0  0  0  0  0  0  0  0  0
    7.8444   -3.1950    0.0000 C   0  0  0  0  0  0  0  0  0  0  0  0
    8.0640   -3.5271    0.0000 C   0  0  0  0  0  0  0  0  0  0  0  0
    7.8568    3.4273    0.0000 C   0  0  0  0  0  0  0  0  0  0  0  0
    3.5540   -2.7082    0.0000 C   0  0  0  0  0  0  0  0  0  0  0  0
    4.1542   -1.3619    0.0000 C   0  0  0  0  0  0  0  0  0  0  0  0
    4.2113   -3.5187    0.0000 C   0  0  0  0  0  0  0  0  0  0  0  0
    6.9812   -3.7010    0.0000 C   0  0  0  0  0  0  0  0  0  0  0  0
    7.1637   -4.0548    0.0000 C   0  0  0  0  0  0  0  0  0  0  0  0
    6.1361   -4.2368    0.0000 C   0  0  0  0  0  0  0  0  0  0  0  0
    4.9863   -1.9184    0.0000 C   0  0  0  0  0  0  0  0  0  0  0  0
    5.0128   -2.9190    0.0000 C   0  0  0  0  0  0  0  0  0  0  0  0
    5.8344    4.2368    0.0000 C   0  0  0  0  0  0  0  0  0  0  0  0
    6.7403   -2.7934    0.0000 C   0  0  0  0  0  0  0  0  0  0  0  0
  1 20  1  0
  1 26  1  0
  2 23  1  0
  2 35  1  0
  3 27  1  0
  3 35  1  0
  4 32  1  0
  4 44  1  0
  5 38  1  0
  5 41  1  0
  6 43  1  0
  6 45  1  0
  9  7  1  6
  7 13  1  0
  7 25  1  0
 11  8  1  1
  8 17  1  0
  8 30  1  0
  9 10  1  0
  9 16  1  0
 10 12  2  0
 10 20  1  0
 11 15  1  0
 11 21  1  0
 12 14  1  0
 12 22  1  0
 13 14  1  0
 15 18  2  0
 15 24  1  0
 16 28  1  0
 17 19  1  0
 18 19  1  0
 18 29  1  0
 20 23  2  0
 21 31  1  0
 22 27  2  0
 23 27  1  0
 24 26  2  0
 26 32  1  0
 28 33  2  0
 28 34  1  0
 29 32  2  0
 31 36  2  0
 31 37  1  0
 33 39  1  0
 34 40  2  0
 36 38  1  0
 37 42  2  0
 38 43  2  0
 39 41  2  0
 40 41  1  0
 42 43  1  0
M  END
>  <PUBCHEM_COMPOUND_CID>  (1) 
10206

>  <PUBCHEM_COMPOUND_CANONICALIZED>  (1) 
1

>  <PUBCHEM_CACTVS_COMPLEXITY>  (1) 
994

>  <PUBCHEM_CACTVS_HBOND_ACCEPTOR>  (1) 
8

>  <PUBCHEM_CACTVS_HBOND_DONOR>  (1) 
0

>  <PUBCHEM_CACTVS_ROTATABLE_BOND>  (1) 
2

>  <PUBCHEM_CACTVS_SUBSKEYS>  (1) 
AAADcfB/OAAAAAAAAAAAAAAAAAAAASAAAAA8eMGCAAAAAEixVAAAHgAAAAAADCzBmAcyDoMABACAAiBCAACCCAAgIAAIiAAOjIgdJyKEsRumOCrnwBWOqAew8P8OoAABCAAYQABAAAIQADCAAAAAAAAAAA==

>  <PUBCHEM_IUPAC_OPENEYE_NAME>  (1) 
(14S,27R)-22,33-dimethoxy-13,28-dimethyl-2,5,7,20-tetraoxa-13,28-diazaoctacyclo[25.6.2.216,19.13,10.121,25.04,8.031,35.014,39]nonatriaconta-1(33),3(39),4(8),9,16(38),17,19(37),21,23,25(36),31,34-dodecaene

>  <PUBCHEM_IUPAC_CAS_NAME>  (1) 
(14S,27R)-22,33-dimethoxy-13,28-dimethyl-2,5,7,20-tetraoxa-13,28-diazaoctacyclo[25.6.2.216,19.13,10.121,25.04,8.031,35.014,39]nonatriaconta-1(33),3(39),4(8),9,16(38),17,19(37),21,23,25(36),31,34-dodecaene

>  <PUBCHEM_IUPAC_NAME_MARKUP>  (1) 
(14<I>S</I>,27<I>R</I>)-22,33-dimethoxy-13,28-dimethyl-2,5,7,20-tetraoxa-13,28-diazaoctacyclo[25.6.2.2<SUP>16,19</SUP>.1<SUP>3,10</SUP>.1<SUP>21,25</SUP>.0<SUP>4,8</SUP>.0<SUP>31,35</SUP>.0<SUP>14,39</SUP>]nonatriaconta-1(33),3(39),4(8),9,16(38),17,19(37),21,23,25(36),31,34-dodecaene

>  <PUBCHEM_IUPAC_NAME>  (1) 
(14S,27R)-22,33-dimethoxy-13,28-dimethyl-2,5,7,20-tetraoxa-13,28-diazaoctacyclo[25.6.2.216,19.13,10.121,25.04,8.031,35.014,39]nonatriaconta-1(33),3(39),4(8),9,16(38),17,19(37),21,23,25(36),31,34-dodecaene

>  <PUBCHEM_IUPAC_SYSTEMATIC_NAME>  (1) 
(14S,27R)-22,33-dimethoxy-13,28-dimethyl-2,5,7,20-tetraoxa-13,28-diazaoctacyclo[25.6.2.216,19.13,10.121,25.04,8.031,35.014,39]nonatriaconta-1(33),3(39),4(8),9,16(38),17,19(37),21,23,25(36),31,34-dodecaene

>  <PUBCHEM_IUPAC_TRADITIONAL_NAME>  (1) 
(14S,27R)-22,33-dimethoxy-13,28-dimethyl-2,5,7,20-tetraoxa-13,28-diazaoctacyclo[25.6.2.216,19.13,10.121,25.04,8.031,35.014,39]nonatriaconta-1(33),3(39),4(8),9,16(38),17,19(37),21,23,25(36),31,34-dodecaene

>  <PUBCHEM_IUPAC_INCHI>  (1) 
InChI=1S/C37H38N2O6/c1-38-13-11-24-18-31(41-4)33-20-27(24)28(38)16-23-7-10-30(40-3)32(17-23)44-26-8-5-22(6-9-26)15-29-35-25(12-14-39(29)2)19-34-36(37(35)45-33)43-21-42-34/h5-10,17-20,28-29H,11-16,21H2,1-4H3/t28-,29+/m1/s1

>  <PUBCHEM_IUPAC_INCHIKEY>  (1) 
YVPXVXANRNDGTA-WDYNHAJCSA-N

>  <PUBCHEM_XLOGP3_AA>  (1) 
6.5

>  <PUBCHEM_EXACT_MASS>  (1) 
606.27298694

>  <PUBCHEM_MOLECULAR_FORMULA>  (1) 
C37H38N2O6

>  <PUBCHEM_MOLECULAR_WEIGHT>  (1) 
606.7

>  <PUBCHEM_OPENEYE_CAN_SMILES>  (1) 
CN1CCC2=CC3=C(C4=C2C1CC5=CC=C(C=C5)OC6=C(C=CC(=C6)CC7C8=CC(=C(C=C8CCN7C)OC)O4)OC)OCO3

>  <PUBCHEM_OPENEYE_ISO_SMILES>  (1) 
CN1CCC2=CC3=C(C4=C2[C@@H]1CC5=CC=C(C=C5)OC6=C(C=CC(=C6)C[C@@H]7C8=CC(=C(C=C8CCN7C)OC)O4)OC)OCO3

>  <PUBCHEM_CACTVS_TPSA>  (1) 
61.9

>  <PUBCHEM_MONOISOTOPIC_WEIGHT>  (1) 
606.27298694

>  <PUBCHEM_TOTAL_CHARGE>  (1) 
0

>  <PUBCHEM_HEAVY_ATOM_COUNT>  (1) 
45

>  <PUBCHEM_ATOM_DEF_STEREO_COUNT>  (1) 
2

>  <PUBCHEM_ATOM_UDEF_STEREO_COUNT>  (1) 
0

>  <PUBCHEM_BOND_DEF_STEREO_COUNT>  (1) 
0

>  <PUBCHEM_BOND_UDEF_STEREO_COUNT>  (1) 
0

>  <PUBCHEM_ISOTOPIC_ATOM_COUNT>  (1) 
0

>  <PUBCHEM_COMPONENT_COUNT>  (1) 
1

>  <PUBCHEM_CACTVS_TAUTO_COUNT>  (1) 
-1

>  <PUBCHEM_COORDINATE_TYPE>  (1) 
1
5
255

>  <PUBCHEM_BONDANNOTATIONS>  (1) 
10  12  8
10  20  8
11  47  6
12  22  8
15  18  8
15  24  8
18  29  8
20  23  8
22  27  8
23  27  8
24  26  8
26  32  8
28  33  8
28  34  8
29  32  8
31  36  8
31  37  8
33  39  8
34  40  8
36  38  8
37  42  8
38  43  8
39  41  8
40  41  8
42  43  8
9  46  6

$$$$
