MCSJ31_0012.mol
  ChemDraw04172415582D

 35 39  0  0  1  0  0  0  0  0999 V2000
   -3.7164    0.8217    0.0000 C   0  0  0  0  0  0  0  0  0  0  0  0
   -3.7164   -0.0000    0.0000 C   0  0  0  0  0  0  0  0  0  0  0  0
   -3.0048   -0.4108    0.0000 C   0  0  0  0  0  0  0  0  0  0  0  0
   -2.2932   -0.0000    0.0000 C   0  0  0  0  0  0  0  0  0  0  0  0
   -2.2932    0.8217    0.0000 C   0  0  0  0  0  0  0  0  0  0  0  0
   -3.0048    1.2325    0.0000 C   0  0  0  0  0  0  0  0  0  0  0  0
   -1.5816   -0.4108    0.0000 C   0  0  0  0  0  0  0  0  0  0  0  0
   -1.5816   -1.2325    0.0000 C   0  0  0  0  0  0  0  0  0  0  0  0
   -0.8700   -1.6433    0.0000 N   0  0  0  0  0  0  0  0  0  0  0  0
   -0.1584   -1.2325    0.0000 C   0  0  0  0  0  0  0  0  0  0  0  0
   -0.1584   -0.4108    0.0000 C   0  0  0  0  0  0  0  0  0  0  0  0
   -0.8700   -0.0000    0.0000 C   0  0  0  0  0  0  0  0  0  0  0  0
    0.9801    0.2465    0.0000 C   0  0  0  0  0  0  0  0  0  0  0  0
    0.9801    1.0682    0.0000 O   0  0  0  0  0  0  0  0  0  0  0  0
    1.6917   -0.1643    0.0000 C   0  0  0  0  0  0  0  0  0  0  0  0
    1.6917   -0.9860    0.0000 C   0  0  0  0  0  0  0  0  0  0  0  0
    2.4033   -1.3968    0.0000 C   0  0  0  0  0  0  0  0  0  0  0  0
    3.1149   -0.9860    0.0000 C   0  0  0  0  0  0  0  0  0  0  0  0
    3.1149   -0.1643    0.0000 C   0  0  0  0  0  0  0  0  0  0  0  0
    2.4033    0.2465    0.0000 C   0  0  0  0  0  0  0  0  0  0  0  0
    3.8265    0.2465    0.0000 C   0  0  0  0  0  0  0  0  0  0  0  0
    3.8265    1.0682    0.0000 C   0  0  0  0  0  0  0  0  0  0  0  0
    3.1149    1.4790    0.0000 C   0  0  0  0  0  0  0  0  0  0  0  0
    2.4033    1.0682    0.0000 C   0  0  0  0  0  0  0  0  0  0  0  0
    0.5532   -1.6433    0.0000 O   0  0  0  0  0  0  0  0  0  0  0  0
   -0.8700    0.8217    0.0000 O   0  0  0  0  0  0  0  0  0  0  0  0
    0.9801   -0.5752    0.0000 H   0  0  0  0  0  0  0  0  0  0  0  0
    3.8265   -0.5752    0.0000 H   0  0  0  0  0  0  0  0  0  0  0  0
   -2.2932   -0.8217    0.0000 O   0  0  0  0  0  0  0  0  0  0  0  0
   -4.5380    0.8217    0.0000 O   0  0  0  0  0  0  0  0  0  0  0  0
   -4.1272    1.5333    0.0000 O   0  0  0  0  0  0  0  0  0  0  0  0
   -2.2932    1.6433    0.0000 O   0  0  0  0  0  0  0  0  0  0  0  0
    1.6917    0.6573    0.0000 H   0  0  0  0  0  0  0  0  0  0  0  0
    0.9801   -1.3968    0.0000 C   0  0  0  0  0  0  0  0  0  0  0  0
    4.5380    1.4790    0.0000 C   0  0  0  0  0  0  0  0  0  0  0  0
  1  2  1  0      
  2  3  1  0      
  3  4  1  0      
  4  5  1  0      
  5  6  1  0      
  6  1  1  0      
  4  7  1  0      
  7  8  2  0      
  8  9  1  0      
  9 10  1  0      
 10 11  1  0      
 11 12  2  0      
 12  7  1  0      
 11 13  1  0      
 13 14  2  0      
 13 15  1  0      
 15 16  1  0      
 16 17  1  0      
 17 18  2  0      
 18 19  1  0      
 19 20  1  0      
 20 15  1  0      
 19 21  1  0      
 21 22  1  0      
 22 23  1  0      
 23 24  1  0      
 24 20  1  0      
 10 25  2  0      
 12 26  1  0      
 15 27  1  1      
 19 28  1  1      
  4 29  1  1      
  1 30  1  1      
  1 31  1  6      
  6 32  1  6      
  5 32  1  6      
 20 33  1  6      
 16 34  1  6      
 22 35  1  6      
M  END
