MCSJ31_0031
  -OEChem-07172407422D

118119  0     1  0  0  0  0  0999 V2000
   21.3660    2.0981    0.0000 O   0  0  0  0  0  0  0  0  0  0  0  0
   18.7680    3.5981    0.0000 O   0  0  0  0  0  0  0  0  0  0  0  0
   21.0000    0.7321    0.0000 O   0  0  0  0  0  0  0  0  0  0  0  0
   18.5000    1.5981    0.0000 O   0  0  0  0  0  0  0  0  0  0  0  0
   14.5000   -0.1340    0.0000 O   0  0  0  0  0  0  0  0  0  0  0  0
   13.0000    0.7321    0.0000 O   0  0  0  0  0  0  0  0  0  0  0  0
   11.0000   -1.0000    0.0000 O   0  0  0  0  0  0  0  0  0  0  0  0
    5.5000   -3.5981    0.0000 O   0  0  0  0  0  0  0  0  0  0  0  0
    4.0000   -1.0000    0.0000 O   0  0  0  0  0  0  0  0  0  0  0  0
    4.0000   -4.4641    0.0000 O   0  0  0  0  0  0  0  0  0  0  0  0
   18.5000   -0.1340    0.0000 N   0  0  0  0  0  0  0  0  0  0  0  0
    2.5000   -3.5981    0.0000 N   0  0  0  0  0  0  0  0  0  0  0  0
   20.5000    3.5981    0.0000 C   0  0  0  0  0  0  0  0  0  0  0  0
   19.6340    3.0981    0.0000 C   0  0  2  0  0  0  0  0  0  0  0  0
   20.5000    1.5981    0.0000 C   0  0  1  0  0  0  0  0  0  0  0  0
   19.6340    2.0981    0.0000 C   0  0  0  0  0  0  0  0  0  0  0  0
   21.3660    3.0981    0.0000 C   0  0  2  0  0  0  0  0  0  0  0  0
   20.0000    0.7321    0.0000 C   0  0  3  0  0  0  0  0  0  0  0  0
   21.0000    4.4641    0.0000 C   0  0  0  0  0  0  0  0  0  0  0  0
   20.0000    4.4641    0.0000 C   0  0  0  0  0  0  0  0  0  0  0  0
   20.5000   -0.1340    0.0000 C   0  0  0  0  0  0  0  0  0  0  0  0
   22.2320    3.5981    0.0000 C   0  0  0  0  0  0  0  0  0  0  0  0
   19.0000    0.7321    0.0000 C   0  0  0  0  0  0  0  0  0  0  0  0
   20.0000   -1.0000    0.0000 C   0  0  0  0  0  0  0  0  0  0  0  0
   23.0981    3.0981    0.0000 C   0  0  0  0  0  0  0  0  0  0  0  0
   17.5000   -0.1340    0.0000 C   0  0  0  0  0  0  0  0  0  0  0  0
   23.9641    3.5981    0.0000 C   0  0  0  0  0  0  0  0  0  0  0  0
   17.0000   -1.0000    0.0000 C   0  0  0  0  0  0  0  0  0  0  0  0
   24.8301    3.0981    0.0000 C   0  0  0  0  0  0  0  0  0  0  0  0
   16.0000   -1.0000    0.0000 C   0  0  0  0  0  0  0  0  0  0  0  0
   13.0000   -1.0000    0.0000 C   0  0  2  0  0  0  0  0  0  0  0  0
   24.8301    2.0981    0.0000 C   0  0  0  0  0  0  0  0  0  0  0  0
   14.0000   -1.0000    0.0000 C   0  0  2  0  0  0  0  0  0  0  0  0
   12.5000   -0.1340    0.0000 C   0  0  3  0  0  0  0  0  0  0  0  0
   14.5000   -1.8660    0.0000 C   0  0  0  0  0  0  0  0  0  0  0  0
   15.5000   -1.8660    0.0000 C   0  0  0  0  0  0  0  0  0  0  0  0
   12.5000   -1.8660    0.0000 C   0  0  0  0  0  0  0  0  0  0  0  0
   11.5000   -0.1340    0.0000 C   0  0  2  0  0  0  0  0  0  0  0  0
   14.0000   -2.7320    0.0000 C   0  0  0  0  0  0  0  0  0  0  0  0
   11.0000    0.7321    0.0000 C   0  0  0  0  0  0  0  0  0  0  0  0
   14.0000    0.7321    0.0000 C   0  0  0  0  0  0  0  0  0  0  0  0
   10.0000    0.7321    0.0000 C   0  0  0  0  0  0  0  0  0  0  0  0
    9.5000   -0.1340    0.0000 C   0  0  0  0  0  0  0  0  0  0  0  0
    8.5000   -0.1340    0.0000 C   0  0  0  0  0  0  0  0  0  0  0  0
    8.0000   -1.0000    0.0000 C   0  0  0  0  0  0  0  0  0  0  0  0
    7.0000   -1.0000    0.0000 C   0  0  0  0  0  0  0  0  0  0  0  0
    6.5000   -1.8660    0.0000 C   0  0  0  0  0  0  0  0  0  0  0  0
    5.5000   -1.8660    0.0000 C   0  0  0  0  0  0  0  0  0  0  0  0
    5.0000   -2.7320    0.0000 C   0  0  0  0  0  0  0  0  0  0  0  0
    5.0000   -1.0000    0.0000 C   0  0  0  0  0  0  0  0  0  0  0  0
    4.0000   -2.7320    0.0000 C   0  0  0  0  0  0  0  0  0  0  0  0
    3.5000   -3.5981    0.0000 C   0  0  0  0  0  0  0  0  0  0  0  0
    3.5000   -1.8660    0.0000 C   0  0  0  0  0  0  0  0  0  0  0  0
    2.5000   -1.8660    0.0000 C   0  0  0  0  0  0  0  0  0  0  0  0
    2.0000   -2.7320    0.0000 C   0  0  0  0  0  0  0  0  0  0  0  0
    2.0000   -4.4641    0.0000 C   0  0  0  0  0  0  0  0  0  0  0  0
   19.0970    2.7881    0.0000 H   0  0  0  0  0  0  0  0  0  0  0  0
   19.0234    2.2057    0.0000 H   0  0  0  0  0  0  0  0  0  0  0  0
   19.4219    1.5155    0.0000 H   0  0  0  0  0  0  0  0  0  0  0  0
   21.9030    2.7881    0.0000 H   0  0  0  0  0  0  0  0  0  0  0  0
   19.6900    1.2690    0.0000 H   0  0  0  0  0  0  0  0  0  0  0  0
   21.5369    4.1541    0.0000 H   0  0  0  0  0  0  0  0  0  0  0  0
   21.3100    5.0010    0.0000 H   0  0  0  0  0  0  0  0  0  0  0  0
   20.4631    4.7741    0.0000 H   0  0  0  0  0  0  0  0  0  0  0  0
   20.5369    4.7741    0.0000 H   0  0  0  0  0  0  0  0  0  0  0  0
   19.6900    5.0010    0.0000 H   0  0  0  0  0  0  0  0  0  0  0  0
   19.4631    4.1541    0.0000 H   0  0  0  0  0  0  0  0  0  0  0  0
   20.9749   -0.5325    0.0000 H   0  0  0  0  0  0  0  0  0  0  0  0
   20.9749    0.2646    0.0000 H   0  0  0  0  0  0  0  0  0  0  0  0
   22.2320    4.2181    0.0000 H   0  0  0  0  0  0  0  0  0  0  0  0
   18.2310    3.2881    0.0000 H   0  0  0  0  0  0  0  0  0  0  0  0
   21.6200    0.7321    0.0000 H   0  0  0  0  0  0  0  0  0  0  0  0
   19.4631   -0.6900    0.0000 H   0  0  0  0  0  0  0  0  0  0  0  0
   19.6900   -1.5369    0.0000 H   0  0  0  0  0  0  0  0  0  0  0  0
   20.5369   -1.3100    0.0000 H   0  0  0  0  0  0  0  0  0  0  0  0
   23.0981    2.4781    0.0000 H   0  0  0  0  0  0  0  0  0  0  0  0
   18.8100   -0.6709    0.0000 H   0  0  0  0  0  0  0  0  0  0  0  0
   17.6077    0.4766    0.0000 H   0  0  0  0  0  0  0  0  0  0  0  0
   16.9174    0.0781    0.0000 H   0  0  0  0  0  0  0  0  0  0  0  0
   23.9641    4.2181    0.0000 H   0  0  0  0  0  0  0  0  0  0  0  0
   17.3100   -1.5369    0.0000 H   0  0  0  0  0  0  0  0  0  0  0  0
   25.3671    3.4081    0.0000 H   0  0  0  0  0  0  0  0  0  0  0  0
   15.6900   -0.4631    0.0000 H   0  0  0  0  0  0  0  0  0  0  0  0
   12.3800   -1.0000    0.0000 H   0  0  0  0  0  0  0  0  0  0  0  0
   24.2101    2.0981    0.0000 H   0  0  0  0  0  0  0  0  0  0  0  0
   24.8301    1.4781    0.0000 H   0  0  0  0  0  0  0  0  0  0  0  0
   25.4501    2.0981    0.0000 H   0  0  0  0  0  0  0  0  0  0  0  0
   14.6200   -1.0000    0.0000 H   0  0  0  0  0  0  0  0  0  0  0  0
   13.1200   -0.1340    0.0000 H   0  0  0  0  0  0  0  0  0  0  0  0
   15.8100   -2.4030    0.0000 H   0  0  0  0  0  0  0  0  0  0  0  0
   11.9631   -1.5560    0.0000 H   0  0  0  0  0  0  0  0  0  0  0  0
   12.1900   -2.4030    0.0000 H   0  0  0  0  0  0  0  0  0  0  0  0
   13.0369   -2.1760    0.0000 H   0  0  0  0  0  0  0  0  0  0  0  0
   10.8800   -0.1340    0.0000 H   0  0  0  0  0  0  0  0  0  0  0  0
   13.4631   -2.4220    0.0000 H   0  0  0  0  0  0  0  0  0  0  0  0
   13.6900   -3.2690    0.0000 H   0  0  0  0  0  0  0  0  0  0  0  0
   14.5369   -3.0420    0.0000 H   0  0  0  0  0  0  0  0  0  0  0  0
   12.6900    1.2690    0.0000 H   0  0  0  0  0  0  0  0  0  0  0  0
   11.3100    1.2690    0.0000 H   0  0  0  0  0  0  0  0  0  0  0  0
   14.5369    1.0420    0.0000 H   0  0  0  0  0  0  0  0  0  0  0  0
   13.6900    1.2690    0.0000 H   0  0  0  0  0  0  0  0  0  0  0  0
   13.4631    0.4221    0.0000 H   0  0  0  0  0  0  0  0  0  0  0  0
   10.3800   -1.0000    0.0000 H   0  0  0  0  0  0  0  0  0  0  0  0
    9.6900    1.2690    0.0000 H   0  0  0  0  0  0  0  0  0  0  0  0
    9.8100   -0.6709    0.0000 H   0  0  0  0  0  0  0  0  0  0  0  0
    8.1900    0.4030    0.0000 H   0  0  0  0  0  0  0  0  0  0  0  0
    8.3100   -1.5369    0.0000 H   0  0  0  0  0  0  0  0  0  0  0  0
    6.6900   -0.4631    0.0000 H   0  0  0  0  0  0  0  0  0  0  0  0
    6.8100   -2.4030    0.0000 H   0  0  0  0  0  0  0  0  0  0  0  0
    5.5369   -0.6900    0.0000 H   0  0  0  0  0  0  0  0  0  0  0  0
    4.6900   -0.4631    0.0000 H   0  0  0  0  0  0  0  0  0  0  0  0
    4.4631   -1.3100    0.0000 H   0  0  0  0  0  0  0  0  0  0  0  0
    2.1900   -1.3291    0.0000 H   0  0  0  0  0  0  0  0  0  0  0  0
    1.3800   -2.7320    0.0000 H   0  0  0  0  0  0  0  0  0  0  0  0
    1.4631   -4.1541    0.0000 H   0  0  0  0  0  0  0  0  0  0  0  0
    1.6900   -5.0010    0.0000 H   0  0  0  0  0  0  0  0  0  0  0  0
    2.5369   -4.7741    0.0000 H   0  0  0  0  0  0  0  0  0  0  0  0
    3.6900   -0.4631    0.0000 H   0  0  0  0  0  0  0  0  0  0  0  0
  1 15  1  0  0  0  0
  1 17  1  0  0  0  0
 14  2  1  6  0  0  0
  2 71  1  0  0  0  0
 15  3  1  1  0  0  0
  3 72  1  0  0  0  0
  4 23  2  0  0  0  0
 33  5  1  1  0  0  0
  5 41  1  0  0  0  0
  6 34  1  0  0  0  0
  6 98  1  0  0  0  0
 38  7  1  1  0  0  0
  7103  1  0  0  0  0
  8 49  2  0  0  0  0
  9 53  1  0  0  0  0
  9118  1  0  0  0  0
 10 52  2  0  0  0  0
 11 23  1  0  0  0  0
 11 26  1  0  0  0  0
 11 77  1  0  0  0  0
 12 52  1  0  0  0  0
 12 55  1  0  0  0  0
 12 56  1  0  0  0  0
 13 14  1  0  0  0  0
 13 17  1  0  0  0  0
 13 19  1  0  0  0  0
 13 20  1  0  0  0  0
 14 16  1  0  0  0  0
 14 57  1  0  0  0  0
 15 16  1  0  0  0  0
 15 18  1  0  0  0  0
 16 58  1  0  0  0  0
 16 59  1  0  0  0  0
 17 22  1  6  0  0  0
 17 60  1  0  0  0  0
 18 21  1  0  0  0  0
 18 23  1  0  0  0  0
 18 61  1  0  0  0  0
 19 62  1  0  0  0  0
 19 63  1  0  0  0  0
 19 64  1  0  0  0  0
 20 65  1  0  0  0  0
 20 66  1  0  0  0  0
 20 67  1  0  0  0  0
 21 24  1  0  0  0  0
 21 68  1  0  0  0  0
 21 69  1  0  0  0  0
 22 25  2  0  0  0  0
 22 70  1  0  0  0  0
 24 73  1  0  0  0  0
 24 74  1  0  0  0  0
 24 75  1  0  0  0  0
 25 27  1  0  0  0  0
 25 76  1  0  0  0  0
 26 28  1  0  0  0  0
 26 78  1  0  0  0  0
 26 79  1  0  0  0  0
 27 29  2  0  0  0  0
 27 80  1  0  0  0  0
 28 30  2  0  0  0  0
 28 81  1  0  0  0  0
 29 32  1  0  0  0  0
 29 82  1  0  0  0  0
 30 36  1  0  0  0  0
 30 83  1  0  0  0  0
 31 33  1  0  0  0  0
 31 34  1  0  0  0  0
 31 37  1  1  0  0  0
 31 84  1  0  0  0  0
 32 85  1  0  0  0  0
 32 86  1  0  0  0  0
 32 87  1  0  0  0  0
 33 35  1  0  0  0  0
 33 88  1  0  0  0  0
 34 38  1  0  0  0  0
 34 89  1  0  0  0  0
 35 36  2  0  0  0  0
 35 39  1  0  0  0  0
 36 90  1  0  0  0  0
 37 91  1  0  0  0  0
 37 92  1  0  0  0  0
 37 93  1  0  0  0  0
 38 40  1  0  0  0  0
 38 94  1  0  0  0  0
 39 95  1  0  0  0  0
 39 96  1  0  0  0  0
 39 97  1  0  0  0  0
 40 42  2  0  0  0  0
 40 99  1  0  0  0  0
 41100  1  0  0  0  0
 41101  1  0  0  0  0
 41102  1  0  0  0  0
 42 43  1  0  0  0  0
 42104  1  0  0  0  0
 43 44  2  0  0  0  0
 43105  1  0  0  0  0
 44 45  1  0  0  0  0
 44106  1  0  0  0  0
 45 46  2  0  0  0  0
 45107  1  0  0  0  0
 46 47  1  0  0  0  0
 46108  1  0  0  0  0
 47 48  2  0  0  0  0
 47109  1  0  0  0  0
 48 49  1  0  0  0  0
 48 50  1  0  0  0  0
 49 51  1  0  0  0  0
 50110  1  0  0  0  0
 50111  1  0  0  0  0
 50112  1  0  0  0  0
 51 52  1  0  0  0  0
 51 53  2  0  0  0  0
 53 54  1  0  0  0  0
 54 55  2  0  0  0  0
 54113  1  0  0  0  0
 55114  1  0  0  0  0
 56115  1  0  0  0  0
 56116  1  0  0  0  0
 56117  1  0  0  0  0
M  END
> <PUBCHEM_COMPOUND_CID>
135410114

> <PUBCHEM_COMPOUND_CANONICALIZED>
1

> <PUBCHEM_CACTVS_COMPLEXITY>
1680

> <PUBCHEM_CACTVS_HBOND_ACCEPTOR>
10

> <PUBCHEM_CACTVS_HBOND_DONOR>
6

> <PUBCHEM_CACTVS_ROTATABLE_BOND>
19

> <PUBCHEM_CACTVS_SUBSKEYS>
AAADcfB/PAAAAAAAAAAAAAAAAAAAAAAAAAAkQAAAAAAAAAAAAAAAHgAQCAAADxThgAYCCAPABgCIAqFWUACAAAAgIgAICIEIAEgZFB4IoQAGUAAH9gCNsYPY/ObPAAAAAAAAAAAAAAAAAAAAAAAAAAAAAA==

> <PUBCHEM_IUPAC_OPENEYE_NAME>
2-[(2S,4S,6S)-2,4-dihydroxy-5,5-dimethyl-6-[(1E,3Z)-penta-1,3-dienyl]tetrahydropyran-2-yl]-N-[(2E,4Z,6R,7S,9S,10Z,12E,14E,16E)-8,9-dihydroxy-18-(4-hydroxy-1-methyl-2-oxo-3-pyridyl)-6-methoxy-5,7,17-trimethyl-18-oxo-octadeca-2,4,10,12,14,16-hexaenyl]butanamide

> <PUBCHEM_IUPAC_CAS_NAME>
2-[(2S,4S,6S)-2,4-dihydroxy-5,5-dimethyl-6-[(1E,3Z)-penta-1,3-dienyl]-2-oxanyl]-N-[(2E,4Z,6R,7S,9S,10Z,12E,14E,16E)-8,9-dihydroxy-18-(4-hydroxy-1-methyl-2-oxo-3-pyridinyl)-6-methoxy-5,7,17-trimethyl-18-oxooctadeca-2,4,10,12,14,16-hexaenyl]butanamide

> <PUBCHEM_IUPAC_NAME_MARKUP>
2-[(2<I>S</I>,4<I>S</I>,6<I>S</I>)-2,4-dihydroxy-5,5-dimethyl-6-[(1<I>E</I>,3<I>Z</I>)-penta-1,3-dienyl]oxan-2-yl]-<I>N</I>-[(2<I>E</I>,4<I>Z</I>,6<I>R</I>,7<I>S</I>,9<I>S</I>,10<I>Z</I>,12<I>E</I>,14<I>E</I>,16<I>E</I>)-8,9-dihydroxy-18-(4-hydroxy-1-methyl-2-oxopyridin-3-yl)-6-methoxy-5,7,17-trimethyl-18-oxooctadeca-2,4,10,12,14,16-hexaenyl]butanamide

> <PUBCHEM_IUPAC_NAME>
2-[(2S,4S,6S)-2,4-dihydroxy-5,5-dimethyl-6-[(1E,3Z)-penta-1,3-dienyl]oxan-2-yl]-N-[(2E,4Z,6R,7S,9S,10Z,12E,14E,16E)-8,9-dihydroxy-18-(4-hydroxy-1-methyl-2-oxopyridin-3-yl)-6-methoxy-5,7,17-trimethyl-18-oxooctadeca-2,4,10,12,14,16-hexaenyl]butanamide

> <PUBCHEM_IUPAC_SYSTEMATIC_NAME>
2-[(2S,4S,6S)-5,5-dimethyl-2,4-bis(oxidanyl)-6-[(1E,3Z)-penta-1,3-dienyl]oxan-2-yl]-N-[(2E,4Z,6R,7S,9S,10Z,12E,14E,16E)-6-methoxy-5,7,17-trimethyl-18-(1-methyl-4-oxidanyl-2-oxidanylidene-pyridin-3-yl)-8,9-bis(oxidanyl)-18-oxidanylidene-octadeca-2,4,10,12,14,16-hexaenyl]butanamide

> <PUBCHEM_IUPAC_TRADITIONAL_NAME>
2-[(2S,4S,6S)-2,4-dihydroxy-5,5-dimethyl-6-[(1E,3Z)-penta-1,3-dienyl]tetrahydropyran-2-yl]-N-[(2E,4Z,6R,7S,9S,10Z,12E,14E,16E)-8,9-dihydroxy-18-(4-hydroxy-2-keto-1-methyl-3-pyridyl)-18-keto-6-methoxy-5,7,17-trimethyl-octadeca-2,4,10,12,14,16-hexaenyl]butyramide

> <PUBCHEM_IUPAC_INCHI>
InChI=1S/C44H62N2O10/c1-10-12-16-24-36-43(6,7)35(49)28-44(54,56-36)32(11-2)41(52)45-26-20-19-22-30(4)40(55-9)31(5)39(51)34(48)23-18-15-13-14-17-21-29(3)38(50)37-33(47)25-27-46(8)42(37)53/h10,12-25,27,31-32,34-36,39-40,47-49,51,54H,11,26,28H2,1-9H3,(H,45,52)/b12-10-,15-13+,17-14+,20-19+,23-18-,24-16+,29-21+,30-22-/t31-,32?,34-,35-,36-,39?,40-,44-/m0/s1

> <PUBCHEM_IUPAC_INCHIKEY>
HMBDLBWGDMNPDW-SUXULKRESA-N

> <PUBCHEM_XLOGP3_AA>
5.9

> <PUBCHEM_EXACT_MASS>
778.44044618

> <PUBCHEM_MOLECULAR_FORMULA>
C44H62N2O10

> <PUBCHEM_MOLECULAR_WEIGHT>
779.0

> <PUBCHEM_OPENEYE_CAN_SMILES>
CCC(C(=O)NCC=CC=C(C)C(C(C)C(C(C=CC=CC=CC=C(C)C(=O)C1=C(C=CN(C1=O)C)O)O)O)OC)C2(CC(C(C(O2)C=CC=CC)(C)C)O)O

> <PUBCHEM_OPENEYE_ISO_SMILES>
CCC(C(=O)NC/C=C/C=C(/C)\[C@@H]([C@@H](C)C([C@H](/C=C\C=C\C=C\C=C(/C)\C(=O)C1=C(C=CN(C1=O)C)O)O)O)OC)[C@@]2(C[C@@H](C([C@@H](O2)/C=C/C=C\C)(C)C)O)O

> <PUBCHEM_CACTVS_TPSA>
186

> <PUBCHEM_MONOISOTOPIC_WEIGHT>
778.44044618

> <PUBCHEM_TOTAL_CHARGE>
0

> <PUBCHEM_HEAVY_ATOM_COUNT>
56

> <PUBCHEM_ATOM_DEF_STEREO_COUNT>
6

> <PUBCHEM_ATOM_UDEF_STEREO_COUNT>
2

> <PUBCHEM_BOND_DEF_STEREO_COUNT>
8

> <PUBCHEM_BOND_UDEF_STEREO_COUNT>
0

> <PUBCHEM_ISOTOPIC_ATOM_COUNT>
0

> <PUBCHEM_COMPONENT_COUNT>
1

> <PUBCHEM_CACTVS_TAUTO_COUNT>
-1

> <PUBCHEM_COORDINATE_TYPE>
1
5
255

> <PUBCHEM_BONDANNOTATIONS>
12  52  8
12  55  8
17  22  6
18  21  3
14  2  6
15  3  5
31  37  5
33  5  5
51  52  8
51  53  8
53  54  8
54  55  8
34  6  3
38  7  5

$$$$
