MCSJ31_0008
  -OEChem-07172407422D

 62 66  0     1  0  0  0  0  0999 V2000
    4.5796   -4.2081    0.0000 O   0  0  0  0  0  0  0  0  0  0  0  0
    5.9116   -2.4117    0.0000 O   0  0  0  0  0  0  0  0  0  0  0  0
    2.1077   -3.2641    0.0000 O   0  0  0  0  0  0  0  0  0  0  0  0
    4.6622    0.6735    0.0000 O   0  0  0  0  0  0  0  0  0  0  0  0
    4.2428   -0.3587    0.0000 O   0  0  0  0  0  0  0  0  0  0  0  0
    7.4979    0.8262    0.0000 O   0  0  0  0  0  0  0  0  0  0  0  0
    7.1971   -0.8796    0.0000 N   0  0  0  0  0  0  0  0  0  0  0  0
    4.7531   -3.2228    0.0000 C   0  0  2  0  0  0  0  0  0  0  0  0
    3.8134   -3.5648    0.0000 C   0  0  1  0  0  0  0  0  0  0  0  0
    4.9267   -2.2380    0.0000 C   0  0  2  0  0  0  0  0  0  0  0  0
    6.3943    2.6734    0.0000 C   0  0  1  0  0  0  0  0  0  0  0  0
    3.0473   -2.9221    0.0000 C   0  0  1  0  0  0  0  0  0  0  0  0
    6.3943    3.6734    0.0000 C   0  0  2  0  0  0  0  0  0  0  0  0
    4.1607   -1.5952    0.0000 C   0  0  0  0  0  0  0  0  0  0  0  0
    5.5283    2.1734    0.0000 C   0  0  2  0  0  0  0  0  0  0  0  0
    3.2210   -1.9372    0.0000 C   0  0  0  0  0  0  0  0  0  0  0  0
    7.2882    2.1388    0.0000 C   0  0  0  0  0  0  0  0  0  0  0  0
    7.2882    4.2081    0.0000 C   0  0  0  0  0  0  0  0  0  0  0  0
    8.1943    3.6943    0.0000 C   0  0  2  0  0  0  0  0  0  0  0  0
    8.1943    2.6526    0.0000 C   0  0  0  0  0  0  0  0  0  0  0  0
    4.6622    2.6734    0.0000 C   0  0  2  0  0  0  0  0  0  0  0  0
    5.5695   -1.4720    0.0000 C   0  0  0  0  0  0  0  0  0  0  0  0
    5.5283    4.1734    0.0000 C   0  0  0  0  0  0  0  0  0  0  0  0
    5.5283    1.1735    0.0000 C   0  0  0  0  0  0  0  0  0  0  0  0
    4.6622    3.6734    0.0000 C   0  0  0  0  0  0  0  0  0  0  0  0
    5.2275   -0.5323    0.0000 C   0  0  0  0  0  0  0  0  0  0  0  0
    5.8703    0.2338    0.0000 C   0  0  0  0  0  0  0  0  0  0  0  0
    9.0584    4.1976    0.0000 C   0  0  0  0  0  0  0  0  0  0  0  0
    3.7962    2.1734    0.0000 C   0  0  0  0  0  0  0  0  0  0  0  0
    6.5543   -1.6456    0.0000 C   0  0  0  0  0  0  0  0  0  0  0  0
    6.8551    0.0601    0.0000 C   0  0  0  0  0  0  0  0  0  0  0  0
    5.3637   -3.3304    0.0000 H   0  0  0  0  0  0  0  0  0  0  0  0
    3.4148   -4.0397    0.0000 H   0  0  0  0  0  0  0  0  0  0  0  0
    6.3877    1.8235    0.0000 H   0  0  0  0  0  0  0  0  0  0  0  0
    2.5724   -2.5235    0.0000 H   0  0  0  0  0  0  0  0  0  0  0  0
    6.3877    4.5234    0.0000 H   0  0  0  0  0  0  0  0  0  0  0  0
    4.6356   -1.1967    0.0000 H   0  0  0  0  0  0  0  0  0  0  0  0
    3.8507   -1.0583    0.0000 H   0  0  0  0  0  0  0  0  0  0  0  0
    4.9913    1.8634    0.0000 H   0  0  0  0  0  0  0  0  0  0  0  0
    3.1133   -1.3267    0.0000 H   0  0  0  0  0  0  0  0  0  0  0  0
    2.6010   -1.9372    0.0000 H   0  0  0  0  0  0  0  0  0  0  0  0
    6.8836    1.6690    0.0000 H   0  0  0  0  0  0  0  0  0  0  0  0
    7.6819    1.6598    0.0000 H   0  0  0  0  0  0  0  0  0  0  0  0
    7.6819    4.6871    0.0000 H   0  0  0  0  0  0  0  0  0  0  0  0
    6.8836    4.6779    0.0000 H   0  0  0  0  0  0  0  0  0  0  0  0
    8.7318    3.3853    0.0000 H   0  0  0  0  0  0  0  0  0  0  0  0
    8.4034    2.0690    0.0000 H   0  0  0  0  0  0  0  0  0  0  0  0
    8.8052    2.7587    0.0000 H   0  0  0  0  0  0  0  0  0  0  0  0
    4.1253    2.9834    0.0000 H   0  0  0  0  0  0  0  0  0  0  0  0
    5.5283    4.7934    0.0000 H   0  0  0  0  0  0  0  0  0  0  0  0
    4.1253    3.9834    0.0000 H   0  0  0  0  0  0  0  0  0  0  0  0
    6.1236   -2.9943    0.0000 H   0  0  0  0  0  0  0  0  0  0  0  0
    9.3705    3.6619    0.0000 H   0  0  0  0  0  0  0  0  0  0  0  0
    9.5941    4.5097    0.0000 H   0  0  0  0  0  0  0  0  0  0  0  0
    8.7463    4.7333    0.0000 H   0  0  0  0  0  0  0  0  0  0  0  0
    2.0000   -3.8747    0.0000 H   0  0  0  0  0  0  0  0  0  0  0  0
    3.4862    2.7104    0.0000 H   0  0  0  0  0  0  0  0  0  0  0  0
    3.2593    1.8634    0.0000 H   0  0  0  0  0  0  0  0  0  0  0  0
    4.1062    1.6365    0.0000 H   0  0  0  0  0  0  0  0  0  0  0  0
    6.7664   -2.2282    0.0000 H   0  0  0  0  0  0  0  0  0  0  0  0
    7.8077   -0.9872    0.0000 H   0  0  0  0  0  0  0  0  0  0  0  0
    4.0307    0.2239    0.0000 H   0  0  0  0  0  0  0  0  0  0  0  0
  8  1  1  6  0  0  0
  9  1  1  6  0  0  0
 10  2  1  6  0  0  0
  2 52  1  0  0  0  0
 12  3  1  6  0  0  0
  3 56  1  0  0  0  0
  4 24  2  0  0  0  0
  5 26  1  0  0  0  0
  5 62  1  0  0  0  0
  6 31  2  0  0  0  0
  7 30  1  0  0  0  0
  7 31  1  0  0  0  0
  7 61  1  0  0  0  0
  8  9  1  0  0  0  0
  8 10  1  0  0  0  0
  8 32  1  0  0  0  0
  9 12  1  0  0  0  0
  9 33  1  0  0  0  0
 10 14  1  0  0  0  0
 10 22  1  0  0  0  0
 11 13  1  0  0  0  0
 11 15  1  0  0  0  0
 11 17  1  0  0  0  0
 11 34  1  1  0  0  0
 12 16  1  0  0  0  0
 12 35  1  0  0  0  0
 13 18  1  0  0  0  0
 13 23  1  0  0  0  0
 13 36  1  6  0  0  0
 14 16  1  0  0  0  0
 14 37  1  0  0  0  0
 14 38  1  0  0  0  0
 15 21  1  0  0  0  0
 15 24  1  1  0  0  0
 15 39  1  0  0  0  0
 16 40  1  0  0  0  0
 16 41  1  0  0  0  0
 17 20  1  0  0  0  0
 17 42  1  0  0  0  0
 17 43  1  0  0  0  0
 18 19  1  0  0  0  0
 18 44  1  0  0  0  0
 18 45  1  0  0  0  0
 19 20  1  0  0  0  0
 19 28  1  1  0  0  0
 19 46  1  0  0  0  0
 20 47  1  0  0  0  0
 20 48  1  0  0  0  0
 21 25  1  0  0  0  0
 21 29  1  1  0  0  0
 21 49  1  0  0  0  0
 22 26  1  0  0  0  0
 22 30  2  0  0  0  0
 23 25  2  0  0  0  0
 23 50  1  0  0  0  0
 24 27  1  0  0  0  0
 25 51  1  0  0  0  0
 26 27  2  0  0  0  0
 27 31  1  0  0  0  0
 28 53  1  0  0  0  0
 28 54  1  0  0  0  0
 28 55  1  0  0  0  0
 29 57  1  0  0  0  0
 29 58  1  0  0  0  0
 29 59  1  0  0  0  0
 30 60  1  0  0  0  0
M  END
> <PUBCHEM_COMPOUND_CID>
54712148

> <PUBCHEM_COMPOUND_CANONICALIZED>
1

> <PUBCHEM_CACTVS_COMPLEXITY>
906

> <PUBCHEM_CACTVS_HBOND_ACCEPTOR>
6

> <PUBCHEM_CACTVS_HBOND_DONOR>
4

> <PUBCHEM_CACTVS_ROTATABLE_BOND>
3

> <PUBCHEM_CACTVS_SUBSKEYS>
AAADceB6OAAAAAAAAAAAAAAAEgAAAAAAAAAwYIEABIAAAACAAAAAHgAQCAAADVThgAYCAALABgCIAqFWUACAAAAgIAAICIEIAEgJFBoIgQAGQAAFwgALkQPY6PyOgAAAAAAAAADCAAYQADCAAAAAAAAAAA==

> <PUBCHEM_IUPAC_OPENEYE_NAME>
3-[(1S,2S,4aR,6S,8aS)-2,6-dimethyl-1,2,4a,5,6,7,8,8a-octahydronaphthalene-1-carbonyl]-5-[(1R,2R,5R,6R)-2,5-dihydroxy-7-oxabicyclo[4.1.0]heptan-2-yl]-4-hydroxy-1H-pyridin-2-one

> <PUBCHEM_IUPAC_CAS_NAME>
3-[[(1S,2S,4aR,6S,8aS)-2,6-dimethyl-1,2,4a,5,6,7,8,8a-octahydronaphthalen-1-yl]-oxomethyl]-5-[(1R,2R,5R,6R)-2,5-dihydroxy-7-oxabicyclo[4.1.0]heptan-2-yl]-4-hydroxy-1H-pyridin-2-one

> <PUBCHEM_IUPAC_NAME_MARKUP>
3-[(1<I>S</I>,2<I>S</I>,4<I>a</I><I>R</I>,6<I>S</I>,8<I>a</I><I>S</I>)-2,6-dimethyl-1,2,4<I>a</I>,5,6,7,8,8<I>a</I>-octahydronaphthalene-1-carbonyl]-5-[(1<I>R</I>,2<I>R</I>,5<I>R</I>,6<I>R</I>)-2,5-dihydroxy-7-oxabicyclo[4.1.0]heptan-2-yl]-4-hydroxy-1<I>H</I>-pyridin-2-one

> <PUBCHEM_IUPAC_NAME>
3-[(1S,2S,4aR,6S,8aS)-2,6-dimethyl-1,2,4a,5,6,7,8,8a-octahydronaphthalene-1-carbonyl]-5-[(1R,2R,5R,6R)-2,5-dihydroxy-7-oxabicyclo[4.1.0]heptan-2-yl]-4-hydroxy-1H-pyridin-2-one

> <PUBCHEM_IUPAC_SYSTEMATIC_NAME>
3-[[(1S,2S,4aR,6S,8aS)-2,6-dimethyl-1,2,4a,5,6,7,8,8a-octahydronaphthalen-1-yl]carbonyl]-5-[(1R,2R,5R,6R)-2,5-bis(oxidanyl)-7-oxabicyclo[4.1.0]heptan-2-yl]-4-oxidanyl-1H-pyridin-2-one

> <PUBCHEM_IUPAC_TRADITIONAL_NAME>
3-[(1S,2S,4aR,6S,8aS)-2,6-dimethyl-1,2,4a,5,6,7,8,8a-octahydronaphthalene-1-carbonyl]-5-[(1R,2R,5R,6R)-2,5-dihydroxy-7-oxabicyclo[4.1.0]heptan-2-yl]-4-hydroxy-2-pyridone

> <PUBCHEM_IUPAC_INCHI>
InChI=1S/C24H31NO6/c1-11-3-6-14-13(9-11)5-4-12(2)17(14)20(28)18-19(27)15(10-25-23(18)29)24(30)8-7-16(26)21-22(24)31-21/h4-5,10-14,16-17,21-22,26,30H,3,6-9H2,1-2H3,(H2,25,27,29)/t11-,12-,13-,14-,16+,17-,21+,22+,24+/m0/s1

> <PUBCHEM_IUPAC_INCHIKEY>
YQTIWISENUYMQD-UOIYJLCQSA-N

> <PUBCHEM_XLOGP3_AA>
1.9

> <PUBCHEM_EXACT_MASS>
429.21513771

> <PUBCHEM_MOLECULAR_FORMULA>
C24H31NO6

> <PUBCHEM_MOLECULAR_WEIGHT>
429.5

> <PUBCHEM_OPENEYE_CAN_SMILES>
CC1CCC2C(C1)C=CC(C2C(=O)C3=C(C(=CNC3=O)C4(CCC(C5C4O5)O)O)O)C

> <PUBCHEM_OPENEYE_ISO_SMILES>
C[C@H]1CC[C@H]2[C@H](C1)C=C[C@@H]([C@@H]2C(=O)C3=C(C(=CNC3=O)[C@@]4(CC[C@H]([C@@H]5[C@H]4O5)O)O)O)C

> <PUBCHEM_CACTVS_TPSA>
119

> <PUBCHEM_MONOISOTOPIC_WEIGHT>
429.21513771

> <PUBCHEM_TOTAL_CHARGE>
0

> <PUBCHEM_HEAVY_ATOM_COUNT>
31

> <PUBCHEM_ATOM_DEF_STEREO_COUNT>
9

> <PUBCHEM_ATOM_UDEF_STEREO_COUNT>
0

> <PUBCHEM_BOND_DEF_STEREO_COUNT>
0

> <PUBCHEM_BOND_UDEF_STEREO_COUNT>
0

> <PUBCHEM_ISOTOPIC_ATOM_COUNT>
0

> <PUBCHEM_COMPONENT_COUNT>
1

> <PUBCHEM_CACTVS_TAUTO_COUNT>
-1

> <PUBCHEM_COORDINATE_TYPE>
1
5
255

> <PUBCHEM_BONDANNOTATIONS>
8  1  6
9  1  6
11  34  5
13  36  6
15  24  5
19  28  5
10  2  6
21  29  5
22  26  8
22  30  8
26  27  8
27  31  8
12  3  6
7  30  8
7  31  8

$$$$
