14236566
     RDKit          2D

 24 26  0  0  1  0  0  0  0  0999 V2000
    7.2583   -1.5137    0.0000 O   0  0  0  0  0  0  0  0  0  0  0  0
    7.2583    1.4863    0.0000 O   0  0  0  0  0  0  0  0  0  0  0  0
    3.7282   -1.5379    0.0000 O   0  0  0  0  0  0  0  0  0  0  0  0
   11.5884   -3.0137    0.0000 O   0  0  0  0  0  0  0  0  0  0  0  0
    8.1243   -1.0137    0.0000 C   0  0  0  0  0  0  0  0  0  0  0  0
    8.1243   -0.0137    0.0000 C   0  0  0  0  0  0  0  0  0  0  0  0
    6.3923   -0.0137    0.0000 C   0  0  0  0  0  0  0  0  0  0  0  0
    6.3923   -1.0137    0.0000 C   0  0  0  0  0  0  0  0  0  0  0  0
    7.2583    0.4863    0.0000 C   0  0  0  0  0  0  0  0  0  0  0  0
    8.9904   -1.5137    0.0000 C   0  0  0  0  0  0  0  0  0  0  0  0
    4.5923    0.0071    0.0000 C   0  0  0  0  0  0  0  0  0  0  0  0
    5.4983    0.5209    0.0000 C   0  0  0  0  0  0  0  0  0  0  0  0
    5.4983   -1.5484    0.0000 C   0  0  0  0  0  0  0  0  0  0  0  0
    4.5923   -1.0346    0.0000 C   0  0  0  0  0  0  0  0  0  0  0  0
    3.7282    0.5104    0.0000 C   0  0  0  0  0  0  0  0  0  0  0  0
    8.9904   -2.5137    0.0000 C   0  0  0  0  0  0  0  0  0  0  0  0
    9.8564   -1.0137    0.0000 C   0  0  0  0  0  0  0  0  0  0  0  0
    3.7320    1.5104    0.0000 C   0  0  0  0  0  0  0  0  0  0  0  0
    9.8564   -3.0137    0.0000 C   0  0  0  0  0  0  0  0  0  0  0  0
   10.7224   -1.5137    0.0000 C   0  0  0  0  0  0  0  0  0  0  0  0
   10.7224   -2.5137    0.0000 C   0  0  0  0  0  0  0  0  0  0  0  0
    2.8680    2.0137    0.0000 C   0  0  0  0  0  0  0  0  0  0  0  0
    2.8718    3.0137    0.0000 C   0  0  0  0  0  0  0  0  0  0  0  0
    2.0000    1.5171    0.0000 C   0  0  0  0  0  0  0  0  0  0  0  0
  1  5  1  0
  1  8  1  0
  2  9  2  0
  3 14  1  0
  4 21  1  0
  5  6  1  0
  5 10  1  1
  6  9  1  0
  7  8  2  0
  7  9  1  0
  7 12  1  0
  8 13  1  0
 10 16  2  0
 10 17  1  0
 11 12  2  0
 11 14  1  0
 11 15  1  0
 13 14  2  0
 15 18  1  0
 16 19  1  0
 17 20  2  0
 18 22  2  0
 19 21  2  0
 20 21  1  0
 22 23  1  0
 22 24  1  0
M  END
>  <PUBCHEM_COMPOUND_CID>  (1) 
14236566

>  <PUBCHEM_COMPOUND_CANONICALIZED>  (1) 
1

>  <PUBCHEM_CACTVS_COMPLEXITY>  (1) 
474

>  <PUBCHEM_CACTVS_HBOND_ACCEPTOR>  (1) 
4

>  <PUBCHEM_CACTVS_HBOND_DONOR>  (1) 
2

>  <PUBCHEM_CACTVS_ROTATABLE_BOND>  (1) 
3

>  <PUBCHEM_CACTVS_SUBSKEYS>  (1) 
AAADceB4OAAAAAAAAAAAAAAAAAAAAAAAAAA0YIAAAAAAAACRQAAAGgAACAAADBSgmAIyBoAABgCIAqBSAAACCAAkIAAIiAEGCMgMJzaGNRqCeWCl4BUIuYeI7OzOIAACCAAIAABAAAQQABAAAAAAAAAAAA==

>  <PUBCHEM_IUPAC_OPENEYE_NAME>  (1) 
(2S)-7-hydroxy-2-(4-hydroxyphenyl)-6-(3-methylbut-2-enyl)chroman-4-one

>  <PUBCHEM_IUPAC_CAS_NAME>  (1) 
(2S)-7-hydroxy-2-(4-hydroxyphenyl)-6-(3-methylbut-2-enyl)-3,4-dihydro-2H-1-benzopyran-4-one

>  <PUBCHEM_IUPAC_NAME_MARKUP>  (1) 
(2<I>S</I>)-7-hydroxy-2-(4-hydroxyphenyl)-6-(3-methylbut-2-enyl)-2,3-dihydrochromen-4-one

>  <PUBCHEM_IUPAC_NAME>  (1) 
(2S)-7-hydroxy-2-(4-hydroxyphenyl)-6-(3-methylbut-2-enyl)-2,3-dihydrochromen-4-one

>  <PUBCHEM_IUPAC_SYSTEMATIC_NAME>  (1) 
(2S)-2-(4-hydroxyphenyl)-6-(3-methylbut-2-enyl)-7-oxidanyl-2,3-dihydrochromen-4-one

>  <PUBCHEM_IUPAC_TRADITIONAL_NAME>  (1) 
(2S)-7-hydroxy-2-(4-hydroxyphenyl)-6-(3-methylbut-2-enyl)chroman-4-one

>  <PUBCHEM_IUPAC_INCHI>  (1) 
InChI=1S/C20H20O4/c1-12(2)3-4-14-9-16-18(23)11-19(24-20(16)10-17(14)22)13-5-7-15(21)8-6-13/h3,5-10,19,21-22H,4,11H2,1-2H3/t19-/m0/s1

>  <PUBCHEM_IUPAC_INCHIKEY>  (1) 
OAUREGNZECGNQS-IBGZPJMESA-N

>  <PUBCHEM_XLOGP3_AA>  (1) 
4.1

>  <PUBCHEM_EXACT_MASS>  (1) 
324.13615911

>  <PUBCHEM_MOLECULAR_FORMULA>  (1) 
C20H20O4

>  <PUBCHEM_MOLECULAR_WEIGHT>  (1) 
324.4

>  <PUBCHEM_OPENEYE_CAN_SMILES>  (1) 
CC(=CCC1=CC2=C(C=C1O)OC(CC2=O)C3=CC=C(C=C3)O)C

>  <PUBCHEM_OPENEYE_ISO_SMILES>  (1) 
CC(=CCC1=CC2=C(C=C1O)O[C@@H](CC2=O)C3=CC=C(C=C3)O)C

>  <PUBCHEM_CACTVS_TPSA>  (1) 
66.8

>  <PUBCHEM_MONOISOTOPIC_WEIGHT>  (1) 
324.13615911

>  <PUBCHEM_TOTAL_CHARGE>  (1) 
0

>  <PUBCHEM_HEAVY_ATOM_COUNT>  (1) 
24

>  <PUBCHEM_ATOM_DEF_STEREO_COUNT>  (1) 
1

>  <PUBCHEM_ATOM_UDEF_STEREO_COUNT>  (1) 
0

>  <PUBCHEM_BOND_DEF_STEREO_COUNT>  (1) 
0

>  <PUBCHEM_BOND_UDEF_STEREO_COUNT>  (1) 
0

>  <PUBCHEM_ISOTOPIC_ATOM_COUNT>  (1) 
0

>  <PUBCHEM_COMPONENT_COUNT>  (1) 
1

>  <PUBCHEM_CACTVS_TAUTO_COUNT>  (1) 
-1

>  <PUBCHEM_COORDINATE_TYPE>  (1) 
1
5
255

>  <PUBCHEM_BONDANNOTATIONS>  (1) 
10  16  8
10  17  8
11  12  8
11  14  8
13  14  8
16  19  8
17  20  8
19  21  8
20  21  8
5  10  5
7  12  8
7  8  8
8  13  8

$$$$
