135403798
     RDKit          2D

 41 46  0  0  1  0  0  0  0  0999 V2000
    9.4109    0.4229    0.0000 O   0  0  0  0  0  0  0  0  0  0  0  0
    5.6534    0.4920    0.0000 O   0  0  0  0  0  0  0  0  0  0  0  0
    6.8188   -0.1071    0.0000 O   0  0  0  0  0  0  0  0  0  0  0  0
    3.9339   -1.5188    0.0000 O   0  0  0  0  0  0  0  0  0  0  0  0
    8.5507   -4.1563    0.0000 O   0  0  0  0  0  0  0  0  0  0  0  0
   10.3324   -3.1458    0.0000 O   0  0  0  0  0  0  0  0  0  0  0  0
    7.6221    3.4338    0.0000 O   0  0  0  0  0  0  0  0  0  0  0  0
    2.3921    1.7686    0.0000 O   0  0  0  0  0  0  0  0  0  0  0  0
    5.2881   -3.8045    0.0000 O   0  0  0  0  0  0  0  0  0  0  0  0
    7.1090   -4.2201    0.0000 O   0  0  0  0  0  0  0  0  0  0  0  0
   11.1615    3.4884    0.0000 O   0  0  0  0  0  0  0  0  0  0  0  0
    5.1512    3.9863    0.0000 O   0  0  0  0  0  0  0  0  0  0  0  0
    8.5507   -0.0871    0.0000 C   0  0  0  0  0  0  0  0  0  0  0  0
    7.6790    0.4028    0.0000 C   0  0  0  0  0  0  0  0  0  0  0  0
    5.2881   -0.4389    0.0000 C   0  0  0  0  0  0  0  0  0  0  0  0
    8.5623   -1.0870    0.0000 C   0  0  0  0  0  0  0  0  0  0  0  0
    4.2993   -0.5879    0.0000 C   0  0  0  0  0  0  0  0  0  0  0  0
    7.6674    1.4028    0.0000 C   0  0  0  0  0  0  0  0  0  0  0  0
    7.6683   -1.6217    0.0000 C   0  0  0  0  0  0  0  0  0  0  0  0
    5.9116   -1.2207    0.0000 C   0  0  0  0  0  0  0  0  0  0  0  0
    3.6758    0.1939    0.0000 C   0  0  0  0  0  0  0  0  0  0  0  0
    8.5276    1.9128    0.0000 C   0  0  0  0  0  0  0  0  0  0  0  0
    6.8865   -0.9982    0.0000 C   0  0  0  0  0  0  0  0  0  0  0  0
    4.0411    1.1248    0.0000 C   0  0  0  0  0  0  0  0  0  0  0  0
    9.3993    1.4228    0.0000 C   0  0  0  0  0  0  0  0  0  0  0  0
    7.6683   -2.6217    0.0000 C   0  0  0  0  0  0  0  0  0  0  0  0
    5.0299    1.2738    0.0000 C   0  0  0  0  0  0  0  0  0  0  0  0
    9.4683   -1.6009    0.0000 C   0  0  0  0  0  0  0  0  0  0  0  0
    5.4777   -2.1217    0.0000 C   0  0  0  0  0  0  0  0  0  0  0  0
    8.5623   -3.1564    0.0000 C   0  0  0  0  0  0  0  0  0  0  0  0
    9.4683   -2.6425    0.0000 C   0  0  0  0  0  0  0  0  0  0  0  0
    8.4995    2.9540    0.0000 C   0  0  0  0  0  0  0  0  0  0  0  0
    6.8865   -3.2452    0.0000 C   0  0  0  0  0  0  0  0  0  0  0  0
    3.3792    1.9290    0.0000 C   0  0  0  0  0  0  0  0  0  0  0  0
    5.9116   -3.0227    0.0000 C   0  0  0  0  0  0  0  0  0  0  0  0
   10.3034    1.9401    0.0000 C   0  0  0  0  0  0  0  0  0  0  0  0
    5.4254    2.2374    0.0000 C   0  0  0  0  0  0  0  0  0  0  0  0
    9.3914    3.4921    0.0000 C   0  0  0  0  0  0  0  0  0  0  0  0
   10.2994    2.9818    0.0000 C   0  0  0  0  0  0  0  0  0  0  0  0
    3.7522    2.9016    0.0000 C   0  0  0  0  0  0  0  0  0  0  0  0
    4.7822    3.0568    0.0000 C   0  0  0  0  0  0  0  0  0  0  0  0
  1 13  1  0
  1 25  1  0
  2 15  1  0
  2 27  1  0
 14  3  1  6
 17  4  1  6
  5 30  1  0
  6 31  1  0
  7 32  1  0
  8 34  1  0
  9 35  1  0
 10 33  2  0
 11 39  1  0
 12 41  1  0
 13 14  1  0
 13 16  1  6
 14 18  1  0
 15 17  1  0
 15 20  1  6
 16 19  2  0
 16 28  1  0
 17 21  1  0
 18 22  1  0
 19 23  1  0
 19 26  1  0
 20 23  2  0
 20 29  1  0
 21 24  1  0
 22 25  2  0
 22 32  1  0
 24 27  2  0
 24 34  1  0
 25 36  1  0
 26 30  2  0
 26 33  1  0
 27 37  1  0
 28 31  2  0
 29 35  2  0
 30 31  1  0
 32 38  2  0
 33 35  1  0
 34 40  2  0
 36 39  2  0
 37 41  2  0
 38 39  1  0
 40 41  1  0
M  END
>  <PUBCHEM_COMPOUND_CID>  (1) 
135403798

>  <PUBCHEM_COMPOUND_CANONICALIZED>  (1) 
1

>  <PUBCHEM_CACTVS_COMPLEXITY>  (1) 
1060

>  <PUBCHEM_CACTVS_HBOND_ACCEPTOR>  (1) 
12

>  <PUBCHEM_CACTVS_HBOND_DONOR>  (1) 
9

>  <PUBCHEM_CACTVS_ROTATABLE_BOND>  (1) 
2

>  <PUBCHEM_CACTVS_SUBSKEYS>  (1) 
AAADceB4PAAAAAAAAAAAAAAAAAAAAAAAAAA0aMECBAAAAACRUAAAGgAACAAADBSgmAIwBoAABgCIAqBSAAICCAAkIAAAiAFGiMgNNzaGNRqCeWGl4BULuYfK7PzOoAADCAAYQABAAAYQADCAAAAAAAAAAA==

>  <PUBCHEM_IUPAC_OPENEYE_NAME>  (1) 
3,4,6-trihydroxy-1,8-bis[(2R,3R)-3,5,7-trihydroxychroman-2-yl]benzo[7]annulen-5-one

>  <PUBCHEM_IUPAC_CAS_NAME>  (1) 
3,4,6-trihydroxy-1,8-bis[(2R,3R)-3,5,7-trihydroxy-3,4-dihydro-2H-1-benzopyran-2-yl]-5-benzo[7]annulenone

>  <PUBCHEM_IUPAC_NAME_MARKUP>  (1) 
3,4,6-trihydroxy-1,8-bis[(2<I>R</I>,3<I>R</I>)-3,5,7-trihydroxy-3,4-dihydro-2<I>H</I>-chromen-2-yl]benzo[7]annulen-5-one

>  <PUBCHEM_IUPAC_NAME>  (1) 
3,4,6-trihydroxy-1,8-bis[(2R,3R)-3,5,7-trihydroxy-3,4-dihydro-2H-chromen-2-yl]benzo[7]annulen-5-one

>  <PUBCHEM_IUPAC_SYSTEMATIC_NAME>  (1) 
3,4,6-tris(oxidanyl)-1,8-bis[(2R,3R)-3,5,7-tris(oxidanyl)-3,4-dihydro-2H-chromen-2-yl]benzo[7]annulen-5-one

>  <PUBCHEM_IUPAC_TRADITIONAL_NAME>  (1) 
3,4,6-trihydroxy-1,8-bis[(2R,3R)-3,5,7-trihydroxychroman-2-yl]benzocyclohepten-5-one

>  <PUBCHEM_IUPAC_INCHI>  (1) 
InChI=1S/C29H24O12/c30-11-3-17(32)15-8-21(36)28(40-23(15)5-11)10-1-13-14(7-20(35)27(39)25(13)26(38)19(34)2-10)29-22(37)9-16-18(33)4-12(31)6-24(16)41-29/h1-7,21-22,28-33,35-37,39H,8-9H2,(H,34,38)/t21-,22-,28-,29-/m1/s1

>  <PUBCHEM_IUPAC_INCHIKEY>  (1) 
IPMYMEWFZKHGAX-ZKSIBHASSA-N

>  <PUBCHEM_XLOGP3_AA>  (1) 
2.4

>  <PUBCHEM_EXACT_MASS>  (1) 
564.12677620

>  <PUBCHEM_MOLECULAR_FORMULA>  (1) 
C29H24O12

>  <PUBCHEM_MOLECULAR_WEIGHT>  (1) 
564.5

>  <PUBCHEM_OPENEYE_CAN_SMILES>  (1) 
C1C(C(OC2=CC(=CC(=C21)O)O)C3=CC4=C(C(=C(C=C4C5C(CC6=C(C=C(C=C6O5)O)O)O)O)O)C(=O)C(=C3)O)O

>  <PUBCHEM_OPENEYE_ISO_SMILES>  (1) 
C1[C@H]([C@H](OC2=CC(=CC(=C21)O)O)C3=CC4=C(C(=C(C=C4[C@@H]5[C@@H](CC6=C(C=C(C=C6O5)O)O)O)O)O)C(=O)C(=C3)O)O

>  <PUBCHEM_CACTVS_TPSA>  (1) 
218

>  <PUBCHEM_MONOISOTOPIC_WEIGHT>  (1) 
564.12677620

>  <PUBCHEM_TOTAL_CHARGE>  (1) 
0

>  <PUBCHEM_HEAVY_ATOM_COUNT>  (1) 
41

>  <PUBCHEM_ATOM_DEF_STEREO_COUNT>  (1) 
4

>  <PUBCHEM_ATOM_UDEF_STEREO_COUNT>  (1) 
0

>  <PUBCHEM_BOND_DEF_STEREO_COUNT>  (1) 
0

>  <PUBCHEM_BOND_UDEF_STEREO_COUNT>  (1) 
0

>  <PUBCHEM_ISOTOPIC_ATOM_COUNT>  (1) 
0

>  <PUBCHEM_COMPONENT_COUNT>  (1) 
1

>  <PUBCHEM_CACTVS_TAUTO_COUNT>  (1) 
-1

>  <PUBCHEM_COORDINATE_TYPE>  (1) 
1
5
255

>  <PUBCHEM_BONDANNOTATIONS>  (1) 
13  42  5
15  20  6
16  19  8
16  28  8
19  23  8
19  26  8
20  23  8
20  29  8
22  25  8
22  32  8
24  27  8
24  34  8
25  36  8
26  30  8
26  33  8
27  37  8
28  31  8
29  35  8
14  3  6
30  31  8
32  38  8
33  35  8
34  40  8
36  39  8
37  41  8
38  39  8
17  4  6
40  41  8

$$$$
