21591148
     RDKit          2D

 31 33  0  0  0  0  0  0  0  0999 V2000
    8.0901   -1.9711    0.0000 O   0  0  0  0  0  0  0  0  0  0  0  0
    6.3301    1.0635    0.0000 O   0  0  0  0  0  0  0  0  0  0  0  0
    4.5981   -1.9365    0.0000 O   0  0  0  0  0  0  0  0  0  0  0  0
    8.0785    1.0981    0.0000 O   0  0  0  0  0  0  0  0  0  0  0  0
   12.4525    1.5977    0.0000 O   0  0  0  0  0  0  0  0  0  0  0  0
   10.7166    2.5910    0.0000 O   0  0  0  0  0  0  0  0  0  0  0  0
    7.1962   -0.4365    0.0000 C   0  0  0  0  0  0  0  0  0  0  0  0
    5.4641   -0.4365    0.0000 C   0  0  0  0  0  0  0  0  0  0  0  0
    8.9962   -0.4156    0.0000 C   0  0  0  0  0  0  0  0  0  0  0  0
    9.8602    0.0877    0.0000 C   0  0  0  0  0  0  0  0  0  0  0  0
    7.1962   -1.4365    0.0000 C   0  0  0  0  0  0  0  0  0  0  0  0
    6.3301    0.0635    0.0000 C   0  0  0  0  0  0  0  0  0  0  0  0
    8.0901    0.0982    0.0000 C   0  0  0  0  0  0  0  0  0  0  0  0
    4.5981    0.0635    0.0000 C   0  0  0  0  0  0  0  0  0  0  0  0
   11.5923    0.0944    0.0000 C   0  0  0  0  0  0  0  0  0  0  0  0
    5.4641   -1.4365    0.0000 C   0  0  0  0  0  0  0  0  0  0  0  0
   10.7282   -0.4090    0.0000 C   0  0  0  0  0  0  0  0  0  0  0  0
    6.3301   -1.9365    0.0000 C   0  0  0  0  0  0  0  0  0  0  0  0
   12.4602   -0.4023    0.0000 C   0  0  0  0  0  0  0  0  0  0  0  0
    8.9962   -1.4573    0.0000 C   0  0  0  0  0  0  0  0  0  0  0  0
    9.8564    1.0877    0.0000 C   0  0  0  0  0  0  0  0  0  0  0  0
   11.5884    1.0944    0.0000 C   0  0  0  0  0  0  0  0  0  0  0  0
   10.7205    1.5910    0.0000 C   0  0  0  0  0  0  0  0  0  0  0  0
    3.7320   -0.4365    0.0000 C   0  0  0  0  0  0  0  0  0  0  0  0
   12.4641   -1.4023    0.0000 C   0  0  0  0  0  0  0  0  0  0  0  0
    2.8660    0.0635    0.0000 C   0  0  0  0  0  0  0  0  0  0  0  0
   13.3320   -1.8989    0.0000 C   0  0  0  0  0  0  0  0  0  0  0  0
    2.0000   -0.4365    0.0000 C   0  0  0  0  0  0  0  0  0  0  0  0
    2.8660    1.0635    0.0000 C   0  0  0  0  0  0  0  0  0  0  0  0
   13.3359   -2.8989    0.0000 C   0  0  0  0  0  0  0  0  0  0  0  0
   14.1961   -1.3956    0.0000 C   0  0  0  0  0  0  0  0  0  0  0  0
  1 11  1  0
  1 20  1  0
  2 12  1  0
  3 16  1  0
  4 13  2  0
  5 22  1  0
  6 23  1  0
  7 11  2  0
  7 12  1  0
  7 13  1  0
  8 12  2  0
  8 14  1  0
  8 16  1  0
  9 10  1  0
  9 13  1  0
  9 20  2  0
 10 17  1  0
 10 21  2  0
 11 18  1  0
 14 24  1  0
 15 17  2  0
 15 19  1  0
 15 22  1  0
 16 18  2  0
 19 25  1  0
 21 23  1  0
 22 23  2  0
 24 26  2  0
 25 27  2  0
 26 28  1  0
 26 29  1  0
 27 30  1  0
 27 31  1  0
M  END
>  <PUBCHEM_COMPOUND_CID>  (1) 
21591148

>  <PUBCHEM_COMPOUND_CANONICALIZED>  (1) 
1

>  <PUBCHEM_CACTVS_COMPLEXITY>  (1) 
745

>  <PUBCHEM_CACTVS_HBOND_ACCEPTOR>  (1) 
6

>  <PUBCHEM_CACTVS_HBOND_DONOR>  (1) 
4

>  <PUBCHEM_CACTVS_ROTATABLE_BOND>  (1) 
5

>  <PUBCHEM_CACTVS_SUBSKEYS>  (1) 
AAADceB4OAAAAAAAAAAAAAAAAAAAAAAAAAAwYIAAAAAAAACBQAAAGgAACAAADASgmAIyBoAABgCIAqBSAAACCAAkIAAAiAEGiMgNJzaGNRqAcWEl4BUJuYeI7PzOIAADCAAIQABAAAYQABCAAAAAAAAAAA==

>  <PUBCHEM_IUPAC_OPENEYE_NAME>  (1) 
3-[3,4-dihydroxy-5-(3-methylbut-2-enyl)phenyl]-5,7-dihydroxy-6-(3-methylbut-2-enyl)chromen-4-one

>  <PUBCHEM_IUPAC_CAS_NAME>  (1) 
3-[3,4-dihydroxy-5-(3-methylbut-2-enyl)phenyl]-5,7-dihydroxy-6-(3-methylbut-2-enyl)-1-benzopyran-4-one

>  <PUBCHEM_IUPAC_NAME_MARKUP>  (1) 
3-[3,4-dihydroxy-5-(3-methylbut-2-enyl)phenyl]-5,7-dihydroxy-6-(3-methylbut-2-enyl)chromen-4-one

>  <PUBCHEM_IUPAC_NAME>  (1) 
3-[3,4-dihydroxy-5-(3-methylbut-2-enyl)phenyl]-5,7-dihydroxy-6-(3-methylbut-2-enyl)chromen-4-one

>  <PUBCHEM_IUPAC_SYSTEMATIC_NAME>  (1) 
6-(3-methylbut-2-enyl)-3-[3-(3-methylbut-2-enyl)-4,5-bis(oxidanyl)phenyl]-5,7-bis(oxidanyl)chromen-4-one

>  <PUBCHEM_IUPAC_TRADITIONAL_NAME>  (1) 
3-[3,4-dihydroxy-5-(3-methylbut-2-enyl)phenyl]-5,7-dihydroxy-6-(3-methylbut-2-enyl)chromone

>  <PUBCHEM_IUPAC_INCHI>  (1) 
InChI=1S/C25H26O6/c1-13(2)5-7-15-9-16(10-20(27)23(15)28)18-12-31-21-11-19(26)17(8-6-14(3)4)24(29)22(21)25(18)30/h5-6,9-12,26-29H,7-8H2,1-4H3

>  <PUBCHEM_IUPAC_INCHIKEY>  (1) 
QNLGNISMYMFVHP-UHFFFAOYSA-N

>  <PUBCHEM_XLOGP3_AA>  (1) 
6.2

>  <PUBCHEM_EXACT_MASS>  (1) 
422.17293854

>  <PUBCHEM_MOLECULAR_FORMULA>  (1) 
C25H26O6

>  <PUBCHEM_MOLECULAR_WEIGHT>  (1) 
422.5

>  <PUBCHEM_OPENEYE_CAN_SMILES>  (1) 
CC(=CCC1=C(C(=CC(=C1)C2=COC3=C(C2=O)C(=C(C(=C3)O)CC=C(C)C)O)O)O)C

>  <PUBCHEM_OPENEYE_ISO_SMILES>  (1) 
CC(=CCC1=C(C(=CC(=C1)C2=COC3=C(C2=O)C(=C(C(=C3)O)CC=C(C)C)O)O)O)C

>  <PUBCHEM_CACTVS_TPSA>  (1) 
107

>  <PUBCHEM_MONOISOTOPIC_WEIGHT>  (1) 
422.17293854

>  <PUBCHEM_TOTAL_CHARGE>  (1) 
0

>  <PUBCHEM_HEAVY_ATOM_COUNT>  (1) 
31

>  <PUBCHEM_ATOM_DEF_STEREO_COUNT>  (1) 
0

>  <PUBCHEM_ATOM_UDEF_STEREO_COUNT>  (1) 
0

>  <PUBCHEM_BOND_DEF_STEREO_COUNT>  (1) 
0

>  <PUBCHEM_BOND_UDEF_STEREO_COUNT>  (1) 
0

>  <PUBCHEM_ISOTOPIC_ATOM_COUNT>  (1) 
0

>  <PUBCHEM_COMPONENT_COUNT>  (1) 
1

>  <PUBCHEM_CACTVS_TAUTO_COUNT>  (1) 
828

>  <PUBCHEM_COORDINATE_TYPE>  (1) 
1
5
255

>  <PUBCHEM_BONDANNOTATIONS>  (1) 
1  11  8
1  20  8
10  17  8
10  21  8
11  18  8
15  17  8
15  22  8
16  18  8
21  23  8
22  23  8
7  11  8
7  12  8
7  13  8
8  12  8
8  16  8
9  13  8
9  20  8

$$$$
