54729460
     RDKit          2D

 30 31  0  0  1  0  0  0  0  0999 V2000
    6.8671    3.0875    0.0000 O   0  0  0  0  0  0  0  0  0  0  0  0
    9.2331    6.1856    0.0000 O   0  0  0  0  0  0  0  0  0  0  0  0
    6.0010    2.5875    0.0000 O   0  0  0  0  0  0  0  0  0  0  0  0
    9.4651    0.5875    0.0000 O   0  0  0  0  0  0  0  0  0  0  0  0
    7.7331   -0.4125    0.0000 O   0  0  0  0  0  0  0  0  0  0  0  0
    5.1350    1.0875    0.0000 O   0  0  0  0  0  0  0  0  0  0  0  0
    2.5369   -6.4125    0.0000 O   0  0  0  0  0  0  0  0  0  0  0  0
    8.5991    1.0875    0.0000 N   0  0  0  0  0  0  0  0  0  0  0  0
    7.7331    3.5875    0.0000 C   0  0  0  0  0  0  0  0  0  0  0  0
    8.7331    3.5875    0.0000 C   0  0  0  0  0  0  0  0  0  0  0  0
    7.2331    4.4535    0.0000 C   0  0  0  0  0  0  0  0  0  0  0  0
    9.2331    4.4535    0.0000 C   0  0  0  0  0  0  0  0  0  0  0  0
    7.7331    5.3195    0.0000 C   0  0  0  0  0  0  0  0  0  0  0  0
    8.7331    5.3195    0.0000 C   0  0  0  0  0  0  0  0  0  0  0  0
    7.7331    2.5875    0.0000 C   0  0  0  0  0  0  0  0  0  0  0  0
    6.8671    2.0875    0.0000 C   0  0  0  0  0  0  0  0  0  0  0  0
    8.5991    2.0875    0.0000 C   0  0  0  0  0  0  0  0  0  0  0  0
    6.8671    1.0875    0.0000 C   0  0  0  0  0  0  0  0  0  0  0  0
    7.7331    0.5875    0.0000 C   0  0  0  0  0  0  0  0  0  0  0  0
    6.0010    0.5875    0.0000 C   0  0  0  0  0  0  0  0  0  0  0  0
    6.0010   -0.4125    0.0000 C   0  0  0  0  0  0  0  0  0  0  0  0
    3.4030   -4.9125    0.0000 C   0  0  0  0  0  0  0  0  0  0  0  0
    4.2690   -5.4125    0.0000 C   0  0  0  0  0  0  0  0  0  0  0  0
    5.1350   -0.9125    0.0000 C   0  0  0  0  0  0  0  0  0  0  0  0
    2.5369   -5.4125    0.0000 C   0  0  0  0  0  0  0  0  0  0  0  0
    3.4030   -3.9125    0.0000 C   0  0  0  0  0  0  0  0  0  0  0  0
    4.2690   -6.4125    0.0000 C   0  0  0  0  0  0  0  0  0  0  0  0
    5.1350   -1.9125    0.0000 C   0  0  0  0  0  0  0  0  0  0  0  0
    4.2690   -3.4125    0.0000 C   0  0  0  0  0  0  0  0  0  0  0  0
    4.2690   -2.4125    0.0000 C   0  0  0  0  0  0  0  0  0  0  0  0
  1  9  1  0
  2 14  1  0
  3 16  1  0
  4  8  1  0
  5 19  2  0
  6 20  2  0
  7 25  1  0
  8 17  1  0
  8 19  1  0
  9 10  1  0
  9 11  1  0
  9 15  1  0
 10 12  1  0
 11 13  1  0
 12 14  1  0
 13 14  1  0
 15 16  1  0
 15 17  2  0
 16 18  2  0
 18 19  1  0
 18 20  1  0
 20 21  1  0
 21 24  2  0
 22 23  1  0
 22 25  1  0
 22 26  1  0
 23 27  1  0
 24 28  1  0
 26 29  2  0
 28 30  2  0
 29 30  1  0
M  END
>  <PUBCHEM_COMPOUND_CID>  (1) 
54729460

>  <PUBCHEM_COMPOUND_CANONICALIZED>  (1) 
1

>  <PUBCHEM_CACTVS_COMPLEXITY>  (1) 
798

>  <PUBCHEM_CACTVS_HBOND_ACCEPTOR>  (1) 
7

>  <PUBCHEM_CACTVS_HBOND_DONOR>  (1) 
5

>  <PUBCHEM_CACTVS_ROTATABLE_BOND>  (1) 
8

>  <PUBCHEM_CACTVS_SUBSKEYS>  (1) 
AAADceB6OAAAAAAAAAAAAAAAAAAAAAAAAAAwQAAAAAAAAAAAAAAAHgAECAAADVThgAYCAAIQAgCIAqFWUACAAAAgIAAoCAEIAEgIFBoIgQAEQAAFwgAIkYPAwKAOAAAAAAAAAABCAAAAAAAAAAAAAAAAAA==

>  <PUBCHEM_IUPAC_OPENEYE_NAME>  (1) 
5-(1,4-dihydroxycyclohexyl)-1,4-dihydroxy-3-[(2E,4E,6E)-8-(hydroxymethyl)deca-2,4,6-trienoyl]pyridin-2-one

>  <PUBCHEM_IUPAC_CAS_NAME>  (1) 
5-(1,4-dihydroxycyclohexyl)-1,4-dihydroxy-3-[(2E,4E,6E)-8-(hydroxymethyl)-1-oxodeca-2,4,6-trienyl]-2-pyridinone

>  <PUBCHEM_IUPAC_NAME_MARKUP>  (1) 
5-(1,4-dihydroxycyclohexyl)-1,4-dihydroxy-3-[(2<I>E</I>,4<I>E</I>,6<I>E</I>)-8-(hydroxymethyl)deca-2,4,6-trienoyl]pyridin-2-one

>  <PUBCHEM_IUPAC_NAME>  (1) 
5-(1,4-dihydroxycyclohexyl)-1,4-dihydroxy-3-[(2E,4E,6E)-8-(hydroxymethyl)deca-2,4,6-trienoyl]pyridin-2-one

>  <PUBCHEM_IUPAC_SYSTEMATIC_NAME>  (1) 
5-[1,4-bis(oxidanyl)cyclohexyl]-3-[(2E,4E,6E)-8-(hydroxymethyl)deca-2,4,6-trienoyl]-1,4-bis(oxidanyl)pyridin-2-one

>  <PUBCHEM_IUPAC_TRADITIONAL_NAME>  (1) 
5-(1,4-dihydroxycyclohexyl)-1,4-dihydroxy-3-[(2E,4E,6E)-8-methyloldeca-2,4,6-trienoyl]-2-pyridone

>  <PUBCHEM_IUPAC_INCHI>  (1) 
InChI=1S/C22H29NO7/c1-2-15(14-24)7-5-3-4-6-8-18(26)19-20(27)17(13-23(30)21(19)28)22(29)11-9-16(25)10-12-22/h3-8,13,15-16,24-25,27,29-30H,2,9-12,14H2,1H3/b4-3+,7-5+,8-6+

>  <PUBCHEM_IUPAC_INCHIKEY>  (1) 
WXLPIUFTKBWEGE-OKWWDJPNSA-N

>  <PUBCHEM_XLOGP3_AA>  (1) 
0.8

>  <PUBCHEM_EXACT_MASS>  (1) 
419.19440226

>  <PUBCHEM_MOLECULAR_FORMULA>  (1) 
C22H29NO7

>  <PUBCHEM_MOLECULAR_WEIGHT>  (1) 
419.5

>  <PUBCHEM_OPENEYE_CAN_SMILES>  (1) 
CCC(CO)C=CC=CC=CC(=O)C1=C(C(=CN(C1=O)O)C2(CCC(CC2)O)O)O

>  <PUBCHEM_OPENEYE_ISO_SMILES>  (1) 
CCC(CO)/C=C/C=C/C=C/C(=O)C1=C(C(=CN(C1=O)O)C2(CCC(CC2)O)O)O

>  <PUBCHEM_CACTVS_TPSA>  (1) 
139

>  <PUBCHEM_MONOISOTOPIC_WEIGHT>  (1) 
419.19440226

>  <PUBCHEM_TOTAL_CHARGE>  (1) 
0

>  <PUBCHEM_HEAVY_ATOM_COUNT>  (1) 
30

>  <PUBCHEM_ATOM_DEF_STEREO_COUNT>  (1) 
0

>  <PUBCHEM_ATOM_UDEF_STEREO_COUNT>  (1) 
1

>  <PUBCHEM_BOND_DEF_STEREO_COUNT>  (1) 
3

>  <PUBCHEM_BOND_UDEF_STEREO_COUNT>  (1) 
0

>  <PUBCHEM_ISOTOPIC_ATOM_COUNT>  (1) 
0

>  <PUBCHEM_COMPONENT_COUNT>  (1) 
1

>  <PUBCHEM_CACTVS_TAUTO_COUNT>  (1) 
-1

>  <PUBCHEM_COORDINATE_TYPE>  (1) 
1
5
255

>  <PUBCHEM_BONDANNOTATIONS>  (1) 
15  16  8
15  17  8
16  18  8
18  19  8
22  23  3
8  17  8
8  19  8

$$$$
