159516
     RDKit          2D

 34 38  0  0  1  0  0  0  0  0999 V2000
    2.9999   -2.1332    0.0000 O   0  0  0  0  0  0  0  0  0  0  0  0
    3.0200   -0.4013    0.0000 O   0  0  0  0  0  0  0  0  0  0  0  0
   12.6345    2.3305    0.0000 O   0  0  0  0  0  0  0  0  0  0  0  0
   10.8151    3.3623    0.0000 O   0  0  0  0  0  0  0  0  0  0  0  0
    7.2946   -0.8139    0.0000 C   0  0  0  0  0  0  0  0  0  0  0  0
    6.3846   -1.3208    0.0000 C   0  0  0  0  0  0  0  0  0  0  0  0
    8.1606   -1.3139    0.0000 C   0  0  0  0  0  0  0  0  0  0  0  0
    6.3765   -2.3624    0.0000 C   0  0  0  0  0  0  0  0  0  0  0  0
    8.1766   -2.3554    0.0000 C   0  0  0  0  0  0  0  0  0  0  0  0
    7.2786   -2.8832    0.0000 C   0  0  0  0  0  0  0  0  0  0  0  0
    7.2946    0.1861    0.0000 C   0  0  0  0  0  0  0  0  0  0  0  0
    5.4577   -0.7567    0.0000 C   0  0  0  0  0  0  0  0  0  0  0  0
    9.0266   -0.8139    0.0000 C   0  0  0  0  0  0  0  0  0  0  0  0
    5.4411   -2.9121    0.0000 C   0  0  0  0  0  0  0  0  0  0  0  0
    9.0266    0.1861    0.0000 C   0  0  0  0  0  0  0  0  0  0  0  0
    4.5098   -1.2846    0.0000 C   0  0  0  0  0  0  0  0  0  0  0  0
    8.1606    0.6861    0.0000 C   0  0  0  0  0  0  0  0  0  0  0  0
    6.4285   -0.3139    0.0000 C   0  0  0  0  0  0  0  0  0  0  0  0
    4.5015   -2.3696    0.0000 C   0  0  0  0  0  0  0  0  0  0  0  0
    9.0266   -1.8139    0.0000 C   0  0  0  0  0  0  0  0  0  0  0  0
    6.3688   -3.3623    0.0000 C   0  0  0  0  0  0  0  0  0  0  0  0
    9.9206    0.7208    0.0000 C   0  0  0  0  0  0  0  0  0  0  0  0
    9.9206   -1.3486    0.0000 C   0  0  0  0  0  0  0  0  0  0  0  0
    9.0266    1.1861    0.0000 C   0  0  0  0  0  0  0  0  0  0  0  0
    4.0199   -0.4129    0.0000 C   0  0  0  0  0  0  0  0  0  0  0  0
    3.5099   -1.2730    0.0000 C   0  0  0  0  0  0  0  0  0  0  0  0
   10.8266    0.2069    0.0000 C   0  0  0  0  0  0  0  0  0  0  0  0
   10.8266   -0.8347    0.0000 C   0  0  0  0  0  0  0  0  0  0  0  0
    9.8955    1.8055    0.0000 C   0  0  0  0  0  0  0  0  0  0  0  0
   11.7704    0.7422    0.0000 C   0  0  0  0  0  0  0  0  0  0  0  0
   10.8266    2.3624    0.0000 C   0  0  0  0  0  0  0  0  0  0  0  0
   11.7704    1.8272    0.0000 C   0  0  0  0  0  0  0  0  0  0  0  0
   12.6345    0.2388    0.0000 C   0  0  0  0  0  0  0  0  0  0  0  0
    2.0000   -2.1217    0.0000 C   0  0  0  0  0  0  0  0  0  0  0  0
  1 26  1  0
  1 34  1  0
  2 26  2  0
  3 32  1  0
  4 31  2  0
  5  6  1  0
  5  7  1  0
  5 11  1  0
  5 18  1  1
  6  8  1  0
  6 12  1  1
  7  9  1  0
  7 13  1  0
  7 20  1  6
  8 10  1  0
  8 14  1  0
  8 21  1  6
  9 10  1  0
 11 17  1  0
 12 16  1  0
 13 15  1  0
 13 23  2  0
 14 19  1  0
 15 17  1  0
 15 22  1  0
 15 24  1  6
 16 19  1  0
 16 25  1  6
 16 26  1  0
 22 27  1  0
 22 29  2  0
 23 28  1  0
 27 28  2  0
 27 30  1  0
 29 31  1  0
 30 32  2  0
 30 33  1  0
 31 32  1  0
M  END
>  <PUBCHEM_COMPOUND_CID>  (1) 
159516

>  <PUBCHEM_COMPOUND_CANONICALIZED>  (1) 
1

>  <PUBCHEM_CACTVS_COMPLEXITY>  (1) 
1120

>  <PUBCHEM_CACTVS_HBOND_ACCEPTOR>  (1) 
4

>  <PUBCHEM_CACTVS_HBOND_DONOR>  (1) 
1

>  <PUBCHEM_CACTVS_ROTATABLE_BOND>  (1) 
2

>  <PUBCHEM_CACTVS_SUBSKEYS>  (1) 
AAADcfB4OAAAAAAAAAAAAAAAAAAAAAAAAAAwYMECAAAAAADAAAAAGgAACAAADwSAgAICCAAABgCIAqDSCAIAAAAgIAAACAFAAEgIABIAAAAAQAAEwAAIgQOIyPCPgAAAAAAAAACAAAQAACAAAAAAAAAAAA==

>  <PUBCHEM_IUPAC_OPENEYE_NAME>  (1) 
methyl (2R,4aS,6aR,6aS,14aS,14bR)-10-hydroxy-2,4a,6a,6a,9,14a-hexamethyl-11-oxo-1,3,4,5,6,13,14,14b-octahydropicene-2-carboxylate

>  <PUBCHEM_IUPAC_CAS_NAME>  (1) 
(2R,4aS,6aR,6aS,14aS,14bR)-10-hydroxy-2,4a,6a,6a,9,14a-hexamethyl-11-oxo-1,3,4,5,6,13,14,14b-octahydropicene-2-carboxylic acid methyl ester

>  <PUBCHEM_IUPAC_NAME_MARKUP>  (1) 
methyl (2<I>R</I>,4<I>a</I><I>S</I>,6<I>a</I><I>R</I>,6<I>a</I><I>S</I>,14<I>a</I><I>S</I>,14<I>b</I><I>R</I>)-10-hydroxy-2,4<I>a</I>,6<I>a</I>,6<I>a</I>,9,14<I>a</I>-hexamethyl-11-oxo-1,3,4,5,6,13,14,14<I>b</I>-octahydropicene-2-carboxylate

>  <PUBCHEM_IUPAC_NAME>  (1) 
methyl (2R,4aS,6aR,6aS,14aS,14bR)-10-hydroxy-2,4a,6a,6a,9,14a-hexamethyl-11-oxo-1,3,4,5,6,13,14,14b-octahydropicene-2-carboxylate

>  <PUBCHEM_IUPAC_SYSTEMATIC_NAME>  (1) 
methyl (2R,4aS,6aR,6aS,14aS,14bR)-2,4a,6a,6a,9,14a-hexamethyl-10-oxidanyl-11-oxidanylidene-1,3,4,5,6,13,14,14b-octahydropicene-2-carboxylate

>  <PUBCHEM_IUPAC_TRADITIONAL_NAME>  (1) 
(2R,4aS,6aR,6aS,14aS,14bR)-10-hydroxy-11-keto-2,4a,6a,6a,9,14a-hexamethyl-1,3,4,5,6,13,14,14b-octahydropicene-2-carboxylic acid methyl ester

>  <PUBCHEM_IUPAC_INCHI>  (1) 
InChI=1S/C30H40O4/c1-18-19-8-9-22-28(4,20(19)16-21(31)24(18)32)13-15-30(6)23-17-27(3,25(33)34-7)11-10-26(23,2)12-14-29(22,30)5/h8-9,16,23,32H,10-15,17H2,1-7H3/t23-,26-,27-,28+,29-,30+/m1/s1

>  <PUBCHEM_IUPAC_INCHIKEY>  (1) 
JFACETXYABVHFD-WXPPGMDDSA-N

>  <PUBCHEM_XLOGP3_AA>  (1) 
6.3

>  <PUBCHEM_EXACT_MASS>  (1) 
464.29265975

>  <PUBCHEM_MOLECULAR_FORMULA>  (1) 
C30H40O4

>  <PUBCHEM_MOLECULAR_WEIGHT>  (1) 
464.6

>  <PUBCHEM_OPENEYE_CAN_SMILES>  (1) 
CC1=C(C(=O)C=C2C1=CC=C3C2(CCC4(C3(CCC5(C4CC(CC5)(C)C(=O)OC)C)C)C)C)O

>  <PUBCHEM_OPENEYE_ISO_SMILES>  (1) 
CC1=C(C(=O)C=C2C1=CC=C3[C@]2(CC[C@@]4([C@@]3(CC[C@@]5([C@H]4C[C@](CC5)(C)C(=O)OC)C)C)C)C)O

>  <PUBCHEM_CACTVS_TPSA>  (1) 
63.6

>  <PUBCHEM_MONOISOTOPIC_WEIGHT>  (1) 
464.29265975

>  <PUBCHEM_TOTAL_CHARGE>  (1) 
0

>  <PUBCHEM_HEAVY_ATOM_COUNT>  (1) 
34

>  <PUBCHEM_ATOM_DEF_STEREO_COUNT>  (1) 
6

>  <PUBCHEM_ATOM_UDEF_STEREO_COUNT>  (1) 
0

>  <PUBCHEM_BOND_DEF_STEREO_COUNT>  (1) 
0

>  <PUBCHEM_BOND_UDEF_STEREO_COUNT>  (1) 
0

>  <PUBCHEM_ISOTOPIC_ATOM_COUNT>  (1) 
0

>  <PUBCHEM_COMPONENT_COUNT>  (1) 
1

>  <PUBCHEM_CACTVS_TAUTO_COUNT>  (1) 
-1

>  <PUBCHEM_COORDINATE_TYPE>  (1) 
1
5
255

>  <PUBCHEM_BONDANNOTATIONS>  (1) 
15  24  6
16  25  6
5  18  5
6  35  6
7  20  6
8  21  6

$$$$
