54712148
     RDKit          2D

 31 35  0  0  1  0  0  0  0  0999 V2000
    4.5796   -4.2081    0.0000 O   0  0  0  0  0  0  0  0  0  0  0  0
    5.9116   -2.4117    0.0000 O   0  0  0  0  0  0  0  0  0  0  0  0
    2.1077   -3.2641    0.0000 O   0  0  0  0  0  0  0  0  0  0  0  0
    4.6622    0.6735    0.0000 O   0  0  0  0  0  0  0  0  0  0  0  0
    4.2428   -0.3587    0.0000 O   0  0  0  0  0  0  0  0  0  0  0  0
    7.4979    0.8262    0.0000 O   0  0  0  0  0  0  0  0  0  0  0  0
    7.1971   -0.8796    0.0000 N   0  0  0  0  0  0  0  0  0  0  0  0
    4.7531   -3.2228    0.0000 C   0  0  0  0  0  0  0  0  0  0  0  0
    3.8134   -3.5648    0.0000 C   0  0  0  0  0  0  0  0  0  0  0  0
    4.9267   -2.2380    0.0000 C   0  0  0  0  0  0  0  0  0  0  0  0
    6.3943    2.6734    0.0000 C   0  0  0  0  0  0  0  0  0  0  0  0
    3.0473   -2.9221    0.0000 C   0  0  0  0  0  0  0  0  0  0  0  0
    6.3943    3.6734    0.0000 C   0  0  0  0  0  0  0  0  0  0  0  0
    4.1607   -1.5952    0.0000 C   0  0  0  0  0  0  0  0  0  0  0  0
    5.5283    2.1734    0.0000 C   0  0  0  0  0  0  0  0  0  0  0  0
    3.2210   -1.9372    0.0000 C   0  0  0  0  0  0  0  0  0  0  0  0
    7.2882    2.1388    0.0000 C   0  0  0  0  0  0  0  0  0  0  0  0
    7.2882    4.2081    0.0000 C   0  0  0  0  0  0  0  0  0  0  0  0
    8.1943    3.6943    0.0000 C   0  0  0  0  0  0  0  0  0  0  0  0
    8.1943    2.6526    0.0000 C   0  0  0  0  0  0  0  0  0  0  0  0
    4.6622    2.6734    0.0000 C   0  0  0  0  0  0  0  0  0  0  0  0
    5.5695   -1.4720    0.0000 C   0  0  0  0  0  0  0  0  0  0  0  0
    5.5283    4.1734    0.0000 C   0  0  0  0  0  0  0  0  0  0  0  0
    5.5283    1.1735    0.0000 C   0  0  0  0  0  0  0  0  0  0  0  0
    4.6622    3.6734    0.0000 C   0  0  0  0  0  0  0  0  0  0  0  0
    5.2275   -0.5323    0.0000 C   0  0  0  0  0  0  0  0  0  0  0  0
    5.8703    0.2338    0.0000 C   0  0  0  0  0  0  0  0  0  0  0  0
    9.0584    4.1976    0.0000 C   0  0  0  0  0  0  0  0  0  0  0  0
    3.7962    2.1734    0.0000 C   0  0  0  0  0  0  0  0  0  0  0  0
    6.5543   -1.6456    0.0000 C   0  0  0  0  0  0  0  0  0  0  0  0
    6.8551    0.0601    0.0000 C   0  0  0  0  0  0  0  0  0  0  0  0
  8  1  1  6
  9  1  1  6
 10  2  1  6
 12  3  1  6
  4 24  2  0
  5 26  1  0
  6 31  2  0
  7 30  1  0
  7 31  1  0
  8  9  1  0
  8 10  1  0
  9 12  1  0
 10 14  1  0
 10 22  1  0
 11 13  1  0
 11 15  1  0
 11 17  1  6
 12 16  1  0
 13 18  1  1
 13 23  1  0
 14 16  1  0
 15 21  1  0
 15 24  1  1
 17 20  1  0
 18 19  1  0
 19 20  1  0
 19 28  1  1
 21 25  1  0
 21 29  1  1
 22 26  1  0
 22 30  2  0
 23 25  2  0
 24 27  1  0
 26 27  2  0
 27 31  1  0
M  END
>  <PUBCHEM_COMPOUND_CID>  (1) 
54712148

>  <PUBCHEM_COMPOUND_CANONICALIZED>  (1) 
1

>  <PUBCHEM_CACTVS_COMPLEXITY>  (1) 
906

>  <PUBCHEM_CACTVS_HBOND_ACCEPTOR>  (1) 
6

>  <PUBCHEM_CACTVS_HBOND_DONOR>  (1) 
4

>  <PUBCHEM_CACTVS_ROTATABLE_BOND>  (1) 
3

>  <PUBCHEM_CACTVS_SUBSKEYS>  (1) 
AAADceB6OAAAAAAAAAAAAAAAEgAAAAAAAAAwYIEABIAAAACAAAAAHgAQCAAADVThgAYCAALABgCIAqFWUACAAAAgIAAICIEIAEgJFBoIgQAGQAAFwgALkQPY6PyOgAAAAAAAAADCAAYQADCAAAAAAAAAAA==

>  <PUBCHEM_IUPAC_OPENEYE_NAME>  (1) 
3-[(1S,2S,4aR,6S,8aS)-2,6-dimethyl-1,2,4a,5,6,7,8,8a-octahydronaphthalene-1-carbonyl]-5-[(1R,2R,5R,6R)-2,5-dihydroxy-7-oxabicyclo[4.1.0]heptan-2-yl]-4-hydroxy-1H-pyridin-2-one

>  <PUBCHEM_IUPAC_CAS_NAME>  (1) 
3-[[(1S,2S,4aR,6S,8aS)-2,6-dimethyl-1,2,4a,5,6,7,8,8a-octahydronaphthalen-1-yl]-oxomethyl]-5-[(1R,2R,5R,6R)-2,5-dihydroxy-7-oxabicyclo[4.1.0]heptan-2-yl]-4-hydroxy-1H-pyridin-2-one

>  <PUBCHEM_IUPAC_NAME_MARKUP>  (1) 
3-[(1<I>S</I>,2<I>S</I>,4<I>a</I><I>R</I>,6<I>S</I>,8<I>a</I><I>S</I>)-2,6-dimethyl-1,2,4<I>a</I>,5,6,7,8,8<I>a</I>-octahydronaphthalene-1-carbonyl]-5-[(1<I>R</I>,2<I>R</I>,5<I>R</I>,6<I>R</I>)-2,5-dihydroxy-7-oxabicyclo[4.1.0]heptan-2-yl]-4-hydroxy-1<I>H</I>-pyridin-2-one

>  <PUBCHEM_IUPAC_NAME>  (1) 
3-[(1S,2S,4aR,6S,8aS)-2,6-dimethyl-1,2,4a,5,6,7,8,8a-octahydronaphthalene-1-carbonyl]-5-[(1R,2R,5R,6R)-2,5-dihydroxy-7-oxabicyclo[4.1.0]heptan-2-yl]-4-hydroxy-1H-pyridin-2-one

>  <PUBCHEM_IUPAC_SYSTEMATIC_NAME>  (1) 
3-[[(1S,2S,4aR,6S,8aS)-2,6-dimethyl-1,2,4a,5,6,7,8,8a-octahydronaphthalen-1-yl]carbonyl]-5-[(1R,2R,5R,6R)-2,5-bis(oxidanyl)-7-oxabicyclo[4.1.0]heptan-2-yl]-4-oxidanyl-1H-pyridin-2-one

>  <PUBCHEM_IUPAC_TRADITIONAL_NAME>  (1) 
3-[(1S,2S,4aR,6S,8aS)-2,6-dimethyl-1,2,4a,5,6,7,8,8a-octahydronaphthalene-1-carbonyl]-5-[(1R,2R,5R,6R)-2,5-dihydroxy-7-oxabicyclo[4.1.0]heptan-2-yl]-4-hydroxy-2-pyridone

>  <PUBCHEM_IUPAC_INCHI>  (1) 
InChI=1S/C24H31NO6/c1-11-3-6-14-13(9-11)5-4-12(2)17(14)20(28)18-19(27)15(10-25-23(18)29)24(30)8-7-16(26)21-22(24)31-21/h4-5,10-14,16-17,21-22,26,30H,3,6-9H2,1-2H3,(H2,25,27,29)/t11-,12-,13-,14-,16+,17-,21+,22+,24+/m0/s1

>  <PUBCHEM_IUPAC_INCHIKEY>  (1) 
YQTIWISENUYMQD-UOIYJLCQSA-N

>  <PUBCHEM_XLOGP3_AA>  (1) 
1.9

>  <PUBCHEM_EXACT_MASS>  (1) 
429.21513771

>  <PUBCHEM_MOLECULAR_FORMULA>  (1) 
C24H31NO6

>  <PUBCHEM_MOLECULAR_WEIGHT>  (1) 
429.5

>  <PUBCHEM_OPENEYE_CAN_SMILES>  (1) 
CC1CCC2C(C1)C=CC(C2C(=O)C3=C(C(=CNC3=O)C4(CCC(C5C4O5)O)O)O)C

>  <PUBCHEM_OPENEYE_ISO_SMILES>  (1) 
C[C@H]1CC[C@H]2[C@H](C1)C=C[C@@H]([C@@H]2C(=O)C3=C(C(=CNC3=O)[C@@]4(CC[C@H]([C@@H]5[C@H]4O5)O)O)O)C

>  <PUBCHEM_CACTVS_TPSA>  (1) 
119

>  <PUBCHEM_MONOISOTOPIC_WEIGHT>  (1) 
429.21513771

>  <PUBCHEM_TOTAL_CHARGE>  (1) 
0

>  <PUBCHEM_HEAVY_ATOM_COUNT>  (1) 
31

>  <PUBCHEM_ATOM_DEF_STEREO_COUNT>  (1) 
9

>  <PUBCHEM_ATOM_UDEF_STEREO_COUNT>  (1) 
0

>  <PUBCHEM_BOND_DEF_STEREO_COUNT>  (1) 
0

>  <PUBCHEM_BOND_UDEF_STEREO_COUNT>  (1) 
0

>  <PUBCHEM_ISOTOPIC_ATOM_COUNT>  (1) 
0

>  <PUBCHEM_COMPONENT_COUNT>  (1) 
1

>  <PUBCHEM_CACTVS_TAUTO_COUNT>  (1) 
-1

>  <PUBCHEM_COORDINATE_TYPE>  (1) 
1
5
255

>  <PUBCHEM_BONDANNOTATIONS>  (1) 
8  1  6
9  1  6
11  34  5
13  36  6
15  24  5
19  28  5
10  2  6
21  29  5
22  26  8
22  30  8
26  27  8
27  31  8
12  3  6
7  30  8
7  31  8

$$$$
