10409180
     RDKit          2D

 30 31  0  0  1  0  0  0  0  0999 V2000
    8.9282    4.9050    0.0000 O   0  0  0  0  0  0  0  0  0  0  0  0
    3.7320    0.9050    0.0000 O   0  0  0  0  0  0  0  0  0  0  0  0
    7.1962    0.9050    0.0000 O   0  0  0  0  0  0  0  0  0  0  0  0
    2.8660   -0.5950    0.0000 O   0  0  0  0  0  0  0  0  0  0  0  0
    2.8660   -6.5950    0.0000 O   0  0  0  0  0  0  0  0  0  0  0  0
    7.1962    4.9050    0.0000 C   0  0  0  0  0  0  0  0  0  0  0  0
    7.1962    3.9050    0.0000 C   0  0  0  0  0  0  0  0  0  0  0  0
    8.0622    5.4050    0.0000 C   0  0  0  0  0  0  0  0  0  0  0  0
    6.3301    3.4050    0.0000 C   0  0  0  0  0  0  0  0  0  0  0  0
    5.4641    1.9050    0.0000 C   0  0  0  0  0  0  0  0  0  0  0  0
    6.3301    2.4050    0.0000 C   0  0  0  0  0  0  0  0  0  0  0  0
    5.4641    0.9050    0.0000 C   0  0  0  0  0  0  0  0  0  0  0  0
    8.0622    6.4050    0.0000 C   0  0  0  0  0  0  0  0  0  0  0  0
    5.4641    3.9050    0.0000 C   0  0  0  0  0  0  0  0  0  0  0  0
    4.5981    0.4050    0.0000 C   0  0  0  0  0  0  0  0  0  0  0  0
    6.3301    0.4050    0.0000 C   0  0  0  0  0  0  0  0  0  0  0  0
    4.5981   -0.5950    0.0000 C   0  0  0  0  0  0  0  0  0  0  0  0
    8.9282    6.9050    0.0000 C   0  0  0  0  0  0  0  0  0  0  0  0
    6.3301   -0.5950    0.0000 C   0  0  0  0  0  0  0  0  0  0  0  0
    5.4641   -1.0950    0.0000 C   0  0  0  0  0  0  0  0  0  0  0  0
    7.1962    6.9050    0.0000 C   0  0  0  0  0  0  0  0  0  0  0  0
    3.7320   -1.0950    0.0000 C   0  0  0  0  0  0  0  0  0  0  0  0
    3.7320   -2.0950    0.0000 C   0  0  0  0  0  0  0  0  0  0  0  0
    2.8660   -2.5950    0.0000 C   0  0  0  0  0  0  0  0  0  0  0  0
    2.8660   -3.5950    0.0000 C   0  0  0  0  0  0  0  0  0  0  0  0
    2.0000   -4.0950    0.0000 C   0  0  0  0  0  0  0  0  0  0  0  0
    3.7320   -4.0950    0.0000 C   0  0  0  0  0  0  0  0  0  0  0  0
    2.0000   -5.0950    0.0000 C   0  0  0  0  0  0  0  0  0  0  0  0
    3.7320   -5.0950    0.0000 C   0  0  0  0  0  0  0  0  0  0  0  0
    2.8660   -5.5950    0.0000 C   0  0  0  0  0  0  0  0  0  0  0  0
  1  8  1  0
  2 15  1  0
  3 16  1  0
  4 22  2  0
  5 30  1  0
  6  7  1  0
  6  8  1  0
  7  9  1  0
  8 13  1  0
  9 11  2  0
  9 14  1  0
 10 11  1  0
 10 12  1  0
 12 15  2  0
 12 16  1  0
 13 18  1  0
 13 21  2  0
 15 17  1  0
 16 19  2  0
 17 20  2  0
 17 22  1  0
 19 20  1  0
 22 23  1  0
 23 24  2  0
 24 25  1  0
 25 26  2  0
 25 27  1  0
 26 28  1  0
 27 29  2  0
 28 30  2  0
 29 30  1  0
M  END
>  <PUBCHEM_COMPOUND_CID>  (1) 
10409180

>  <PUBCHEM_COMPOUND_CANONICALIZED>  (1) 
1

>  <PUBCHEM_CACTVS_COMPLEXITY>  (1) 
630

>  <PUBCHEM_CACTVS_HBOND_ACCEPTOR>  (1) 
5

>  <PUBCHEM_CACTVS_HBOND_DONOR>  (1) 
4

>  <PUBCHEM_CACTVS_ROTATABLE_BOND>  (1) 
9

>  <PUBCHEM_CACTVS_SUBSKEYS>  (1) 
AAADceB4OAAAAAAAAAAAAAAAAAAAAAAAAAAwYAAAAAAAAAABQAAAGgAACAAADBSgmAIyBoAAAgCIAqBSAAACAAAkIAAIiAEGCMgINzaCFRKAcUAl4BUImYeI7OTOIAACCAAIAABAAAQQABAAAAAAAAAAAA==

>  <PUBCHEM_IUPAC_OPENEYE_NAME>  (1) 
(E)-1-[2,4-dihydroxy-3-[(2E)-6-hydroxy-3,7-dimethyl-octa-2,7-dienyl]phenyl]-3-(4-hydroxyphenyl)prop-2-en-1-one

>  <PUBCHEM_IUPAC_CAS_NAME>  (1) 
(E)-1-[2,4-dihydroxy-3-[(2E)-6-hydroxy-3,7-dimethylocta-2,7-dienyl]phenyl]-3-(4-hydroxyphenyl)-2-propen-1-one

>  <PUBCHEM_IUPAC_NAME_MARKUP>  (1) 
(<I>E</I>)-1-[2,4-dihydroxy-3-[(2<I>E</I>)-6-hydroxy-3,7-dimethylocta-2,7-dienyl]phenyl]-3-(4-hydroxyphenyl)prop-2-en-1-one

>  <PUBCHEM_IUPAC_NAME>  (1) 
(E)-1-[2,4-dihydroxy-3-[(2E)-6-hydroxy-3,7-dimethylocta-2,7-dienyl]phenyl]-3-(4-hydroxyphenyl)prop-2-en-1-one

>  <PUBCHEM_IUPAC_SYSTEMATIC_NAME>  (1) 
(E)-1-[3-[(2E)-3,7-dimethyl-6-oxidanyl-octa-2,7-dienyl]-2,4-bis(oxidanyl)phenyl]-3-(4-hydroxyphenyl)prop-2-en-1-one

>  <PUBCHEM_IUPAC_TRADITIONAL_NAME>  (1) 
(E)-1-[2,4-dihydroxy-3-[(2E)-6-hydroxy-3,7-dimethyl-octa-2,7-dienyl]phenyl]-3-(4-hydroxyphenyl)prop-2-en-1-one

>  <PUBCHEM_IUPAC_INCHI>  (1) 
InChI=1S/C25H28O5/c1-16(2)22(27)13-5-17(3)4-11-20-24(29)15-12-21(25(20)30)23(28)14-8-18-6-9-19(26)10-7-18/h4,6-10,12,14-15,22,26-27,29-30H,1,5,11,13H2,2-3H3/b14-8+,17-4+

>  <PUBCHEM_IUPAC_INCHIKEY>  (1) 
NCHZAFAGBAEJJJ-BAYITLGHSA-N

>  <PUBCHEM_XLOGP3_AA>  (1) 
6

>  <PUBCHEM_EXACT_MASS>  (1) 
408.19367399

>  <PUBCHEM_MOLECULAR_FORMULA>  (1) 
C25H28O5

>  <PUBCHEM_MOLECULAR_WEIGHT>  (1) 
408.5

>  <PUBCHEM_REFERENCE_STANDARDIZATION>  (1) 
Bypass - this structure was created from CID 10409180

>  <PUBCHEM_OPENEYE_CAN_SMILES>  (1) 
CC(=C)C(CCC(=CCC1=C(C=CC(=C1O)C(=O)C=CC2=CC=C(C=C2)O)O)C)O

>  <PUBCHEM_OPENEYE_ISO_SMILES>  (1) 
CC(=C)C(CC/C(=C/CC1=C(C=CC(=C1O)C(=O)/C=C/C2=CC=C(C=C2)O)O)/C)O

>  <PUBCHEM_CACTVS_TPSA>  (1) 
98

>  <PUBCHEM_MONOISOTOPIC_WEIGHT>  (1) 
408.19367399

>  <PUBCHEM_TOTAL_CHARGE>  (1) 
0

>  <PUBCHEM_HEAVY_ATOM_COUNT>  (1) 
30

>  <PUBCHEM_ATOM_DEF_STEREO_COUNT>  (1) 
0

>  <PUBCHEM_ATOM_UDEF_STEREO_COUNT>  (1) 
1

>  <PUBCHEM_BOND_DEF_STEREO_COUNT>  (1) 
2

>  <PUBCHEM_BOND_UDEF_STEREO_COUNT>  (1) 
0

>  <PUBCHEM_ISOTOPIC_ATOM_COUNT>  (1) 
0

>  <PUBCHEM_COMPONENT_COUNT>  (1) 
1

>  <PUBCHEM_CACTVS_TAUTO_COUNT>  (1) 
-1

>  <PUBCHEM_COORDINATE_TYPE>  (1) 
1
5
255

>  <PUBCHEM_BONDANNOTATIONS>  (1) 
8  1  3
12  15  8
12  16  8
15  17  8
16  19  8
17  20  8
19  20  8
25  26  8
25  27  8
26  28  8
27  29  8
28  30  8
29  30  8

$$$$
