4483646
     RDKit          2D

 65 72  0  0  1  0  0  0  0  0999 V2000
    9.4651    1.6941    0.0000 O   0  0  0  0  0  0  0  0  0  0  0  0
   12.1404   -6.0580    0.0000 O   0  0  0  0  0  0  0  0  0  0  0  0
   11.2189   -7.5853    0.0000 O   0  0  0  0  0  0  0  0  0  0  0  0
    7.7331    1.6941    0.0000 O   0  0  0  0  0  0  0  0  0  0  0  0
    9.4651    3.6941    0.0000 O   0  0  0  0  0  0  0  0  0  0  0  0
    7.7331    4.6941    0.0000 O   0  0  0  0  0  0  0  0  0  0  0  0
    6.0010    3.6941    0.0000 O   0  0  0  0  0  0  0  0  0  0  0  0
    6.0010    0.6941    0.0000 O   0  0  0  0  0  0  0  0  0  0  0  0
    6.8671    5.1941    0.0000 O   0  0  0  0  0  0  0  0  0  0  0  0
    4.2690    0.6941    0.0000 O   0  0  0  0  0  0  0  0  0  0  0  0
    4.2690    4.6941    0.0000 O   0  0  0  0  0  0  0  0  0  0  0  0
    4.2690    6.6941    0.0000 O   0  0  0  0  0  0  0  0  0  0  0  0
    6.0010    7.6941    0.0000 O   0  0  0  0  0  0  0  0  0  0  0  0
    6.0010   -1.3059    0.0000 O   0  0  0  0  0  0  0  0  0  0  0  0
    4.2690   -2.3059    0.0000 O   0  0  0  0  0  0  0  0  0  0  0  0
    2.5369   -1.3059    0.0000 O   0  0  0  0  0  0  0  0  0  0  0  0
    2.5369    1.6941    0.0000 O   0  0  0  0  0  0  0  0  0  0  0  0
   10.3662   -3.0061    0.0000 C   0  0  0  0  0  0  0  0  0  0  0  0
    9.4901   -1.4612    0.0000 C   0  0  0  0  0  0  0  0  0  0  0  0
    9.5021   -2.5027    0.0000 C   0  0  0  0  0  0  0  0  0  0  0  0
   10.3901   -0.9369    0.0000 C   0  0  0  0  0  0  0  0  0  0  0  0
   10.3623   -4.0061    0.0000 C   0  0  0  0  0  0  0  0  0  0  0  0
   11.2781   -2.5027    0.0000 C   0  0  0  0  0  0  0  0  0  0  0  0
   10.4027    0.1480    0.0000 C   0  0  0  0  0  0  0  0  0  0  0  0
   11.2902   -1.4612    0.0000 C   0  0  0  0  0  0  0  0  0  0  0  0
    8.5402   -0.9369    0.0000 C   0  0  0  0  0  0  0  0  0  0  0  0
    9.4944   -4.5027    0.0000 C   0  0  0  0  0  0  0  0  0  0  0  0
   11.2704   -4.5164    0.0000 C   0  0  0  0  0  0  0  0  0  0  0  0
    9.4651    0.6941    0.0000 C   0  0  0  0  0  0  0  0  0  0  0  0
   10.3703   -6.0754    0.0000 C   0  0  0  0  0  0  0  0  0  0  0  0
    8.5276    0.1480    0.0000 C   0  0  0  0  0  0  0  0  0  0  0  0
   11.3503   -3.1835    0.0000 C   0  0  0  0  0  0  0  0  0  0  0  0
    8.6342   -2.9994    0.0000 C   0  0  0  0  0  0  0  0  0  0  0  0
    8.6260   -1.9645    0.0000 C   0  0  0  0  0  0  0  0  0  0  0  0
    9.4743   -5.5442    0.0000 C   0  0  0  0  0  0  0  0  0  0  0  0
   11.2744   -5.5580    0.0000 C   0  0  0  0  0  0  0  0  0  0  0  0
   11.3478   -3.8362    0.0000 C   0  0  0  0  0  0  0  0  0  0  0  0
    8.6303   -3.9994    0.0000 C   0  0  0  0  0  0  0  0  0  0  0  0
   11.4026    0.1403    0.0000 C   0  0  0  0  0  0  0  0  0  0  0  0
   10.9093    1.0102    0.0000 C   0  0  0  0  0  0  0  0  0  0  0  0
   10.3745   -7.1604    0.0000 C   0  0  0  0  0  0  0  0  0  0  0  0
    8.5204   -6.0611    0.0000 C   0  0  0  0  0  0  0  0  0  0  0  0
    8.4995   -7.1459    0.0000 C   0  0  0  0  0  0  0  0  0  0  0  0
    9.4328   -7.6992    0.0000 C   0  0  0  0  0  0  0  0  0  0  0  0
   11.2305   -6.5854    0.0000 C   0  0  0  0  0  0  0  0  0  0  0  0
    7.9862   -8.0041    0.0000 C   0  0  0  0  0  0  0  0  0  0  0  0
    7.4996   -7.1305    0.0000 C   0  0  0  0  0  0  0  0  0  0  0  0
    8.5991    2.1941    0.0000 C   0  0  0  0  0  0  0  0  0  0  0  0
    8.5991    3.1941    0.0000 C   0  0  0  0  0  0  0  0  0  0  0  0
    7.7331    3.6941    0.0000 C   0  0  0  0  0  0  0  0  0  0  0  0
    6.8671    2.1941    0.0000 C   0  0  0  0  0  0  0  0  0  0  0  0
    6.8671    3.1941    0.0000 C   0  0  0  0  0  0  0  0  0  0  0  0
    6.0010    1.6941    0.0000 C   0  0  0  0  0  0  0  0  0  0  0  0
    6.0010    4.6941    0.0000 C   0  0  0  0  0  0  0  0  0  0  0  0
    5.1350    5.1941    0.0000 C   0  0  0  0  0  0  0  0  0  0  0  0
    5.1350    0.1941    0.0000 C   0  0  0  0  0  0  0  0  0  0  0  0
    5.1350    6.1941    0.0000 C   0  0  0  0  0  0  0  0  0  0  0  0
    6.8671    6.1941    0.0000 C   0  0  0  0  0  0  0  0  0  0  0  0
    6.0010    6.6941    0.0000 C   0  0  0  0  0  0  0  0  0  0  0  0
    5.1350   -0.8059    0.0000 C   0  0  0  0  0  0  0  0  0  0  0  0
    4.2690   -1.3059    0.0000 C   0  0  0  0  0  0  0  0  0  0  0  0
    3.4030    0.1941    0.0000 C   0  0  0  0  0  0  0  0  0  0  0  0
    3.4030   -0.8059    0.0000 C   0  0  0  0  0  0  0  0  0  0  0  0
    7.7331    6.6941    0.0000 C   0  0  0  0  0  0  0  0  0  0  0  0
    2.5369    0.6941    0.0000 C   0  0  0  0  0  0  0  0  0  0  0  0
  1 29  1  0
  1 48  1  0
  2 36  1  0
  3 45  1  0
  4 48  1  0
  4 51  1  0
  5 49  1  0
  6 50  1  0
  7 52  1  0
  7 54  1  0
  8 53  1  0
  8 56  1  0
  9 54  1  0
  9 58  1  0
 10 56  1  0
 10 62  1  0
 11 55  1  0
 12 57  1  0
 13 59  1  0
 14 60  1  0
 15 61  1  0
 16 63  1  0
 17 65  1  0
 18 20  1  0
 18 22  1  0
 18 23  1  0
 18 32  1  0
 19 20  1  0
 19 21  1  0
 19 26  1  0
 19 34  1  0
 20 33  1  0
 21 24  1  0
 21 25  1  0
 22 27  1  0
 22 28  1  0
 22 37  1  0
 23 25  1  0
 24 29  1  0
 24 39  1  0
 24 40  1  0
 26 31  1  0
 27 35  2  0
 27 38  1  0
 28 36  1  0
 29 31  1  0
 30 35  1  0
 30 36  1  0
 30 41  1  0
 30 45  1  0
 33 38  2  0
 35 42  1  0
 41 44  1  0
 42 43  1  0
 43 44  1  0
 43 46  1  0
 43 47  1  0
 48 49  1  0
 49 50  1  0
 50 52  1  0
 51 52  1  0
 51 53  1  0
 54 55  1  0
 55 57  1  0
 56 60  1  0
 57 59  1  0
 58 59  1  0
 58 64  1  0
 60 61  1  0
 61 63  1  0
 62 63  1  0
 62 65  1  0
M  END
>  <PUBCHEM_COMPOUND_CID>  (1) 
4483646

>  <PUBCHEM_COMPOUND_CANONICALIZED>  (1) 
1

>  <PUBCHEM_CACTVS_COMPLEXITY>  (1) 
1790

>  <PUBCHEM_CACTVS_HBOND_ACCEPTOR>  (1) 
17

>  <PUBCHEM_CACTVS_HBOND_DONOR>  (1) 
11

>  <PUBCHEM_CACTVS_ROTATABLE_BOND>  (1) 
9

>  <PUBCHEM_CACTVS_SUBSKEYS>  (1) 
AAADcfB8PgAAAAAAAAAAAAAAAAAAAAAAAAA0aNECAAAAAADAAAAAGgAACAAADxSwgAMCCAAABgCAAiBCAAAAAAAgAAAICAAAAAgZEAIAAQAiQAAFwAAPgAPA4PwPgAAAAAAAAADAAAYAADAAAAAAAAAAAA==

>  <PUBCHEM_IUPAC_OPENEYE_NAME>  (1) 
2-[4,5-dihydroxy-6-[[8-hydroxy-8a-(hydroxymethyl)-4,4,6a,6b,11,11,14b-heptamethyl-1,2,3,4a,5,6,7,8,9,10,12,14a-dodecahydropicen-3-yl]oxy]-2-[[3,4,5-trihydroxy-6-(hydroxymethyl)tetrahydropyran-2-yl]oxymethyl]tetrahydropyran-3-yl]oxy-6-methyl-tetrahydropyran-3,4,5-triol

>  <PUBCHEM_IUPAC_CAS_NAME>  (1) 
2-[[4,5-dihydroxy-6-[[8-hydroxy-8a-(hydroxymethyl)-4,4,6a,6b,11,11,14b-heptamethyl-1,2,3,4a,5,6,7,8,9,10,12,14a-dodecahydropicen-3-yl]oxy]-2-[[3,4,5-trihydroxy-6-(hydroxymethyl)-2-oxanyl]oxymethyl]-3-oxanyl]oxy]-6-methyloxane-3,4,5-triol

>  <PUBCHEM_IUPAC_NAME_MARKUP>  (1) 
2-[4,5-dihydroxy-6-[[8-hydroxy-8<I>a</I>-(hydroxymethyl)-4,4,6<I>a</I>,6<I>b</I>,11,11,14<I>b</I>-heptamethyl-1,2,3,4<I>a</I>,5,6,7,8,9,10,12,14<I>a</I>-dodecahydropicen-3-yl]oxy]-2-[[3,4,5-trihydroxy-6-(hydroxymethyl)oxan-2-yl]oxymethyl]oxan-3-yl]oxy-6-methyloxane-3,4,5-triol

>  <PUBCHEM_IUPAC_NAME>  (1) 
2-[4,5-dihydroxy-6-[[8-hydroxy-8a-(hydroxymethyl)-4,4,6a,6b,11,11,14b-heptamethyl-1,2,3,4a,5,6,7,8,9,10,12,14a-dodecahydropicen-3-yl]oxy]-2-[[3,4,5-trihydroxy-6-(hydroxymethyl)oxan-2-yl]oxymethyl]oxan-3-yl]oxy-6-methyloxane-3,4,5-triol

>  <PUBCHEM_IUPAC_SYSTEMATIC_NAME>  (1) 
2-[6-[[8a-(hydroxymethyl)-4,4,6a,6b,11,11,14b-heptamethyl-8-oxidanyl-1,2,3,4a,5,6,7,8,9,10,12,14a-dodecahydropicen-3-yl]oxy]-2-[[6-(hydroxymethyl)-3,4,5-tris(oxidanyl)oxan-2-yl]oxymethyl]-4,5-bis(oxidanyl)oxan-3-yl]oxy-6-methyl-oxane-3,4,5-triol

>  <PUBCHEM_IUPAC_TRADITIONAL_NAME>  (1) 
2-[4,5-dihydroxy-6-[(8-hydroxy-4,4,6a,6b,11,11,14b-heptamethyl-8a-methylol-1,2,3,4a,5,6,7,8,9,10,12,14a-dodecahydropicen-3-yl)oxy]-2-[(3,4,5-trihydroxy-6-methylol-tetrahydropyran-2-yl)oxymethyl]tetrahydropyran-3-yl]oxy-6-methyl-tetrahydropyran-3,4,5-triol

>  <PUBCHEM_IUPAC_INCHI>  (1) 
InChI=1S/C48H78O17/c1-22-31(52)33(54)37(58)41(61-22)65-39-26(20-60-40-36(57)34(55)32(53)25(19-49)62-40)63-42(38(59)35(39)56)64-30-12-13-45(6)27(44(30,4)5)11-14-46(7)28(45)10-9-23-24-17-43(2,3)15-16-48(24,21-50)29(51)18-47(23,46)8/h9-10,22,25-42,49-59H,11-21H2,1-8H3

>  <PUBCHEM_IUPAC_INCHIKEY>  (1) 
PYJMYPPFWASOJX-UHFFFAOYSA-N

>  <PUBCHEM_XLOGP3_AA>  (1) 
1.6

>  <PUBCHEM_EXACT_MASS>  (1) 
926.52390102

>  <PUBCHEM_MOLECULAR_FORMULA>  (1) 
C48H78O17

>  <PUBCHEM_MOLECULAR_WEIGHT>  (1) 
927.1

>  <PUBCHEM_OPENEYE_CAN_SMILES>  (1) 
CC1C(C(C(C(O1)OC2C(OC(C(C2O)O)OC3CCC4(C(C3(C)C)CCC5(C4C=CC6=C7CC(CCC7(C(CC65C)O)CO)(C)C)C)C)COC8C(C(C(C(O8)CO)O)O)O)O)O)O

>  <PUBCHEM_OPENEYE_ISO_SMILES>  (1) 
CC1C(C(C(C(O1)OC2C(OC(C(C2O)O)OC3CCC4(C(C3(C)C)CCC5(C4C=CC6=C7CC(CCC7(C(CC65C)O)CO)(C)C)C)C)COC8C(C(C(C(O8)CO)O)O)O)O)O)O

>  <PUBCHEM_CACTVS_TPSA>  (1) 
278

>  <PUBCHEM_MONOISOTOPIC_WEIGHT>  (1) 
926.52390102

>  <PUBCHEM_TOTAL_CHARGE>  (1) 
0

>  <PUBCHEM_HEAVY_ATOM_COUNT>  (1) 
65

>  <PUBCHEM_ATOM_DEF_STEREO_COUNT>  (1) 
0

>  <PUBCHEM_ATOM_UDEF_STEREO_COUNT>  (1) 
23

>  <PUBCHEM_BOND_DEF_STEREO_COUNT>  (1) 
0

>  <PUBCHEM_BOND_UDEF_STEREO_COUNT>  (1) 
0

>  <PUBCHEM_ISOTOPIC_ATOM_COUNT>  (1) 
0

>  <PUBCHEM_COMPONENT_COUNT>  (1) 
1

>  <PUBCHEM_CACTVS_TAUTO_COUNT>  (1) 
-1

>  <PUBCHEM_COORDINATE_TYPE>  (1) 
1
5
255

>  <PUBCHEM_BONDANNOTATIONS>  (1) 
29  1  3
48  1  3
55  11  3
57  12  3
59  13  3
60  14  3
61  15  3
63  16  3
18  32  3
19  34  3
36  2  3
20  33  3
21  25  3
22  37  3
30  45  3
49  5  3
51  53  3
58  64  3
50  6  3
62  65  3
52  7  3
54  7  3
56  8  3

$$$$
