MCSJ49_0017
  -OEChem-07172407472D

122127  0     1  0  0  0  0  0999 V2000
   12.2583   -1.7193    0.0000 O   0  0  0  0  0  0  0  0  0  0  0  0
   13.2583   -2.7193    0.0000 O   0  0  0  0  0  0  0  0  0  0  0  0
   11.5263   -2.7193    0.0000 O   0  0  0  0  0  0  0  0  0  0  0  0
   14.5184   -0.4592    0.0000 O   0  0  0  0  0  0  0  0  0  0  0  0
   12.7583    0.8196    0.0000 O   0  0  0  0  0  0  0  0  0  0  0  0
   13.2583   -4.7193    0.0000 O   0  0  0  0  0  0  0  0  0  0  0  0
   14.4173   -3.0065    0.0000 O   0  0  0  0  0  0  0  0  0  0  0  0
   11.5263   -5.7193    0.0000 O   0  0  0  0  0  0  0  0  0  0  0  0
    9.7942   -4.7193    0.0000 O   0  0  0  0  0  0  0  0  0  0  0  0
   10.7903    0.5189    0.0000 O   0  0  0  0  0  0  0  0  0  0  0  0
    8.9282   -3.2193    0.0000 O   0  0  0  0  0  0  0  0  0  0  0  0
   13.9832    1.1881    0.0000 O   0  0  0  0  0  0  0  0  0  0  0  0
   12.3923   -6.2193    0.0000 O   0  0  0  0  0  0  0  0  0  0  0  0
   15.5763   -4.2936    0.0000 O   0  0  0  0  0  0  0  0  0  0  0  0
    9.0961    0.1588    0.0000 O   0  0  0  0  0  0  0  0  0  0  0  0
    8.0622   -1.7193    0.0000 O   0  0  0  0  0  0  0  0  0  0  0  0
   19.6895    3.0422    0.0000 O   0  0  0  0  0  0  0  0  0  0  0  0
   20.0351   -0.2788    0.0000 O   0  0  0  0  0  0  0  0  0  0  0  0
    7.8487    6.0277    0.0000 O   0  0  0  0  0  0  0  0  0  0  0  0
    2.8660   -2.7193    0.0000 O   0  0  0  0  0  0  0  0  0  0  0  0
    2.8660   -4.7193    0.0000 O   0  0  0  0  0  0  0  0  0  0  0  0
   13.2583   -1.7193    0.0000 C   0  0  2  0  0  0  0  0  0  0  0  0
   13.5673   -0.7682    0.0000 C   0  0  2  0  0  0  0  0  0  0  0  0
   12.7583   -0.1804    0.0000 C   0  0  1  0  0  0  0  0  0  0  0  0
   11.9493   -0.7682    0.0000 C   0  0  1  0  0  0  0  0  0  0  0  0
   12.3923   -3.2193    0.0000 C   0  0  1  0  0  0  0  0  0  0  0  0
   12.3923   -4.2193    0.0000 C   0  0  1  0  0  0  0  0  0  0  0  0
   14.2094   -2.0283    0.0000 C   0  0  0  0  0  0  0  0  0  0  0  0
   11.5263   -4.7193    0.0000 C   0  0  2  0  0  0  0  0  0  0  0  0
   10.6603   -4.2193    0.0000 C   0  0  1  0  0  0  0  0  0  0  0  0
   10.6603   -3.2193    0.0000 C   0  0  1  0  0  0  0  0  0  0  0  0
   10.9983   -0.4592    0.0000 C   0  0  0  0  0  0  0  0  0  0  0  0
    9.7942   -2.7193    0.0000 C   0  0  0  0  0  0  0  0  0  0  0  0
   14.7263    0.5189    0.0000 C   0  0  0  0  0  0  0  0  0  0  0  0
   13.2583   -5.7193    0.0000 C   0  0  0  0  0  0  0  0  0  0  0  0
   15.3684   -3.3155    0.0000 C   0  0  0  0  0  0  0  0  0  0  0  0
    9.8393    0.8279    0.0000 C   0  0  0  0  0  0  0  0  0  0  0  0
   15.6774    0.8279    0.0000 C   0  0  0  0  0  0  0  0  0  0  0  0
   14.1244   -6.2193    0.0000 C   0  0  0  0  0  0  0  0  0  0  0  0
    8.0622   -2.7193    0.0000 C   0  0  0  0  0  0  0  0  0  0  0  0
   16.1115   -2.6463    0.0000 C   0  0  0  0  0  0  0  0  0  0  0  0
    9.6314    1.8061    0.0000 C   0  0  0  0  0  0  0  0  0  0  0  0
   15.8853    1.8061    0.0000 C   0  0  0  0  0  0  0  0  0  0  0  0
    7.1962   -3.2193    0.0000 C   0  0  0  0  0  0  0  0  0  0  0  0
   17.0626   -2.9554    0.0000 C   0  0  0  0  0  0  0  0  0  0  0  0
   16.8363    2.1151    0.0000 C   0  0  0  0  0  0  0  0  0  0  0  0
    8.6803    2.1151    0.0000 C   0  0  0  0  0  0  0  0  0  0  0  0
   17.8057   -2.2862    0.0000 C   0  0  0  0  0  0  0  0  0  0  0  0
    6.3301   -2.7193    0.0000 C   0  0  0  0  0  0  0  0  0  0  0  0
   17.0443    3.0933    0.0000 C   0  0  0  0  0  0  0  0  0  0  0  0
   17.5795    1.4460    0.0000 C   0  0  0  0  0  0  0  0  0  0  0  0
    8.4724    3.0933    0.0000 C   0  0  0  0  0  0  0  0  0  0  0  0
    5.4641   -3.2193    0.0000 C   0  0  0  0  0  0  0  0  0  0  0  0
   17.5978   -1.3081    0.0000 C   0  0  0  0  0  0  0  0  0  0  0  0
   18.7568   -2.5952    0.0000 C   0  0  0  0  0  0  0  0  0  0  0  0
   17.9953    3.4023    0.0000 C   0  0  0  0  0  0  0  0  0  0  0  0
   18.5305    1.7550    0.0000 C   0  0  0  0  0  0  0  0  0  0  0  0
    9.2156    3.7624    0.0000 C   0  0  0  0  0  0  0  0  0  0  0  0
    7.5214    3.4023    0.0000 C   0  0  0  0  0  0  0  0  0  0  0  0
   18.7385    2.7331    0.0000 C   0  0  0  0  0  0  0  0  0  0  0  0
   18.3409   -0.6390    0.0000 C   0  0  0  0  0  0  0  0  0  0  0  0
   19.4999   -1.9261    0.0000 C   0  0  0  0  0  0  0  0  0  0  0  0
    4.5981   -2.7193    0.0000 C   0  0  0  0  0  0  0  0  0  0  0  0
    5.4641   -4.2193    0.0000 C   0  0  0  0  0  0  0  0  0  0  0  0
   19.2920   -0.9480    0.0000 C   0  0  0  0  0  0  0  0  0  0  0  0
    9.0076    4.7405    0.0000 C   0  0  0  0  0  0  0  0  0  0  0  0
    7.3134    4.3804    0.0000 C   0  0  0  0  0  0  0  0  0  0  0  0
    8.0566    5.0496    0.0000 C   0  0  0  0  0  0  0  0  0  0  0  0
    3.7320   -3.2193    0.0000 C   0  0  0  0  0  0  0  0  0  0  0  0
    4.5981   -4.7193    0.0000 C   0  0  0  0  0  0  0  0  0  0  0  0
    3.7320   -4.2193    0.0000 C   0  0  0  0  0  0  0  0  0  0  0  0
    2.0000   -3.2193    0.0000 C   0  0  0  0  0  0  0  0  0  0  0  0
   14.0058   -1.2066    0.0000 H   0  0  0  0  0  0  0  0  0  0  0  0
   13.3108    0.1010    0.0000 H   0  0  0  0  0  0  0  0  0  0  0  0
   11.5109   -1.2066    0.0000 H   0  0  0  0  0  0  0  0  0  0  0  0
   12.9292   -3.5293    0.0000 H   0  0  0  0  0  0  0  0  0  0  0  0
   12.3923   -4.8393    0.0000 H   0  0  0  0  0  0  0  0  0  0  0  0
   14.8290   -2.0067    0.0000 H   0  0  0  0  0  0  0  0  0  0  0  0
   14.2957   -1.4143    0.0000 H   0  0  0  0  0  0  0  0  0  0  0  0
   12.0632   -5.0293    0.0000 H   0  0  0  0  0  0  0  0  0  0  0  0
   10.6603   -4.8393    0.0000 H   0  0  0  0  0  0  0  0  0  0  0  0
   10.6603   -2.5993    0.0000 H   0  0  0  0  0  0  0  0  0  0  0  0
   10.3786   -0.4809    0.0000 H   0  0  0  0  0  0  0  0  0  0  0  0
   10.9120   -1.0732    0.0000 H   0  0  0  0  0  0  0  0  0  0  0  0
   13.2953    1.1296    0.0000 H   0  0  0  0  0  0  0  0  0  0  0  0
   10.1928   -2.2443    0.0000 H   0  0  0  0  0  0  0  0  0  0  0  0
    9.3957   -2.2443    0.0000 H   0  0  0  0  0  0  0  0  0  0  0  0
   10.9893   -6.0293    0.0000 H   0  0  0  0  0  0  0  0  0  0  0  0
    9.7942   -5.3393    0.0000 H   0  0  0  0  0  0  0  0  0  0  0  0
   16.1381    0.4131    0.0000 H   0  0  0  0  0  0  0  0  0  0  0  0
   13.8144   -6.7562    0.0000 H   0  0  0  0  0  0  0  0  0  0  0  0
   14.6613   -6.5293    0.0000 H   0  0  0  0  0  0  0  0  0  0  0  0
   14.4344   -5.6824    0.0000 H   0  0  0  0  0  0  0  0  0  0  0  0
   15.9826   -2.0399    0.0000 H   0  0  0  0  0  0  0  0  0  0  0  0
   10.0921    2.2210    0.0000 H   0  0  0  0  0  0  0  0  0  0  0  0
   15.4245    2.2210    0.0000 H   0  0  0  0  0  0  0  0  0  0  0  0
    7.1962   -3.8393    0.0000 H   0  0  0  0  0  0  0  0  0  0  0  0
   17.1915   -3.5618    0.0000 H   0  0  0  0  0  0  0  0  0  0  0  0
    8.2196    1.7002    0.0000 H   0  0  0  0  0  0  0  0  0  0  0  0
    6.3301   -2.0993    0.0000 H   0  0  0  0  0  0  0  0  0  0  0  0
   16.5835    3.5081    0.0000 H   0  0  0  0  0  0  0  0  0  0  0  0
   17.4506    0.8395    0.0000 H   0  0  0  0  0  0  0  0  0  0  0  0
   17.0081   -1.1165    0.0000 H   0  0  0  0  0  0  0  0  0  0  0  0
   18.8857   -3.2017    0.0000 H   0  0  0  0  0  0  0  0  0  0  0  0
   18.1242    4.0087    0.0000 H   0  0  0  0  0  0  0  0  0  0  0  0
   18.9913    1.3401    0.0000 H   0  0  0  0  0  0  0  0  0  0  0  0
    9.8052    3.5708    0.0000 H   0  0  0  0  0  0  0  0  0  0  0  0
    7.0606    2.9874    0.0000 H   0  0  0  0  0  0  0  0  0  0  0  0
   18.2120   -0.0325    0.0000 H   0  0  0  0  0  0  0  0  0  0  0  0
   20.0896   -2.1177    0.0000 H   0  0  0  0  0  0  0  0  0  0  0  0
    4.5981   -2.0993    0.0000 H   0  0  0  0  0  0  0  0  0  0  0  0
    6.0010   -4.5293    0.0000 H   0  0  0  0  0  0  0  0  0  0  0  0
    9.4684    5.1554    0.0000 H   0  0  0  0  0  0  0  0  0  0  0  0
    6.7238    4.5720    0.0000 H   0  0  0  0  0  0  0  0  0  0  0  0
    4.5981   -5.3393    0.0000 H   0  0  0  0  0  0  0  0  0  0  0  0
   19.8184    3.6486    0.0000 H   0  0  0  0  0  0  0  0  0  0  0  0
   20.6248   -0.4704    0.0000 H   0  0  0  0  0  0  0  0  0  0  0  0
    7.2590    6.2193    0.0000 H   0  0  0  0  0  0  0  0  0  0  0  0
    2.8660   -5.3393    0.0000 H   0  0  0  0  0  0  0  0  0  0  0  0
    1.6900   -2.6824    0.0000 H   0  0  0  0  0  0  0  0  0  0  0  0
    1.4631   -3.5293    0.0000 H   0  0  0  0  0  0  0  0  0  0  0  0
    2.3100   -3.7562    0.0000 H   0  0  0  0  0  0  0  0  0  0  0  0
  1 22  1  0  0  0  0
  1 25  1  0  0  0  0
 22  2  1  1  0  0  0
 26  2  1  6  0  0  0
  3 26  1  0  0  0  0
  3 31  1  0  0  0  0
 23  4  1  6  0  0  0
  4 34  1  0  0  0  0
 24  5  1  1  0  0  0
  5 85  1  0  0  0  0
 27  6  1  6  0  0  0
  6 35  1  0  0  0  0
  7 28  1  0  0  0  0
  7 36  1  0  0  0  0
 29  8  1  1  0  0  0
  8 88  1  0  0  0  0
 30  9  1  6  0  0  0
  9 89  1  0  0  0  0
 10 32  1  0  0  0  0
 10 37  1  0  0  0  0
 11 33  1  0  0  0  0
 11 40  1  0  0  0  0
 12 34  2  0  0  0  0
 13 35  2  0  0  0  0
 14 36  2  0  0  0  0
 15 37  2  0  0  0  0
 16 40  2  0  0  0  0
 17 60  1  0  0  0  0
 17116  1  0  0  0  0
 18 65  1  0  0  0  0
 18117  1  0  0  0  0
 19 68  1  0  0  0  0
 19118  1  0  0  0  0
 20 69  1  0  0  0  0
 20 72  1  0  0  0  0
 21 71  1  0  0  0  0
 21119  1  0  0  0  0
 22 23  1  0  0  0  0
 22 28  1  0  0  0  0
 23 24  1  0  0  0  0
 23 73  1  0  0  0  0
 24 25  1  0  0  0  0
 24 74  1  0  0  0  0
 25 32  1  6  0  0  0
 25 75  1  0  0  0  0
 26 27  1  0  0  0  0
 26 76  1  0  0  0  0
 27 29  1  0  0  0  0
 27 77  1  0  0  0  0
 28 78  1  0  0  0  0
 28 79  1  0  0  0  0
 29 30  1  0  0  0  0
 29 80  1  0  0  0  0
 30 31  1  0  0  0  0
 30 81  1  0  0  0  0
 31 33  1  1  0  0  0
 31 82  1  0  0  0  0
 32 83  1  0  0  0  0
 32 84  1  0  0  0  0
 33 86  1  0  0  0  0
 33 87  1  0  0  0  0
 34 38  1  0  0  0  0
 35 39  1  0  0  0  0
 36 41  1  0  0  0  0
 37 42  1  0  0  0  0
 38 43  2  0  0  0  0
 38 90  1  0  0  0  0
 39 91  1  0  0  0  0
 39 92  1  0  0  0  0
 39 93  1  0  0  0  0
 40 44  1  0  0  0  0
 41 45  2  0  0  0  0
 41 94  1  0  0  0  0
 42 47  2  0  0  0  0
 42 95  1  0  0  0  0
 43 46  1  0  0  0  0
 43 96  1  0  0  0  0
 44 49  2  0  0  0  0
 44 97  1  0  0  0  0
 45 48  1  0  0  0  0
 45 98  1  0  0  0  0
 46 50  2  0  0  0  0
 46 51  1  0  0  0  0
 47 52  1  0  0  0  0
 47 99  1  0  0  0  0
 48 54  2  0  0  0  0
 48 55  1  0  0  0  0
 49 53  1  0  0  0  0
 49100  1  0  0  0  0
 50 56  1  0  0  0  0
 50101  1  0  0  0  0
 51 57  2  0  0  0  0
 51102  1  0  0  0  0
 52 58  2  0  0  0  0
 52 59  1  0  0  0  0
 53 63  2  0  0  0  0
 53 64  1  0  0  0  0
 54 61  1  0  0  0  0
 54103  1  0  0  0  0
 55 62  2  0  0  0  0
 55104  1  0  0  0  0
 56 60  2  0  0  0  0
 56105  1  0  0  0  0
 57 60  1  0  0  0  0
 57106  1  0  0  0  0
 58 66  1  0  0  0  0
 58107  1  0  0  0  0
 59 67  2  0  0  0  0
 59108  1  0  0  0  0
 61 65  2  0  0  0  0
 61109  1  0  0  0  0
 62 65  1  0  0  0  0
 62110  1  0  0  0  0
 63 69  1  0  0  0  0
 63111  1  0  0  0  0
 64 70  2  0  0  0  0
 64112  1  0  0  0  0
 66 68  2  0  0  0  0
 66113  1  0  0  0  0
 67 68  1  0  0  0  0
 67114  1  0  0  0  0
 69 71  2  0  0  0  0
 70 71  1  0  0  0  0
 70115  1  0  0  0  0
 72120  1  0  0  0  0
 72121  1  0  0  0  0
 72122  1  0  0  0  0
M  END
> <PUBCHEM_COMPOUND_CID>
6449878

> <PUBCHEM_COMPOUND_CANONICALIZED>
1

> <PUBCHEM_CACTVS_COMPLEXITY>
1900

> <PUBCHEM_CACTVS_HBOND_ACCEPTOR>
21

> <PUBCHEM_CACTVS_HBOND_DONOR>
7

> <PUBCHEM_CACTVS_ROTATABLE_BOND>
24

> <PUBCHEM_CACTVS_SUBSKEYS>
AAADcfB8PgAAAAAAAAAAAAAAAAAAASAAAAA0YMGCAAAAAAABVAAAGgAACAAADBSwmAMyDoAABgCIAiDSCAACCAAgIAAIiAAGiMgdNiKGMRqicCMlwBEPuYfA4BwOIAABAAAAQABAAAIAAACAAAAAAAAAAA==

> <PUBCHEM_IUPAC_OPENEYE_NAME>
[(2R,3R,4S,5R)-5-[(2R,3R,4S,5S,6R)-3-acetoxy-4,5-dihydroxy-6-[[(E)-3-(4-hydroxy-3-methoxy-phenyl)prop-2-enoyl]oxymethyl]tetrahydropyran-2-yl]oxy-3-hydroxy-4-[(E)-3-(4-hydroxyphenyl)prop-2-enoyl]oxy-5-[[(E)-3-(4-hydroxyphenyl)prop-2-enoyl]oxymethyl]tetrahydrofuran-2-yl]methyl (E)-3-(4-hydroxyphenyl)prop-2-enoate

> <PUBCHEM_IUPAC_CAS_NAME>
(E)-3-(4-hydroxyphenyl)-2-propenoic acid [(2R,3R,4S,5R)-5-[[(2R,3R,4S,5S,6R)-3-acetyloxy-4,5-dihydroxy-6-[[(E)-3-(4-hydroxy-3-methoxyphenyl)-1-oxoprop-2-enoxy]methyl]-2-oxanyl]oxy]-3-hydroxy-4-[(E)-3-(4-hydroxyphenyl)-1-oxoprop-2-enoxy]-5-[[(E)-3-(4-hydroxyphenyl)-1-oxoprop-2-enoxy]methyl]-2-oxolanyl]methyl ester

> <PUBCHEM_IUPAC_NAME_MARKUP>
[(2<I>R</I>,3<I>R</I>,4<I>S</I>,5<I>R</I>)-5-[(2<I>R</I>,3<I>R</I>,4<I>S</I>,5<I>S</I>,6<I>R</I>)-3-acetyloxy-4,5-dihydroxy-6-[[(<I>E</I>)-3-(4-hydroxy-3-methoxyphenyl)prop-2-enoyl]oxymethyl]oxan-2-yl]oxy-3-hydroxy-4-[(<I>E</I>)-3-(4-hydroxyphenyl)prop-2-enoyl]oxy-5-[[(<I>E</I>)-3-(4-hydroxyphenyl)prop-2-enoyl]oxymethyl]oxolan-2-yl]methyl (<I>E</I>)-3-(4-hydroxyphenyl)prop-2-enoate

> <PUBCHEM_IUPAC_NAME>
[(2R,3R,4S,5R)-5-[(2R,3R,4S,5S,6R)-3-acetyloxy-4,5-dihydroxy-6-[[(E)-3-(4-hydroxy-3-methoxyphenyl)prop-2-enoyl]oxymethyl]oxan-2-yl]oxy-3-hydroxy-4-[(E)-3-(4-hydroxyphenyl)prop-2-enoyl]oxy-5-[[(E)-3-(4-hydroxyphenyl)prop-2-enoyl]oxymethyl]oxolan-2-yl]methyl (E)-3-(4-hydroxyphenyl)prop-2-enoate

> <PUBCHEM_IUPAC_SYSTEMATIC_NAME>
[(2R,3R,4S,5R)-5-[(2R,3R,4S,5S,6R)-3-acetyloxy-6-[[(E)-3-(3-methoxy-4-oxidanyl-phenyl)prop-2-enoyl]oxymethyl]-4,5-bis(oxidanyl)oxan-2-yl]oxy-4-[(E)-3-(4-hydroxyphenyl)prop-2-enoyl]oxy-5-[[(E)-3-(4-hydroxyphenyl)prop-2-enoyl]oxymethyl]-3-oxidanyl-oxolan-2-yl]methyl (E)-3-(4-hydroxyphenyl)prop-2-enoate

> <PUBCHEM_IUPAC_TRADITIONAL_NAME>
(E)-3-(4-hydroxyphenyl)acrylic acid [(2R,3R,4S,5R)-5-[(2R,3R,4S,5S,6R)-3-acetoxy-4,5-dihydroxy-6-[[(E)-3-(4-hydroxy-3-methoxy-phenyl)acryloyl]oxymethyl]tetrahydropyran-2-yl]oxy-3-hydroxy-4-[(E)-3-(4-hydroxyphenyl)acryloyl]oxy-5-[[(E)-3-(4-hydroxyphenyl)acryloyl]oxymethyl]tetrahydrofuran-2-yl]methyl ester

> <PUBCHEM_IUPAC_INCHI>
InChI=1S/C51H50O21/c1-29(52)68-48-47(63)45(61)39(26-65-42(58)23-13-33-9-20-37(56)38(25-33)64-2)69-50(48)72-51(28-67-43(59)22-11-31-5-16-35(54)17-6-31)49(70-44(60)24-12-32-7-18-36(55)19-8-32)46(62)40(71-51)27-66-41(57)21-10-30-3-14-34(53)15-4-30/h3-25,39-40,45-50,53-56,61-63H,26-28H2,1-2H3/b21-10+,22-11+,23-13+,24-12+/t39-,40-,45-,46-,47+,48-,49+,50-,51-/m1/s1

> <PUBCHEM_IUPAC_INCHIKEY>
RNXDQKHOEWIRNH-FBMBONOOSA-N

> <PUBCHEM_XLOGP3_AA>
4.2

> <PUBCHEM_EXACT_MASS>
998.28445860

> <PUBCHEM_MOLECULAR_FORMULA>
C51H50O21

> <PUBCHEM_MOLECULAR_WEIGHT>
998.9

> <PUBCHEM_OPENEYE_CAN_SMILES>
CC(=O)OC1C(C(C(OC1OC2(C(C(C(O2)COC(=O)C=CC3=CC=C(C=C3)O)O)OC(=O)C=CC4=CC=C(C=C4)O)COC(=O)C=CC5=CC=C(C=C5)O)COC(=O)C=CC6=CC(=C(C=C6)O)OC)O)O

> <PUBCHEM_OPENEYE_ISO_SMILES>
CC(=O)O[C@@H]1[C@H]([C@@H]([C@H](O[C@@H]1O[C@@]2([C@H]([C@@H]([C@H](O2)COC(=O)/C=C/C3=CC=C(C=C3)O)O)OC(=O)/C=C/C4=CC=C(C=C4)O)COC(=O)/C=C/C5=CC=C(C=C5)O)COC(=O)/C=C/C6=CC(=C(C=C6)O)OC)O)O

> <PUBCHEM_CACTVS_TPSA>
310

> <PUBCHEM_MONOISOTOPIC_WEIGHT>
998.28445860

> <PUBCHEM_TOTAL_CHARGE>
0

> <PUBCHEM_HEAVY_ATOM_COUNT>
72

> <PUBCHEM_ATOM_DEF_STEREO_COUNT>
9

> <PUBCHEM_ATOM_UDEF_STEREO_COUNT>
0

> <PUBCHEM_BOND_DEF_STEREO_COUNT>
4

> <PUBCHEM_BOND_UDEF_STEREO_COUNT>
0

> <PUBCHEM_ISOTOPIC_ATOM_COUNT>
0

> <PUBCHEM_COMPONENT_COUNT>
1

> <PUBCHEM_CACTVS_TAUTO_COUNT>
-1

> <PUBCHEM_COORDINATE_TYPE>
1
5
255

> <PUBCHEM_BONDANNOTATIONS>
22  2  5
26  2  6
25  32  6
31  33  5
23  4  6
46  50  8
46  51  8
48  54  8
48  55  8
24  5  5
50  56  8
51  57  8
52  58  8
52  59  8
53  63  8
53  64  8
54  61  8
55  62  8
56  60  8
57  60  8
58  66  8
59  67  8
27  6  6
61  65  8
62  65  8
63  69  8
64  70  8
66  68  8
67  68  8
69  71  8
70  71  8
29  8  5
30  9  6

$$$$
