6438825
     RDKit          2D

 25 26  0  0  0  0  0  0  0  0999 V2000
    4.2690   -3.9050    0.0000 O   0  0  0  0  0  0  0  0  0  0  0  0
    2.5369   -0.9050    0.0000 O   0  0  0  0  0  0  0  0  0  0  0  0
    3.4030    0.5950    0.0000 O   0  0  0  0  0  0  0  0  0  0  0  0
    8.5991    1.5950    0.0000 O   0  0  0  0  0  0  0  0  0  0  0  0
    8.5991    3.5950    0.0000 O   0  0  0  0  0  0  0  0  0  0  0  0
    5.1350   -2.4050    0.0000 C   0  0  0  0  0  0  0  0  0  0  0  0
    6.0010   -2.9050    0.0000 C   0  0  0  0  0  0  0  0  0  0  0  0
    5.1350   -1.4050    0.0000 C   0  0  0  0  0  0  0  0  0  0  0  0
    4.2690   -0.9050    0.0000 C   0  0  0  0  0  0  0  0  0  0  0  0
    4.2690   -2.9050    0.0000 C   0  0  0  0  0  0  0  0  0  0  0  0
    6.8671   -2.4050    0.0000 C   0  0  0  0  0  0  0  0  0  0  0  0
    3.4030   -1.4050    0.0000 C   0  0  0  0  0  0  0  0  0  0  0  0
    3.4030   -2.4050    0.0000 C   0  0  0  0  0  0  0  0  0  0  0  0
    7.7331   -2.9050    0.0000 C   0  0  0  0  0  0  0  0  0  0  0  0
    4.2690    0.0950    0.0000 C   0  0  0  0  0  0  0  0  0  0  0  0
    5.1350    0.5950    0.0000 C   0  0  0  0  0  0  0  0  0  0  0  0
    8.5991   -2.4050    0.0000 C   0  0  0  0  0  0  0  0  0  0  0  0
    7.7331   -3.9050    0.0000 C   0  0  0  0  0  0  0  0  0  0  0  0
    6.0010    2.0950    0.0000 C   0  0  0  0  0  0  0  0  0  0  0  0
    5.1350    1.5950    0.0000 C   0  0  0  0  0  0  0  0  0  0  0  0
    6.8671    1.5950    0.0000 C   0  0  0  0  0  0  0  0  0  0  0  0
    6.0010    3.0950    0.0000 C   0  0  0  0  0  0  0  0  0  0  0  0
    7.7331    2.0950    0.0000 C   0  0  0  0  0  0  0  0  0  0  0  0
    6.8671    3.5950    0.0000 C   0  0  0  0  0  0  0  0  0  0  0  0
    7.7331    3.0950    0.0000 C   0  0  0  0  0  0  0  0  0  0  0  0
  1 10  1  0
  2 12  1  0
  3 15  2  0
  4 23  1  0
  5 25  1  0
  6  7  1  0
  6  8  2  0
  6 10  1  0
  7 11  1  0
  8  9  1  0
  9 12  2  0
  9 15  1  0
 10 13  2  0
 11 14  2  0
 12 13  1  0
 14 17  1  0
 14 18  1  0
 15 16  1  0
 16 20  2  0
 19 20  1  0
 19 21  2  0
 19 22  1  0
 21 23  1  0
 22 24  2  0
 23 25  2  0
 24 25  1  0
M  END
>  <PUBCHEM_COMPOUND_CID>  (1) 
6438825

>  <PUBCHEM_COMPOUND_CANONICALIZED>  (1) 
1

>  <PUBCHEM_CACTVS_COMPLEXITY>  (1) 
508

>  <PUBCHEM_CACTVS_HBOND_ACCEPTOR>  (1) 
5

>  <PUBCHEM_CACTVS_HBOND_DONOR>  (1) 
4

>  <PUBCHEM_CACTVS_ROTATABLE_BOND>  (1) 
5

>  <PUBCHEM_CACTVS_SUBSKEYS>  (1) 
AAADceB4OAAAAAAAAAAAAAAAAAAAAAAAAAAwYAAAAAAAAAABQAAAGgAACAAADASAmAAyBoAAAgCIAqBSAAACAAAkIAAIiAEGiMgJJzaCFRKAcUEl4BUJmYeI7PTOIAADCAAIQABAAAYQABCAAAAAAAAAAA==

>  <PUBCHEM_IUPAC_OPENEYE_NAME>  (1) 
(E)-1-[2,4-dihydroxy-5-(3-methylbut-2-enyl)phenyl]-3-(3,4-dihydroxyphenyl)prop-2-en-1-one

>  <PUBCHEM_IUPAC_CAS_NAME>  (1) 
(E)-1-[2,4-dihydroxy-5-(3-methylbut-2-enyl)phenyl]-3-(3,4-dihydroxyphenyl)-2-propen-1-one

>  <PUBCHEM_IUPAC_NAME_MARKUP>  (1) 
(<I>E</I>)-1-[2,4-dihydroxy-5-(3-methylbut-2-enyl)phenyl]-3-(3,4-dihydroxyphenyl)prop-2-en-1-one

>  <PUBCHEM_IUPAC_NAME>  (1) 
(E)-1-[2,4-dihydroxy-5-(3-methylbut-2-enyl)phenyl]-3-(3,4-dihydroxyphenyl)prop-2-en-1-one

>  <PUBCHEM_IUPAC_SYSTEMATIC_NAME>  (1) 
(E)-3-[3,4-bis(oxidanyl)phenyl]-1-[5-(3-methylbut-2-enyl)-2,4-bis(oxidanyl)phenyl]prop-2-en-1-one

>  <PUBCHEM_IUPAC_TRADITIONAL_NAME>  (1) 
(E)-1-[2,4-dihydroxy-5-(3-methylbut-2-enyl)phenyl]-3-(3,4-dihydroxyphenyl)prop-2-en-1-one

>  <PUBCHEM_IUPAC_INCHI>  (1) 
InChI=1S/C20H20O5/c1-12(2)3-6-14-10-15(19(24)11-18(14)23)16(21)7-4-13-5-8-17(22)20(25)9-13/h3-5,7-11,22-25H,6H2,1-2H3/b7-4+

>  <PUBCHEM_IUPAC_INCHIKEY>  (1) 
FEALTYYKRMRXTG-QPJJXVBHSA-N

>  <PUBCHEM_XLOGP3_AA>  (1) 
4.7

>  <PUBCHEM_EXACT_MASS>  (1) 
340.13107373

>  <PUBCHEM_MOLECULAR_FORMULA>  (1) 
C20H20O5

>  <PUBCHEM_MOLECULAR_WEIGHT>  (1) 
340.4

>  <PUBCHEM_OPENEYE_CAN_SMILES>  (1) 
CC(=CCC1=CC(=C(C=C1O)O)C(=O)C=CC2=CC(=C(C=C2)O)O)C

>  <PUBCHEM_OPENEYE_ISO_SMILES>  (1) 
CC(=CCC1=CC(=C(C=C1O)O)C(=O)/C=C/C2=CC(=C(C=C2)O)O)C

>  <PUBCHEM_CACTVS_TPSA>  (1) 
98

>  <PUBCHEM_MONOISOTOPIC_WEIGHT>  (1) 
340.13107373

>  <PUBCHEM_TOTAL_CHARGE>  (1) 
0

>  <PUBCHEM_HEAVY_ATOM_COUNT>  (1) 
25

>  <PUBCHEM_ATOM_DEF_STEREO_COUNT>  (1) 
0

>  <PUBCHEM_ATOM_UDEF_STEREO_COUNT>  (1) 
0

>  <PUBCHEM_BOND_DEF_STEREO_COUNT>  (1) 
1

>  <PUBCHEM_BOND_UDEF_STEREO_COUNT>  (1) 
0

>  <PUBCHEM_ISOTOPIC_ATOM_COUNT>  (1) 
0

>  <PUBCHEM_COMPONENT_COUNT>  (1) 
1

>  <PUBCHEM_CACTVS_TAUTO_COUNT>  (1) 
-1

>  <PUBCHEM_COORDINATE_TYPE>  (1) 
1
5
255

>  <PUBCHEM_BONDANNOTATIONS>  (1) 
10  13  8
12  13  8
19  21  8
19  22  8
21  23  8
22  24  8
23  25  8
24  25  8
6  10  8
6  8  8
8  9  8
9  12  8

$$$$
