72300
     RDKit          2D

 20 21  0  0  0  0  0  0  0  0999 V2000
    2.8660   -0.5000    0.0000 O   0  0  0  0  0  0  0  0  0  0  0  0
    6.3301    0.5000    0.0000 O   0  0  0  0  0  0  0  0  0  0  0  0
    4.5981   -0.5000    0.0000 C   0  0  0  0  0  0  0  0  0  0  0  0
    4.5981    0.5000    0.0000 C   0  0  0  0  0  0  0  0  0  0  0  0
    5.4641   -2.0000    0.0000 C   0  0  0  0  0  0  0  0  0  0  0  0
    3.7320    2.0000    0.0000 C   0  0  0  0  0  0  0  0  0  0  0  0
    5.4641   -1.0000    0.0000 C   0  0  0  0  0  0  0  0  0  0  0  0
    3.7320    1.0000    0.0000 C   0  0  0  0  0  0  0  0  0  0  0  0
    3.7320   -1.0000    0.0000 C   0  0  0  0  0  0  0  0  0  0  0  0
    5.4641    1.0000    0.0000 C   0  0  0  0  0  0  0  0  0  0  0  0
    6.3301   -2.5000    0.0000 C   0  0  0  0  0  0  0  0  0  0  0  0
    2.8660    2.5000    0.0000 C   0  0  0  0  0  0  0  0  0  0  0  0
    4.5981   -2.5000    0.0000 C   0  0  0  0  0  0  0  0  0  0  0  0
    4.5981    2.5000    0.0000 C   0  0  0  0  0  0  0  0  0  0  0  0
    3.7320   -2.0000    0.0000 C   0  0  0  0  0  0  0  0  0  0  0  0
    5.4641    2.0000    0.0000 C   0  0  0  0  0  0  0  0  0  0  0  0
    6.3301   -3.5000    0.0000 C   0  0  0  0  0  0  0  0  0  0  0  0
    2.8660    3.5000    0.0000 C   0  0  0  0  0  0  0  0  0  0  0  0
    7.1962   -4.0000    0.0000 C   0  0  0  0  0  0  0  0  0  0  0  0
    2.0000    4.0000    0.0000 C   0  0  0  0  0  0  0  0  0  0  0  0
  1  9  1  0
  2 10  1  0
  3  4  1  0
  3  7  1  0
  3  9  2  0
  4  8  1  0
  4 10  2  0
  5  7  2  0
  5 11  1  0
  5 13  1  0
  6  8  2  0
  6 12  1  0
  6 14  1  0
  9 15  1  0
 10 16  1  0
 11 17  1  0
 12 18  1  0
 13 15  2  0
 14 16  2  0
 17 19  2  0
 18 20  2  0
M  END
>  <PUBCHEM_COMPOUND_CID>  (1) 
72300

>  <PUBCHEM_COMPOUND_CANONICALIZED>  (1) 
1

>  <PUBCHEM_CACTVS_COMPLEXITY>  (1) 
293

>  <PUBCHEM_CACTVS_HBOND_ACCEPTOR>  (1) 
2

>  <PUBCHEM_CACTVS_HBOND_DONOR>  (1) 
2

>  <PUBCHEM_CACTVS_ROTATABLE_BOND>  (1) 
5

>  <PUBCHEM_CACTVS_SUBSKEYS>  (1) 
AAADceB4MAAAAAAAAAAAAAAAAAAAAAAAAAAwYAAAAAAAAAABQAAAGgAACAAADASAmAAwBoAAAgCAAiBCAAACAAAgIAAIiAAGCIgIJiKCERKAcAAkwBEImAfAwPAOoAACAAAIAABAAAQAABAAAAAAAAAAAA==

>  <PUBCHEM_IUPAC_OPENEYE_NAME>  (1) 
4-allyl-2-(5-allyl-2-hydroxy-phenyl)phenol

>  <PUBCHEM_IUPAC_CAS_NAME>  (1) 
2-(2-hydroxy-5-prop-2-enylphenyl)-4-prop-2-enylphenol

>  <PUBCHEM_IUPAC_NAME_MARKUP>  (1) 
2-(2-hydroxy-5-prop-2-enylphenyl)-4-prop-2-enylphenol

>  <PUBCHEM_IUPAC_NAME>  (1) 
2-(2-hydroxy-5-prop-2-enylphenyl)-4-prop-2-enylphenol

>  <PUBCHEM_IUPAC_SYSTEMATIC_NAME>  (1) 
2-(2-oxidanyl-5-prop-2-enyl-phenyl)-4-prop-2-enyl-phenol

>  <PUBCHEM_IUPAC_TRADITIONAL_NAME>  (1) 
4-allyl-2-(5-allyl-2-hydroxy-phenyl)phenol

>  <PUBCHEM_IUPAC_INCHI>  (1) 
InChI=1S/C18H18O2/c1-3-5-13-7-9-17(19)15(11-13)16-12-14(6-4-2)8-10-18(16)20/h3-4,7-12,19-20H,1-2,5-6H2

>  <PUBCHEM_IUPAC_INCHIKEY>  (1) 
VVOAZFWZEDHOOU-UHFFFAOYSA-N

>  <PUBCHEM_XLOGP3_AA>  (1) 
5

>  <PUBCHEM_EXACT_MASS>  (1) 
266.130679813

>  <PUBCHEM_MOLECULAR_FORMULA>  (1) 
C18H18O2

>  <PUBCHEM_MOLECULAR_WEIGHT>  (1) 
266.3

>  <PUBCHEM_OPENEYE_CAN_SMILES>  (1) 
C=CCC1=CC(=C(C=C1)O)C2=C(C=CC(=C2)CC=C)O

>  <PUBCHEM_OPENEYE_ISO_SMILES>  (1) 
C=CCC1=CC(=C(C=C1)O)C2=C(C=CC(=C2)CC=C)O

>  <PUBCHEM_CACTVS_TPSA>  (1) 
40.5

>  <PUBCHEM_MONOISOTOPIC_WEIGHT>  (1) 
266.130679813

>  <PUBCHEM_TOTAL_CHARGE>  (1) 
0

>  <PUBCHEM_HEAVY_ATOM_COUNT>  (1) 
20

>  <PUBCHEM_ATOM_DEF_STEREO_COUNT>  (1) 
0

>  <PUBCHEM_ATOM_UDEF_STEREO_COUNT>  (1) 
0

>  <PUBCHEM_BOND_DEF_STEREO_COUNT>  (1) 
0

>  <PUBCHEM_BOND_UDEF_STEREO_COUNT>  (1) 
0

>  <PUBCHEM_ISOTOPIC_ATOM_COUNT>  (1) 
0

>  <PUBCHEM_COMPONENT_COUNT>  (1) 
1

>  <PUBCHEM_CACTVS_TAUTO_COUNT>  (1) 
-1

>  <PUBCHEM_COORDINATE_TYPE>  (1) 
1
5
255

>  <PUBCHEM_BONDANNOTATIONS>  (1) 
10  16  8
13  15  8
14  16  8
3  7  8
3  9  8
4  10  8
4  8  8
5  13  8
5  7  8
6  14  8
6  8  8
9  15  8

$$$$
