10480940
     RDKit          2D

 36 40  0  0  0  0  0  0  0  0999 V2000
    9.5376   -0.5099    0.0000 O   0  0  0  0  0  0  0  0  0  0  0  0
    9.5376   -2.5099    0.0000 O   0  0  0  0  0  0  0  0  0  0  0  0
   11.2861    0.5247    0.0000 O   0  0  0  0  0  0  0  0  0  0  0  0
    6.0075   -2.5341    0.0000 O   0  0  0  0  0  0  0  0  0  0  0  0
   11.2861   -3.5445    0.0000 O   0  0  0  0  0  0  0  0  0  0  0  0
    7.7892    0.5247    0.0000 O   0  0  0  0  0  0  0  0  0  0  0  0
   13.0678   -0.4858    0.0000 O   0  0  0  0  0  0  0  0  0  0  0  0
    4.2793   -3.5407    0.0000 O   0  0  0  0  0  0  0  0  0  0  0  0
    5.9998   -0.5341    0.0000 O   0  0  0  0  0  0  0  0  0  0  0  0
   12.9833    3.5445    0.0000 O   0  0  0  0  0  0  0  0  0  0  0  0
   14.7499    0.5647    0.0000 O   0  0  0  0  0  0  0  0  0  0  0  0
    2.5357   -0.5474    0.0000 O   0  0  0  0  0  0  0  0  0  0  0  0
   10.4037   -1.0099    0.0000 C   0  0  0  0  0  0  0  0  0  0  0  0
   10.4037   -2.0099    0.0000 C   0  0  0  0  0  0  0  0  0  0  0  0
    8.6716   -1.0099    0.0000 C   0  0  0  0  0  0  0  0  0  0  0  0
    8.6716   -2.0099    0.0000 C   0  0  0  0  0  0  0  0  0  0  0  0
   11.2976   -0.4753    0.0000 C   0  0  0  0  0  0  0  0  0  0  0  0
   11.2976   -2.5446    0.0000 C   0  0  0  0  0  0  0  0  0  0  0  0
    7.7777   -2.5446    0.0000 C   0  0  0  0  0  0  0  0  0  0  0  0
    7.7777   -0.4753    0.0000 C   0  0  0  0  0  0  0  0  0  0  0  0
    6.8716   -2.0307    0.0000 C   0  0  0  0  0  0  0  0  0  0  0  0
   12.2037   -0.9891    0.0000 C   0  0  0  0  0  0  0  0  0  0  0  0
    6.8716   -0.9891    0.0000 C   0  0  0  0  0  0  0  0  0  0  0  0
   12.2037   -2.0307    0.0000 C   0  0  0  0  0  0  0  0  0  0  0  0
   12.1462    1.0347    0.0000 C   0  0  0  0  0  0  0  0  0  0  0  0
    5.1396   -2.0374    0.0000 C   0  0  0  0  0  0  0  0  0  0  0  0
    4.2755   -2.5407    0.0000 C   0  0  0  0  0  0  0  0  0  0  0  0
    5.1357   -1.0374    0.0000 C   0  0  0  0  0  0  0  0  0  0  0  0
   13.0180    0.5447    0.0000 C   0  0  0  0  0  0  0  0  0  0  0  0
   12.1347    2.0346    0.0000 C   0  0  0  0  0  0  0  0  0  0  0  0
   12.9949    2.5446    0.0000 C   0  0  0  0  0  0  0  0  0  0  0  0
   13.8782    1.0547    0.0000 C   0  0  0  0  0  0  0  0  0  0  0  0
    3.4075   -2.0441    0.0000 C   0  0  0  0  0  0  0  0  0  0  0  0
    4.2678   -0.5408    0.0000 C   0  0  0  0  0  0  0  0  0  0  0  0
    3.4037   -1.0441    0.0000 C   0  0  0  0  0  0  0  0  0  0  0  0
   13.8666    2.0546    0.0000 C   0  0  0  0  0  0  0  0  0  0  0  0
  1 13  1  0
  1 15  1  0
  2 14  1  0
  2 16  1  0
  3 17  1  0
  3 25  1  0
  4 21  1  0
  4 26  1  0
  5 18  1  0
  6 20  1  0
  7 22  1  0
  8 27  1  0
  9 28  1  0
 10 31  1  0
 11 32  1  0
 12 35  1  0
 13 14  2  0
 13 17  1  0
 14 18  1  0
 15 16  2  0
 15 20  1  0
 16 19  1  0
 17 22  2  0
 18 24  2  0
 19 21  2  0
 20 23  2  0
 21 23  1  0
 22 24  1  0
 25 29  2  0
 25 30  1  0
 26 27  2  0
 26 28  1  0
 27 33  1  0
 28 34  2  0
 29 32  1  0
 30 31  2  0
 31 36  1  0
 32 36  2  0
 33 35  2  0
 34 35  1  0
M  END
>  <PUBCHEM_COMPOUND_CID>  (1) 
10480940

>  <PUBCHEM_COMPOUND_CANONICALIZED>  (1) 
1

>  <PUBCHEM_CACTVS_COMPLEXITY>  (1) 
720

>  <PUBCHEM_CACTVS_HBOND_ACCEPTOR>  (1) 
12

>  <PUBCHEM_CACTVS_HBOND_DONOR>  (1) 
8

>  <PUBCHEM_CACTVS_ROTATABLE_BOND>  (1) 
4

>  <PUBCHEM_CACTVS_SUBSKEYS>  (1) 
AAADceB4PAAAAAAAAAAAAAAAAAAAAAAAAAA0YMGCAAAAAACRVAAAGgAACAAACASAkAAwBoAABgCAACBCAAACCAAgIAAAiAAGiIgNJyKGMRqCeCOlwBULuAfAYAwAAQAACAAAQAACAAAQAACAAAAAAAAAAA==

>  <PUBCHEM_IUPAC_OPENEYE_NAME>  (1) 
4-(3,5-dihydroxyphenoxy)-8-(2,4,6-trihydroxyphenoxy)dibenzo-p-dioxin-1,3,6-triol

>  <PUBCHEM_IUPAC_CAS_NAME>  (1) 
4-(3,5-dihydroxyphenoxy)-8-(2,4,6-trihydroxyphenoxy)dibenzo-p-dioxin-1,3,6-triol

>  <PUBCHEM_IUPAC_NAME_MARKUP>  (1) 
4-(3,5-dihydroxyphenoxy)-8-(2,4,6-trihydroxyphenoxy)dibenzo-p-dioxin-1,3,6-triol

>  <PUBCHEM_IUPAC_NAME>  (1) 
4-(3,5-dihydroxyphenoxy)-8-(2,4,6-trihydroxyphenoxy)dibenzo-p-dioxin-1,3,6-triol

>  <PUBCHEM_IUPAC_SYSTEMATIC_NAME>  (1) 
4-[3,5-bis(oxidanyl)phenoxy]-8-[2,4,6-tris(oxidanyl)phenoxy]dibenzo-p-dioxin-1,3,6-triol

>  <PUBCHEM_IUPAC_TRADITIONAL_NAME>  (1) 
4-(3,5-dihydroxyphenoxy)-8-(2,4,6-trihydroxyphenoxy)dibenzo-p-dioxin-1,3,6-triol

>  <PUBCHEM_IUPAC_INCHI>  (1) 
InChI=1S/C24H16O12/c25-9-1-10(26)3-12(2-9)34-22-17(31)8-18(32)23-24(22)36-21-16(30)6-13(7-19(21)35-23)33-20-14(28)4-11(27)5-15(20)29/h1-8,25-32H

>  <PUBCHEM_IUPAC_INCHIKEY>  (1) 
JLEVVQRBEATTCM-UHFFFAOYSA-N

>  <PUBCHEM_XLOGP3_AA>  (1) 
3.3

>  <PUBCHEM_EXACT_MASS>  (1) 
496.06417594

>  <PUBCHEM_MOLECULAR_FORMULA>  (1) 
C24H16O12

>  <PUBCHEM_MOLECULAR_WEIGHT>  (1) 
496.4

>  <PUBCHEM_OPENEYE_CAN_SMILES>  (1) 
C1=C(C=C(C=C1O)OC2=C(C=C(C3=C2OC4=C(C=C(C=C4O3)OC5=C(C=C(C=C5O)O)O)O)O)O)O

>  <PUBCHEM_OPENEYE_ISO_SMILES>  (1) 
C1=C(C=C(C=C1O)OC2=C(C=C(C3=C2OC4=C(C=C(C=C4O3)OC5=C(C=C(C=C5O)O)O)O)O)O)O

>  <PUBCHEM_CACTVS_TPSA>  (1) 
199

>  <PUBCHEM_MONOISOTOPIC_WEIGHT>  (1) 
496.06417594

>  <PUBCHEM_TOTAL_CHARGE>  (1) 
0

>  <PUBCHEM_HEAVY_ATOM_COUNT>  (1) 
36

>  <PUBCHEM_ATOM_DEF_STEREO_COUNT>  (1) 
0

>  <PUBCHEM_ATOM_UDEF_STEREO_COUNT>  (1) 
0

>  <PUBCHEM_BOND_DEF_STEREO_COUNT>  (1) 
0

>  <PUBCHEM_BOND_UDEF_STEREO_COUNT>  (1) 
0

>  <PUBCHEM_ISOTOPIC_ATOM_COUNT>  (1) 
0

>  <PUBCHEM_COMPONENT_COUNT>  (1) 
1

>  <PUBCHEM_CACTVS_TAUTO_COUNT>  (1) 
-1

>  <PUBCHEM_COORDINATE_TYPE>  (1) 
1
5
255

>  <PUBCHEM_BONDANNOTATIONS>  (1) 
13  14  8
13  17  8
14  18  8
15  16  8
15  20  8
16  19  8
17  22  8
18  24  8
19  21  8
20  23  8
21  23  8
22  24  8
25  29  8
25  30  8
26  27  8
26  28  8
27  33  8
28  34  8
29  32  8
30  31  8
31  36  8
32  36  8
33  35  8
34  35  8

$$$$
