94162
     RDKit          2D

 22 24  0  0  1  0  0  0  0  0999 V2000
    6.3981   -1.9854    0.0000 O   0  0  0  0  0  0  0  0  0  0  0  0
    5.5442    2.5839    0.0000 O   0  0  0  0  0  0  0  0  0  0  0  0
    3.8000   -1.4854    0.0000 C   0  0  0  0  0  0  0  0  0  0  0  0
    3.8000   -0.4854    0.0000 C   0  0  0  0  0  0  0  0  0  0  0  0
    2.9061   -2.0200    0.0000 C   0  0  0  0  0  0  0  0  0  0  0  0
    2.9061    0.0493    0.0000 C   0  0  0  0  0  0  0  0  0  0  0  0
    2.0000   -1.5062    0.0000 C   0  0  0  0  0  0  0  0  0  0  0  0
    2.0000   -0.4646    0.0000 C   0  0  0  0  0  0  0  0  0  0  0  0
    4.6660   -1.9854    0.0000 C   0  0  0  0  0  0  0  0  0  0  0  0
    4.6660    0.0146    0.0000 C   0  0  0  0  0  0  0  0  0  0  0  0
    3.8000    0.5146    0.0000 C   0  0  0  0  0  0  0  0  0  0  0  0
    2.4161   -2.8918    0.0000 C   0  0  0  0  0  0  0  0  0  0  0  0
    3.4160   -2.8802    0.0000 C   0  0  0  0  0  0  0  0  0  0  0  0
    5.5321   -0.4854    0.0000 C   0  0  0  0  0  0  0  0  0  0  0  0
    5.5321   -1.4854    0.0000 C   0  0  0  0  0  0  0  0  0  0  0  0
    4.6500    1.0561    0.0000 C   0  0  0  0  0  0  0  0  0  0  0  0
    6.4421    0.0215    0.0000 C   0  0  0  0  0  0  0  0  0  0  0  0
    6.4501    1.0631    0.0000 C   0  0  0  0  0  0  0  0  0  0  0  0
    5.5480    1.5839    0.0000 C   0  0  0  0  0  0  0  0  0  0  0  0
    7.3180    1.5597    0.0000 C   0  0  0  0  0  0  0  0  0  0  0  0
    8.1821    1.0564    0.0000 C   0  0  0  0  0  0  0  0  0  0  0  0
    7.3219    2.5597    0.0000 C   0  0  0  0  0  0  0  0  0  0  0  0
  1 15  2  0
  2 19  1  0
  3  4  1  0
  3  5  1  0
  3  9  1  1
  4  6  1  0
  4 10  1  0
  4 11  1  1
  5  7  1  0
  5 12  1  0
  5 13  1  0
  6  8  1  0
  7  8  1  0
  9 15  1  0
 10 14  2  0
 10 16  1  0
 14 15  1  0
 14 17  1  0
 16 19  2  0
 17 18  2  0
 18 19  1  0
 18 20  1  0
 20 21  1  0
 20 22  1  0
M  END
>  <PUBCHEM_COMPOUND_CID>  (1) 
94162

>  <PUBCHEM_COMPOUND_CANONICALIZED>  (1) 
1

>  <PUBCHEM_CACTVS_COMPLEXITY>  (1) 
453

>  <PUBCHEM_CACTVS_HBOND_ACCEPTOR>  (1) 
2

>  <PUBCHEM_CACTVS_HBOND_DONOR>  (1) 
1

>  <PUBCHEM_CACTVS_ROTATABLE_BOND>  (1) 
1

>  <PUBCHEM_CACTVS_SUBSKEYS>  (1) 
AAADceB4MAAAAAAAAAAAAAAAAAAAAAAAAAAwYMAAAAAAAADBAAAAGgAACAAADwSAmAAyBoAAAgCIAqBSAAACAAAkIAAAiAEGCMgIJjKCFRKAcQAkwBEImYeIzPDP4AADAAAYAADAAAYAADAAAAAAAAAAAA==

>  <PUBCHEM_IUPAC_OPENEYE_NAME>  (1) 
(4aS,10aS)-6-hydroxy-7-isopropyl-1,1,4a-trimethyl-3,4,10,10a-tetrahydro-2H-phenanthren-9-one

>  <PUBCHEM_IUPAC_CAS_NAME>  (1) 
(4aS,10aS)-6-hydroxy-1,1,4a-trimethyl-7-propan-2-yl-3,4,10,10a-tetrahydro-2H-phenanthren-9-one

>  <PUBCHEM_IUPAC_NAME_MARKUP>  (1) 
(4<I>a</I><I>S</I>,10<I>a</I><I>S</I>)-6-hydroxy-1,1,4<I>a</I>-trimethyl-7-propan-2-yl-3,4,10,10<I>a</I>-tetrahydro-2<I>H</I>-phenanthren-9-one

>  <PUBCHEM_IUPAC_NAME>  (1) 
(4aS,10aS)-6-hydroxy-1,1,4a-trimethyl-7-propan-2-yl-3,4,10,10a-tetrahydro-2H-phenanthren-9-one

>  <PUBCHEM_IUPAC_SYSTEMATIC_NAME>  (1) 
(4aS,10aS)-1,1,4a-trimethyl-6-oxidanyl-7-propan-2-yl-3,4,10,10a-tetrahydro-2H-phenanthren-9-one

>  <PUBCHEM_IUPAC_TRADITIONAL_NAME>  (1) 
(4aS,10aS)-6-hydroxy-7-isopropyl-1,1,4a-trimethyl-3,4,10,10a-tetrahydro-2H-phenanthren-9-one

>  <PUBCHEM_IUPAC_INCHI>  (1) 
InChI=1S/C20H28O2/c1-12(2)13-9-14-15(10-16(13)21)20(5)8-6-7-19(3,4)18(20)11-17(14)22/h9-10,12,18,21H,6-8,11H2,1-5H3/t18-,20+/m0/s1

>  <PUBCHEM_IUPAC_INCHIKEY>  (1) 
IPEHJNRNYPOFII-AZUAARDMSA-N

>  <PUBCHEM_XLOGP3_AA>  (1) 
5.6

>  <PUBCHEM_EXACT_MASS>  (1) 
300.208930132

>  <PUBCHEM_MOLECULAR_FORMULA>  (1) 
C20H28O2

>  <PUBCHEM_MOLECULAR_WEIGHT>  (1) 
300.4

>  <PUBCHEM_OPENEYE_CAN_SMILES>  (1) 
CC(C)C1=C(C=C2C(=C1)C(=O)CC3C2(CCCC3(C)C)C)O

>  <PUBCHEM_OPENEYE_ISO_SMILES>  (1) 
CC(C)C1=C(C=C2C(=C1)C(=O)C[C@@H]3[C@@]2(CCCC3(C)C)C)O

>  <PUBCHEM_CACTVS_TPSA>  (1) 
37.3

>  <PUBCHEM_MONOISOTOPIC_WEIGHT>  (1) 
300.208930132

>  <PUBCHEM_TOTAL_CHARGE>  (1) 
0

>  <PUBCHEM_HEAVY_ATOM_COUNT>  (1) 
22

>  <PUBCHEM_ATOM_DEF_STEREO_COUNT>  (1) 
2

>  <PUBCHEM_ATOM_UDEF_STEREO_COUNT>  (1) 
0

>  <PUBCHEM_BOND_DEF_STEREO_COUNT>  (1) 
0

>  <PUBCHEM_BOND_UDEF_STEREO_COUNT>  (1) 
0

>  <PUBCHEM_ISOTOPIC_ATOM_COUNT>  (1) 
0

>  <PUBCHEM_COMPONENT_COUNT>  (1) 
1

>  <PUBCHEM_CACTVS_TAUTO_COUNT>  (1) 
-1

>  <PUBCHEM_COORDINATE_TYPE>  (1) 
1
5
255

>  <PUBCHEM_BONDANNOTATIONS>  (1) 
10  14  8
10  16  8
14  17  8
16  19  8
17  18  8
18  19  8
3  23  6
4  11  5

$$$$
