MCSJ45_0009
  -OEChem-07172407072D

 66 69  0     1  0  0  0  0  0999 V2000
    7.0360   -0.1743    0.0000 O   0  0  0  0  0  0  0  0  0  0  0  0
   10.5560   -0.1743    0.0000 O   0  0  0  0  0  0  0  0  0  0  0  0
    2.6200    2.9242    0.0000 O   0  0  0  0  0  0  0  0  0  0  0  0
    8.7960    2.8604    0.0000 O   0  0  0  0  0  0  0  0  0  0  0  0
   12.3261    1.8846    0.0000 O   0  0  0  0  0  0  0  0  0  0  0  0
   10.5444    2.8950    0.0000 O   0  0  0  0  0  0  0  0  0  0  0  0
   13.1825   -2.6671    0.0000 O   0  0  0  0  0  0  0  0  0  0  0  0
   14.9184   -1.6738    0.0000 O   0  0  0  0  0  0  0  0  0  0  0  0
    6.1300    0.3396    0.0000 C   0  0  3  0  0  0  0  0  0  0  0  0
    6.1300    1.3812    0.0000 C   0  0  0  0  0  0  0  0  0  0  0  0
    5.1300    0.3357    0.0000 C   0  0  0  0  0  0  0  0  0  0  0  0
    7.0360    1.8951    0.0000 C   0  0  0  0  0  0  0  0  0  0  0  0
    4.6267    1.1998    0.0000 C   0  0  0  0  0  0  0  0  0  0  0  0
    7.9300    1.3604    0.0000 C   0  0  0  0  0  0  0  0  0  0  0  0
    5.6333   -0.5284    0.0000 C   0  0  0  0  0  0  0  0  0  0  0  0
    7.9300    0.3604    0.0000 C   0  0  0  0  0  0  0  0  0  0  0  0
    3.6267    1.1960    0.0000 C   0  0  0  0  0  0  0  0  0  0  0  0
    3.1233    2.0601    0.0000 C   0  0  0  0  0  0  0  0  0  0  0  0
    8.7960    1.8604    0.0000 C   0  0  0  0  0  0  0  0  0  0  0  0
    9.6620    1.3604    0.0000 C   0  0  0  0  0  0  0  0  0  0  0  0
    8.7960   -0.1396    0.0000 C   0  0  0  0  0  0  0  0  0  0  0  0
    9.6620    0.3604    0.0000 C   0  0  0  0  0  0  0  0  0  0  0  0
   11.4621    0.3396    0.0000 C   0  0  1  0  0  0  0  0  0  0  0  0
   11.4621    1.3812    0.0000 C   0  0  2  0  0  0  0  0  0  0  0  0
   10.5560    1.8951    0.0000 C   0  0  0  0  0  0  0  0  0  0  0  0
    2.2592    1.5567    0.0000 C   0  0  0  0  0  0  0  0  0  0  0  0
    3.9874    2.5634    0.0000 C   0  0  0  0  0  0  0  0  0  0  0  0
   12.3261   -0.1637    0.0000 C   0  0  0  0  0  0  0  0  0  0  0  0
   12.3223   -1.1637    0.0000 C   0  0  0  0  0  0  0  0  0  0  0  0
   13.1941    0.3329    0.0000 C   0  0  0  0  0  0  0  0  0  0  0  0
   13.1864   -1.6671    0.0000 C   0  0  0  0  0  0  0  0  0  0  0  0
   14.0582   -0.1704    0.0000 C   0  0  0  0  0  0  0  0  0  0  0  0
   14.0543   -1.1704    0.0000 C   0  0  0  0  0  0  0  0  0  0  0  0
   14.0466   -3.1704    0.0000 C   0  0  0  0  0  0  0  0  0  0  0  0
    5.9209    1.9649    0.0000 H   0  0  0  0  0  0  0  0  0  0  0  0
    5.5191    1.2751    0.0000 H   0  0  0  0  0  0  0  0  0  0  0  0
    4.5482    0.1214    0.0000 H   0  0  0  0  0  0  0  0  0  0  0  0
    5.2400   -0.2744    0.0000 H   0  0  0  0  0  0  0  0  0  0  0  0
    7.4406    2.3648    0.0000 H   0  0  0  0  0  0  0  0  0  0  0  0
    6.6424    2.3741    0.0000 H   0  0  0  0  0  0  0  0  0  0  0  0
    5.2084    1.4141    0.0000 H   0  0  0  0  0  0  0  0  0  0  0  0
    4.5166    1.8100    0.0000 H   0  0  0  0  0  0  0  0  0  0  0  0
    5.0952   -0.2204    0.0000 H   0  0  0  0  0  0  0  0  0  0  0  0
    5.3254   -1.0665    0.0000 H   0  0  0  0  0  0  0  0  0  0  0  0
    6.1714   -0.8363    0.0000 H   0  0  0  0  0  0  0  0  0  0  0  0
    3.0449    0.9817    0.0000 H   0  0  0  0  0  0  0  0  0  0  0  0
    3.7367    0.5858    0.0000 H   0  0  0  0  0  0  0  0  0  0  0  0
    8.7960   -0.7596    0.0000 H   0  0  0  0  0  0  0  0  0  0  0  0
   11.4585   -0.2804    0.0000 H   0  0  0  0  0  0  0  0  0  0  0  0
   11.4585    2.0012    0.0000 H   0  0  0  0  0  0  0  0  0  0  0  0
    1.9472    2.0925    0.0000 H   0  0  0  0  0  0  0  0  0  0  0  0
    1.7235    1.2447    0.0000 H   0  0  0  0  0  0  0  0  0  0  0  0
    2.5713    1.0210    0.0000 H   0  0  0  0  0  0  0  0  0  0  0  0
    4.2995    2.0277    0.0000 H   0  0  0  0  0  0  0  0  0  0  0  0
    4.5232    2.8755    0.0000 H   0  0  0  0  0  0  0  0  0  0  0  0
    3.6754    3.0991    0.0000 H   0  0  0  0  0  0  0  0  0  0  0  0
    2.0000    2.9218    0.0000 H   0  0  0  0  0  0  0  0  0  0  0  0
    8.2591    3.1704    0.0000 H   0  0  0  0  0  0  0  0  0  0  0  0
   12.3238    2.5046    0.0000 H   0  0  0  0  0  0  0  0  0  0  0  0
   11.7842   -1.4717    0.0000 H   0  0  0  0  0  0  0  0  0  0  0  0
   13.1965    0.9529    0.0000 H   0  0  0  0  0  0  0  0  0  0  0  0
   14.5963    0.1375    0.0000 H   0  0  0  0  0  0  0  0  0  0  0  0
   15.4565   -1.3658    0.0000 H   0  0  0  0  0  0  0  0  0  0  0  0
   13.7346   -3.7061    0.0000 H   0  0  0  0  0  0  0  0  0  0  0  0
   14.5824   -3.4825    0.0000 H   0  0  0  0  0  0  0  0  0  0  0  0
   14.3587   -2.6347    0.0000 H   0  0  0  0  0  0  0  0  0  0  0  0
  1  9  1  0  0  0  0
  1 16  1  0  0  0  0
  2 22  1  0  0  0  0
  2 23  1  0  0  0  0
  3 18  1  0  0  0  0
  3 57  1  0  0  0  0
  4 19  1  0  0  0  0
  4 58  1  0  0  0  0
 24  5  1  6  0  0  0
  5 59  1  0  0  0  0
  6 25  2  0  0  0  0
  7 31  1  0  0  0  0
  7 34  1  0  0  0  0
  8 33  1  0  0  0  0
  8 63  1  0  0  0  0
  9 10  1  0  0  0  0
  9 11  1  0  0  0  0
  9 15  1  0  0  0  0
 10 12  1  0  0  0  0
 10 35  1  0  0  0  0
 10 36  1  0  0  0  0
 11 13  1  0  0  0  0
 11 37  1  0  0  0  0
 11 38  1  0  0  0  0
 12 14  1  0  0  0  0
 12 39  1  0  0  0  0
 12 40  1  0  0  0  0
 13 17  1  0  0  0  0
 13 41  1  0  0  0  0
 13 42  1  0  0  0  0
 14 16  1  0  0  0  0
 14 19  2  0  0  0  0
 15 43  1  0  0  0  0
 15 44  1  0  0  0  0
 15 45  1  0  0  0  0
 16 21  2  0  0  0  0
 17 18  1  0  0  0  0
 17 46  1  0  0  0  0
 17 47  1  0  0  0  0
 18 26  1  0  0  0  0
 18 27  1  0  0  0  0
 19 20  1  0  0  0  0
 20 22  2  0  0  0  0
 20 25  1  0  0  0  0
 21 22  1  0  0  0  0
 21 48  1  0  0  0  0
 23 24  1  0  0  0  0
 23 28  1  1  0  0  0
 23 49  1  0  0  0  0
 24 25  1  0  0  0  0
 24 50  1  0  0  0  0
 26 51  1  0  0  0  0
 26 52  1  0  0  0  0
 26 53  1  0  0  0  0
 27 54  1  0  0  0  0
 27 55  1  0  0  0  0
 27 56  1  0  0  0  0
 28 29  2  0  0  0  0
 28 30  1  0  0  0  0
 29 31  1  0  0  0  0
 29 60  1  0  0  0  0
 30 32  2  0  0  0  0
 30 61  1  0  0  0  0
 31 33  2  0  0  0  0
 32 33  1  0  0  0  0
 32 62  1  0  0  0  0
 34 64  1  0  0  0  0
 34 65  1  0  0  0  0
 34 66  1  0  0  0  0
M  END
> <PUBCHEM_COMPOUND_CID>
71659767

> <PUBCHEM_COMPOUND_CANONICALIZED>
1

> <PUBCHEM_CACTVS_COMPLEXITY>
728

> <PUBCHEM_CACTVS_HBOND_ACCEPTOR>
8

> <PUBCHEM_CACTVS_HBOND_DONOR>
4

> <PUBCHEM_CACTVS_ROTATABLE_BOND>
6

> <PUBCHEM_CACTVS_SUBSKEYS>
AAADcfB4PAAAAAAAAAAAAAAAAAAAAAAAAAA0aIEAAAAAAACRQAAAGgAACAAADFSgmAIyBoAABgCIAqBSAAICCAAkIAAIiAFGiMgNNzaGNRqCeWOl4BULuQfI7PzOIAADCAAIQABAAAYQABCAAAAAAAAAAA==

> <PUBCHEM_IUPAC_OPENEYE_NAME>
(7R,8R)-5,7-dihydroxy-8-(4-hydroxy-3-methoxy-phenyl)-2-(4-hydroxy-4-methyl-pentyl)-2-methyl-3,4,7,8-tetrahydropyrano[3,2-g]chromen-6-one

> <PUBCHEM_IUPAC_CAS_NAME>
(7R,8R)-5,7-dihydroxy-8-(4-hydroxy-3-methoxyphenyl)-2-(4-hydroxy-4-methylpentyl)-2-methyl-3,4,7,8-tetrahydropyrano[3,2-g][1]benzopyran-6-one

> <PUBCHEM_IUPAC_NAME_MARKUP>
(7<I>R</I>,8<I>R</I>)-5,7-dihydroxy-8-(4-hydroxy-3-methoxyphenyl)-2-(4-hydroxy-4-methylpentyl)-2-methyl-3,4,7,8-tetrahydropyrano[3,2-g]chromen-6-one

> <PUBCHEM_IUPAC_NAME>
(7R,8R)-5,7-dihydroxy-8-(4-hydroxy-3-methoxyphenyl)-2-(4-hydroxy-4-methylpentyl)-2-methyl-3,4,7,8-tetrahydropyrano[3,2-g]chromen-6-one

> <PUBCHEM_IUPAC_SYSTEMATIC_NAME>
(7R,8R)-8-(3-methoxy-4-oxidanyl-phenyl)-2-methyl-2-(4-methyl-4-oxidanyl-pentyl)-5,7-bis(oxidanyl)-3,4,7,8-tetrahydropyrano[3,2-g]chromen-6-one

> <PUBCHEM_IUPAC_TRADITIONAL_NAME>
(7R,8R)-5,7-dihydroxy-8-(4-hydroxy-3-methoxy-phenyl)-2-(4-hydroxy-4-methyl-pentyl)-2-methyl-3,4,7,8-tetrahydropyrano[3,2-g]chromen-6-one

> <PUBCHEM_IUPAC_INCHI>
InChI=1S/C26H32O8/c1-25(2,31)9-5-10-26(3)11-8-15-17(34-26)13-19-20(21(15)28)22(29)23(30)24(33-19)14-6-7-16(27)18(12-14)32-4/h6-7,12-13,23-24,27-28,30-31H,5,8-11H2,1-4H3/t23-,24+,26?/m0/s1

> <PUBCHEM_IUPAC_INCHIKEY>
KWSGAQMDMOUWHH-GPTJOGTASA-N

> <PUBCHEM_XLOGP3_AA>
3.8

> <PUBCHEM_EXACT_MASS>
472.20971797

> <PUBCHEM_MOLECULAR_FORMULA>
C26H32O8

> <PUBCHEM_MOLECULAR_WEIGHT>
472.5

> <PUBCHEM_OPENEYE_CAN_SMILES>
CC1(CCC2=C(C3=C(C=C2O1)OC(C(C3=O)O)C4=CC(=C(C=C4)O)OC)O)CCCC(C)(C)O

> <PUBCHEM_OPENEYE_ISO_SMILES>
CC1(CCC2=C(C3=C(C=C2O1)O[C@@H]([C@H](C3=O)O)C4=CC(=C(C=C4)O)OC)O)CCCC(C)(C)O

> <PUBCHEM_CACTVS_TPSA>
126

> <PUBCHEM_MONOISOTOPIC_WEIGHT>
472.20971797

> <PUBCHEM_TOTAL_CHARGE>
0

> <PUBCHEM_HEAVY_ATOM_COUNT>
34

> <PUBCHEM_ATOM_DEF_STEREO_COUNT>
2

> <PUBCHEM_ATOM_UDEF_STEREO_COUNT>
1

> <PUBCHEM_BOND_DEF_STEREO_COUNT>
0

> <PUBCHEM_BOND_UDEF_STEREO_COUNT>
0

> <PUBCHEM_ISOTOPIC_ATOM_COUNT>
0

> <PUBCHEM_COMPONENT_COUNT>
1

> <PUBCHEM_CACTVS_TAUTO_COUNT>
-1

> <PUBCHEM_COORDINATE_TYPE>
1
5
255

> <PUBCHEM_BONDANNOTATIONS>
14  16  8
14  19  8
16  21  8
19  20  8
20  22  8
21  22  8
23  28  5
28  29  8
28  30  8
29  31  8
30  32  8
31  33  8
32  33  8
24  5  6
9  15  3

$$$$
