101520
     RDKit          2D

 31 35  0  0  1  0  0  0  0  0999 V2000
    2.0000   -2.8662    0.0000 O   0  0  0  0  0  0  0  0  0  0  0  0
   11.0010    2.3305    0.0000 O   0  0  0  0  0  0  0  0  0  0  0  0
    9.1815    3.3623    0.0000 O   0  0  0  0  0  0  0  0  0  0  0  0
    5.6610   -0.8139    0.0000 C   0  0  0  0  0  0  0  0  0  0  0  0
    6.5271   -1.3139    0.0000 C   0  0  0  0  0  0  0  0  0  0  0  0
    4.7510   -1.3208    0.0000 C   0  0  0  0  0  0  0  0  0  0  0  0
    4.7430   -2.3624    0.0000 C   0  0  0  0  0  0  0  0  0  0  0  0
    6.5431   -2.3554    0.0000 C   0  0  0  0  0  0  0  0  0  0  0  0
    5.6610    0.1861    0.0000 C   0  0  0  0  0  0  0  0  0  0  0  0
    5.6451   -2.8832    0.0000 C   0  0  0  0  0  0  0  0  0  0  0  0
    7.3931   -0.8139    0.0000 C   0  0  0  0  0  0  0  0  0  0  0  0
    7.3931    0.1861    0.0000 C   0  0  0  0  0  0  0  0  0  0  0  0
    3.8242   -0.7567    0.0000 C   0  0  0  0  0  0  0  0  0  0  0  0
    6.5271    0.6861    0.0000 C   0  0  0  0  0  0  0  0  0  0  0  0
    3.8076   -2.9121    0.0000 C   0  0  0  0  0  0  0  0  0  0  0  0
    4.7950   -0.3139    0.0000 C   0  0  0  0  0  0  0  0  0  0  0  0
    7.3931   -1.8139    0.0000 C   0  0  0  0  0  0  0  0  0  0  0  0
    2.8763   -1.2846    0.0000 C   0  0  0  0  0  0  0  0  0  0  0  0
    4.7353   -3.3623    0.0000 C   0  0  0  0  0  0  0  0  0  0  0  0
    2.8680   -2.3696    0.0000 C   0  0  0  0  0  0  0  0  0  0  0  0
    8.2870    0.7208    0.0000 C   0  0  0  0  0  0  0  0  0  0  0  0
    8.2870   -1.3486    0.0000 C   0  0  0  0  0  0  0  0  0  0  0  0
    7.3931    1.1861    0.0000 C   0  0  0  0  0  0  0  0  0  0  0  0
    2.0161   -0.7746    0.0000 C   0  0  0  0  0  0  0  0  0  0  0  0
    9.1931    0.2069    0.0000 C   0  0  0  0  0  0  0  0  0  0  0  0
    9.1931   -0.8347    0.0000 C   0  0  0  0  0  0  0  0  0  0  0  0
    8.2619    1.8055    0.0000 C   0  0  0  0  0  0  0  0  0  0  0  0
   10.1369    0.7422    0.0000 C   0  0  0  0  0  0  0  0  0  0  0  0
    9.1931    2.3624    0.0000 C   0  0  0  0  0  0  0  0  0  0  0  0
   10.1369    1.8272    0.0000 C   0  0  0  0  0  0  0  0  0  0  0  0
   11.0010    0.2388    0.0000 C   0  0  0  0  0  0  0  0  0  0  0  0
  1 20  2  0
  2 30  1  0
  3 29  2  0
  4  5  1  0
  4  6  1  0
  4  9  1  0
  4 16  1  1
  5  8  1  0
  5 11  1  0
  5 17  1  6
  6  7  1  0
  6 13  1  1
  7 10  1  0
  7 15  1  0
  7 19  1  6
  8 10  1  0
  9 14  1  0
 11 12  1  0
 11 22  2  0
 12 14  1  0
 12 21  1  0
 12 23  1  6
 13 18  1  0
 15 20  1  0
 18 20  1  0
 18 24  1  6
 21 25  1  0
 21 27  2  0
 22 26  1  0
 25 26  2  0
 25 28  1  0
 27 29  1  0
 28 30  2  0
 28 31  1  0
 29 30  1  0
M  END
>  <PUBCHEM_COMPOUND_CID>  (1) 
101520

>  <PUBCHEM_COMPOUND_CANONICALIZED>  (1) 
1

>  <PUBCHEM_CACTVS_COMPLEXITY>  (1) 
1040

>  <PUBCHEM_CACTVS_HBOND_ACCEPTOR>  (1) 
3

>  <PUBCHEM_CACTVS_HBOND_DONOR>  (1) 
1

>  <PUBCHEM_CACTVS_ROTATABLE_BOND>  (1) 
0

>  <PUBCHEM_CACTVS_SUBSKEYS>  (1) 
AAADcfB4MAAAAAAAAAAAAAAAAAAAAAAAAAAwYMECAAAAAADAAAAAGgAACAAADwSAgAACAAAAAgCIAqBSAAIAAAAgIAAACAFAAEgIABIAAAAAQAAAwAAIgQMIiMCPgAAAAAAAAACAAAQAACAAAAAAAAAAAA==

>  <PUBCHEM_IUPAC_OPENEYE_NAME>  (1) 
(6aS,6bS,8aS,11R,12aR,14aR)-3-hydroxy-4,6a,6b,8a,11,14a-hexamethyl-7,8,9,11,12,12a,13,14-octahydropicene-2,10-dione

>  <PUBCHEM_IUPAC_CAS_NAME>  (1) 
(6aS,6bS,8aS,11R,12aR,14aR)-3-hydroxy-4,6a,6b,8a,11,14a-hexamethyl-7,8,9,11,12,12a,13,14-octahydropicene-2,10-dione

>  <PUBCHEM_IUPAC_NAME_MARKUP>  (1) 
(6<I>a</I><I>S</I>,6<I>b</I><I>S</I>,8<I>a</I><I>S</I>,11<I>R</I>,12<I>a</I><I>R</I>,14<I>a</I><I>R</I>)-3-hydroxy-4,6<I>a</I>,6<I>b</I>,8<I>a</I>,11,14<I>a</I>-hexamethyl-7,8,9,11,12,12<I>a</I>,13,14-octahydropicene-2,10-dione

>  <PUBCHEM_IUPAC_NAME>  (1) 
(6aS,6bS,8aS,11R,12aR,14aR)-3-hydroxy-4,6a,6b,8a,11,14a-hexamethyl-7,8,9,11,12,12a,13,14-octahydropicene-2,10-dione

>  <PUBCHEM_IUPAC_SYSTEMATIC_NAME>  (1) 
(6aS,6bS,8aS,11R,12aR,14aR)-4,6a,6b,8a,11,14a-hexamethyl-3-oxidanyl-7,8,9,11,12,12a,13,14-octahydropicene-2,10-dione

>  <PUBCHEM_IUPAC_TRADITIONAL_NAME>  (1) 
(6aS,6bS,8aS,11R,12aR,14aR)-3-hydroxy-4,6a,6b,8a,11,14a-hexamethyl-7,8,9,11,12,12a,13,14-octahydropicene-2,10-quinone

>  <PUBCHEM_IUPAC_INCHI>  (1) 
InChI=1S/C28H36O3/c1-16-13-23-25(3,15-21(16)30)9-11-27(5)22-8-7-18-17(2)24(31)20(29)14-19(18)26(22,4)10-12-28(23,27)6/h7-8,14,16,23,31H,9-13,15H2,1-6H3/t16-,23-,25+,26+,27-,28+/m1/s1

>  <PUBCHEM_IUPAC_INCHIKEY>  (1) 
WSTYNZDAOAEEKG-GWJSGULQSA-N

>  <PUBCHEM_XLOGP3_AA>  (1) 
5.4

>  <PUBCHEM_EXACT_MASS>  (1) 
420.26644501

>  <PUBCHEM_MOLECULAR_FORMULA>  (1) 
C28H36O3

>  <PUBCHEM_MOLECULAR_WEIGHT>  (1) 
420.6

>  <PUBCHEM_OPENEYE_CAN_SMILES>  (1) 
CC1CC2C(CCC3(C2(CCC4(C3=CC=C5C4=CC(=O)C(=C5C)O)C)C)C)(CC1=O)C

>  <PUBCHEM_OPENEYE_ISO_SMILES>  (1) 
C[C@@H]1C[C@@H]2[C@@](CC[C@]3([C@]2(CC[C@@]4(C3=CC=C5C4=CC(=O)C(=C5C)O)C)C)C)(CC1=O)C

>  <PUBCHEM_CACTVS_TPSA>  (1) 
54.4

>  <PUBCHEM_MONOISOTOPIC_WEIGHT>  (1) 
420.26644501

>  <PUBCHEM_TOTAL_CHARGE>  (1) 
0

>  <PUBCHEM_HEAVY_ATOM_COUNT>  (1) 
31

>  <PUBCHEM_ATOM_DEF_STEREO_COUNT>  (1) 
6

>  <PUBCHEM_ATOM_UDEF_STEREO_COUNT>  (1) 
0

>  <PUBCHEM_BOND_DEF_STEREO_COUNT>  (1) 
0

>  <PUBCHEM_BOND_UDEF_STEREO_COUNT>  (1) 
0

>  <PUBCHEM_ISOTOPIC_ATOM_COUNT>  (1) 
0

>  <PUBCHEM_COMPONENT_COUNT>  (1) 
1

>  <PUBCHEM_CACTVS_TAUTO_COUNT>  (1) 
-1

>  <PUBCHEM_COORDINATE_TYPE>  (1) 
1
5
255

>  <PUBCHEM_BONDANNOTATIONS>  (1) 
12  23  6
18  24  6
4  16  5
5  17  6
6  32  6
7  19  6

$$$$
