21637642
     RDKit          2D

 55 61  0  0  1  0  0  0  0  0999 V2000
    7.7331   -1.6941    0.0000 O   0  0  0  0  0  0  0  0  0  0  0  0
   10.4084    6.0580    0.0000 O   0  0  0  0  0  0  0  0  0  0  0  0
   10.1773   -1.0024    0.0000 O   0  0  0  0  0  0  0  0  0  0  0  0
    9.4869    7.5853    0.0000 O   0  0  0  0  0  0  0  0  0  0  0  0
    6.0010   -1.6941    0.0000 O   0  0  0  0  0  0  0  0  0  0  0  0
    7.7331   -3.6941    0.0000 O   0  0  0  0  0  0  0  0  0  0  0  0
    6.0010   -4.6941    0.0000 O   0  0  0  0  0  0  0  0  0  0  0  0
    4.2690   -3.6941    0.0000 O   0  0  0  0  0  0  0  0  0  0  0  0
    4.2690   -4.6941    0.0000 O   0  0  0  0  0  0  0  0  0  0  0  0
    6.0010   -6.6941    0.0000 O   0  0  0  0  0  0  0  0  0  0  0  0
    4.2690   -7.6941    0.0000 O   0  0  0  0  0  0  0  0  0  0  0  0
    2.5369   -6.6941    0.0000 O   0  0  0  0  0  0  0  0  0  0  0  0
    2.5369   -3.6941    0.0000 O   0  0  0  0  0  0  0  0  0  0  0  0
    8.6342    3.0061    0.0000 C   0  0  0  0  0  0  0  0  0  0  0  0
    7.7580    1.4612    0.0000 C   0  0  0  0  0  0  0  0  0  0  0  0
    7.7701    2.5027    0.0000 C   0  0  0  0  0  0  0  0  0  0  0  0
    8.6581    0.9369    0.0000 C   0  0  0  0  0  0  0  0  0  0  0  0
    8.6303    4.0061    0.0000 C   0  0  0  0  0  0  0  0  0  0  0  0
    9.5461    2.5027    0.0000 C   0  0  0  0  0  0  0  0  0  0  0  0
    8.6706   -0.1480    0.0000 C   0  0  0  0  0  0  0  0  0  0  0  0
    9.5581    1.4612    0.0000 C   0  0  0  0  0  0  0  0  0  0  0  0
    6.8081    0.9369    0.0000 C   0  0  0  0  0  0  0  0  0  0  0  0
    7.7624    4.5027    0.0000 C   0  0  0  0  0  0  0  0  0  0  0  0
    9.5383    4.5164    0.0000 C   0  0  0  0  0  0  0  0  0  0  0  0
    7.7331   -0.6941    0.0000 C   0  0  0  0  0  0  0  0  0  0  0  0
    8.6383    6.0754    0.0000 C   0  0  0  0  0  0  0  0  0  0  0  0
    6.7956   -0.1480    0.0000 C   0  0  0  0  0  0  0  0  0  0  0  0
    9.6183    3.1835    0.0000 C   0  0  0  0  0  0  0  0  0  0  0  0
    6.9021    2.9994    0.0000 C   0  0  0  0  0  0  0  0  0  0  0  0
    6.8939    1.9645    0.0000 C   0  0  0  0  0  0  0  0  0  0  0  0
    7.7423    5.5442    0.0000 C   0  0  0  0  0  0  0  0  0  0  0  0
    9.5424    5.5580    0.0000 C   0  0  0  0  0  0  0  0  0  0  0  0
    9.6158    3.8362    0.0000 C   0  0  0  0  0  0  0  0  0  0  0  0
    6.8983    3.9994    0.0000 C   0  0  0  0  0  0  0  0  0  0  0  0
    9.6706   -0.1403    0.0000 C   0  0  0  0  0  0  0  0  0  0  0  0
    9.1773   -1.0102    0.0000 C   0  0  0  0  0  0  0  0  0  0  0  0
    8.6424    7.1604    0.0000 C   0  0  0  0  0  0  0  0  0  0  0  0
    6.7884    6.0611    0.0000 C   0  0  0  0  0  0  0  0  0  0  0  0
    6.7674    7.1459    0.0000 C   0  0  0  0  0  0  0  0  0  0  0  0
    7.7007    7.6992    0.0000 C   0  0  0  0  0  0  0  0  0  0  0  0
    9.4985    6.5854    0.0000 C   0  0  0  0  0  0  0  0  0  0  0  0
    6.2542    8.0041    0.0000 C   0  0  0  0  0  0  0  0  0  0  0  0
    5.7676    7.1305    0.0000 C   0  0  0  0  0  0  0  0  0  0  0  0
    6.8671   -2.1941    0.0000 C   0  0  0  0  0  0  0  0  0  0  0  0
    6.8671   -3.1941    0.0000 C   0  0  0  0  0  0  0  0  0  0  0  0
    6.0010   -3.6941    0.0000 C   0  0  0  0  0  0  0  0  0  0  0  0
    5.1350   -2.1941    0.0000 C   0  0  0  0  0  0  0  0  0  0  0  0
    5.1350   -3.1941    0.0000 C   0  0  0  0  0  0  0  0  0  0  0  0
    4.2690   -1.6941    0.0000 C   0  0  0  0  0  0  0  0  0  0  0  0
    5.1350   -5.1941    0.0000 C   0  0  0  0  0  0  0  0  0  0  0  0
    5.1350   -6.1941    0.0000 C   0  0  0  0  0  0  0  0  0  0  0  0
    4.2690   -6.6941    0.0000 C   0  0  0  0  0  0  0  0  0  0  0  0
    3.4030   -5.1941    0.0000 C   0  0  0  0  0  0  0  0  0  0  0  0
    3.4030   -6.1941    0.0000 C   0  0  0  0  0  0  0  0  0  0  0  0
    2.5369   -4.6941    0.0000 C   0  0  0  0  0  0  0  0  0  0  0  0
 25  1  1  1
 44  1  1  1
 32  2  1  6
  3 35  1  0
  4 41  1  0
  5 44  1  0
  5 47  1  0
 45  6  1  6
 46  7  1  1
 50  7  1  1
 48  8  1  1
  9 50  1  0
  9 53  1  0
 51 10  1  6
 52 11  1  1
 54 12  1  6
 13 55  1  0
 14 16  1  0
 14 18  1  0
 14 19  1  0
 14 28  1  1
 15 16  1  0
 15 17  1  0
 15 22  1  0
 15 30  1  1
 16 29  1  1
 17 20  1  0
 17 21  1  1
 18 23  1  0
 18 24  1  0
 18 33  1  6
 19 21  1  0
 20 25  1  0
 20 35  1  0
 20 36  1  1
 22 27  1  0
 23 31  2  0
 23 34  1  0
 24 32  1  0
 25 27  1  0
 26 31  1  0
 26 32  1  0
 26 37  1  0
 26 41  1  1
 29 34  2  0
 31 38  1  0
 37 40  1  0
 38 39  1  0
 39 40  1  0
 39 42  1  0
 39 43  1  0
 44 45  1  0
 45 46  1  0
 46 48  1  0
 47 48  1  0
 47 49  1  1
 50 51  1  0
 51 52  1  0
 52 54  1  0
 53 54  1  0
 53 55  1  1
M  END
>  <PUBCHEM_COMPOUND_CID>  (1) 
21637642

>  <PUBCHEM_COMPOUND_CANONICALIZED>  (1) 
1

>  <PUBCHEM_CACTVS_COMPLEXITY>  (1) 
1500

>  <PUBCHEM_CACTVS_HBOND_ACCEPTOR>  (1) 
13

>  <PUBCHEM_CACTVS_HBOND_DONOR>  (1) 
9

>  <PUBCHEM_CACTVS_ROTATABLE_BOND>  (1) 
7

>  <PUBCHEM_CACTVS_SUBSKEYS>  (1) 
AAADcfB8PAAAAAAAAAAAAAAAAAAAAAAAAAA0aMECAAAAAADAAAAAGgAACAAADxSwgAMCCAAABgCAAiBCAAAAAAAgAAAICAAAAAgZEAIAAQAiQAAFwAAPgAPA4PwPgAAAAAAAAADAAAYAADAAAAAAAAAAAA==

>  <PUBCHEM_IUPAC_OPENEYE_NAME>  (1) 
(2S,3R,4S,5S,6R)-2-[(2R,3R,4S,5S,6R)-2-[[(3S,4R,4aR,6aR,6bS,8R,8aS,14aR,14bS)-8-hydroxy-4,8a-bis(hydroxymethyl)-4,6a,6b,11,11,14b-hexamethyl-1,2,3,4a,5,6,7,8,9,10,12,14a-dodecahydropicen-3-yl]oxy]-3,5-dihydroxy-6-methyl-tetrahydropyran-4-yl]oxy-6-(hydroxymethyl)tetrahydropyran-3,4,5-triol

>  <PUBCHEM_IUPAC_CAS_NAME>  (1) 
(2S,3R,4S,5S,6R)-2-[[(2R,3R,4S,5S,6R)-2-[[(3S,4R,4aR,6aR,6bS,8R,8aS,14aR,14bS)-8-hydroxy-4,8a-bis(hydroxymethyl)-4,6a,6b,11,11,14b-hexamethyl-1,2,3,4a,5,6,7,8,9,10,12,14a-dodecahydropicen-3-yl]oxy]-3,5-dihydroxy-6-methyl-4-oxanyl]oxy]-6-(hydroxymethyl)oxane-3,4,5-triol

>  <PUBCHEM_IUPAC_NAME_MARKUP>  (1) 
(2<I>S</I>,3<I>R</I>,4<I>S</I>,5<I>S</I>,6<I>R</I>)-2-[(2<I>R</I>,3<I>R</I>,4<I>S</I>,5<I>S</I>,6<I>R</I>)-2-[[(3<I>S</I>,4<I>R</I>,4<I>a</I><I>R</I>,6<I>a</I><I>R</I>,6<I>b</I><I>S</I>,8<I>R</I>,8<I>a</I><I>S</I>,14<I>a</I><I>R</I>,14<I>b</I><I>S</I>)-8-hydroxy-4,8<I>a</I>-bis(hydroxymethyl)-4,6<I>a</I>,6<I>b</I>,11,11,14<I>b</I>-hexamethyl-1,2,3,4<I>a</I>,5,6,7,8,9,10,12,14<I>a</I>-dodecahydropicen-3-yl]oxy]-3,5-dihydroxy-6-methyloxan-4-yl]oxy-6-(hydroxymethyl)oxane-3,4,5-triol

>  <PUBCHEM_IUPAC_NAME>  (1) 
(2S,3R,4S,5S,6R)-2-[(2R,3R,4S,5S,6R)-2-[[(3S,4R,4aR,6aR,6bS,8R,8aS,14aR,14bS)-8-hydroxy-4,8a-bis(hydroxymethyl)-4,6a,6b,11,11,14b-hexamethyl-1,2,3,4a,5,6,7,8,9,10,12,14a-dodecahydropicen-3-yl]oxy]-3,5-dihydroxy-6-methyloxan-4-yl]oxy-6-(hydroxymethyl)oxane-3,4,5-triol

>  <PUBCHEM_IUPAC_SYSTEMATIC_NAME>  (1) 
(2S,3R,4S,5S,6R)-2-[(2R,3R,4S,5S,6R)-2-[[(3S,4R,4aR,6aR,6bS,8R,8aS,14aR,14bS)-4,8a-bis(hydroxymethyl)-4,6a,6b,11,11,14b-hexamethyl-8-oxidanyl-1,2,3,4a,5,6,7,8,9,10,12,14a-dodecahydropicen-3-yl]oxy]-6-methyl-3,5-bis(oxidanyl)oxan-4-yl]oxy-6-(hydroxymethyl)oxane-3,4,5-triol

>  <PUBCHEM_IUPAC_TRADITIONAL_NAME>  (1) 
(2S,3R,4S,5S,6R)-2-[(2R,3R,4S,5S,6R)-2-[[(3S,4R,4aR,6aR,6bS,8R,8aS,14aR,14bS)-8-hydroxy-4,6a,6b,11,11,14b-hexamethyl-4,8a-dimethylol-1,2,3,4a,5,6,7,8,9,10,12,14a-dodecahydropicen-3-yl]oxy]-3,5-dihydroxy-6-methyl-tetrahydropyran-4-yl]oxy-6-methylol-tetrahydropyran-3,4,5-triol

>  <PUBCHEM_IUPAC_INCHI>  (1) 
InChI=1S/C42H68O13/c1-21-29(47)34(55-35-32(50)31(49)30(48)24(18-43)53-35)33(51)36(52-21)54-28-11-12-38(4)25(39(28,5)19-44)10-13-40(6)26(38)9-8-22-23-16-37(2,3)14-15-42(23,20-45)27(46)17-41(22,40)7/h8-9,21,24-36,43-51H,10-20H2,1-7H3/t21-,24-,25-,26-,27-,28+,29+,30-,31+,32-,33-,34+,35+,36+,38+,39+,40-,41-,42-/m1/s1

>  <PUBCHEM_IUPAC_INCHIKEY>  (1) 
WRYJYFCCMSVEPQ-ORAXXRKOSA-N

>  <PUBCHEM_XLOGP3_AA>  (1) 
2.5

>  <PUBCHEM_EXACT_MASS>  (1) 
780.46599222

>  <PUBCHEM_MOLECULAR_FORMULA>  (1) 
C42H68O13

>  <PUBCHEM_MOLECULAR_WEIGHT>  (1) 
781.0

>  <PUBCHEM_OPENEYE_CAN_SMILES>  (1) 
CC1C(C(C(C(O1)OC2CCC3(C(C2(C)CO)CCC4(C3C=CC5=C6CC(CCC6(C(CC54C)O)CO)(C)C)C)C)O)OC7C(C(C(C(O7)CO)O)O)O)O

>  <PUBCHEM_OPENEYE_ISO_SMILES>  (1) 
C[C@@H]1[C@@H]([C@@H]([C@H]([C@@H](O1)O[C@H]2CC[C@]3([C@H]([C@]2(C)CO)CC[C@@]4([C@@H]3C=CC5=C6CC(CC[C@@]6([C@@H](C[C@]54C)O)CO)(C)C)C)C)O)O[C@H]7[C@@H]([C@H]([C@@H]([C@H](O7)CO)O)O)O)O

>  <PUBCHEM_CACTVS_TPSA>  (1) 
219

>  <PUBCHEM_MONOISOTOPIC_WEIGHT>  (1) 
780.46599222

>  <PUBCHEM_TOTAL_CHARGE>  (1) 
0

>  <PUBCHEM_HEAVY_ATOM_COUNT>  (1) 
55

>  <PUBCHEM_ATOM_DEF_STEREO_COUNT>  (1) 
19

>  <PUBCHEM_ATOM_UDEF_STEREO_COUNT>  (1) 
0

>  <PUBCHEM_BOND_DEF_STEREO_COUNT>  (1) 
0

>  <PUBCHEM_BOND_UDEF_STEREO_COUNT>  (1) 
0

>  <PUBCHEM_ISOTOPIC_ATOM_COUNT>  (1) 
0

>  <PUBCHEM_COMPONENT_COUNT>  (1) 
1

>  <PUBCHEM_CACTVS_TAUTO_COUNT>  (1) 
-1

>  <PUBCHEM_COORDINATE_TYPE>  (1) 
1
5
255

>  <PUBCHEM_BONDANNOTATIONS>  (1) 
25  1  5
44  1  5
51  10  6
52  11  5
54  12  6
14  28  5
15  30  5
16  56  6
17  57  6
18  33  6
32  2  6
20  36  5
26  41  5
47  49  5
53  55  5
45  6  6
46  7  5
50  7  5
48  8  5

$$$$
