5321800
     RDKit          2D

 24 26  0  0  0  0  0  0  0  0999 V2000
    7.2241   -3.6297    0.0000 O   0  0  0  0  0  0  0  0  0  0  0  0
    3.7320   -3.5950    0.0000 O   0  0  0  0  0  0  0  0  0  0  0  0
    2.8660   -2.0950    0.0000 O   0  0  0  0  0  0  0  0  0  0  0  0
    2.8660    3.9050    0.0000 O   0  0  0  0  0  0  0  0  0  0  0  0
    8.1301   -3.1158    0.0000 C   0  0  0  0  0  0  0  0  0  0  0  0
    8.1301   -2.0742    0.0000 C   0  0  0  0  0  0  0  0  0  0  0  0
    6.3301   -3.0950    0.0000 C   0  0  0  0  0  0  0  0  0  0  0  0
    6.3301   -2.0950    0.0000 C   0  0  0  0  0  0  0  0  0  0  0  0
    9.1301   -3.1197    0.0000 C   0  0  0  0  0  0  0  0  0  0  0  0
    8.6268   -3.9838    0.0000 C   0  0  0  0  0  0  0  0  0  0  0  0
    7.2241   -1.5603    0.0000 C   0  0  0  0  0  0  0  0  0  0  0  0
    5.4641   -1.5950    0.0000 C   0  0  0  0  0  0  0  0  0  0  0  0
    5.4641   -3.5950    0.0000 C   0  0  0  0  0  0  0  0  0  0  0  0
    4.5981   -2.0950    0.0000 C   0  0  0  0  0  0  0  0  0  0  0  0
    4.5981   -3.0950    0.0000 C   0  0  0  0  0  0  0  0  0  0  0  0
    3.7320   -1.5950    0.0000 C   0  0  0  0  0  0  0  0  0  0  0  0
    3.7320   -0.5950    0.0000 C   0  0  0  0  0  0  0  0  0  0  0  0
    2.8660   -0.0950    0.0000 C   0  0  0  0  0  0  0  0  0  0  0  0
    2.8660    0.9050    0.0000 C   0  0  0  0  0  0  0  0  0  0  0  0
    2.0000    1.4050    0.0000 C   0  0  0  0  0  0  0  0  0  0  0  0
    3.7320    1.4050    0.0000 C   0  0  0  0  0  0  0  0  0  0  0  0
    2.0000    2.4050    0.0000 C   0  0  0  0  0  0  0  0  0  0  0  0
    3.7320    2.4050    0.0000 C   0  0  0  0  0  0  0  0  0  0  0  0
    2.8660    2.9050    0.0000 C   0  0  0  0  0  0  0  0  0  0  0  0
  1  5  1  0
  1  7  1  0
  2 15  1  0
  3 16  2  0
  4 24  1  0
  5  6  1  0
  5  9  1  0
  5 10  1  0
  6 11  2  0
  7  8  2  0
  7 13  1  0
  8 11  1  0
  8 12  1  0
 12 14  2  0
 13 15  2  0
 14 15  1  0
 14 16  1  0
 16 17  1  0
 17 18  2  0
 18 19  1  0
 19 20  2  0
 19 21  1  0
 20 22  1  0
 21 23  2  0
 22 24  2  0
 23 24  1  0
M  END
>  <PUBCHEM_COMPOUND_CID>  (1) 
5321800

>  <PUBCHEM_COMPOUND_CANONICALIZED>  (1) 
1

>  <PUBCHEM_CACTVS_COMPLEXITY>  (1) 
514

>  <PUBCHEM_CACTVS_HBOND_ACCEPTOR>  (1) 
4

>  <PUBCHEM_CACTVS_HBOND_DONOR>  (1) 
2

>  <PUBCHEM_CACTVS_ROTATABLE_BOND>  (1) 
3

>  <PUBCHEM_CACTVS_SUBSKEYS>  (1) 
AAADceB4OAAAAAAAAAAAAAAAAAAAAAAAAAAwYIAAAAAAAACBQAAAGgAACAAADESAmAAyBoAABgCIAqBSAAACCAAkIAAIiAEGCMgMJzaGNRqCeWCl4BUIuYeI7OzOIAACCAAIAABAAAQQABAAAAAAAAAAAA==

>  <PUBCHEM_IUPAC_OPENEYE_NAME>  (1) 
(E)-1-(7-hydroxy-2,2-dimethyl-chromen-6-yl)-3-(4-hydroxyphenyl)prop-2-en-1-one

>  <PUBCHEM_IUPAC_CAS_NAME>  (1) 
(E)-1-(7-hydroxy-2,2-dimethyl-1-benzopyran-6-yl)-3-(4-hydroxyphenyl)-2-propen-1-one

>  <PUBCHEM_IUPAC_NAME_MARKUP>  (1) 
(<I>E</I>)-1-(7-hydroxy-2,2-dimethylchromen-6-yl)-3-(4-hydroxyphenyl)prop-2-en-1-one

>  <PUBCHEM_IUPAC_NAME>  (1) 
(E)-1-(7-hydroxy-2,2-dimethylchromen-6-yl)-3-(4-hydroxyphenyl)prop-2-en-1-one

>  <PUBCHEM_IUPAC_SYSTEMATIC_NAME>  (1) 
(E)-1-(2,2-dimethyl-7-oxidanyl-chromen-6-yl)-3-(4-hydroxyphenyl)prop-2-en-1-one

>  <PUBCHEM_IUPAC_TRADITIONAL_NAME>  (1) 
(E)-1-(7-hydroxy-2,2-dimethyl-chromen-6-yl)-3-(4-hydroxyphenyl)prop-2-en-1-one

>  <PUBCHEM_IUPAC_INCHI>  (1) 
InChI=1S/C20H18O4/c1-20(2)10-9-14-11-16(18(23)12-19(14)24-20)17(22)8-5-13-3-6-15(21)7-4-13/h3-12,21,23H,1-2H3/b8-5+

>  <PUBCHEM_IUPAC_INCHIKEY>  (1) 
LYPURLGLYLCBSU-VMPITWQZSA-N

>  <PUBCHEM_XLOGP3_AA>  (1) 
4.5

>  <PUBCHEM_EXACT_MASS>  (1) 
322.12050905

>  <PUBCHEM_MOLECULAR_FORMULA>  (1) 
C20H18O4

>  <PUBCHEM_MOLECULAR_WEIGHT>  (1) 
322.4

>  <PUBCHEM_OPENEYE_CAN_SMILES>  (1) 
CC1(C=CC2=CC(=C(C=C2O1)O)C(=O)C=CC3=CC=C(C=C3)O)C

>  <PUBCHEM_OPENEYE_ISO_SMILES>  (1) 
CC1(C=CC2=CC(=C(C=C2O1)O)C(=O)/C=C/C3=CC=C(C=C3)O)C

>  <PUBCHEM_CACTVS_TPSA>  (1) 
66.8

>  <PUBCHEM_MONOISOTOPIC_WEIGHT>  (1) 
322.12050905

>  <PUBCHEM_TOTAL_CHARGE>  (1) 
0

>  <PUBCHEM_HEAVY_ATOM_COUNT>  (1) 
24

>  <PUBCHEM_ATOM_DEF_STEREO_COUNT>  (1) 
0

>  <PUBCHEM_ATOM_UDEF_STEREO_COUNT>  (1) 
0

>  <PUBCHEM_BOND_DEF_STEREO_COUNT>  (1) 
1

>  <PUBCHEM_BOND_UDEF_STEREO_COUNT>  (1) 
0

>  <PUBCHEM_ISOTOPIC_ATOM_COUNT>  (1) 
0

>  <PUBCHEM_COMPONENT_COUNT>  (1) 
1

>  <PUBCHEM_CACTVS_TAUTO_COUNT>  (1) 
-1

>  <PUBCHEM_COORDINATE_TYPE>  (1) 
1
5
255

>  <PUBCHEM_BONDANNOTATIONS>  (1) 
12  14  8
13  15  8
14  15  8
19  20  8
19  21  8
20  22  8
21  23  8
22  24  8
23  24  8
7  13  8
7  8  8
8  12  8

$$$$
