5274591
     RDKit          2D

 45 50  0  0  1  0  0  0  0  0999 V2000
    4.2690    1.9970    0.0000 O   0  0  0  0  0  0  0  0  0  0  0  0
    4.2690    3.9970    0.0000 O   0  0  0  0  0  0  0  0  0  0  0  0
    9.5163   -3.9971    0.0000 O   0  0  0  0  0  0  0  0  0  0  0  0
    9.4932   -1.9972    0.0000 O   0  0  0  0  0  0  0  0  0  0  0  0
    2.5369    0.9970    0.0000 O   0  0  0  0  0  0  0  0  0  0  0  0
   11.1902   -1.0775    0.0000 O   0  0  0  0  0  0  0  0  0  0  0  0
    8.6671    2.4762    0.0000 N   0  0  0  0  0  0  0  0  0  0  0  0
    5.1010   -2.5272    0.0000 N   0  0  0  0  0  0  0  0  0  0  0  0
    7.7610    1.9624    0.0000 C   0  0  0  0  0  0  0  0  0  0  0  0
    6.0010   -2.0030    0.0000 C   0  0  0  0  0  0  0  0  0  0  0  0
    6.8671    2.4970    0.0000 C   0  0  0  0  0  0  0  0  0  0  0  0
    6.9011   -2.5272    0.0000 C   0  0  0  0  0  0  0  0  0  0  0  0
    8.6671    3.5178    0.0000 C   0  0  0  0  0  0  0  0  0  0  0  0
    7.7610    4.0317    0.0000 C   0  0  0  0  0  0  0  0  0  0  0  0
    5.1130   -3.5688    0.0000 C   0  0  0  0  0  0  0  0  0  0  0  0
    6.8671    3.4970    0.0000 C   0  0  0  0  0  0  0  0  0  0  0  0
    6.0250   -4.0721    0.0000 C   0  0  0  0  0  0  0  0  0  0  0  0
    6.0010   -1.0030    0.0000 C   0  0  0  0  0  0  0  0  0  0  0  0
    6.9127   -3.5272    0.0000 C   0  0  0  0  0  0  0  0  0  0  0  0
    7.7494    0.9624    0.0000 C   0  0  0  0  0  0  0  0  0  0  0  0
    6.0010    1.9970    0.0000 C   0  0  0  0  0  0  0  0  0  0  0  0
    9.5312    1.9729    0.0000 C   0  0  0  0  0  0  0  0  0  0  0  0
    5.1350   -0.5030    0.0000 C   0  0  0  0  0  0  0  0  0  0  0  0
    4.2311   -2.0339    0.0000 C   0  0  0  0  0  0  0  0  0  0  0  0
    6.0010    3.9970    0.0000 C   0  0  0  0  0  0  0  0  0  0  0  0
    7.7613   -2.0173    0.0000 C   0  0  0  0  0  0  0  0  0  0  0  0
    8.6096    0.4525    0.0000 C   0  0  0  0  0  0  0  0  0  0  0  0
    7.7844   -4.0171    0.0000 C   0  0  0  0  0  0  0  0  0  0  0  0
    5.1350    2.4970    0.0000 C   0  0  0  0  0  0  0  0  0  0  0  0
    5.1350    3.4970    0.0000 C   0  0  0  0  0  0  0  0  0  0  0  0
    8.6330   -2.5072    0.0000 C   0  0  0  0  0  0  0  0  0  0  0  0
    8.6446   -3.5072    0.0000 C   0  0  0  0  0  0  0  0  0  0  0  0
    5.1350    0.4970    0.0000 C   0  0  0  0  0  0  0  0  0  0  0  0
    4.2690    0.9970    0.0000 C   0  0  0  0  0  0  0  0  0  0  0  0
    4.2690   -1.0030    0.0000 C   0  0  0  0  0  0  0  0  0  0  0  0
    9.4814    0.9424    0.0000 C   0  0  0  0  0  0  0  0  0  0  0  0
    8.5981   -0.5475    0.0000 C   0  0  0  0  0  0  0  0  0  0  0  0
    3.4030    0.4970    0.0000 C   0  0  0  0  0  0  0  0  0  0  0  0
    3.4030   -0.5030    0.0000 C   0  0  0  0  0  0  0  0  0  0  0  0
   10.3416    0.4324    0.0000 C   0  0  0  0  0  0  0  0  0  0  0  0
    9.4582   -1.0574    0.0000 C   0  0  0  0  0  0  0  0  0  0  0  0
   10.3300   -0.5675    0.0000 C   0  0  0  0  0  0  0  0  0  0  0  0
    4.2690    4.9970    0.0000 C   0  0  0  0  0  0  0  0  0  0  0  0
    9.5279   -4.9970    0.0000 C   0  0  0  0  0  0  0  0  0  0  0  0
   12.0619   -0.5875    0.0000 C   0  0  0  0  0  0  0  0  0  0  0  0
  1 29  1  0
  1 34  1  0
  2 30  1  0
  2 43  1  0
  3 32  1  0
  3 44  1  0
  4 31  1  0
  5 38  1  0
  6 42  1  0
  6 45  1  0
  7  9  1  0
  7 13  1  0
  7 22  1  0
  8 10  1  0
  8 15  1  0
  8 24  1  0
  9 11  1  0
  9 20  1  6
 10 12  1  0
 10 18  1  6
 11 16  2  0
 11 21  1  0
 12 19  2  0
 12 26  1  0
 13 14  1  0
 14 16  1  0
 15 17  1  0
 16 25  1  0
 17 19  1  0
 18 23  1  0
 19 28  1  0
 20 27  1  0
 21 29  2  0
 23 33  2  0
 23 35  1  0
 25 30  2  0
 26 31  2  0
 27 36  2  0
 27 37  1  0
 28 32  2  0
 29 30  1  0
 31 32  1  0
 33 34  1  0
 34 38  2  0
 35 39  2  0
 36 40  1  0
 37 41  2  0
 38 39  1  0
 40 42  2  0
 41 42  1  0
M  END
>  <PUBCHEM_COMPOUND_CID>  (1) 
5274591

>  <PUBCHEM_COMPOUND_CANONICALIZED>  (1) 
1

>  <PUBCHEM_CACTVS_COMPLEXITY>  (1) 
917

>  <PUBCHEM_CACTVS_HBOND_ACCEPTOR>  (1) 
8

>  <PUBCHEM_CACTVS_HBOND_DONOR>  (1) 
2

>  <PUBCHEM_CACTVS_ROTATABLE_BOND>  (1) 
9

>  <PUBCHEM_CACTVS_SUBSKEYS>  (1) 
AAADcfB/OAAAAAAAAAAAAAAAAAAAAAAAAAA8eMGCAAAAAACxVAAAHgAACAAADCzBmAYyBoMABgCAAiBCAACCCAAgIAAIiAAOjIgNJiKGsRuGeCvkwBGLuAew0PMOoAABAAAQQABAAAIAACCAAAAAAAAAAA==

>  <PUBCHEM_IUPAC_OPENEYE_NAME>  (1) 
(1R)-1-[[4-hydroxy-3-[[(1R)-6-methoxy-1-[(4-methoxyphenyl)methyl]-2-methyl-3,4-dihydro-1H-isoquinolin-7-yl]oxy]phenyl]methyl]-6-methoxy-2-methyl-3,4-dihydro-1H-isoquinolin-7-ol

>  <PUBCHEM_IUPAC_CAS_NAME>  (1) 
(1R)-1-[[4-hydroxy-3-[[(1R)-6-methoxy-1-[(4-methoxyphenyl)methyl]-2-methyl-3,4-dihydro-1H-isoquinolin-7-yl]oxy]phenyl]methyl]-6-methoxy-2-methyl-3,4-dihydro-1H-isoquinolin-7-ol

>  <PUBCHEM_IUPAC_NAME_MARKUP>  (1) 
(1<I>R</I>)-1-[[4-hydroxy-3-[[(1<I>R</I>)-6-methoxy-1-[(4-methoxyphenyl)methyl]-2-methyl-3,4-dihydro-1<I>H</I>-isoquinolin-7-yl]oxy]phenyl]methyl]-6-methoxy-2-methyl-3,4-dihydro-1<I>H</I>-isoquinolin-7-ol

>  <PUBCHEM_IUPAC_NAME>  (1) 
(1R)-1-[[4-hydroxy-3-[[(1R)-6-methoxy-1-[(4-methoxyphenyl)methyl]-2-methyl-3,4-dihydro-1H-isoquinolin-7-yl]oxy]phenyl]methyl]-6-methoxy-2-methyl-3,4-dihydro-1H-isoquinolin-7-ol

>  <PUBCHEM_IUPAC_SYSTEMATIC_NAME>  (1) 
(1R)-6-methoxy-1-[[3-[[(1R)-6-methoxy-1-[(4-methoxyphenyl)methyl]-2-methyl-3,4-dihydro-1H-isoquinolin-7-yl]oxy]-4-oxidanyl-phenyl]methyl]-2-methyl-3,4-dihydro-1H-isoquinolin-7-ol

>  <PUBCHEM_IUPAC_TRADITIONAL_NAME>  (1) 
(1R)-1-[4-hydroxy-3-[[(1R)-6-methoxy-2-methyl-1-p-anisyl-3,4-dihydro-1H-isoquinolin-7-yl]oxy]benzyl]-6-methoxy-2-methyl-3,4-dihydro-1H-isoquinolin-7-ol

>  <PUBCHEM_IUPAC_INCHI>  (1) 
InChI=1S/C37H42N2O6/c1-38-15-13-26-20-36(44-5)37(22-29(26)30(38)16-23-6-9-27(42-3)10-7-23)45-35-18-24(8-11-32(35)40)17-31-28-21-33(41)34(43-4)19-25(28)12-14-39(31)2/h6-11,18-22,30-31,40-41H,12-17H2,1-5H3/t30-,31-/m1/s1

>  <PUBCHEM_IUPAC_INCHIKEY>  (1) 
AJPXZTKPPINUKN-FIRIVFDPSA-N

>  <PUBCHEM_XLOGP3_AA>  (1) 
6.4

>  <PUBCHEM_EXACT_MASS>  (1) 
610.30428706

>  <PUBCHEM_MOLECULAR_FORMULA>  (1) 
C37H42N2O6

>  <PUBCHEM_MOLECULAR_WEIGHT>  (1) 
610.7

>  <PUBCHEM_OPENEYE_CAN_SMILES>  (1) 
CN1CCC2=CC(=C(C=C2C1CC3=CC=C(C=C3)OC)OC4=C(C=CC(=C4)CC5C6=CC(=C(C=C6CCN5C)OC)O)O)OC

>  <PUBCHEM_OPENEYE_ISO_SMILES>  (1) 
CN1CCC2=CC(=C(C=C2[C@H]1CC3=CC=C(C=C3)OC)OC4=C(C=CC(=C4)C[C@@H]5C6=CC(=C(C=C6CCN5C)OC)O)O)OC

>  <PUBCHEM_CACTVS_TPSA>  (1) 
83.9

>  <PUBCHEM_MONOISOTOPIC_WEIGHT>  (1) 
610.30428706

>  <PUBCHEM_TOTAL_CHARGE>  (1) 
0

>  <PUBCHEM_HEAVY_ATOM_COUNT>  (1) 
45

>  <PUBCHEM_ATOM_DEF_STEREO_COUNT>  (1) 
2

>  <PUBCHEM_ATOM_UDEF_STEREO_COUNT>  (1) 
0

>  <PUBCHEM_BOND_DEF_STEREO_COUNT>  (1) 
0

>  <PUBCHEM_BOND_UDEF_STEREO_COUNT>  (1) 
0

>  <PUBCHEM_ISOTOPIC_ATOM_COUNT>  (1) 
0

>  <PUBCHEM_COMPONENT_COUNT>  (1) 
1

>  <PUBCHEM_CACTVS_TAUTO_COUNT>  (1) 
-1

>  <PUBCHEM_COORDINATE_TYPE>  (1) 
1
5
255

>  <PUBCHEM_BONDANNOTATIONS>  (1) 
10  18  6
11  16  8
11  21  8
12  19  8
12  26  8
16  25  8
19  28  8
21  29  8
23  33  8
23  35  8
25  30  8
26  31  8
27  36  8
27  37  8
28  32  8
29  30  8
31  32  8
33  34  8
34  38  8
35  39  8
36  40  8
37  41  8
38  39  8
40  42  8
41  42  8
9  20  6

$$$$
