MCSJ51_0030
  -OEChem-07172407062D

 63 65  0     1  0  0  0  0  0999 V2000
   11.5942   -0.2704    0.0000 O   0  0  0  0  0  0  0  0  0  0  0  0
   13.3262    1.7296    0.0000 O   0  0  0  0  0  0  0  0  0  0  0  0
   11.5942    2.7296    0.0000 O   0  0  0  0  0  0  0  0  0  0  0  0
    9.8458    2.7642    0.0000 O   0  0  0  0  0  0  0  0  0  0  0  0
    8.0641   -0.2945    0.0000 O   0  0  0  0  0  0  0  0  0  0  0  0
   15.9243   -1.7704    0.0000 O   0  0  0  0  0  0  0  0  0  0  0  0
   14.1923   -2.7704    0.0000 O   0  0  0  0  0  0  0  0  0  0  0  0
   12.4602    0.2296    0.0000 C   0  0  1  0  0  0  0  0  0  0  0  0
   12.4602    1.2296    0.0000 C   0  0  2  0  0  0  0  0  0  0  0  0
   10.7282    1.2296    0.0000 C   0  0  0  0  0  0  0  0  0  0  0  0
   11.5942    1.7296    0.0000 C   0  0  0  0  0  0  0  0  0  0  0  0
   10.7282    0.2296    0.0000 C   0  0  0  0  0  0  0  0  0  0  0  0
   13.3262   -0.2704    0.0000 C   0  0  0  0  0  0  0  0  0  0  0  0
    8.9282    1.2504    0.0000 C   0  0  0  0  0  0  0  0  0  0  0  0
    9.8342    1.7643    0.0000 C   0  0  0  0  0  0  0  0  0  0  0  0
    9.8342   -0.3051    0.0000 C   0  0  0  0  0  0  0  0  0  0  0  0
    8.0641    1.7538    0.0000 C   0  0  0  0  0  0  0  0  0  0  0  0
    8.9282    0.2088    0.0000 C   0  0  0  0  0  0  0  0  0  0  0  0
   13.3262   -1.2704    0.0000 C   0  0  0  0  0  0  0  0  0  0  0  0
   14.1923    0.2296    0.0000 C   0  0  0  0  0  0  0  0  0  0  0  0
    7.1961    1.2571    0.0000 C   0  0  0  0  0  0  0  0  0  0  0  0
    6.3320    1.7604    0.0000 C   0  0  0  0  0  0  0  0  0  0  0  0
    5.4641    1.2638    0.0000 C   0  0  0  0  0  0  0  0  0  0  0  0
   14.1923   -1.7704    0.0000 C   0  0  0  0  0  0  0  0  0  0  0  0
   15.0583   -0.2704    0.0000 C   0  0  0  0  0  0  0  0  0  0  0  0
   15.0583   -1.2704    0.0000 C   0  0  0  0  0  0  0  0  0  0  0  0
    4.6000    1.7671    0.0000 C   0  0  0  0  0  0  0  0  0  0  0  0
    6.3359    2.7604    0.0000 C   0  0  0  0  0  0  0  0  0  0  0  0
    3.7320    1.2704    0.0000 C   0  0  0  0  0  0  0  0  0  0  0  0
    2.8680    1.7738    0.0000 C   0  0  0  0  0  0  0  0  0  0  0  0
    2.0000    1.2771    0.0000 C   0  0  0  0  0  0  0  0  0  0  0  0
    2.8718    2.7738    0.0000 C   0  0  0  0  0  0  0  0  0  0  0  0
   16.7903   -1.2704    0.0000 C   0  0  0  0  0  0  0  0  0  0  0  0
   12.4602   -0.3904    0.0000 H   0  0  0  0  0  0  0  0  0  0  0  0
   12.9971    0.9196    0.0000 H   0  0  0  0  0  0  0  0  0  0  0  0
    9.8414   -0.9250    0.0000 H   0  0  0  0  0  0  0  0  0  0  0  0
    8.4644    2.2272    0.0000 H   0  0  0  0  0  0  0  0  0  0  0  0
    7.6674    2.2302    0.0000 H   0  0  0  0  0  0  0  0  0  0  0  0
   12.7893   -1.5804    0.0000 H   0  0  0  0  0  0  0  0  0  0  0  0
   14.1923    0.8496    0.0000 H   0  0  0  0  0  0  0  0  0  0  0  0
   13.3262    2.3496    0.0000 H   0  0  0  0  0  0  0  0  0  0  0  0
    7.1937    0.6371    0.0000 H   0  0  0  0  0  0  0  0  0  0  0  0
    5.0637    0.7904    0.0000 H   0  0  0  0  0  0  0  0  0  0  0  0
    5.8608    0.7873    0.0000 H   0  0  0  0  0  0  0  0  0  0  0  0
   15.5952    0.0396    0.0000 H   0  0  0  0  0  0  0  0  0  0  0  0
    5.0003    2.2405    0.0000 H   0  0  0  0  0  0  0  0  0  0  0  0
    4.2033    2.2436    0.0000 H   0  0  0  0  0  0  0  0  0  0  0  0
    9.3125    3.0804    0.0000 H   0  0  0  0  0  0  0  0  0  0  0  0
    6.9559    2.7580    0.0000 H   0  0  0  0  0  0  0  0  0  0  0  0
    6.3383    3.3804    0.0000 H   0  0  0  0  0  0  0  0  0  0  0  0
    5.7159    2.7628    0.0000 H   0  0  0  0  0  0  0  0  0  0  0  0
    8.0664   -0.9145    0.0000 H   0  0  0  0  0  0  0  0  0  0  0  0
    3.7296    0.6505    0.0000 H   0  0  0  0  0  0  0  0  0  0  0  0
   14.7292   -3.0804    0.0000 H   0  0  0  0  0  0  0  0  0  0  0  0
    1.6921    1.8153    0.0000 H   0  0  0  0  0  0  0  0  0  0  0  0
    1.4619    0.9692    0.0000 H   0  0  0  0  0  0  0  0  0  0  0  0
    2.3079    0.7390    0.0000 H   0  0  0  0  0  0  0  0  0  0  0  0
    3.4918    2.7714    0.0000 H   0  0  0  0  0  0  0  0  0  0  0  0
    2.8742    3.3938    0.0000 H   0  0  0  0  0  0  0  0  0  0  0  0
    2.2518    2.7762    0.0000 H   0  0  0  0  0  0  0  0  0  0  0  0
   17.1003   -1.8073    0.0000 H   0  0  0  0  0  0  0  0  0  0  0  0
   17.3273   -0.9604    0.0000 H   0  0  0  0  0  0  0  0  0  0  0  0
   16.4803   -0.7335    0.0000 H   0  0  0  0  0  0  0  0  0  0  0  0
  1  8  1  0  0  0  0
  1 12  1  0  0  0  0
  9  2  1  6  0  0  0
  2 41  1  0  0  0  0
  3 11  2  0  0  0  0
  4 15  1  0  0  0  0
  4 48  1  0  0  0  0
  5 18  1  0  0  0  0
  5 52  1  0  0  0  0
  6 26  1  0  0  0  0
  6 33  1  0  0  0  0
  7 24  1  0  0  0  0
  7 54  1  0  0  0  0
  8  9  1  0  0  0  0
  8 13  1  1  0  0  0
  8 34  1  0  0  0  0
  9 11  1  0  0  0  0
  9 35  1  0  0  0  0
 10 11  1  0  0  0  0
 10 12  2  0  0  0  0
 10 15  1  0  0  0  0
 12 16  1  0  0  0  0
 13 19  2  0  0  0  0
 13 20  1  0  0  0  0
 14 15  2  0  0  0  0
 14 17  1  0  0  0  0
 14 18  1  0  0  0  0
 16 18  2  0  0  0  0
 16 36  1  0  0  0  0
 17 21  1  0  0  0  0
 17 37  1  0  0  0  0
 17 38  1  0  0  0  0
 19 24  1  0  0  0  0
 19 39  1  0  0  0  0
 20 25  2  0  0  0  0
 20 40  1  0  0  0  0
 21 22  2  0  0  0  0
 21 42  1  0  0  0  0
 22 23  1  0  0  0  0
 22 28  1  0  0  0  0
 23 27  1  0  0  0  0
 23 43  1  0  0  0  0
 23 44  1  0  0  0  0
 24 26  2  0  0  0  0
 25 26  1  0  0  0  0
 25 45  1  0  0  0  0
 27 29  1  0  0  0  0
 27 46  1  0  0  0  0
 27 47  1  0  0  0  0
 28 49  1  0  0  0  0
 28 50  1  0  0  0  0
 28 51  1  0  0  0  0
 29 30  2  0  0  0  0
 29 53  1  0  0  0  0
 30 31  1  0  0  0  0
 30 32  1  0  0  0  0
 31 55  1  0  0  0  0
 31 56  1  0  0  0  0
 31 57  1  0  0  0  0
 32 58  1  0  0  0  0
 32 59  1  0  0  0  0
 32 60  1  0  0  0  0
 33 61  1  0  0  0  0
 33 62  1  0  0  0  0
 33 63  1  0  0  0  0
M  END
> <PUBCHEM_COMPOUND_CID>
24854124

> <PUBCHEM_COMPOUND_CANONICALIZED>
1

> <PUBCHEM_CACTVS_COMPLEXITY>
728

> <PUBCHEM_CACTVS_HBOND_ACCEPTOR>
7

> <PUBCHEM_CACTVS_HBOND_DONOR>
4

> <PUBCHEM_CACTVS_ROTATABLE_BOND>
7

> <PUBCHEM_CACTVS_SUBSKEYS>
AAADceB4OAAAAAAAAAAAAAAAAAAAAAAAAAA0YIAAAAAAAACRQAAAGgAACAAADBSgmAIyBoAABgCIAqBSAAICCAAkIAAIiAFGiMgNNzaGNRqCeWOl4BULuQfI7PzOIAADCAAIQABAAAYQABCAAAAAAAAAAA==

> <PUBCHEM_IUPAC_OPENEYE_NAME>
(2R,3R)-6-[(2E)-3,7-dimethylocta-2,6-dienyl]-3,5,7-trihydroxy-2-(3-hydroxy-4-methoxy-phenyl)chroman-4-one

> <PUBCHEM_IUPAC_CAS_NAME>
(2R,3R)-6-[(2E)-3,7-dimethylocta-2,6-dienyl]-3,5,7-trihydroxy-2-(3-hydroxy-4-methoxyphenyl)-3,4-dihydro-2H-1-benzopyran-4-one

> <PUBCHEM_IUPAC_NAME_MARKUP>
(2<I>R</I>,3<I>R</I>)-6-[(2<I>E</I>)-3,7-dimethylocta-2,6-dienyl]-3,5,7-trihydroxy-2-(3-hydroxy-4-methoxyphenyl)-2,3-dihydrochromen-4-one

> <PUBCHEM_IUPAC_NAME>
(2R,3R)-6-[(2E)-3,7-dimethylocta-2,6-dienyl]-3,5,7-trihydroxy-2-(3-hydroxy-4-methoxyphenyl)-2,3-dihydrochromen-4-one

> <PUBCHEM_IUPAC_SYSTEMATIC_NAME>
(2R,3R)-6-[(2E)-3,7-dimethylocta-2,6-dienyl]-2-(4-methoxy-3-oxidanyl-phenyl)-3,5,7-tris(oxidanyl)-2,3-dihydrochromen-4-one

> <PUBCHEM_IUPAC_TRADITIONAL_NAME>
(2R,3R)-6-[(2E)-3,7-dimethylocta-2,6-dienyl]-3,5,7-trihydroxy-2-(3-hydroxy-4-methoxy-phenyl)chroman-4-one

> <PUBCHEM_IUPAC_INCHI>
InChI=1S/C26H30O7/c1-14(2)6-5-7-15(3)8-10-17-18(27)13-21-22(23(17)29)24(30)25(31)26(33-21)16-9-11-20(32-4)19(28)12-16/h6,8-9,11-13,25-29,31H,5,7,10H2,1-4H3/b15-8+/t25-,26+/m0/s1

> <PUBCHEM_IUPAC_INCHIKEY>
HXSRAKGAZOSYEH-WFQOKMFZSA-N

> <PUBCHEM_XLOGP3_AA>
5.6

> <PUBCHEM_EXACT_MASS>
454.19915329

> <PUBCHEM_MOLECULAR_FORMULA>
C26H30O7

> <PUBCHEM_MOLECULAR_WEIGHT>
454.5

> <PUBCHEM_OPENEYE_CAN_SMILES>
CC(=CCCC(=CCC1=C(C2=C(C=C1O)OC(C(C2=O)O)C3=CC(=C(C=C3)OC)O)O)C)C

> <PUBCHEM_OPENEYE_ISO_SMILES>
CC(=CCC/C(=C/CC1=C(C2=C(C=C1O)O[C@@H]([C@H](C2=O)O)C3=CC(=C(C=C3)OC)O)O)/C)C

> <PUBCHEM_CACTVS_TPSA>
116

> <PUBCHEM_MONOISOTOPIC_WEIGHT>
454.19915329

> <PUBCHEM_TOTAL_CHARGE>
0

> <PUBCHEM_HEAVY_ATOM_COUNT>
33

> <PUBCHEM_ATOM_DEF_STEREO_COUNT>
2

> <PUBCHEM_ATOM_UDEF_STEREO_COUNT>
0

> <PUBCHEM_BOND_DEF_STEREO_COUNT>
1

> <PUBCHEM_BOND_UDEF_STEREO_COUNT>
0

> <PUBCHEM_ISOTOPIC_ATOM_COUNT>
0

> <PUBCHEM_COMPONENT_COUNT>
1

> <PUBCHEM_CACTVS_TAUTO_COUNT>
-1

> <PUBCHEM_COORDINATE_TYPE>
1
5
255

> <PUBCHEM_BONDANNOTATIONS>
10  12  8
10  15  8
12  16  8
13  19  8
13  20  8
14  15  8
14  18  8
16  18  8
19  24  8
9  2  6
20  25  8
24  26  8
25  26  8
8  13  5

$$$$
