5281773
     RDKit          2D

 44 47  0  0  1  0  0  0  0  0999 V2000
    9.4651   -0.0950    0.0000 O   0  0  0  0  0  0  0  0  0  0  0  0
    7.7331    0.9050    0.0000 O   0  0  0  0  0  0  0  0  0  0  0  0
    6.8671    2.4050    0.0000 O   0  0  0  0  0  0  0  0  0  0  0  0
    7.7331   -2.0950    0.0000 O   0  0  0  0  0  0  0  0  0  0  0  0
   11.1972   -0.0950    0.0000 O   0  0  0  0  0  0  0  0  0  0  0  0
    9.4651   -3.0950    0.0000 O   0  0  0  0  0  0  0  0  0  0  0  0
   11.1972   -2.0950    0.0000 O   0  0  0  0  0  0  0  0  0  0  0  0
    6.0010   -0.0950    0.0000 O   0  0  0  0  0  0  0  0  0  0  0  0
    4.2690    0.9050    0.0000 O   0  0  0  0  0  0  0  0  0  0  0  0
    4.2690    2.9050    0.0000 O   0  0  0  0  0  0  0  0  0  0  0  0
    6.8671   -0.5950    0.0000 O   0  0  0  0  0  0  0  0  0  0  0  0
   13.7953    4.4050    0.0000 O   0  0  0  0  0  0  0  0  0  0  0  0
   12.0632    5.4050    0.0000 O   0  0  0  0  0  0  0  0  0  0  0  0
    2.5369   -3.0950    0.0000 O   0  0  0  0  0  0  0  0  0  0  0  0
    2.5369   -5.0950    0.0000 O   0  0  0  0  0  0  0  0  0  0  0  0
    8.5991   -0.5950    0.0000 C   0  0  0  0  0  0  0  0  0  0  0  0
    8.5991   -1.5950    0.0000 C   0  0  0  0  0  0  0  0  0  0  0  0
    9.4651   -2.0950    0.0000 C   0  0  0  0  0  0  0  0  0  0  0  0
   10.3312   -1.5950    0.0000 C   0  0  0  0  0  0  0  0  0  0  0  0
   10.3312   -0.5950    0.0000 C   0  0  0  0  0  0  0  0  0  0  0  0
    6.8671    1.4050    0.0000 C   0  0  0  0  0  0  0  0  0  0  0  0
    6.0010    0.9050    0.0000 C   0  0  0  0  0  0  0  0  0  0  0  0
    5.1350    1.4050    0.0000 C   0  0  0  0  0  0  0  0  0  0  0  0
    7.7331   -0.0950    0.0000 C   0  0  0  0  0  0  0  0  0  0  0  0
    5.1350    2.4050    0.0000 C   0  0  0  0  0  0  0  0  0  0  0  0
    6.0010    2.9050    0.0000 C   0  0  0  0  0  0  0  0  0  0  0  0
    6.0010    3.9050    0.0000 C   0  0  0  0  0  0  0  0  0  0  0  0
   11.1972    0.9050    0.0000 C   0  0  0  0  0  0  0  0  0  0  0  0
    6.8671   -1.5950    0.0000 C   0  0  0  0  0  0  0  0  0  0  0  0
   12.0632    1.4050    0.0000 C   0  0  0  0  0  0  0  0  0  0  0  0
   12.0632    2.4050    0.0000 C   0  0  0  0  0  0  0  0  0  0  0  0
    6.0010   -2.0950    0.0000 C   0  0  0  0  0  0  0  0  0  0  0  0
   12.9292    2.9050    0.0000 C   0  0  0  0  0  0  0  0  0  0  0  0
   11.1972    2.9050    0.0000 C   0  0  0  0  0  0  0  0  0  0  0  0
    6.0010   -3.0950    0.0000 C   0  0  0  0  0  0  0  0  0  0  0  0
   12.9292    3.9050    0.0000 C   0  0  0  0  0  0  0  0  0  0  0  0
   11.1972    3.9050    0.0000 C   0  0  0  0  0  0  0  0  0  0  0  0
    5.1350   -3.5950    0.0000 C   0  0  0  0  0  0  0  0  0  0  0  0
   12.0632    4.4050    0.0000 C   0  0  0  0  0  0  0  0  0  0  0  0
    4.2690   -3.0950    0.0000 C   0  0  0  0  0  0  0  0  0  0  0  0
    5.1350   -4.5950    0.0000 C   0  0  0  0  0  0  0  0  0  0  0  0
    3.4030   -3.5950    0.0000 C   0  0  0  0  0  0  0  0  0  0  0  0
    4.2690   -5.0950    0.0000 C   0  0  0  0  0  0  0  0  0  0  0  0
    3.4030   -4.5950    0.0000 C   0  0  0  0  0  0  0  0  0  0  0  0
  1 16  1  0
  1 20  1  0
 21  2  1  1
  2 24  1  0
  3 21  1  0
  3 26  1  0
 17  4  1  6
  4 29  1  0
 20  5  1  1
  5 28  1  0
 18  6  1  1
 19  7  1  6
 22  8  1  6
 23  9  1  6
 25 10  1  1
 11 29  2  0
 12 36  1  0
 13 39  1  0
 14 42  1  0
 15 44  1  0
 16 17  1  0
 16 24  1  1
 17 18  1  0
 18 19  1  0
 19 20  1  0
 21 22  1  0
 22 23  1  0
 23 25  1  0
 25 26  1  0
 26 27  1  6
 28 30  1  0
 29 32  1  0
 30 31  1  0
 31 33  2  0
 31 34  1  0
 32 35  2  0
 33 36  1  0
 34 37  2  0
 35 38  1  0
 36 39  2  0
 37 39  1  0
 38 40  2  0
 38 41  1  0
 40 42  1  0
 41 43  2  0
 42 44  2  0
 43 44  1  0
M  END
>  <PUBCHEM_COMPOUND_CID>  (1) 
5281773

>  <PUBCHEM_COMPOUND_CANONICALIZED>  (1) 
1

>  <PUBCHEM_CACTVS_COMPLEXITY>  (1) 
936

>  <PUBCHEM_CACTVS_HBOND_ACCEPTOR>  (1) 
15

>  <PUBCHEM_CACTVS_HBOND_DONOR>  (1) 
9

>  <PUBCHEM_CACTVS_ROTATABLE_BOND>  (1) 
11

>  <PUBCHEM_CACTVS_SUBSKEYS>  (1) 
AAADcfB4PAAAAAAAAAAAAAAAAAAAAAAAAAA0aIEAAAAAAAABQAAAGgAACAAADBSwmAMyDoAABgCIAiDSCAACAAAgIAAIiAAGiMgZNiKCMRKicAElwBEPuYfA4LwOIAABAAAAQABAAAIAAACAAAAAAAAAAA==

>  <PUBCHEM_IUPAC_OPENEYE_NAME>  (1) 
[(2R,3S,4R,5R,6R)-6-[2-(3,4-dihydroxyphenyl)ethoxy]-4,5-dihydroxy-2-[[(2R,3R,4R,5R,6S)-3,4,5-trihydroxy-6-methyl-tetrahydropyran-2-yl]oxymethyl]tetrahydropyran-3-yl] (E)-3-(3,4-dihydroxyphenyl)prop-2-enoate

>  <PUBCHEM_IUPAC_CAS_NAME>  (1) 
(E)-3-(3,4-dihydroxyphenyl)-2-propenoic acid [(2R,3S,4R,5R,6R)-6-[2-(3,4-dihydroxyphenyl)ethoxy]-4,5-dihydroxy-2-[[(2R,3R,4R,5R,6S)-3,4,5-trihydroxy-6-methyl-2-oxanyl]oxymethyl]-3-oxanyl] ester

>  <PUBCHEM_IUPAC_NAME_MARKUP>  (1) 
[(2<I>R</I>,3<I>S</I>,4<I>R</I>,5<I>R</I>,6<I>R</I>)-6-[2-(3,4-dihydroxyphenyl)ethoxy]-4,5-dihydroxy-2-[[(2<I>R</I>,3<I>R</I>,4<I>R</I>,5<I>R</I>,6<I>S</I>)-3,4,5-trihydroxy-6-methyloxan-2-yl]oxymethyl]oxan-3-yl] (<I>E</I>)-3-(3,4-dihydroxyphenyl)prop-2-enoate

>  <PUBCHEM_IUPAC_NAME>  (1) 
[(2R,3S,4R,5R,6R)-6-[2-(3,4-dihydroxyphenyl)ethoxy]-4,5-dihydroxy-2-[[(2R,3R,4R,5R,6S)-3,4,5-trihydroxy-6-methyloxan-2-yl]oxymethyl]oxan-3-yl] (E)-3-(3,4-dihydroxyphenyl)prop-2-enoate

>  <PUBCHEM_IUPAC_SYSTEMATIC_NAME>  (1) 
[(2R,3S,4R,5R,6R)-6-[2-[3,4-bis(oxidanyl)phenyl]ethoxy]-2-[[(2R,3R,4R,5R,6S)-6-methyl-3,4,5-tris(oxidanyl)oxan-2-yl]oxymethyl]-4,5-bis(oxidanyl)oxan-3-yl] (E)-3-[3,4-bis(oxidanyl)phenyl]prop-2-enoate

>  <PUBCHEM_IUPAC_TRADITIONAL_NAME>  (1) 
(E)-3-(3,4-dihydroxyphenyl)acrylic acid [(2R,3S,4R,5R,6R)-6-[2-(3,4-dihydroxyphenyl)ethoxy]-4,5-dihydroxy-2-[[(2R,3R,4R,5R,6S)-3,4,5-trihydroxy-6-methyl-tetrahydropyran-2-yl]oxymethyl]tetrahydropyran-3-yl] ester

>  <PUBCHEM_IUPAC_INCHI>  (1) 
InChI=1S/C29H36O15/c1-13-22(35)23(36)25(38)29(42-13)41-12-20-27(44-21(34)7-4-14-2-5-16(30)18(32)10-14)24(37)26(39)28(43-20)40-9-8-15-3-6-17(31)19(33)11-15/h2-7,10-11,13,20,22-33,35-39H,8-9,12H2,1H3/b7-4+/t13-,20+,22-,23+,24+,25+,26+,27+,28+,29+/m0/s1

>  <PUBCHEM_IUPAC_INCHIKEY>  (1) 
DTOUWTJYUCZJQD-UJERWXFOSA-N

>  <PUBCHEM_XLOGP3_AA>  (1) 
-0.5

>  <PUBCHEM_EXACT_MASS>  (1) 
624.20542044

>  <PUBCHEM_MOLECULAR_FORMULA>  (1) 
C29H36O15

>  <PUBCHEM_MOLECULAR_WEIGHT>  (1) 
624.6

>  <PUBCHEM_OPENEYE_CAN_SMILES>  (1) 
CC1C(C(C(C(O1)OCC2C(C(C(C(O2)OCCC3=CC(=C(C=C3)O)O)O)O)OC(=O)C=CC4=CC(=C(C=C4)O)O)O)O)O

>  <PUBCHEM_OPENEYE_ISO_SMILES>  (1) 
C[C@H]1[C@@H]([C@H]([C@H]([C@@H](O1)OC[C@@H]2[C@H]([C@@H]([C@H]([C@@H](O2)OCCC3=CC(=C(C=C3)O)O)O)O)OC(=O)/C=C/C4=CC(=C(C=C4)O)O)O)O)O

>  <PUBCHEM_CACTVS_TPSA>  (1) 
245

>  <PUBCHEM_MONOISOTOPIC_WEIGHT>  (1) 
624.20542044

>  <PUBCHEM_TOTAL_CHARGE>  (1) 
0

>  <PUBCHEM_HEAVY_ATOM_COUNT>  (1) 
44

>  <PUBCHEM_ATOM_DEF_STEREO_COUNT>  (1) 
10

>  <PUBCHEM_ATOM_UDEF_STEREO_COUNT>  (1) 
0

>  <PUBCHEM_BOND_DEF_STEREO_COUNT>  (1) 
1

>  <PUBCHEM_BOND_UDEF_STEREO_COUNT>  (1) 
0

>  <PUBCHEM_ISOTOPIC_ATOM_COUNT>  (1) 
0

>  <PUBCHEM_COMPONENT_COUNT>  (1) 
1

>  <PUBCHEM_CACTVS_TAUTO_COUNT>  (1) 
-1

>  <PUBCHEM_COORDINATE_TYPE>  (1) 
1
5
255

>  <PUBCHEM_BONDANNOTATIONS>  (1) 
25  10  5
16  24  5
21  2  5
26  27  6
31  33  8
31  34  8
33  36  8
34  37  8
36  39  8
37  39  8
38  40  8
38  41  8
17  4  6
40  42  8
41  43  8
42  44  8
43  44  8
20  5  5
18  6  5
19  7  6
22  8  6
23  9  6

$$$$
