64971
     RDKit          2D

 33 37  0  0  1  0  0  0  0  0999 V2000
    2.5357   -2.6896    0.0000 O   0  0  0  0  0  0  0  0  0  0  0  0
   11.4608    0.3969    0.0000 O   0  0  0  0  0  0  0  0  0  0  0  0
   10.6064   -1.1097    0.0000 O   0  0  0  0  0  0  0  0  0  0  0  0
    7.0628   -1.1372    0.0000 C   0  0  0  0  0  0  0  0  0  0  0  0
    7.9288   -0.6372    0.0000 C   0  0  0  0  0  0  0  0  0  0  0  0
    6.1968   -0.6372    0.0000 C   0  0  0  0  0  0  0  0  0  0  0  0
    7.9288    0.3628    0.0000 C   0  0  0  0  0  0  0  0  0  0  0  0
    5.2868   -1.1441    0.0000 C   0  0  0  0  0  0  0  0  0  0  0  0
    8.8228    0.8974    0.0000 C   0  0  0  0  0  0  0  0  0  0  0  0
    5.2787   -2.1857    0.0000 C   0  0  0  0  0  0  0  0  0  0  0  0
    9.7288    0.3836    0.0000 C   0  0  0  0  0  0  0  0  0  0  0  0
    7.0789   -2.1788    0.0000 C   0  0  0  0  0  0  0  0  0  0  0  0
    6.1968    0.3628    0.0000 C   0  0  0  0  0  0  0  0  0  0  0  0
    8.8228   -1.1719    0.0000 C   0  0  0  0  0  0  0  0  0  0  0  0
    7.0628    0.8628    0.0000 C   0  0  0  0  0  0  0  0  0  0  0  0
    6.1808   -2.7065    0.0000 C   0  0  0  0  0  0  0  0  0  0  0  0
    9.7288   -0.6581    0.0000 C   0  0  0  0  0  0  0  0  0  0  0  0
    4.3433   -2.7354    0.0000 C   0  0  0  0  0  0  0  0  0  0  0  0
    9.0329    1.9113    0.0000 C   0  0  0  0  0  0  0  0  0  0  0  0
    4.3599   -0.5800    0.0000 C   0  0  0  0  0  0  0  0  0  0  0  0
    7.7056   -1.9033    0.0000 C   0  0  0  0  0  0  0  0  0  0  0  0
    8.2709   -1.5769    0.0000 C   0  0  0  0  0  0  0  0  0  0  0  0
   10.4911    1.0843    0.0000 C   0  0  0  0  0  0  0  0  0  0  0  0
   10.0619    2.0266    0.0000 C   0  0  0  0  0  0  0  0  0  0  0  0
    5.2945   -0.1441    0.0000 C   0  0  0  0  0  0  0  0  0  0  0  0
    3.4037   -2.1929    0.0000 C   0  0  0  0  0  0  0  0  0  0  0  0
    3.4120   -1.1080    0.0000 C   0  0  0  0  0  0  0  0  0  0  0  0
   10.5987   -0.1097    0.0000 C   0  0  0  0  0  0  0  0  0  0  0  0
    3.8467   -3.6034    0.0000 C   0  0  0  0  0  0  0  0  0  0  0  0
    4.8466   -3.5995    0.0000 C   0  0  0  0  0  0  0  0  0  0  0  0
    8.3593    2.6505    0.0000 C   0  0  0  0  0  0  0  0  0  0  0  0
    8.6626    3.6034    0.0000 C   0  0  0  0  0  0  0  0  0  0  0  0
    7.3824    2.4367    0.0000 C   0  0  0  0  0  0  0  0  0  0  0  0
 26  1  1  1
  2 28  1  0
  3 28  2  0
  4  5  1  0
  4  6  1  0
  4 12  1  0
  4 21  1  1
  5  7  1  0
  5 14  1  0
  5 22  1  6
  6  8  1  0
  6 13  1  1
  7  9  1  0
  7 15  1  6
  8 10  1  0
  8 20  1  0
  8 25  1  1
  9 11  1  0
  9 19  1  1
 10 16  1  1
 10 18  1  0
 11 17  1  0
 11 23  1  0
 11 28  1  1
 12 16  1  0
 13 15  1  0
 14 17  1  0
 18 26  1  0
 18 29  1  0
 18 30  1  0
 19 24  1  0
 19 31  1  6
 20 27  1  0
 23 24  1  0
 26 27  1  0
 31 32  1  0
 31 33  2  0
M  END
>  <PUBCHEM_COMPOUND_CID>  (1) 
64971

>  <PUBCHEM_COMPOUND_CANONICALIZED>  (1) 
1

>  <PUBCHEM_CACTVS_COMPLEXITY>  (1) 
861

>  <PUBCHEM_CACTVS_HBOND_ACCEPTOR>  (1) 
3

>  <PUBCHEM_CACTVS_HBOND_DONOR>  (1) 
2

>  <PUBCHEM_CACTVS_ROTATABLE_BOND>  (1) 
2

>  <PUBCHEM_CACTVS_SUBSKEYS>  (1) 
AAADcfB4MAAAAAAAAAAAAAAAAAAAAYAAAAAwYMGAAAAAAGDAAAAAGgAACAAADxSggAICCAAAAgCIAgDSCAAAAAAgAAAAAAEAAAgAEBIAAQAAQAAEgAAAAAGIyPCPgAAAAAAAAADAAAYAADAAAQAACAAAAA==

>  <PUBCHEM_IUPAC_OPENEYE_NAME>  (1) 
(1R,3aS,5aR,5bR,7aR,9S,11aR,11bR,13aR,13bR)-9-hydroxy-1-isopropenyl-5a,5b,8,8,11a-pentamethyl-1,2,3,4,5,6,7,7a,9,10,11,11b,12,13,13a,13b-hexadecahydrocyclopenta[a]chrysene-3a-carboxylic acid

>  <PUBCHEM_IUPAC_CAS_NAME>  (1) 
(1R,3aS,5aR,5bR,7aR,9S,11aR,11bR,13aR,13bR)-9-hydroxy-5a,5b,8,8,11a-pentamethyl-1-(1-methylethenyl)-1,2,3,4,5,6,7,7a,9,10,11,11b,12,13,13a,13b-hexadecahydrocyclopenta[a]chrysene-3a-carboxylic acid

>  <PUBCHEM_IUPAC_NAME_MARKUP>  (1) 
(1<I>R</I>,3<I>a</I><I>S</I>,5<I>a</I><I>R</I>,5<I>b</I><I>R</I>,7<I>a</I><I>R</I>,9<I>S</I>,11<I>a</I><I>R</I>,11<I>b</I><I>R</I>,13<I>a</I><I>R</I>,13<I>b</I><I>R</I>)-9-hydroxy-5<I>a</I>,5<I>b</I>,8,8,11<I>a</I>-pentamethyl-1-prop-1-en-2-yl-1,2,3,4,5,6,7,7<I>a</I>,9,10,11,11<I>b</I>,12,13,13<I>a</I>,13<I>b</I>-hexadecahydrocyclopenta[a]chrysene-3<I>a</I>-carboxylic acid

>  <PUBCHEM_IUPAC_NAME>  (1) 
(1R,3aS,5aR,5bR,7aR,9S,11aR,11bR,13aR,13bR)-9-hydroxy-5a,5b,8,8,11a-pentamethyl-1-prop-1-en-2-yl-1,2,3,4,5,6,7,7a,9,10,11,11b,12,13,13a,13b-hexadecahydrocyclopenta[a]chrysene-3a-carboxylic acid

>  <PUBCHEM_IUPAC_SYSTEMATIC_NAME>  (1) 
(1R,3aS,5aR,5bR,7aR,9S,11aR,11bR,13aR,13bR)-5a,5b,8,8,11a-pentamethyl-9-oxidanyl-1-prop-1-en-2-yl-1,2,3,4,5,6,7,7a,9,10,11,11b,12,13,13a,13b-hexadecahydrocyclopenta[a]chrysene-3a-carboxylic acid

>  <PUBCHEM_IUPAC_TRADITIONAL_NAME>  (1) 
(1R,3aS,5aR,5bR,7aR,9S,11aR,11bR,13aR,13bR)-9-hydroxy-1-isopropenyl-5a,5b,8,8,11a-pentamethyl-1,2,3,4,5,6,7,7a,9,10,11,11b,12,13,13a,13b-hexadecahydrocyclopenta[a]chrysene-3a-carboxylic acid

>  <PUBCHEM_IUPAC_INCHI>  (1) 
InChI=1S/C30H48O3/c1-18(2)19-10-15-30(25(32)33)17-16-28(6)20(24(19)30)8-9-22-27(5)13-12-23(31)26(3,4)21(27)11-14-29(22,28)7/h19-24,31H,1,8-17H2,2-7H3,(H,32,33)/t19-,20+,21-,22+,23-,24+,27-,28+,29+,30-/m0/s1

>  <PUBCHEM_IUPAC_INCHIKEY>  (1) 
QGJZLNKBHJESQX-FZFNOLFKSA-N

>  <PUBCHEM_XLOGP3_AA>  (1) 
8.2

>  <PUBCHEM_EXACT_MASS>  (1) 
456.36034539

>  <PUBCHEM_MOLECULAR_FORMULA>  (1) 
C30H48O3

>  <PUBCHEM_MOLECULAR_WEIGHT>  (1) 
456.7

>  <PUBCHEM_OPENEYE_CAN_SMILES>  (1) 
CC(=C)C1CCC2(C1C3CCC4C5(CCC(C(C5CCC4(C3(CC2)C)C)(C)C)O)C)C(=O)O

>  <PUBCHEM_OPENEYE_ISO_SMILES>  (1) 
CC(=C)[C@@H]1CC[C@]2([C@H]1[C@H]3CC[C@@H]4[C@]5(CC[C@@H](C([C@@H]5CC[C@]4([C@@]3(CC2)C)C)(C)C)O)C)C(=O)O

>  <PUBCHEM_CACTVS_TPSA>  (1) 
57.5

>  <PUBCHEM_MONOISOTOPIC_WEIGHT>  (1) 
456.36034539

>  <PUBCHEM_TOTAL_CHARGE>  (1) 
0

>  <PUBCHEM_HEAVY_ATOM_COUNT>  (1) 
33

>  <PUBCHEM_ATOM_DEF_STEREO_COUNT>  (1) 
10

>  <PUBCHEM_ATOM_UDEF_STEREO_COUNT>  (1) 
0

>  <PUBCHEM_BOND_DEF_STEREO_COUNT>  (1) 
0

>  <PUBCHEM_BOND_UDEF_STEREO_COUNT>  (1) 
0

>  <PUBCHEM_ISOTOPIC_ATOM_COUNT>  (1) 
0

>  <PUBCHEM_COMPONENT_COUNT>  (1) 
1

>  <PUBCHEM_CACTVS_TAUTO_COUNT>  (1) 
-1

>  <PUBCHEM_COORDINATE_TYPE>  (1) 
1
5
255

>  <PUBCHEM_BONDANNOTATIONS>  (1) 
26  1  5
10  37  6
11  28  5
19  31  6
4  21  5
5  22  6
6  34  6
7  35  5
8  25  5
9  36  6

$$$$
