69634125
     RDKit          2D

 32 34  0  0  1  0  0  0  0  0999 V2000
    7.7331   -1.2500    0.0000 O   0  0  0  0  0  0  0  0  0  0  0  0
    6.0010   -0.2500    0.0000 O   0  0  0  0  0  0  0  0  0  0  0  0
    5.1350    1.2500    0.0000 O   0  0  0  0  0  0  0  0  0  0  0  0
    6.0010   -3.2500    0.0000 O   0  0  0  0  0  0  0  0  0  0  0  0
    9.4651   -1.2500    0.0000 O   0  0  0  0  0  0  0  0  0  0  0  0
    7.7331   -4.2500    0.0000 O   0  0  0  0  0  0  0  0  0  0  0  0
    9.4651   -3.2500    0.0000 O   0  0  0  0  0  0  0  0  0  0  0  0
    4.2690   -1.2500    0.0000 O   0  0  0  0  0  0  0  0  0  0  0  0
    2.5369   -0.2500    0.0000 O   0  0  0  0  0  0  0  0  0  0  0  0
    2.5369    1.7500    0.0000 O   0  0  0  0  0  0  0  0  0  0  0  0
   12.0632    3.2500    0.0000 O   0  0  0  0  0  0  0  0  0  0  0  0
   10.3312    4.2500    0.0000 O   0  0  0  0  0  0  0  0  0  0  0  0
    6.8671   -1.7500    0.0000 C   0  0  0  0  0  0  0  0  0  0  0  0
    6.8671   -2.7500    0.0000 C   0  0  0  0  0  0  0  0  0  0  0  0
    7.7331   -3.2500    0.0000 C   0  0  0  0  0  0  0  0  0  0  0  0
    8.5991   -2.7500    0.0000 C   0  0  0  0  0  0  0  0  0  0  0  0
    4.2690   -0.2500    0.0000 C   0  0  0  0  0  0  0  0  0  0  0  0
    5.1350    0.2500    0.0000 C   0  0  0  0  0  0  0  0  0  0  0  0
    3.4030    0.2500    0.0000 C   0  0  0  0  0  0  0  0  0  0  0  0
    3.4030    1.2500    0.0000 C   0  0  0  0  0  0  0  0  0  0  0  0
    8.5991   -1.7500    0.0000 C   0  0  0  0  0  0  0  0  0  0  0  0
    6.0010   -1.2500    0.0000 C   0  0  0  0  0  0  0  0  0  0  0  0
    4.2690    1.7500    0.0000 C   0  0  0  0  0  0  0  0  0  0  0  0
    4.2690    2.7500    0.0000 C   0  0  0  0  0  0  0  0  0  0  0  0
    9.4651   -0.2500    0.0000 C   0  0  0  0  0  0  0  0  0  0  0  0
   10.3312    0.2500    0.0000 C   0  0  0  0  0  0  0  0  0  0  0  0
   10.3312    1.2500    0.0000 C   0  0  0  0  0  0  0  0  0  0  0  0
   11.1972    1.7500    0.0000 C   0  0  0  0  0  0  0  0  0  0  0  0
    9.4651    1.7500    0.0000 C   0  0  0  0  0  0  0  0  0  0  0  0
   11.1972    2.7500    0.0000 C   0  0  0  0  0  0  0  0  0  0  0  0
    9.4651    2.7500    0.0000 C   0  0  0  0  0  0  0  0  0  0  0  0
   10.3312    3.2500    0.0000 C   0  0  0  0  0  0  0  0  0  0  0  0
  1 13  1  0
  1 21  1  0
 18  2  1  1
  2 22  1  0
  3 18  1  0
  3 23  1  0
 14  4  1  6
 21  5  1  1
  5 25  1  0
 15  6  1  1
 16  7  1  6
 17  8  1  6
 19  9  1  6
 20 10  1  1
 11 30  1  0
 12 32  1  0
 13 14  1  0
 13 22  1  1
 14 15  1  0
 15 16  1  0
 16 21  1  0
 17 18  1  0
 17 19  1  0
 19 20  1  0
 20 23  1  0
 23 24  1  6
 25 26  1  0
 26 27  1  0
 27 28  2  0
 27 29  1  0
 28 30  1  0
 29 31  2  0
 30 32  2  0
 31 32  1  0
M  END
>  <PUBCHEM_COMPOUND_CID>  (1) 
69634125

>  <PUBCHEM_COMPOUND_CANONICALIZED>  (1) 
1

>  <PUBCHEM_CACTVS_COMPLEXITY>  (1) 
581

>  <PUBCHEM_CACTVS_HBOND_ACCEPTOR>  (1) 
12

>  <PUBCHEM_CACTVS_HBOND_DONOR>  (1) 
8

>  <PUBCHEM_CACTVS_ROTATABLE_BOND>  (1) 
7

>  <PUBCHEM_CACTVS_SUBSKEYS>  (1) 
AAADceB4PAAAAAAAAAAAAAAAAAAAAAAAAAA0SIAAAAAAAAABAAAAGgAACAAADBSwmAMyDoAABgCAAiBCAAACAAAgIAAIiAAGiIgZNiKCERKicAElwBEPmAfA4LwOIAABAAAAQABAAAIAAACAAAAAAAAAAA==

>  <PUBCHEM_IUPAC_OPENEYE_NAME>  (1) 
(2R,3R,4R,5R,6S)-2-[[(2R,3S,4S,5R,6R)-6-[2-(3,4-dihydroxyphenyl)ethoxy]-3,4,5-trihydroxy-tetrahydropyran-2-yl]methoxy]-6-methyl-tetrahydropyran-3,4,5-triol

>  <PUBCHEM_IUPAC_CAS_NAME>  (1) 
(2R,3R,4R,5R,6S)-2-[[(2R,3S,4S,5R,6R)-6-[2-(3,4-dihydroxyphenyl)ethoxy]-3,4,5-trihydroxy-2-oxanyl]methoxy]-6-methyloxane-3,4,5-triol

>  <PUBCHEM_IUPAC_NAME_MARKUP>  (1) 
(2<I>R</I>,3<I>R</I>,4<I>R</I>,5<I>R</I>,6<I>S</I>)-2-[[(2<I>R</I>,3<I>S</I>,4<I>S</I>,5<I>R</I>,6<I>R</I>)-6-[2-(3,4-dihydroxyphenyl)ethoxy]-3,4,5-trihydroxyoxan-2-yl]methoxy]-6-methyloxane-3,4,5-triol

>  <PUBCHEM_IUPAC_NAME>  (1) 
(2R,3R,4R,5R,6S)-2-[[(2R,3S,4S,5R,6R)-6-[2-(3,4-dihydroxyphenyl)ethoxy]-3,4,5-trihydroxyoxan-2-yl]methoxy]-6-methyloxane-3,4,5-triol

>  <PUBCHEM_IUPAC_SYSTEMATIC_NAME>  (1) 
(2R,3R,4R,5R,6S)-2-[[(2R,3S,4S,5R,6R)-6-[2-[3,4-bis(oxidanyl)phenyl]ethoxy]-3,4,5-tris(oxidanyl)oxan-2-yl]methoxy]-6-methyl-oxane-3,4,5-triol

>  <PUBCHEM_IUPAC_TRADITIONAL_NAME>  (1) 
(2R,3R,4R,5R,6S)-2-[[(2R,3S,4S,5R,6R)-6-[2-(3,4-dihydroxyphenyl)ethoxy]-3,4,5-trihydroxy-tetrahydropyran-2-yl]methoxy]-6-methyl-tetrahydropyran-3,4,5-triol

>  <PUBCHEM_IUPAC_INCHI>  (1) 
InChI=1S/C20H30O12/c1-8-13(23)15(25)17(27)20(31-8)30-7-12-14(24)16(26)18(28)19(32-12)29-5-4-9-2-3-10(21)11(22)6-9/h2-3,6,8,12-28H,4-5,7H2,1H3/t8-,12+,13-,14+,15+,16-,17+,18+,19+,20+/m0/s1

>  <PUBCHEM_IUPAC_INCHIKEY>  (1) 
QIMGUQIHCNDUKU-OJJLXHDHSA-N

>  <PUBCHEM_XLOGP3_AA>  (1) 
-2.5

>  <PUBCHEM_EXACT_MASS>  (1) 
462.17372639

>  <PUBCHEM_MOLECULAR_FORMULA>  (1) 
C20H30O12

>  <PUBCHEM_MOLECULAR_WEIGHT>  (1) 
462.4

>  <PUBCHEM_OPENEYE_CAN_SMILES>  (1) 
CC1C(C(C(C(O1)OCC2C(C(C(C(O2)OCCC3=CC(=C(C=C3)O)O)O)O)O)O)O)O

>  <PUBCHEM_OPENEYE_ISO_SMILES>  (1) 
C[C@H]1[C@@H]([C@H]([C@H]([C@@H](O1)OC[C@@H]2[C@H]([C@@H]([C@H]([C@@H](O2)OCCC3=CC(=C(C=C3)O)O)O)O)O)O)O)O

>  <PUBCHEM_CACTVS_TPSA>  (1) 
199

>  <PUBCHEM_MONOISOTOPIC_WEIGHT>  (1) 
462.17372639

>  <PUBCHEM_TOTAL_CHARGE>  (1) 
0

>  <PUBCHEM_HEAVY_ATOM_COUNT>  (1) 
32

>  <PUBCHEM_ATOM_DEF_STEREO_COUNT>  (1) 
10

>  <PUBCHEM_ATOM_UDEF_STEREO_COUNT>  (1) 
0

>  <PUBCHEM_BOND_DEF_STEREO_COUNT>  (1) 
0

>  <PUBCHEM_BOND_UDEF_STEREO_COUNT>  (1) 
0

>  <PUBCHEM_ISOTOPIC_ATOM_COUNT>  (1) 
0

>  <PUBCHEM_COMPONENT_COUNT>  (1) 
1

>  <PUBCHEM_CACTVS_TAUTO_COUNT>  (1) 
18

>  <PUBCHEM_COORDINATE_TYPE>  (1) 
1
5
255

>  <PUBCHEM_BONDANNOTATIONS>  (1) 
20  10  5
13  22  5
18  2  5
23  24  6
27  28  8
27  29  8
28  30  8
29  31  8
30  32  8
31  32  8
14  4  6
21  5  5
15  6  5
16  7  6
17  8  6
19  9  6

$$$$
