72378
     RDKit          2D

 21 25  0  0  1  0  0  0  0  0999 V2000
    6.3002   -1.1621    0.0000 O   0  0  0  0  0  0  0  0  0  0  0  0
    8.0819   -0.1517    0.0000 O   0  0  0  0  0  0  0  0  0  0  0  0
    3.4519   -2.7090    0.0000 O   0  0  0  0  0  0  0  0  0  0  0  0
    2.0000   -1.8708    0.0000 O   0  0  0  0  0  0  0  0  0  0  0  0
    4.5518    1.8725    0.0000 N   0  0  0  0  0  0  0  0  0  0  0  0
    5.4178    1.3725    0.0000 C   0  0  0  0  0  0  0  0  0  0  0  0
    5.4178    0.3725    0.0000 C   0  0  0  0  0  0  0  0  0  0  0  0
    6.3117    1.9072    0.0000 C   0  0  0  0  0  0  0  0  0  0  0  0
    6.3117   -0.1622    0.0000 C   0  0  0  0  0  0  0  0  0  0  0  0
    4.9169    2.7968    0.0000 C   0  0  0  0  0  0  0  0  0  0  0  0
    5.9105    2.8164    0.0000 C   0  0  0  0  0  0  0  0  0  0  0  0
    4.5518   -0.1275    0.0000 C   0  0  0  0  0  0  0  0  0  0  0  0
    3.6857    1.3725    0.0000 C   0  0  0  0  0  0  0  0  0  0  0  0
    7.2178    0.3517    0.0000 C   0  0  0  0  0  0  0  0  0  0  0  0
    3.6857    0.3725    0.0000 C   0  0  0  0  0  0  0  0  0  0  0  0
    7.2178    1.3933    0.0000 C   0  0  0  0  0  0  0  0  0  0  0  0
    4.5678   -1.1690    0.0000 C   0  0  0  0  0  0  0  0  0  0  0  0
    2.7757   -0.1344    0.0000 C   0  0  0  0  0  0  0  0  0  0  0  0
    3.6698   -1.6968    0.0000 C   0  0  0  0  0  0  0  0  0  0  0  0
    2.7677   -1.1760    0.0000 C   0  0  0  0  0  0  0  0  0  0  0  0
    2.4220   -2.8164    0.0000 C   0  0  0  0  0  0  0  0  0  0  0  0
  9  1  1  1
 14  2  1  6
  3 19  1  0
  3 21  1  0
  4 20  1  0
  4 21  1  0
  6  5  1  6
  5 10  1  0
  5 13  1  0
  6  7  1  0
  6  8  1  0
  7  9  1  0
  7 12  1  1
  8 11  1  0
  8 16  2  0
  9 14  1  0
 10 11  1  0
 12 15  2  0
 12 17  1  0
 13 15  1  0
 14 16  1  0
 15 18  1  0
 17 19  2  0
 18 20  2  0
 19 20  1  0
M  END
>  <PUBCHEM_COMPOUND_CID>  (1) 
72378

>  <PUBCHEM_COMPOUND_CANONICALIZED>  (1) 
1

>  <PUBCHEM_CACTVS_COMPLEXITY>  (1) 
481

>  <PUBCHEM_CACTVS_HBOND_ACCEPTOR>  (1) 
5

>  <PUBCHEM_CACTVS_HBOND_DONOR>  (1) 
2

>  <PUBCHEM_CACTVS_ROTATABLE_BOND>  (1) 
0

>  <PUBCHEM_CACTVS_SUBSKEYS>  (1) 
AAADceB6OAAAAAAAAAAAAAAAAAAAAWJAAAA8QIAAAAAAAFixAAAAHgAACAAADTzhmAcwDoMABgCAAiBCAACCCAAgIAAAiAAOjIgdNiKEsRukcCpmwBGPuAew8P8OoAABAAAQQABAAAIAACCAAAAAAAAAAA==

>  <PUBCHEM_IUPAC_OPENEYE_NAME>  (1) 
(1S,17S,18S,19S)-5,7-dioxa-12-azapentacyclo[10.6.1.02,10.04,8.015,19]nonadeca-2,4(8),9,15-tetraene-17,18-diol

>  <PUBCHEM_IUPAC_CAS_NAME>  (1) 
(1S,17S,18S,19S)-5,7-dioxa-12-azapentacyclo[10.6.1.02,10.04,8.015,19]nonadeca-2,4(8),9,15-tetraene-17,18-diol

>  <PUBCHEM_IUPAC_NAME_MARKUP>  (1) 
(1<I>S</I>,17<I>S</I>,18<I>S</I>,19<I>S</I>)-5,7-dioxa-12-azapentacyclo[10.6.1.0<SUP>2,10</SUP>.0<SUP>4,8</SUP>.0<SUP>15,19</SUP>]nonadeca-2,4(8),9,15-tetraene-17,18-diol

>  <PUBCHEM_IUPAC_NAME>  (1) 
(1S,17S,18S,19S)-5,7-dioxa-12-azapentacyclo[10.6.1.02,10.04,8.015,19]nonadeca-2,4(8),9,15-tetraene-17,18-diol

>  <PUBCHEM_IUPAC_SYSTEMATIC_NAME>  (1) 
(1S,17S,18S,19S)-5,7-dioxa-12-azapentacyclo[10.6.1.02,10.04,8.015,19]nonadeca-2,4(8),9,15-tetraene-17,18-diol

>  <PUBCHEM_IUPAC_TRADITIONAL_NAME>  (1) 
(1S,17S,18S,19S)-5,7-dioxa-12-azapentacyclo[10.6.1.02,10.04,8.015,19]nonadeca-2,4(8),9,15-tetraene-17,18-diol

>  <PUBCHEM_IUPAC_INCHI>  (1) 
InChI=1S/C16H17NO4/c18-11-3-8-1-2-17-6-9-4-12-13(21-7-20-12)5-10(9)14(15(8)17)16(11)19/h3-5,11,14-16,18-19H,1-2,6-7H2/t11-,14-,15+,16+/m0/s1

>  <PUBCHEM_IUPAC_INCHIKEY>  (1) 
XGVJWXAYKUHDOO-DANNLKNASA-N

>  <PUBCHEM_XLOGP3_AA>  (1) 
0

>  <PUBCHEM_EXACT_MASS>  (1) 
287.11575802

>  <PUBCHEM_MOLECULAR_FORMULA>  (1) 
C16H17NO4

>  <PUBCHEM_MOLECULAR_WEIGHT>  (1) 
287.31

>  <PUBCHEM_OPENEYE_CAN_SMILES>  (1) 
C1CN2CC3=CC4=C(C=C3C5C2C1=CC(C5O)O)OCO4

>  <PUBCHEM_OPENEYE_ISO_SMILES>  (1) 
C1CN2CC3=CC4=C(C=C3[C@H]5[C@H]2C1=C[C@@H]([C@H]5O)O)OCO4

>  <PUBCHEM_CACTVS_TPSA>  (1) 
62.2

>  <PUBCHEM_MONOISOTOPIC_WEIGHT>  (1) 
287.11575802

>  <PUBCHEM_TOTAL_CHARGE>  (1) 
0

>  <PUBCHEM_HEAVY_ATOM_COUNT>  (1) 
21

>  <PUBCHEM_ATOM_DEF_STEREO_COUNT>  (1) 
4

>  <PUBCHEM_ATOM_UDEF_STEREO_COUNT>  (1) 
0

>  <PUBCHEM_BOND_DEF_STEREO_COUNT>  (1) 
0

>  <PUBCHEM_BOND_UDEF_STEREO_COUNT>  (1) 
0

>  <PUBCHEM_ISOTOPIC_ATOM_COUNT>  (1) 
0

>  <PUBCHEM_COMPONENT_COUNT>  (1) 
1

>  <PUBCHEM_CACTVS_TAUTO_COUNT>  (1) 
-1

>  <PUBCHEM_COORDINATE_TYPE>  (1) 
1
5
255

>  <PUBCHEM_BONDANNOTATIONS>  (1) 
9  1  5
12  15  8
12  17  8
15  18  8
17  19  8
18  20  8
19  20  8
14  2  6
6  22  5
7  23  6

$$$$
