10398656
     RDKit          2D

 16 17  0  0  1  0  0  0  0  0999 V2000
    2.6200   -2.1830    0.0000 O   0  0  0  0  0  0  0  0  0  0  0  0
    3.9860   -0.8170    0.0000 C   0  0  0  0  0  0  0  0  0  0  0  0
    3.9860    0.1830    0.0000 C   0  0  0  0  0  0  0  0  0  0  0  0
    3.1200    0.6830    0.0000 C   0  0  0  0  0  0  0  0  0  0  0  0
    3.1200   -1.3170    0.0000 C   0  0  0  0  0  0  0  0  0  0  0  0
    2.2540    0.1830    0.0000 C   0  0  0  0  0  0  0  0  0  0  0  0
    2.2540   -0.8170    0.0000 C   0  0  0  0  0  0  0  0  0  0  0  0
    4.8800   -1.3516    0.0000 C   0  0  0  0  0  0  0  0  0  0  0  0
    3.1200    1.6830    0.0000 C   0  0  0  0  0  0  0  0  0  0  0  0
    4.8800    0.7177    0.0000 C   0  0  0  0  0  0  0  0  0  0  0  0
    5.7860   -0.8378    0.0000 C   0  0  0  0  0  0  0  0  0  0  0  0
    3.6200   -2.1830    0.0000 C   0  0  0  0  0  0  0  0  0  0  0  0
    5.7860    0.2038    0.0000 C   0  0  0  0  0  0  0  0  0  0  0  0
    2.2540    2.1830    0.0000 C   0  0  0  0  0  0  0  0  0  0  0  0
    3.9860    2.1830    0.0000 C   0  0  0  0  0  0  0  0  0  0  0  0
    6.6501    0.7072    0.0000 C   0  0  0  0  0  0  0  0  0  0  0  0
  5  1  1  0
  2  3  1  0
  2  5  1  0
  2  8  1  1
  3  4  1  0
  3 10  1  6
  4  6  1  0
  4  9  1  1
  5  7  1  0
  5 12  1  1
  6  7  1  0
  8 11  1  0
  9 14  1  0
  9 15  1  0
 10 13  2  0
 11 13  1  0
 13 16  1  0
M  END
>  <PUBCHEM_COMPOUND_CID>  (1) 
10398656

>  <PUBCHEM_COMPOUND_CANONICALIZED>  (1) 
1

>  <PUBCHEM_CACTVS_COMPLEXITY>  (1) 
292

>  <PUBCHEM_CACTVS_HBOND_ACCEPTOR>  (1) 
1

>  <PUBCHEM_CACTVS_HBOND_DONOR>  (1) 
1

>  <PUBCHEM_CACTVS_ROTATABLE_BOND>  (1) 
1

>  <PUBCHEM_CACTVS_SUBSKEYS>  (1) 
AAADceBwIAAAAAAAAAAAAAAAAAAAAAAAAAAwQAAAAAAAAACAAAAAGgAACAAADUSAgAACAAAAAgCAAiBCAAAAAAAgAAAACAAAAAgAAAIAAQAAQAAEgAAIAAOAwPAOgAAAAAAAAADAAAYAADAAAAAAAAAAAA==

>  <PUBCHEM_IUPAC_OPENEYE_NAME>  (1) 
(1R,4S,4aR,8aR)-4-isopropyl-1,6-dimethyl-3,4,4a,7,8,8a-hexahydro-2H-naphthalen-1-ol

>  <PUBCHEM_IUPAC_CAS_NAME>  (1) 
(1R,4S,4aR,8aR)-1,6-dimethyl-4-propan-2-yl-3,4,4a,7,8,8a-hexahydro-2H-naphthalen-1-ol

>  <PUBCHEM_IUPAC_NAME_MARKUP>  (1) 
(1<I>R</I>,4<I>S</I>,4<I>a</I><I>R</I>,8<I>a</I><I>R</I>)-1,6-dimethyl-4-propan-2-yl-3,4,4<I>a</I>,7,8,8<I>a</I>-hexahydro-2<I>H</I>-naphthalen-1-ol

>  <PUBCHEM_IUPAC_NAME>  (1) 
(1R,4S,4aR,8aR)-1,6-dimethyl-4-propan-2-yl-3,4,4a,7,8,8a-hexahydro-2H-naphthalen-1-ol

>  <PUBCHEM_IUPAC_SYSTEMATIC_NAME>  (1) 
(1R,4S,4aR,8aR)-1,6-dimethyl-4-propan-2-yl-3,4,4a,7,8,8a-hexahydro-2H-naphthalen-1-ol

>  <PUBCHEM_IUPAC_TRADITIONAL_NAME>  (1) 
(1R,4S,4aR,8aR)-4-isopropyl-1,6-dimethyl-3,4,4a,7,8,8a-hexahydro-2H-naphthalen-1-ol

>  <PUBCHEM_IUPAC_INCHI>  (1) 
InChI=1S/C15H26O/c1-10(2)12-7-8-15(4,16)14-6-5-11(3)9-13(12)14/h9-10,12-14,16H,5-8H2,1-4H3/t12-,13-,14+,15+/m0/s1

>  <PUBCHEM_IUPAC_INCHIKEY>  (1) 
LHYHMMRYTDARSZ-BYNSBNAKSA-N

>  <PUBCHEM_XLOGP3_AA>  (1) 
3.3

>  <PUBCHEM_EXACT_MASS>  (1) 
222.198365449

>  <PUBCHEM_MOLECULAR_FORMULA>  (1) 
C15H26O

>  <PUBCHEM_MOLECULAR_WEIGHT>  (1) 
222.37

>  <PUBCHEM_OPENEYE_CAN_SMILES>  (1) 
CC1=CC2C(CCC(C2CC1)(C)O)C(C)C

>  <PUBCHEM_OPENEYE_ISO_SMILES>  (1) 
CC1=C[C@H]2[C@@H](CC[C@@]([C@@H]2CC1)(C)O)C(C)C

>  <PUBCHEM_CACTVS_TPSA>  (1) 
20.2

>  <PUBCHEM_MONOISOTOPIC_WEIGHT>  (1) 
222.198365449

>  <PUBCHEM_TOTAL_CHARGE>  (1) 
0

>  <PUBCHEM_HEAVY_ATOM_COUNT>  (1) 
16

>  <PUBCHEM_ATOM_DEF_STEREO_COUNT>  (1) 
4

>  <PUBCHEM_ATOM_UDEF_STEREO_COUNT>  (1) 
0

>  <PUBCHEM_BOND_DEF_STEREO_COUNT>  (1) 
0

>  <PUBCHEM_BOND_UDEF_STEREO_COUNT>  (1) 
0

>  <PUBCHEM_ISOTOPIC_ATOM_COUNT>  (1) 
0

>  <PUBCHEM_COMPONENT_COUNT>  (1) 
1

>  <PUBCHEM_CACTVS_TAUTO_COUNT>  (1) 
-1

>  <PUBCHEM_COORDINATE_TYPE>  (1) 
1
5
255

>  <PUBCHEM_BONDANNOTATIONS>  (1) 
5  1  6
2  17  6
3  18  5
4  9  5

$$$$
