3220
     RDKit          2D

 20 22  0  0  0  0  0  0  0  0999 V2000
    3.7817    1.8592    0.0000 O   0  0  0  0  0  0  0  0  0  0  0  0
    5.5301    1.8246    0.0000 O   0  0  0  0  0  0  0  0  0  0  0  0
    5.5301   -2.1754    0.0000 O   0  0  0  0  0  0  0  0  0  0  0  0
    7.2785    1.8592    0.0000 O   0  0  0  0  0  0  0  0  0  0  0  0
    9.0602   -1.1995    0.0000 O   0  0  0  0  0  0  0  0  0  0  0  0
    4.6641   -0.6754    0.0000 C   0  0  0  0  0  0  0  0  0  0  0  0
    4.6641    0.3246    0.0000 C   0  0  0  0  0  0  0  0  0  0  0  0
    6.3961    0.3246    0.0000 C   0  0  0  0  0  0  0  0  0  0  0  0
    6.3961   -0.6754    0.0000 C   0  0  0  0  0  0  0  0  0  0  0  0
    5.5301    0.8246    0.0000 C   0  0  0  0  0  0  0  0  0  0  0  0
    5.5301   -1.1754    0.0000 C   0  0  0  0  0  0  0  0  0  0  0  0
    3.7702   -1.2100    0.0000 C   0  0  0  0  0  0  0  0  0  0  0  0
    3.7702    0.8593    0.0000 C   0  0  0  0  0  0  0  0  0  0  0  0
    2.8641   -0.6962    0.0000 C   0  0  0  0  0  0  0  0  0  0  0  0
    7.2901    0.8593    0.0000 C   0  0  0  0  0  0  0  0  0  0  0  0
    7.2901   -1.2100    0.0000 C   0  0  0  0  0  0  0  0  0  0  0  0
    2.8641    0.3454    0.0000 C   0  0  0  0  0  0  0  0  0  0  0  0
    8.1962   -0.6962    0.0000 C   0  0  0  0  0  0  0  0  0  0  0  0
    8.1962    0.3454    0.0000 C   0  0  0  0  0  0  0  0  0  0  0  0
    2.0000   -1.1995    0.0000 C   0  0  0  0  0  0  0  0  0  0  0  0
  1 13  1  0
  2 10  2  0
  3 11  2  0
  4 15  1  0
  5 18  1  0
  6  7  2  0
  6 11  1  0
  6 12  1  0
  7 10  1  0
  7 13  1  0
  8  9  2  0
  8 10  1  0
  8 15  1  0
  9 11  1  0
  9 16  1  0
 12 14  2  0
 13 17  2  0
 14 17  1  0
 14 20  1  0
 15 19  2  0
 16 18  2  0
 18 19  1  0
M  END
>  <PUBCHEM_COMPOUND_CID>  (1) 
3220

>  <PUBCHEM_COMPOUND_CANONICALIZED>  (1) 
1

>  <PUBCHEM_CACTVS_COMPLEXITY>  (1) 
434

>  <PUBCHEM_CACTVS_HBOND_ACCEPTOR>  (1) 
5

>  <PUBCHEM_CACTVS_HBOND_DONOR>  (1) 
3

>  <PUBCHEM_CACTVS_ROTATABLE_BOND>  (1) 
0

>  <PUBCHEM_CACTVS_SUBSKEYS>  (1) 
AAADccBwOAAAAAAAAAAAAAAAAAAAAAAAAAAwYMAAAAAAAADBQAAAGgAACAAADASAmAAyBoAAAgCIAqBSAAACAAAkIAAAiAEGCMgIJzaCFRKAcUAl4BUImYeL7PTO4AADCAAYAADAAAYQADAAAAAAAAAAAA==

>  <PUBCHEM_IUPAC_OPENEYE_NAME>  (1) 
1,3,8-trihydroxy-6-methyl-anthracene-9,10-dione

>  <PUBCHEM_IUPAC_CAS_NAME>  (1) 
1,3,8-trihydroxy-6-methylanthracene-9,10-dione

>  <PUBCHEM_IUPAC_NAME_MARKUP>  (1) 
1,3,8-trihydroxy-6-methylanthracene-9,10-dione

>  <PUBCHEM_IUPAC_NAME>  (1) 
1,3,8-trihydroxy-6-methylanthracene-9,10-dione

>  <PUBCHEM_IUPAC_SYSTEMATIC_NAME>  (1) 
3-methyl-1,6,8-tris(oxidanyl)anthracene-9,10-dione

>  <PUBCHEM_IUPAC_TRADITIONAL_NAME>  (1) 
1,3,8-trihydroxy-6-methyl-9,10-anthraquinone

>  <PUBCHEM_IUPAC_INCHI>  (1) 
InChI=1S/C15H10O5/c1-6-2-8-12(10(17)3-6)15(20)13-9(14(8)19)4-7(16)5-11(13)18/h2-5,16-18H,1H3

>  <PUBCHEM_IUPAC_INCHIKEY>  (1) 
RHMXXJGYXNZAPX-UHFFFAOYSA-N

>  <PUBCHEM_XLOGP3_AA>  (1) 
2.7

>  <PUBCHEM_EXACT_MASS>  (1) 
270.05282342

>  <PUBCHEM_MOLECULAR_FORMULA>  (1) 
C15H10O5

>  <PUBCHEM_MOLECULAR_WEIGHT>  (1) 
270.24

>  <PUBCHEM_OPENEYE_CAN_SMILES>  (1) 
CC1=CC2=C(C(=C1)O)C(=O)C3=C(C2=O)C=C(C=C3O)O

>  <PUBCHEM_OPENEYE_ISO_SMILES>  (1) 
CC1=CC2=C(C(=C1)O)C(=O)C3=C(C2=O)C=C(C=C3O)O

>  <PUBCHEM_CACTVS_TPSA>  (1) 
94.8

>  <PUBCHEM_MONOISOTOPIC_WEIGHT>  (1) 
270.05282342

>  <PUBCHEM_TOTAL_CHARGE>  (1) 
0

>  <PUBCHEM_HEAVY_ATOM_COUNT>  (1) 
20

>  <PUBCHEM_ATOM_DEF_STEREO_COUNT>  (1) 
0

>  <PUBCHEM_ATOM_UDEF_STEREO_COUNT>  (1) 
0

>  <PUBCHEM_BOND_DEF_STEREO_COUNT>  (1) 
0

>  <PUBCHEM_BOND_UDEF_STEREO_COUNT>  (1) 
0

>  <PUBCHEM_ISOTOPIC_ATOM_COUNT>  (1) 
0

>  <PUBCHEM_COMPONENT_COUNT>  (1) 
1

>  <PUBCHEM_CACTVS_TAUTO_COUNT>  (1) 
-1

>  <PUBCHEM_COORDINATE_TYPE>  (1) 
1
5
255

>  <PUBCHEM_BONDANNOTATIONS>  (1) 
12  14  8
13  17  8
14  17  8
15  19  8
16  18  8
18  19  8
6  12  8
6  7  8
7  13  8
8  15  8
8  9  8
9  16  8

$$$$
