5281696
     RDKit          2D

 43 48  0  0  0  0  0  0  0  0999 V2000
    6.3580    2.0966    0.0000 O   0  0  0  0  0  0  0  0  0  0  0  0
    6.3301   -1.8687    0.0000 O   0  0  0  0  0  0  0  0  0  0  0  0
    2.8660    1.1313    0.0000 O   0  0  0  0  0  0  0  0  0  0  0  0
    2.8660    2.1313    0.0000 O   0  0  0  0  0  0  0  0  0  0  0  0
    4.5981    5.1313    0.0000 O   0  0  0  0  0  0  0  0  0  0  0  0
    6.3465    5.1659    0.0000 O   0  0  0  0  0  0  0  0  0  0  0  0
    8.0743   -4.9380    0.0000 O   0  0  0  0  0  0  0  0  0  0  0  0
    9.8324   -1.8656    0.0000 O   0  0  0  0  0  0  0  0  0  0  0  0
    8.9282   -0.3687    0.0000 O   0  0  0  0  0  0  0  0  0  0  0  0
   10.7205    0.5971    0.0000 O   0  0  0  0  0  0  0  0  0  0  0  0
    4.5981    2.1313    0.0000 C   0  0  0  0  0  0  0  0  0  0  0  0
    4.5981    1.1313    0.0000 C   0  0  0  0  0  0  0  0  0  0  0  0
    5.4641    2.6313    0.0000 C   0  0  0  0  0  0  0  0  0  0  0  0
    5.4641    3.6313    0.0000 C   0  0  0  0  0  0  0  0  0  0  0  0
    5.4641   -0.3687    0.0000 C   0  0  0  0  0  0  0  0  0  0  0  0
    5.4641    0.6313    0.0000 C   0  0  0  0  0  0  0  0  0  0  0  0
    3.7320    2.6313    0.0000 C   0  0  0  0  0  0  0  0  0  0  0  0
    3.7320    0.6313    0.0000 C   0  0  0  0  0  0  0  0  0  0  0  0
    4.5981    4.1313    0.0000 C   0  0  0  0  0  0  0  0  0  0  0  0
    6.3301   -0.8687    0.0000 C   0  0  0  0  0  0  0  0  0  0  0  0
    3.7320    3.6313    0.0000 C   0  0  0  0  0  0  0  0  0  0  0  0
    7.2641    2.6105    0.0000 C   0  0  0  0  0  0  0  0  0  0  0  0
    6.3580    4.1660    0.0000 C   0  0  0  0  0  0  0  0  0  0  0  0
    4.5981   -0.8687    0.0000 C   0  0  0  0  0  0  0  0  0  0  0  0
    3.7320   -0.3687    0.0000 C   0  0  0  0  0  0  0  0  0  0  0  0
    7.2641    3.6521    0.0000 C   0  0  0  0  0  0  0  0  0  0  0  0
    8.0622   -1.8687    0.0000 C   0  0  0  0  0  0  0  0  0  0  0  0
    7.1962   -2.3687    0.0000 C   0  0  0  0  0  0  0  0  0  0  0  0
    8.1282    2.1071    0.0000 C   0  0  0  0  0  0  0  0  0  0  0  0
    7.1962   -0.3687    0.0000 C   0  0  0  0  0  0  0  0  0  0  0  0
    8.0622   -0.8687    0.0000 C   0  0  0  0  0  0  0  0  0  0  0  0
    8.9722   -2.3756    0.0000 C   0  0  0  0  0  0  0  0  0  0  0  0
    7.1801   -3.4102    0.0000 C   0  0  0  0  0  0  0  0  0  0  0  0
    8.1244    1.1072    0.0000 C   0  0  0  0  0  0  0  0  0  0  0  0
    8.9962    2.6038    0.0000 C   0  0  0  0  0  0  0  0  0  0  0  0
    8.0781   -3.9380    0.0000 C   0  0  0  0  0  0  0  0  0  0  0  0
    8.9802   -3.4172    0.0000 C   0  0  0  0  0  0  0  0  0  0  0  0
    8.9884    0.6038    0.0000 C   0  0  0  0  0  0  0  0  0  0  0  0
    9.8602    2.1005    0.0000 C   0  0  0  0  0  0  0  0  0  0  0  0
    9.8564    1.1005    0.0000 C   0  0  0  0  0  0  0  0  0  0  0  0
    2.0000    0.6313    0.0000 C   0  0  0  0  0  0  0  0  0  0  0  0
    8.9384   -5.4413    0.0000 C   0  0  0  0  0  0  0  0  0  0  0  0
   11.5884    1.0938    0.0000 C   0  0  0  0  0  0  0  0  0  0  0  0
  1 13  1  0
  1 22  1  0
  2 20  1  0
  2 28  1  0
  3 18  1  0
  3 41  1  0
  4 17  1  0
  5 19  1  0
  6 23  2  0
  7 36  1  0
  7 42  1  0
  8 32  1  0
  9 31  2  0
 10 40  1  0
 10 43  1  0
 11 12  1  0
 11 13  2  0
 11 17  1  0
 12 16  2  0
 12 18  1  0
 13 14  1  0
 14 19  2  0
 14 23  1  0
 15 16  1  0
 15 20  1  0
 15 24  2  0
 17 21  2  0
 18 25  2  0
 19 21  1  0
 20 30  2  0
 22 26  2  0
 22 29  1  0
 23 26  1  0
 24 25  1  0
 27 28  2  0
 27 31  1  0
 27 32  1  0
 28 33  1  0
 29 34  2  0
 29 35  1  0
 30 31  1  0
 32 37  2  0
 33 36  2  0
 34 38  1  0
 35 39  2  0
 36 37  1  0
 38 40  2  0
 39 40  1  0
M  END
>  <PUBCHEM_COMPOUND_CID>  (1) 
5281696

>  <PUBCHEM_COMPOUND_CANONICALIZED>  (1) 
1

>  <PUBCHEM_CACTVS_COMPLEXITY>  (1) 
1100

>  <PUBCHEM_CACTVS_HBOND_ACCEPTOR>  (1) 
10

>  <PUBCHEM_CACTVS_HBOND_DONOR>  (1) 
3

>  <PUBCHEM_CACTVS_ROTATABLE_BOND>  (1) 
6

>  <PUBCHEM_CACTVS_SUBSKEYS>  (1) 
AAADceB8PAAAAAAAAAAAAAAAAAAAAAAAAAAwYMGCAAAAAACBVAAAGgAACAAADASAmAIyBoAABgCIAqBSAAACCAAkIAAIiAEGCMgMJzaGNRqCeWCl4BUIuQfI7PzOoAACCAAIAABAAAQQABAAAAAAAAAAAA==

>  <PUBCHEM_IUPAC_OPENEYE_NAME>  (1) 
5,7-dihydroxy-8-[5-(5-hydroxy-7-methoxy-4-oxo-chromen-2-yl)-2-methoxy-phenyl]-2-(4-methoxyphenyl)chromen-4-one

>  <PUBCHEM_IUPAC_CAS_NAME>  (1) 
5,7-dihydroxy-8-[5-(5-hydroxy-7-methoxy-4-oxo-1-benzopyran-2-yl)-2-methoxyphenyl]-2-(4-methoxyphenyl)-1-benzopyran-4-one

>  <PUBCHEM_IUPAC_NAME_MARKUP>  (1) 
5,7-dihydroxy-8-[5-(5-hydroxy-7-methoxy-4-oxochromen-2-yl)-2-methoxyphenyl]-2-(4-methoxyphenyl)chromen-4-one

>  <PUBCHEM_IUPAC_NAME>  (1) 
5,7-dihydroxy-8-[5-(5-hydroxy-7-methoxy-4-oxochromen-2-yl)-2-methoxyphenyl]-2-(4-methoxyphenyl)chromen-4-one

>  <PUBCHEM_IUPAC_SYSTEMATIC_NAME>  (1) 
8-[2-methoxy-5-(7-methoxy-5-oxidanyl-4-oxidanylidene-chromen-2-yl)phenyl]-2-(4-methoxyphenyl)-5,7-bis(oxidanyl)chromen-4-one

>  <PUBCHEM_IUPAC_TRADITIONAL_NAME>  (1) 
5,7-dihydroxy-8-[5-(5-hydroxy-4-keto-7-methoxy-chromen-2-yl)-2-methoxy-phenyl]-2-(4-methoxyphenyl)chromone

>  <PUBCHEM_IUPAC_INCHI>  (1) 
InChI=1S/C33H24O10/c1-39-18-7-4-16(5-8-18)27-15-25(38)32-23(36)13-22(35)30(33(32)43-27)20-10-17(6-9-26(20)41-3)28-14-24(37)31-21(34)11-19(40-2)12-29(31)42-28/h4-15,34-36H,1-3H3

>  <PUBCHEM_IUPAC_INCHIKEY>  (1) 
YCXRBCHEOFVYEN-UHFFFAOYSA-N

>  <PUBCHEM_XLOGP3_AA>  (1) 
6

>  <PUBCHEM_EXACT_MASS>  (1) 
580.13694696

>  <PUBCHEM_MOLECULAR_FORMULA>  (1) 
C33H24O10

>  <PUBCHEM_MOLECULAR_WEIGHT>  (1) 
580.5

>  <PUBCHEM_OPENEYE_CAN_SMILES>  (1) 
COC1=CC=C(C=C1)C2=CC(=O)C3=C(O2)C(=C(C=C3O)O)C4=C(C=CC(=C4)C5=CC(=O)C6=C(C=C(C=C6O5)OC)O)OC

>  <PUBCHEM_OPENEYE_ISO_SMILES>  (1) 
COC1=CC=C(C=C1)C2=CC(=O)C3=C(O2)C(=C(C=C3O)O)C4=C(C=CC(=C4)C5=CC(=O)C6=C(C=C(C=C6O5)OC)O)OC

>  <PUBCHEM_CACTVS_TPSA>  (1) 
141

>  <PUBCHEM_MONOISOTOPIC_WEIGHT>  (1) 
580.13694696

>  <PUBCHEM_TOTAL_CHARGE>  (1) 
0

>  <PUBCHEM_HEAVY_ATOM_COUNT>  (1) 
43

>  <PUBCHEM_ATOM_DEF_STEREO_COUNT>  (1) 
0

>  <PUBCHEM_ATOM_UDEF_STEREO_COUNT>  (1) 
0

>  <PUBCHEM_BOND_DEF_STEREO_COUNT>  (1) 
0

>  <PUBCHEM_BOND_UDEF_STEREO_COUNT>  (1) 
0

>  <PUBCHEM_ISOTOPIC_ATOM_COUNT>  (1) 
0

>  <PUBCHEM_COMPONENT_COUNT>  (1) 
1

>  <PUBCHEM_CACTVS_TAUTO_COUNT>  (1) 
-1

>  <PUBCHEM_COORDINATE_TYPE>  (1) 
1
5
255

>  <PUBCHEM_BONDANNOTATIONS>  (1) 
1  13  8
1  22  8
11  13  8
11  17  8
12  16  8
12  18  8
13  14  8
14  19  8
14  23  8
15  16  8
15  24  8
17  21  8
18  25  8
19  21  8
2  20  8
2  28  8
20  30  8
22  26  8
23  26  8
24  25  8
27  28  8
27  31  8
27  32  8
28  33  8
29  34  8
29  35  8
30  31  8
32  37  8
33  36  8
34  38  8
35  39  8
36  37  8
38  40  8
39  40  8

$$$$
