168849
     RDKit          2D

 44 48  0  0  1  0  0  0  0  0999 V2000
    6.8671   -1.8813    0.0000 O   0  0  0  0  0  0  0  0  0  0  0  0
    6.0010   -4.3813    0.0000 O   0  0  0  0  0  0  0  0  0  0  0  0
    4.2690   -4.3813    0.0000 O   0  0  0  0  0  0  0  0  0  0  0  0
    7.7331   -4.3813    0.0000 O   0  0  0  0  0  0  0  0  0  0  0  0
    9.4651   -3.3813    0.0000 O   0  0  0  0  0  0  0  0  0  0  0  0
    7.7331   -0.3813    0.0000 O   0  0  0  0  0  0  0  0  0  0  0  0
    9.4651   -1.3813    0.0000 O   0  0  0  0  0  0  0  0  0  0  0  0
    6.0010   -6.3813    0.0000 O   0  0  0  0  0  0  0  0  0  0  0  0
    4.2690   -7.3813    0.0000 O   0  0  0  0  0  0  0  0  0  0  0  0
    2.5369   -6.3813    0.0000 O   0  0  0  0  0  0  0  0  0  0  0  0
    6.0010   -1.3813    0.0000 O   0  0  0  0  0  0  0  0  0  0  0  0
    6.0171    2.6602    0.0000 O   0  0  0  0  0  0  0  0  0  0  0  0
    4.2690   -0.3813    0.0000 O   0  0  0  0  0  0  0  0  0  0  0  0
    3.3648    1.1156    0.0000 O   0  0  0  0  0  0  0  0  0  0  0  0
    5.1345    7.1880    0.0000 O   0  0  0  0  0  0  0  0  0  0  0  0
    6.8671   -2.8813    0.0000 C   0  0  0  0  0  0  0  0  0  0  0  0
    7.7331   -3.3813    0.0000 C   0  0  0  0  0  0  0  0  0  0  0  0
    8.5991   -2.8813    0.0000 C   0  0  0  0  0  0  0  0  0  0  0  0
    8.5991   -1.8813    0.0000 C   0  0  0  0  0  0  0  0  0  0  0  0
    5.1350   -5.8813    0.0000 C   0  0  0  0  0  0  0  0  0  0  0  0
    5.1350   -4.8813    0.0000 C   0  0  0  0  0  0  0  0  0  0  0  0
    4.2690   -6.3813    0.0000 C   0  0  0  0  0  0  0  0  0  0  0  0
    3.4030   -5.8813    0.0000 C   0  0  0  0  0  0  0  0  0  0  0  0
    7.7331   -1.3813    0.0000 C   0  0  0  0  0  0  0  0  0  0  0  0
    6.0010   -3.3813    0.0000 C   0  0  0  0  0  0  0  0  0  0  0  0
    3.4030   -4.8813    0.0000 C   0  0  0  0  0  0  0  0  0  0  0  0
    2.5369   -4.3813    0.0000 C   0  0  0  0  0  0  0  0  0  0  0  0
    6.8671    0.1187    0.0000 C   0  0  0  0  0  0  0  0  0  0  0  0
    6.0010   -0.3813    0.0000 C   0  0  0  0  0  0  0  0  0  0  0  0
    6.8671    1.1187    0.0000 C   0  0  0  0  0  0  0  0  0  0  0  0
    6.0010    1.6187    0.0000 C   0  0  0  0  0  0  0  0  0  0  0  0
    5.1350    0.1187    0.0000 C   0  0  0  0  0  0  0  0  0  0  0  0
    5.1350    1.1187    0.0000 C   0  0  0  0  0  0  0  0  0  0  0  0
    4.2250    1.6256    0.0000 C   0  0  0  0  0  0  0  0  0  0  0  0
    5.1191    3.1880    0.0000 C   0  0  0  0  0  0  0  0  0  0  0  0
    4.2170    2.6672    0.0000 C   0  0  0  0  0  0  0  0  0  0  0  0
    5.1350   -1.8813    0.0000 C   0  0  0  0  0  0  0  0  0  0  0  0
    5.1229    4.1880    0.0000 C   0  0  0  0  0  0  0  0  0  0  0  0
    4.2588    4.6913    0.0000 C   0  0  0  0  0  0  0  0  0  0  0  0
    5.9909    4.6846    0.0000 C   0  0  0  0  0  0  0  0  0  0  0  0
    4.2627    5.6913    0.0000 C   0  0  0  0  0  0  0  0  0  0  0  0
    5.9947    5.6846    0.0000 C   0  0  0  0  0  0  0  0  0  0  0  0
    5.1306    6.1880    0.0000 C   0  0  0  0  0  0  0  0  0  0  0  0
    4.2704    7.6913    0.0000 C   0  0  0  0  0  0  0  0  0  0  0  0
  1 16  1  0
  1 24  1  0
 21  2  1  1
  2 25  1  0
  3 21  1  0
  3 26  1  0
 17  4  1  6
 18  5  1  1
 24  6  1  1
  6 28  1  0
 19  7  1  6
 20  8  1  6
 22  9  1  6
 23 10  1  1
 11 29  1  0
 11 37  1  0
 12 31  1  0
 12 35  1  0
 13 32  1  0
 14 34  2  0
 15 43  1  0
 15 44  1  0
 16 17  1  0
 16 25  1  1
 17 18  1  0
 18 19  1  0
 19 24  1  0
 20 21  1  0
 20 22  1  0
 22 23  1  0
 23 26  1  0
 26 27  1  6
 28 29  2  0
 28 30  1  0
 29 32  1  0
 30 31  2  0
 31 33  1  0
 32 33  2  0
 33 34  1  0
 34 36  1  0
 35 36  2  0
 35 38  1  0
 38 39  2  0
 38 40  1  0
 39 41  1  0
 40 42  2  0
 41 43  2  0
 42 43  1  0
M  END
>  <PUBCHEM_COMPOUND_CID>  (1) 
168849

>  <PUBCHEM_COMPOUND_CANONICALIZED>  (1) 
1

>  <PUBCHEM_CACTVS_COMPLEXITY>  (1) 
1000

>  <PUBCHEM_CACTVS_HBOND_ACCEPTOR>  (1) 
15

>  <PUBCHEM_CACTVS_HBOND_DONOR>  (1) 
7

>  <PUBCHEM_CACTVS_ROTATABLE_BOND>  (1) 
8

>  <PUBCHEM_CACTVS_SUBSKEYS>  (1) 
AAADcfB4PAAAAAAAAAAAAAAAAAAAAAAAAAA0aIECAAAAAACBQAAAGgAACAAADBSwmAMyDoAABgCIAqBSAAACCAAkIAAIiAEGiMgdNzaGNRqieWOl4BUPuQfK7LzOIQABCAAIQABCAAIQABCAAAAAAAAAAA==

>  <PUBCHEM_IUPAC_OPENEYE_NAME>  (1) 
5-hydroxy-6-methoxy-2-(4-methoxyphenyl)-7-[(2S,3R,4S,5S,6R)-3,4,5-trihydroxy-6-[[(2R,3R,4R,5R,6S)-3,4,5-trihydroxy-6-methyl-tetrahydropyran-2-yl]oxymethyl]tetrahydropyran-2-yl]oxy-chromen-4-one

>  <PUBCHEM_IUPAC_CAS_NAME>  (1) 
5-hydroxy-6-methoxy-2-(4-methoxyphenyl)-7-[[(2S,3R,4S,5S,6R)-3,4,5-trihydroxy-6-[[(2R,3R,4R,5R,6S)-3,4,5-trihydroxy-6-methyl-2-oxanyl]oxymethyl]-2-oxanyl]oxy]-1-benzopyran-4-one

>  <PUBCHEM_IUPAC_NAME_MARKUP>  (1) 
5-hydroxy-6-methoxy-2-(4-methoxyphenyl)-7-[(2<I>S</I>,3<I>R</I>,4<I>S</I>,5<I>S</I>,6<I>R</I>)-3,4,5-trihydroxy-6-[[(2<I>R</I>,3<I>R</I>,4<I>R</I>,5<I>R</I>,6<I>S</I>)-3,4,5-trihydroxy-6-methyloxan-2-yl]oxymethyl]oxan-2-yl]oxychromen-4-one

>  <PUBCHEM_IUPAC_NAME>  (1) 
5-hydroxy-6-methoxy-2-(4-methoxyphenyl)-7-[(2S,3R,4S,5S,6R)-3,4,5-trihydroxy-6-[[(2R,3R,4R,5R,6S)-3,4,5-trihydroxy-6-methyloxan-2-yl]oxymethyl]oxan-2-yl]oxychromen-4-one

>  <PUBCHEM_IUPAC_SYSTEMATIC_NAME>  (1) 
6-methoxy-2-(4-methoxyphenyl)-7-[(2S,3R,4S,5S,6R)-6-[[(2R,3R,4R,5R,6S)-6-methyl-3,4,5-tris(oxidanyl)oxan-2-yl]oxymethyl]-3,4,5-tris(oxidanyl)oxan-2-yl]oxy-5-oxidanyl-chromen-4-one

>  <PUBCHEM_IUPAC_TRADITIONAL_NAME>  (1) 
5-hydroxy-6-methoxy-2-(4-methoxyphenyl)-7-[(2S,3R,4S,5S,6R)-3,4,5-trihydroxy-6-[[(2R,3R,4R,5R,6S)-3,4,5-trihydroxy-6-methyl-tetrahydropyran-2-yl]oxymethyl]tetrahydropyran-2-yl]oxy-chromone

>  <PUBCHEM_IUPAC_INCHI>  (1) 
InChI=1S/C29H34O15/c1-11-20(31)23(34)25(36)28(41-11)40-10-18-21(32)24(35)26(37)29(44-18)43-17-9-16-19(22(33)27(17)39-3)14(30)8-15(42-16)12-4-6-13(38-2)7-5-12/h4-9,11,18,20-21,23-26,28-29,31-37H,10H2,1-3H3/t11-,18+,20-,21+,23+,24-,25+,26+,28+,29+/m0/s1

>  <PUBCHEM_IUPAC_INCHIKEY>  (1) 
DUXQKCCELUKXOE-CBBZIXHGSA-N

>  <PUBCHEM_XLOGP3_AA>  (1) 
-0.5

>  <PUBCHEM_EXACT_MASS>  (1) 
622.18977037

>  <PUBCHEM_MOLECULAR_FORMULA>  (1) 
C29H34O15

>  <PUBCHEM_MOLECULAR_WEIGHT>  (1) 
622.6

>  <PUBCHEM_OPENEYE_CAN_SMILES>  (1) 
CC1C(C(C(C(O1)OCC2C(C(C(C(O2)OC3=C(C(=C4C(=C3)OC(=CC4=O)C5=CC=C(C=C5)OC)O)OC)O)O)O)O)O)O

>  <PUBCHEM_OPENEYE_ISO_SMILES>  (1) 
C[C@H]1[C@@H]([C@H]([C@H]([C@@H](O1)OC[C@@H]2[C@H]([C@@H]([C@H]([C@@H](O2)OC3=C(C(=C4C(=C3)OC(=CC4=O)C5=CC=C(C=C5)OC)O)OC)O)O)O)O)O)O

>  <PUBCHEM_CACTVS_TPSA>  (1) 
223

>  <PUBCHEM_MONOISOTOPIC_WEIGHT>  (1) 
622.18977037

>  <PUBCHEM_TOTAL_CHARGE>  (1) 
0

>  <PUBCHEM_HEAVY_ATOM_COUNT>  (1) 
44

>  <PUBCHEM_ATOM_DEF_STEREO_COUNT>  (1) 
10

>  <PUBCHEM_ATOM_UDEF_STEREO_COUNT>  (1) 
0

>  <PUBCHEM_BOND_DEF_STEREO_COUNT>  (1) 
0

>  <PUBCHEM_BOND_UDEF_STEREO_COUNT>  (1) 
0

>  <PUBCHEM_ISOTOPIC_ATOM_COUNT>  (1) 
0

>  <PUBCHEM_COMPONENT_COUNT>  (1) 
1

>  <PUBCHEM_CACTVS_TAUTO_COUNT>  (1) 
-1

>  <PUBCHEM_COORDINATE_TYPE>  (1) 
1
5
255

>  <PUBCHEM_BONDANNOTATIONS>  (1) 
23  10  5
12  31  8
12  35  8
16  25  5
21  2  5
26  27  6
28  29  8
28  30  8
29  32  8
30  31  8
31  33  8
32  33  8
33  34  8
34  36  8
35  36  8
38  39  8
38  40  8
39  41  8
17  4  6
40  42  8
41  43  8
42  43  8
18  5  5
24  6  5
19  7  6
20  8  6
22  9  6

$$$$
