637394
     RDKit          2D

 24 25  0  0  0  0  0  0  0  0999 V2000
    7.7331    1.7500    0.0000 O   0  0  0  0  0  0  0  0  0  0  0  0
    4.2690    5.7500    0.0000 O   0  0  0  0  0  0  0  0  0  0  0  0
   10.3312   -4.7500    0.0000 O   0  0  0  0  0  0  0  0  0  0  0  0
    2.5369    4.7500    0.0000 O   0  0  0  0  0  0  0  0  0  0  0  0
    8.5991   -5.7500    0.0000 O   0  0  0  0  0  0  0  0  0  0  0  0
    6.0010    2.7500    0.0000 C   0  0  0  0  0  0  0  0  0  0  0  0
    8.5991   -1.7500    0.0000 C   0  0  0  0  0  0  0  0  0  0  0  0
    6.0010    1.7500    0.0000 C   0  0  0  0  0  0  0  0  0  0  0  0
    7.7331   -1.2500    0.0000 C   0  0  0  0  0  0  0  0  0  0  0  0
    5.1350    3.2500    0.0000 C   0  0  0  0  0  0  0  0  0  0  0  0
    8.5991   -2.7500    0.0000 C   0  0  0  0  0  0  0  0  0  0  0  0
    6.8671    1.2500    0.0000 C   0  0  0  0  0  0  0  0  0  0  0  0
    7.7331   -0.2500    0.0000 C   0  0  0  0  0  0  0  0  0  0  0  0
    6.8671    0.2500    0.0000 C   0  0  0  0  0  0  0  0  0  0  0  0
    5.1350    4.2500    0.0000 C   0  0  0  0  0  0  0  0  0  0  0  0
    9.4651   -3.2500    0.0000 C   0  0  0  0  0  0  0  0  0  0  0  0
    4.2690    2.7500    0.0000 C   0  0  0  0  0  0  0  0  0  0  0  0
    7.7331   -3.2500    0.0000 C   0  0  0  0  0  0  0  0  0  0  0  0
    4.2690    4.7500    0.0000 C   0  0  0  0  0  0  0  0  0  0  0  0
    9.4651   -4.2500    0.0000 C   0  0  0  0  0  0  0  0  0  0  0  0
    3.4030    3.2500    0.0000 C   0  0  0  0  0  0  0  0  0  0  0  0
    7.7331   -4.2500    0.0000 C   0  0  0  0  0  0  0  0  0  0  0  0
    3.4030    4.2500    0.0000 C   0  0  0  0  0  0  0  0  0  0  0  0
    8.5991   -4.7500    0.0000 C   0  0  0  0  0  0  0  0  0  0  0  0
  1 12  2  0
  2 19  1  0
  3 20  1  0
  4 23  1  0
  5 24  1  0
  6  8  1  0
  6 10  1  0
  7  9  1  0
  7 11  1  0
  8 12  1  0
  9 13  1  0
 10 15  2  0
 10 17  1  0
 11 16  2  0
 11 18  1  0
 12 14  1  0
 13 14  2  0
 15 19  1  0
 16 20  1  0
 17 21  2  0
 18 22  2  0
 19 23  2  0
 20 24  2  0
 21 23  1  0
 22 24  1  0
M  END
>  <PUBCHEM_COMPOUND_CID>  (1) 
637394

>  <PUBCHEM_COMPOUND_CANONICALIZED>  (1) 
1

>  <PUBCHEM_CACTVS_COMPLEXITY>  (1) 
422

>  <PUBCHEM_CACTVS_HBOND_ACCEPTOR>  (1) 
5

>  <PUBCHEM_CACTVS_HBOND_DONOR>  (1) 
4

>  <PUBCHEM_CACTVS_ROTATABLE_BOND>  (1) 
7

>  <PUBCHEM_CACTVS_SUBSKEYS>  (1) 
AAADceB4OAAAAAAAAAAAAAAAAAAAAAAAAAAwYAAAAAAAAAABQAAAGgAACAAADASAmAAwBoAAAgCIAqBSAAACAAAgIAAIiAEGiMgJJjKCERKAcAEkwBEJmYeIyLCOIAABAAAAQABAAAIAAACAAAAAAAAAAA==

>  <PUBCHEM_IUPAC_OPENEYE_NAME>  (1) 
(E)-1,7-bis(3,4-dihydroxyphenyl)hept-4-en-3-one

>  <PUBCHEM_IUPAC_CAS_NAME>  (1) 
(E)-1,7-bis(3,4-dihydroxyphenyl)-4-hepten-3-one

>  <PUBCHEM_IUPAC_NAME_MARKUP>  (1) 
(<I>E</I>)-1,7-bis(3,4-dihydroxyphenyl)hept-4-en-3-one

>  <PUBCHEM_IUPAC_NAME>  (1) 
(E)-1,7-bis(3,4-dihydroxyphenyl)hept-4-en-3-one

>  <PUBCHEM_IUPAC_SYSTEMATIC_NAME>  (1) 
(E)-1,7-bis[3,4-bis(oxidanyl)phenyl]hept-4-en-3-one

>  <PUBCHEM_IUPAC_TRADITIONAL_NAME>  (1) 
(E)-1,7-bis(3,4-dihydroxyphenyl)hept-4-en-3-one

>  <PUBCHEM_IUPAC_INCHI>  (1) 
InChI=1S/C19H20O5/c20-15(8-5-14-7-10-17(22)19(24)12-14)4-2-1-3-13-6-9-16(21)18(23)11-13/h2,4,6-7,9-12,21-24H,1,3,5,8H2/b4-2+

>  <PUBCHEM_IUPAC_INCHIKEY>  (1) 
VWHYFMQKJYFLCC-DUXPYHPUSA-N

>  <PUBCHEM_XLOGP3_AA>  (1) 
3.1

>  <PUBCHEM_EXACT_MASS>  (1) 
328.13107373

>  <PUBCHEM_MOLECULAR_FORMULA>  (1) 
C19H20O5

>  <PUBCHEM_MOLECULAR_WEIGHT>  (1) 
328.4

>  <PUBCHEM_OPENEYE_CAN_SMILES>  (1) 
C1=CC(=C(C=C1CCC=CC(=O)CCC2=CC(=C(C=C2)O)O)O)O

>  <PUBCHEM_OPENEYE_ISO_SMILES>  (1) 
C1=CC(=C(C=C1CC/C=C/C(=O)CCC2=CC(=C(C=C2)O)O)O)O

>  <PUBCHEM_CACTVS_TPSA>  (1) 
98

>  <PUBCHEM_MONOISOTOPIC_WEIGHT>  (1) 
328.13107373

>  <PUBCHEM_TOTAL_CHARGE>  (1) 
0

>  <PUBCHEM_HEAVY_ATOM_COUNT>  (1) 
24

>  <PUBCHEM_ATOM_DEF_STEREO_COUNT>  (1) 
0

>  <PUBCHEM_ATOM_UDEF_STEREO_COUNT>  (1) 
0

>  <PUBCHEM_BOND_DEF_STEREO_COUNT>  (1) 
1

>  <PUBCHEM_BOND_UDEF_STEREO_COUNT>  (1) 
0

>  <PUBCHEM_ISOTOPIC_ATOM_COUNT>  (1) 
0

>  <PUBCHEM_COMPONENT_COUNT>  (1) 
1

>  <PUBCHEM_CACTVS_TAUTO_COUNT>  (1) 
998

>  <PUBCHEM_COORDINATE_TYPE>  (1) 
1
5
255

>  <PUBCHEM_BONDANNOTATIONS>  (1) 
10  15  8
10  17  8
11  16  8
11  18  8
15  19  8
16  20  8
17  21  8
18  22  8
19  23  8
20  24  8
21  23  8
22  24  8

$$$$
