969516
     RDKit          2D

 27 28  0  0  0  0  0  0  0  0999 V2000
    8.9282    5.6550    0.0000 O   0  0  0  0  0  0  0  0  0  0  0  0
    2.8660   -4.8450    0.0000 O   0  0  0  0  0  0  0  0  0  0  0  0
   10.6603    4.6550    0.0000 O   0  0  0  0  0  0  0  0  0  0  0  0
    4.5981   -5.8450    0.0000 O   0  0  0  0  0  0  0  0  0  0  0  0
    5.4641    1.6550    0.0000 O   0  0  0  0  0  0  0  0  0  0  0  0
    4.5981    0.1550    0.0000 O   0  0  0  0  0  0  0  0  0  0  0  0
    8.0622    3.1550    0.0000 C   0  0  0  0  0  0  0  0  0  0  0  0
    4.5981   -2.8450    0.0000 C   0  0  0  0  0  0  0  0  0  0  0  0
    6.3301    0.1550    0.0000 C   0  0  0  0  0  0  0  0  0  0  0  0
    8.0622    4.1550    0.0000 C   0  0  0  0  0  0  0  0  0  0  0  0
    3.7320   -3.3450    0.0000 C   0  0  0  0  0  0  0  0  0  0  0  0
    8.9282    4.6550    0.0000 C   0  0  0  0  0  0  0  0  0  0  0  0
    3.7320   -4.3450    0.0000 C   0  0  0  0  0  0  0  0  0  0  0  0
    8.9282    2.6550    0.0000 C   0  0  0  0  0  0  0  0  0  0  0  0
    5.4641   -3.3450    0.0000 C   0  0  0  0  0  0  0  0  0  0  0  0
    7.1962    2.6550    0.0000 C   0  0  0  0  0  0  0  0  0  0  0  0
    4.5981   -1.8450    0.0000 C   0  0  0  0  0  0  0  0  0  0  0  0
    9.7942    4.1550    0.0000 C   0  0  0  0  0  0  0  0  0  0  0  0
    4.5981   -4.8450    0.0000 C   0  0  0  0  0  0  0  0  0  0  0  0
    6.3301    1.1550    0.0000 C   0  0  0  0  0  0  0  0  0  0  0  0
    5.4641   -0.3450    0.0000 C   0  0  0  0  0  0  0  0  0  0  0  0
    9.7942    3.1550    0.0000 C   0  0  0  0  0  0  0  0  0  0  0  0
    5.4641   -4.3450    0.0000 C   0  0  0  0  0  0  0  0  0  0  0  0
    7.1962    1.6550    0.0000 C   0  0  0  0  0  0  0  0  0  0  0  0
    5.4641   -1.3450    0.0000 C   0  0  0  0  0  0  0  0  0  0  0  0
    8.0622    6.1550    0.0000 C   0  0  0  0  0  0  0  0  0  0  0  0
    2.0000   -4.3450    0.0000 C   0  0  0  0  0  0  0  0  0  0  0  0
  1 12  1  0
  1 26  1  0
  2 13  1  0
  2 27  1  0
  3 18  1  0
  4 19  1  0
  5 20  2  0
  6 21  2  0
  7 10  2  0
  7 14  1  0
  7 16  1  0
  8 11  2  0
  8 15  1  0
  8 17  1  0
  9 20  1  0
  9 21  1  0
 10 12  1  0
 11 13  1  0
 12 18  2  0
 13 19  2  0
 14 22  2  0
 15 23  2  0
 16 24  2  0
 17 25  2  0
 18 22  1  0
 19 23  1  0
 20 24  1  0
 21 25  1  0
M  END
>  <PUBCHEM_COMPOUND_CID>  (1) 
969516

>  <PUBCHEM_COMPOUND_CANONICALIZED>  (1) 
1

>  <PUBCHEM_CACTVS_COMPLEXITY>  (1) 
507

>  <PUBCHEM_CACTVS_HBOND_ACCEPTOR>  (1) 
6

>  <PUBCHEM_CACTVS_HBOND_DONOR>  (1) 
2

>  <PUBCHEM_CACTVS_ROTATABLE_BOND>  (1) 
8

>  <PUBCHEM_CACTVS_SUBSKEYS>  (1) 
AAADceB4OAAAAAAAAAAAAAAAAAAAAAAAAAAwYAAAAAAAAAABQAAAGgAACAAADASAmAIyBoAABgCIAqBSAAACCAAgIAAIiAEGiMgNJjKOMRqAcCMkwBELuYeAwBAOIAABAAAAQABAAAIAAACAAAAAAAAAAA==

>  <PUBCHEM_IUPAC_OPENEYE_NAME>  (1) 
(1E,6E)-1,7-bis(4-hydroxy-3-methoxy-phenyl)hepta-1,6-diene-3,5-dione

>  <PUBCHEM_IUPAC_CAS_NAME>  (1) 
(1E,6E)-1,7-bis(4-hydroxy-3-methoxyphenyl)hepta-1,6-diene-3,5-dione

>  <PUBCHEM_IUPAC_NAME_MARKUP>  (1) 
(1<I>E</I>,6<I>E</I>)-1,7-bis(4-hydroxy-3-methoxyphenyl)hepta-1,6-diene-3,5-dione

>  <PUBCHEM_IUPAC_NAME>  (1) 
(1E,6E)-1,7-bis(4-hydroxy-3-methoxyphenyl)hepta-1,6-diene-3,5-dione

>  <PUBCHEM_IUPAC_SYSTEMATIC_NAME>  (1) 
(1E,6E)-1,7-bis(3-methoxy-4-oxidanyl-phenyl)hepta-1,6-diene-3,5-dione

>  <PUBCHEM_IUPAC_TRADITIONAL_NAME>  (1) 
(1E,6E)-1,7-bis(4-hydroxy-3-methoxy-phenyl)hepta-1,6-diene-3,5-dione

>  <PUBCHEM_IUPAC_INCHI>  (1) 
InChI=1S/C21H20O6/c1-26-20-11-14(5-9-18(20)24)3-7-16(22)13-17(23)8-4-15-6-10-19(25)21(12-15)27-2/h3-12,24-25H,13H2,1-2H3/b7-3+,8-4+

>  <PUBCHEM_IUPAC_INCHIKEY>  (1) 
VFLDPWHFBUODDF-FCXRPNKRSA-N

>  <PUBCHEM_XLOGP3_AA>  (1) 
3.2

>  <PUBCHEM_EXACT_MASS>  (1) 
368.12598835

>  <PUBCHEM_MOLECULAR_FORMULA>  (1) 
C21H20O6

>  <PUBCHEM_MOLECULAR_WEIGHT>  (1) 
368.4

>  <PUBCHEM_OPENEYE_CAN_SMILES>  (1) 
COC1=C(C=CC(=C1)C=CC(=O)CC(=O)C=CC2=CC(=C(C=C2)O)OC)O

>  <PUBCHEM_OPENEYE_ISO_SMILES>  (1) 
COC1=C(C=CC(=C1)/C=C/C(=O)CC(=O)/C=C/C2=CC(=C(C=C2)O)OC)O

>  <PUBCHEM_CACTVS_TPSA>  (1) 
93.1

>  <PUBCHEM_MONOISOTOPIC_WEIGHT>  (1) 
368.12598835

>  <PUBCHEM_TOTAL_CHARGE>  (1) 
0

>  <PUBCHEM_HEAVY_ATOM_COUNT>  (1) 
27

>  <PUBCHEM_ATOM_DEF_STEREO_COUNT>  (1) 
0

>  <PUBCHEM_ATOM_UDEF_STEREO_COUNT>  (1) 
0

>  <PUBCHEM_BOND_DEF_STEREO_COUNT>  (1) 
2

>  <PUBCHEM_BOND_UDEF_STEREO_COUNT>  (1) 
0

>  <PUBCHEM_ISOTOPIC_ATOM_COUNT>  (1) 
0

>  <PUBCHEM_COMPONENT_COUNT>  (1) 
1

>  <PUBCHEM_CACTVS_TAUTO_COUNT>  (1) 
-1

>  <PUBCHEM_COORDINATE_TYPE>  (1) 
1
5
255

>  <PUBCHEM_BONDANNOTATIONS>  (1) 
10  12  8
11  13  8
12  18  8
13  19  8
14  22  8
15  23  8
18  22  8
19  23  8
7  10  8
7  14  8
8  11  8
8  15  8

$$$$
