71659767
     RDKit          2D

 34 37  0  0  1  0  0  0  0  0999 V2000
    7.0360   -0.1743    0.0000 O   0  0  0  0  0  0  0  0  0  0  0  0
   10.5560   -0.1743    0.0000 O   0  0  0  0  0  0  0  0  0  0  0  0
    2.6200    2.9242    0.0000 O   0  0  0  0  0  0  0  0  0  0  0  0
    8.7960    2.8604    0.0000 O   0  0  0  0  0  0  0  0  0  0  0  0
   12.3261    1.8846    0.0000 O   0  0  0  0  0  0  0  0  0  0  0  0
   10.5444    2.8950    0.0000 O   0  0  0  0  0  0  0  0  0  0  0  0
   13.1825   -2.6671    0.0000 O   0  0  0  0  0  0  0  0  0  0  0  0
   14.9184   -1.6738    0.0000 O   0  0  0  0  0  0  0  0  0  0  0  0
    6.1300    0.3396    0.0000 C   0  0  0  0  0  0  0  0  0  0  0  0
    6.1300    1.3812    0.0000 C   0  0  0  0  0  0  0  0  0  0  0  0
    5.1300    0.3357    0.0000 C   0  0  0  0  0  0  0  0  0  0  0  0
    7.0360    1.8951    0.0000 C   0  0  0  0  0  0  0  0  0  0  0  0
    4.6267    1.1998    0.0000 C   0  0  0  0  0  0  0  0  0  0  0  0
    7.9300    1.3604    0.0000 C   0  0  0  0  0  0  0  0  0  0  0  0
    5.6333   -0.5284    0.0000 C   0  0  0  0  0  0  0  0  0  0  0  0
    7.9300    0.3604    0.0000 C   0  0  0  0  0  0  0  0  0  0  0  0
    3.6267    1.1960    0.0000 C   0  0  0  0  0  0  0  0  0  0  0  0
    3.1233    2.0601    0.0000 C   0  0  0  0  0  0  0  0  0  0  0  0
    8.7960    1.8604    0.0000 C   0  0  0  0  0  0  0  0  0  0  0  0
    9.6620    1.3604    0.0000 C   0  0  0  0  0  0  0  0  0  0  0  0
    8.7960   -0.1396    0.0000 C   0  0  0  0  0  0  0  0  0  0  0  0
    9.6620    0.3604    0.0000 C   0  0  0  0  0  0  0  0  0  0  0  0
   11.4621    0.3396    0.0000 C   0  0  0  0  0  0  0  0  0  0  0  0
   11.4621    1.3812    0.0000 C   0  0  0  0  0  0  0  0  0  0  0  0
   10.5560    1.8951    0.0000 C   0  0  0  0  0  0  0  0  0  0  0  0
    2.2592    1.5567    0.0000 C   0  0  0  0  0  0  0  0  0  0  0  0
    3.9874    2.5634    0.0000 C   0  0  0  0  0  0  0  0  0  0  0  0
   12.3261   -0.1637    0.0000 C   0  0  0  0  0  0  0  0  0  0  0  0
   12.3223   -1.1637    0.0000 C   0  0  0  0  0  0  0  0  0  0  0  0
   13.1941    0.3329    0.0000 C   0  0  0  0  0  0  0  0  0  0  0  0
   13.1864   -1.6671    0.0000 C   0  0  0  0  0  0  0  0  0  0  0  0
   14.0582   -0.1704    0.0000 C   0  0  0  0  0  0  0  0  0  0  0  0
   14.0543   -1.1704    0.0000 C   0  0  0  0  0  0  0  0  0  0  0  0
   14.0466   -3.1704    0.0000 C   0  0  0  0  0  0  0  0  0  0  0  0
  1  9  1  0
  1 16  1  0
  2 22  1  0
  2 23  1  0
  3 18  1  0
  4 19  1  0
 24  5  1  6
  6 25  2  0
  7 31  1  0
  7 34  1  0
  8 33  1  0
  9 10  1  0
  9 11  1  0
  9 15  1  0
 10 12  1  0
 11 13  1  0
 12 14  1  0
 13 17  1  0
 14 16  2  0
 14 19  1  0
 16 21  1  0
 17 18  1  0
 18 26  1  0
 18 27  1  0
 19 20  2  0
 20 22  1  0
 20 25  1  0
 21 22  2  0
 23 24  1  0
 23 28  1  1
 24 25  1  0
 28 29  2  0
 28 30  1  0
 29 31  1  0
 30 32  2  0
 31 33  2  0
 32 33  1  0
M  END
>  <PUBCHEM_COMPOUND_CID>  (1) 
71659767

>  <PUBCHEM_COMPOUND_CANONICALIZED>  (1) 
1

>  <PUBCHEM_CACTVS_COMPLEXITY>  (1) 
728

>  <PUBCHEM_CACTVS_HBOND_ACCEPTOR>  (1) 
8

>  <PUBCHEM_CACTVS_HBOND_DONOR>  (1) 
4

>  <PUBCHEM_CACTVS_ROTATABLE_BOND>  (1) 
6

>  <PUBCHEM_CACTVS_SUBSKEYS>  (1) 
AAADcfB4PAAAAAAAAAAAAAAAAAAAAAAAAAA0aIEAAAAAAACRQAAAGgAACAAADFSgmAIyBoAABgCIAqBSAAICCAAkIAAIiAFGiMgNNzaGNRqCeWOl4BULuQfI7PzOIAADCAAIQABAAAYQABCAAAAAAAAAAA==

>  <PUBCHEM_IUPAC_OPENEYE_NAME>  (1) 
(7R,8R)-5,7-dihydroxy-8-(4-hydroxy-3-methoxy-phenyl)-2-(4-hydroxy-4-methyl-pentyl)-2-methyl-3,4,7,8-tetrahydropyrano[3,2-g]chromen-6-one

>  <PUBCHEM_IUPAC_CAS_NAME>  (1) 
(7R,8R)-5,7-dihydroxy-8-(4-hydroxy-3-methoxyphenyl)-2-(4-hydroxy-4-methylpentyl)-2-methyl-3,4,7,8-tetrahydropyrano[3,2-g][1]benzopyran-6-one

>  <PUBCHEM_IUPAC_NAME_MARKUP>  (1) 
(7<I>R</I>,8<I>R</I>)-5,7-dihydroxy-8-(4-hydroxy-3-methoxyphenyl)-2-(4-hydroxy-4-methylpentyl)-2-methyl-3,4,7,8-tetrahydropyrano[3,2-g]chromen-6-one

>  <PUBCHEM_IUPAC_NAME>  (1) 
(7R,8R)-5,7-dihydroxy-8-(4-hydroxy-3-methoxyphenyl)-2-(4-hydroxy-4-methylpentyl)-2-methyl-3,4,7,8-tetrahydropyrano[3,2-g]chromen-6-one

>  <PUBCHEM_IUPAC_SYSTEMATIC_NAME>  (1) 
(7R,8R)-8-(3-methoxy-4-oxidanyl-phenyl)-2-methyl-2-(4-methyl-4-oxidanyl-pentyl)-5,7-bis(oxidanyl)-3,4,7,8-tetrahydropyrano[3,2-g]chromen-6-one

>  <PUBCHEM_IUPAC_TRADITIONAL_NAME>  (1) 
(7R,8R)-5,7-dihydroxy-8-(4-hydroxy-3-methoxy-phenyl)-2-(4-hydroxy-4-methyl-pentyl)-2-methyl-3,4,7,8-tetrahydropyrano[3,2-g]chromen-6-one

>  <PUBCHEM_IUPAC_INCHI>  (1) 
InChI=1S/C26H32O8/c1-25(2,31)9-5-10-26(3)11-8-15-17(34-26)13-19-20(21(15)28)22(29)23(30)24(33-19)14-6-7-16(27)18(12-14)32-4/h6-7,12-13,23-24,27-28,30-31H,5,8-11H2,1-4H3/t23-,24+,26?/m0/s1

>  <PUBCHEM_IUPAC_INCHIKEY>  (1) 
KWSGAQMDMOUWHH-GPTJOGTASA-N

>  <PUBCHEM_XLOGP3_AA>  (1) 
3.8

>  <PUBCHEM_EXACT_MASS>  (1) 
472.20971797

>  <PUBCHEM_MOLECULAR_FORMULA>  (1) 
C26H32O8

>  <PUBCHEM_MOLECULAR_WEIGHT>  (1) 
472.5

>  <PUBCHEM_OPENEYE_CAN_SMILES>  (1) 
CC1(CCC2=C(C3=C(C=C2O1)OC(C(C3=O)O)C4=CC(=C(C=C4)O)OC)O)CCCC(C)(C)O

>  <PUBCHEM_OPENEYE_ISO_SMILES>  (1) 
CC1(CCC2=C(C3=C(C=C2O1)O[C@@H]([C@H](C3=O)O)C4=CC(=C(C=C4)O)OC)O)CCCC(C)(C)O

>  <PUBCHEM_CACTVS_TPSA>  (1) 
126

>  <PUBCHEM_MONOISOTOPIC_WEIGHT>  (1) 
472.20971797

>  <PUBCHEM_TOTAL_CHARGE>  (1) 
0

>  <PUBCHEM_HEAVY_ATOM_COUNT>  (1) 
34

>  <PUBCHEM_ATOM_DEF_STEREO_COUNT>  (1) 
2

>  <PUBCHEM_ATOM_UDEF_STEREO_COUNT>  (1) 
1

>  <PUBCHEM_BOND_DEF_STEREO_COUNT>  (1) 
0

>  <PUBCHEM_BOND_UDEF_STEREO_COUNT>  (1) 
0

>  <PUBCHEM_ISOTOPIC_ATOM_COUNT>  (1) 
0

>  <PUBCHEM_COMPONENT_COUNT>  (1) 
1

>  <PUBCHEM_CACTVS_TAUTO_COUNT>  (1) 
-1

>  <PUBCHEM_COORDINATE_TYPE>  (1) 
1
5
255

>  <PUBCHEM_BONDANNOTATIONS>  (1) 
14  16  8
14  19  8
16  21  8
19  20  8
20  22  8
21  22  8
23  28  5
28  29  8
28  30  8
29  31  8
30  32  8
31  33  8
32  33  8
24  5  6
9  15  3

$$$$
