5281697
     RDKit          2D

 21 23  0  0  0  0  0  0  0  0999 V2000
    6.0290   -0.9226    0.0000 O   0  0  0  0  0  0  0  0  0  0  0  0
    4.2690    2.1121    0.0000 O   0  0  0  0  0  0  0  0  0  0  0  0
    2.5369    1.1121    0.0000 O   0  0  0  0  0  0  0  0  0  0  0  0
    2.5369   -0.8879    0.0000 O   0  0  0  0  0  0  0  0  0  0  0  0
    6.0174    2.1467    0.0000 O   0  0  0  0  0  0  0  0  0  0  0  0
   10.3914   -2.4221    0.0000 O   0  0  0  0  0  0  0  0  0  0  0  0
    5.1350    0.6121    0.0000 C   0  0  0  0  0  0  0  0  0  0  0  0
    5.1350   -0.3879    0.0000 C   0  0  0  0  0  0  0  0  0  0  0  0
    6.9350   -0.4087    0.0000 C   0  0  0  0  0  0  0  0  0  0  0  0
    6.0290    1.1467    0.0000 C   0  0  0  0  0  0  0  0  0  0  0  0
    4.2690    1.1121    0.0000 C   0  0  0  0  0  0  0  0  0  0  0  0
    7.7991   -0.9121    0.0000 C   0  0  0  0  0  0  0  0  0  0  0  0
    6.9350    0.6329    0.0000 C   0  0  0  0  0  0  0  0  0  0  0  0
    4.2690   -0.8879    0.0000 C   0  0  0  0  0  0  0  0  0  0  0  0
    3.4030    0.6121    0.0000 C   0  0  0  0  0  0  0  0  0  0  0  0
    3.4030   -0.3879    0.0000 C   0  0  0  0  0  0  0  0  0  0  0  0
    7.7953   -1.9121    0.0000 C   0  0  0  0  0  0  0  0  0  0  0  0
    8.6671   -0.4154    0.0000 C   0  0  0  0  0  0  0  0  0  0  0  0
    8.6594   -2.4154    0.0000 C   0  0  0  0  0  0  0  0  0  0  0  0
    9.5312   -0.9188    0.0000 C   0  0  0  0  0  0  0  0  0  0  0  0
    9.5273   -1.9187    0.0000 C   0  0  0  0  0  0  0  0  0  0  0  0
  1  8  1  0
  1  9  1  0
  2 11  1  0
  3 15  1  0
  4 16  1  0
  5 10  2  0
  6 21  1  0
  7  8  2  0
  7 10  1  0
  7 11  1  0
  8 14  1  0
  9 12  1  0
  9 13  2  0
 10 13  1  0
 11 15  2  0
 12 17  2  0
 12 18  1  0
 14 16  2  0
 15 16  1  0
 17 19  1  0
 18 20  2  0
 19 21  2  0
 20 21  1  0
M  END
>  <PUBCHEM_COMPOUND_CID>  (1) 
5281697

>  <PUBCHEM_COMPOUND_CANONICALIZED>  (1) 
1

>  <PUBCHEM_CACTVS_COMPLEXITY>  (1) 
439

>  <PUBCHEM_CACTVS_HBOND_ACCEPTOR>  (1) 
6

>  <PUBCHEM_CACTVS_HBOND_DONOR>  (1) 
4

>  <PUBCHEM_CACTVS_ROTATABLE_BOND>  (1) 
1

>  <PUBCHEM_CACTVS_SUBSKEYS>  (1) 
AAADccBwOAAAAAAAAAAAAAAAAAAAAAAAAAAwYIAAAAAAAACBQAAAGgAACAAADASAmAAwBoAABgCIAqBSAAACCAAkIAAIiAEGiMgNJzaGNRqCeWGl4BUJuQfK7LzOIQABCAAIQABCAAIQABCAAAAAAAAAAA==

>  <PUBCHEM_IUPAC_OPENEYE_NAME>  (1) 
5,6,7-trihydroxy-2-(4-hydroxyphenyl)chromen-4-one

>  <PUBCHEM_IUPAC_CAS_NAME>  (1) 
5,6,7-trihydroxy-2-(4-hydroxyphenyl)-1-benzopyran-4-one

>  <PUBCHEM_IUPAC_NAME_MARKUP>  (1) 
5,6,7-trihydroxy-2-(4-hydroxyphenyl)chromen-4-one

>  <PUBCHEM_IUPAC_NAME>  (1) 
5,6,7-trihydroxy-2-(4-hydroxyphenyl)chromen-4-one

>  <PUBCHEM_IUPAC_SYSTEMATIC_NAME>  (1) 
2-(4-hydroxyphenyl)-5,6,7-tris(oxidanyl)chromen-4-one

>  <PUBCHEM_IUPAC_TRADITIONAL_NAME>  (1) 
5,6,7-trihydroxy-2-(4-hydroxyphenyl)chromone

>  <PUBCHEM_IUPAC_INCHI>  (1) 
InChI=1S/C15H10O6/c16-8-3-1-7(2-4-8)11-5-9(17)13-12(21-11)6-10(18)14(19)15(13)20/h1-6,16,18-20H

>  <PUBCHEM_IUPAC_INCHIKEY>  (1) 
JVXZRQGOGOXCEC-UHFFFAOYSA-N

>  <PUBCHEM_XLOGP3>  (1) 
1.4

>  <PUBCHEM_EXACT_MASS>  (1) 
286.04773803

>  <PUBCHEM_MOLECULAR_FORMULA>  (1) 
C15H10O6

>  <PUBCHEM_MOLECULAR_WEIGHT>  (1) 
286.24

>  <PUBCHEM_OPENEYE_CAN_SMILES>  (1) 
C1=CC(=CC=C1C2=CC(=O)C3=C(O2)C=C(C(=C3O)O)O)O

>  <PUBCHEM_OPENEYE_ISO_SMILES>  (1) 
C1=CC(=CC=C1C2=CC(=O)C3=C(O2)C=C(C(=C3O)O)O)O

>  <PUBCHEM_CACTVS_TPSA>  (1) 
107

>  <PUBCHEM_MONOISOTOPIC_WEIGHT>  (1) 
286.04773803

>  <PUBCHEM_TOTAL_CHARGE>  (1) 
0

>  <PUBCHEM_HEAVY_ATOM_COUNT>  (1) 
21

>  <PUBCHEM_ATOM_DEF_STEREO_COUNT>  (1) 
0

>  <PUBCHEM_ATOM_UDEF_STEREO_COUNT>  (1) 
0

>  <PUBCHEM_BOND_DEF_STEREO_COUNT>  (1) 
0

>  <PUBCHEM_BOND_UDEF_STEREO_COUNT>  (1) 
0

>  <PUBCHEM_ISOTOPIC_ATOM_COUNT>  (1) 
0

>  <PUBCHEM_COMPONENT_COUNT>  (1) 
1

>  <PUBCHEM_CACTVS_TAUTO_COUNT>  (1) 
-1

>  <PUBCHEM_COORDINATE_TYPE>  (1) 
1
5
255

>  <PUBCHEM_BONDANNOTATIONS>  (1) 
1  8  8
1  9  8
10  13  8
11  15  8
12  17  8
12  18  8
14  16  8
15  16  8
17  19  8
18  20  8
19  21  8
20  21  8
7  10  8
7  11  8
7  8  8
8  14  8
9  13  8

$$$$
