5280544
     RDKit          2D

 22 24  0  0  0  0  0  0  0  0999 V2000
    6.0682   -0.6154    0.0000 O   0  0  0  0  0  0  0  0  0  0  0  0
    7.8003    1.3846    0.0000 O   0  0  0  0  0  0  0  0  0  0  0  0
    4.3198    2.4192    0.0000 O   0  0  0  0  0  0  0  0  0  0  0  0
    4.3198   -1.6500    0.0000 O   0  0  0  0  0  0  0  0  0  0  0  0
    6.0682    2.3846    0.0000 O   0  0  0  0  0  0  0  0  0  0  0  0
    2.5381   -0.6395    0.0000 O   0  0  0  0  0  0  0  0  0  0  0  0
   10.3984   -2.1154    0.0000 O   0  0  0  0  0  0  0  0  0  0  0  0
    5.2022    0.8846    0.0000 C   0  0  0  0  0  0  0  0  0  0  0  0
    5.2022   -0.1154    0.0000 C   0  0  0  0  0  0  0  0  0  0  0  0
    6.9343   -0.1154    0.0000 C   0  0  0  0  0  0  0  0  0  0  0  0
    6.0682    1.3846    0.0000 C   0  0  0  0  0  0  0  0  0  0  0  0
    6.9343    0.8846    0.0000 C   0  0  0  0  0  0  0  0  0  0  0  0
    7.8003   -0.6154    0.0000 C   0  0  0  0  0  0  0  0  0  0  0  0
    4.3083    1.4193    0.0000 C   0  0  0  0  0  0  0  0  0  0  0  0
    4.3083   -0.6501    0.0000 C   0  0  0  0  0  0  0  0  0  0  0  0
    3.4022   -0.1362    0.0000 C   0  0  0  0  0  0  0  0  0  0  0  0
    3.4022    0.9054    0.0000 C   0  0  0  0  0  0  0  0  0  0  0  0
    7.8003   -1.6154    0.0000 C   0  0  0  0  0  0  0  0  0  0  0  0
    8.6663   -0.1154    0.0000 C   0  0  0  0  0  0  0  0  0  0  0  0
    8.6663   -2.1154    0.0000 C   0  0  0  0  0  0  0  0  0  0  0  0
    9.5323   -0.6154    0.0000 C   0  0  0  0  0  0  0  0  0  0  0  0
    9.5323   -1.6154    0.0000 C   0  0  0  0  0  0  0  0  0  0  0  0
  1  9  1  0
  1 10  1  0
  2 12  1  0
  3 14  1  0
  4 15  1  0
  5 11  2  0
  6 16  1  0
  7 22  1  0
  8  9  2  0
  8 11  1  0
  8 14  1  0
  9 15  1  0
 10 12  2  0
 10 13  1  0
 11 12  1  0
 13 18  2  0
 13 19  1  0
 14 17  2  0
 15 16  2  0
 16 17  1  0
 18 20  1  0
 19 21  2  0
 20 22  2  0
 21 22  1  0
M  END
>  <PUBCHEM_COMPOUND_CID>  (1) 
5280544

>  <PUBCHEM_COMPOUND_CANONICALIZED>  (1) 
1

>  <PUBCHEM_CACTVS_COMPLEXITY>  (1) 
480

>  <PUBCHEM_CACTVS_HBOND_ACCEPTOR>  (1) 
7

>  <PUBCHEM_CACTVS_HBOND_DONOR>  (1) 
5

>  <PUBCHEM_CACTVS_ROTATABLE_BOND>  (1) 
1

>  <PUBCHEM_CACTVS_SUBSKEYS>  (1) 
AAADccBwOAAAAAAAAAAAAAAAAAAAAAAAAAAwYIAAAAAAAACBQAAAGgAACAAADASAmAAwBoAABgCIAqBSAAICCAAkIAAIiAFGiMgNJzaGNRqCeWOl4BULuQfK7LzOIQABCAAIQABCAAIQABCAAAAAAAAAAA==

>  <PUBCHEM_IUPAC_OPENEYE_NAME>  (1) 
3,5,7,8-tetrahydroxy-2-(4-hydroxyphenyl)chromen-4-one

>  <PUBCHEM_IUPAC_CAS_NAME>  (1) 
3,5,7,8-tetrahydroxy-2-(4-hydroxyphenyl)-1-benzopyran-4-one

>  <PUBCHEM_IUPAC_NAME_MARKUP>  (1) 
3,5,7,8-tetrahydroxy-2-(4-hydroxyphenyl)chromen-4-one

>  <PUBCHEM_IUPAC_NAME>  (1) 
3,5,7,8-tetrahydroxy-2-(4-hydroxyphenyl)chromen-4-one

>  <PUBCHEM_IUPAC_SYSTEMATIC_NAME>  (1) 
2-(4-hydroxyphenyl)-3,5,7,8-tetrakis(oxidanyl)chromen-4-one

>  <PUBCHEM_IUPAC_TRADITIONAL_NAME>  (1) 
3,5,7,8-tetrahydroxy-2-(4-hydroxyphenyl)chromone

>  <PUBCHEM_IUPAC_INCHI>  (1) 
InChI=1S/C15H10O7/c16-7-3-1-6(2-4-7)14-13(21)12(20)10-8(17)5-9(18)11(19)15(10)22-14/h1-5,16-19,21H

>  <PUBCHEM_IUPAC_INCHIKEY>  (1) 
ZDOTZEDNGNPOEW-UHFFFAOYSA-N

>  <PUBCHEM_XLOGP3_AA>  (1) 
2.2

>  <PUBCHEM_EXACT_MASS>  (1) 
302.04265265

>  <PUBCHEM_MOLECULAR_FORMULA>  (1) 
C15H10O7

>  <PUBCHEM_MOLECULAR_WEIGHT>  (1) 
302.23

>  <PUBCHEM_OPENEYE_CAN_SMILES>  (1) 
C1=CC(=CC=C1C2=C(C(=O)C3=C(O2)C(=C(C=C3O)O)O)O)O

>  <PUBCHEM_OPENEYE_ISO_SMILES>  (1) 
C1=CC(=CC=C1C2=C(C(=O)C3=C(O2)C(=C(C=C3O)O)O)O)O

>  <PUBCHEM_CACTVS_TPSA>  (1) 
127

>  <PUBCHEM_MONOISOTOPIC_WEIGHT>  (1) 
302.04265265

>  <PUBCHEM_TOTAL_CHARGE>  (1) 
0

>  <PUBCHEM_HEAVY_ATOM_COUNT>  (1) 
22

>  <PUBCHEM_ATOM_DEF_STEREO_COUNT>  (1) 
0

>  <PUBCHEM_ATOM_UDEF_STEREO_COUNT>  (1) 
0

>  <PUBCHEM_BOND_DEF_STEREO_COUNT>  (1) 
0

>  <PUBCHEM_BOND_UDEF_STEREO_COUNT>  (1) 
0

>  <PUBCHEM_ISOTOPIC_ATOM_COUNT>  (1) 
0

>  <PUBCHEM_COMPONENT_COUNT>  (1) 
1

>  <PUBCHEM_CACTVS_TAUTO_COUNT>  (1) 
-1

>  <PUBCHEM_COORDINATE_TYPE>  (1) 
1
5
255

>  <PUBCHEM_BONDANNOTATIONS>  (1) 
1  10  8
1  9  8
10  12  8
11  12  8
13  18  8
13  19  8
14  17  8
15  16  8
16  17  8
18  20  8
19  21  8
20  22  8
21  22  8
8  11  8
8  14  8
8  9  8
9  15  8

$$$$
