164676
     RDKit          2D

 22 25  0  0  0  0  0  0  0  0999 V2000
    7.4714   -0.0717    0.0000 O   0  0  0  0  0  0  0  0  0  0  0  0
    3.9271    1.7331    0.0000 O   0  0  0  0  0  0  0  0  0  0  0  0
    5.6591    2.7331    0.0000 O   0  0  0  0  0  0  0  0  0  0  0  0
    2.9396   -1.8651    0.0000 C   0  0  0  0  0  0  0  0  0  0  0  0
    2.0000   -1.3226    0.0000 C   0  0  0  0  0  0  0  0  0  0  0  0
    3.8751   -1.3154    0.0000 C   0  0  0  0  0  0  0  0  0  0  0  0
    2.0084   -0.2377    0.0000 C   0  0  0  0  0  0  0  0  0  0  0  0
    3.8831   -0.2738    0.0000 C   0  0  0  0  0  0  0  0  0  0  0  0
    2.9562    0.2903    0.0000 C   0  0  0  0  0  0  0  0  0  0  0  0
    2.4430   -2.7331    0.0000 C   0  0  0  0  0  0  0  0  0  0  0  0
    3.4430   -2.7292    0.0000 C   0  0  0  0  0  0  0  0  0  0  0  0
    4.7931    0.2331    0.0000 C   0  0  0  0  0  0  0  0  0  0  0  0
    4.7771   -1.8362    0.0000 C   0  0  0  0  0  0  0  0  0  0  0  0
    5.6591   -0.2669    0.0000 C   0  0  0  0  0  0  0  0  0  0  0  0
    5.6752   -1.3084    0.0000 C   0  0  0  0  0  0  0  0  0  0  0  0
    6.5251    0.2331    0.0000 C   0  0  0  0  0  0  0  0  0  0  0  0
    4.7931    1.2331    0.0000 C   0  0  0  0  0  0  0  0  0  0  0  0
    6.5251    1.2331    0.0000 C   0  0  0  0  0  0  0  0  0  0  0  0
    5.6591    1.7331    0.0000 C   0  0  0  0  0  0  0  0  0  0  0  0
    7.4714    1.5378    0.0000 C   0  0  0  0  0  0  0  0  0  0  0  0
    8.0550    0.7331    0.0000 C   0  0  0  0  0  0  0  0  0  0  0  0
    7.7820    2.4883    0.0000 C   0  0  0  0  0  0  0  0  0  0  0  0
  1 16  1  0
  1 21  1  0
  2 17  2  0
  3 19  2  0
  4  5  1  0
  4  6  1  0
  4 10  1  0
  4 11  1  0
  5  7  1  0
  6  8  2  0
  6 13  1  0
  7  9  1  0
  8  9  1  0
  8 12  1  0
 12 14  2  0
 12 17  1  0
 13 15  2  0
 14 15  1  0
 14 16  1  0
 16 18  2  0
 17 19  1  0
 18 19  1  0
 18 20  1  0
 20 21  2  0
 20 22  1  0
M  END
>  <PUBCHEM_COMPOUND_CID>  (1) 
164676

>  <PUBCHEM_COMPOUND_CANONICALIZED>  (1) 
1

>  <PUBCHEM_CACTVS_COMPLEXITY>  (1) 
509

>  <PUBCHEM_CACTVS_HBOND_ACCEPTOR>  (1) 
3

>  <PUBCHEM_CACTVS_HBOND_DONOR>  (1) 
0

>  <PUBCHEM_CACTVS_ROTATABLE_BOND>  (1) 
0

>  <PUBCHEM_CACTVS_SUBSKEYS>  (1) 
AAADceB4MAAAAAAAAAAAAAAAAAAAASAAAAAwYMAAAAAAAEjBwAAAGgAAAAAADgSgmAIyBIAABECIAqhSgAACCAAkIAAIiAEECMgMJjaMNRqCOWCk4BEIqYeLzvDvwAACAAAQAACAAAYAADAAAAAAAAAAAA==

>  <PUBCHEM_IUPAC_OPENEYE_NAME>  (1) 
1,6,6-trimethyl-8,9-dihydro-7H-naphtho[1,2-g]benzofuran-10,11-dione

>  <PUBCHEM_IUPAC_CAS_NAME>  (1) 
1,6,6-trimethyl-8,9-dihydro-7H-naphtho[1,2-g]benzofuran-10,11-dione

>  <PUBCHEM_IUPAC_NAME_MARKUP>  (1) 
1,6,6-trimethyl-8,9-dihydro-7<I>H</I>-naphtho[1,2-g][1]benzofuran-10,11-dione

>  <PUBCHEM_IUPAC_NAME>  (1) 
1,6,6-trimethyl-8,9-dihydro-7H-naphtho[1,2-g][1]benzofuran-10,11-dione

>  <PUBCHEM_IUPAC_SYSTEMATIC_NAME>  (1) 
1,6,6-trimethyl-8,9-dihydro-7H-naphtho[1,2-g][1]benzofuran-10,11-dione

>  <PUBCHEM_IUPAC_TRADITIONAL_NAME>  (1) 
1,6,6-trimethyl-8,9-dihydro-7H-naphtho[1,2-g]benzofuran-10,11-quinone

>  <PUBCHEM_IUPAC_INCHI>  (1) 
InChI=1S/C19H18O3/c1-10-9-22-18-12-6-7-13-11(5-4-8-19(13,2)3)15(12)17(21)16(20)14(10)18/h6-7,9H,4-5,8H2,1-3H3

>  <PUBCHEM_IUPAC_INCHIKEY>  (1) 
HYXITZLLTYIPOF-UHFFFAOYSA-N

>  <PUBCHEM_XLOGP3_AA>  (1) 
4.3

>  <PUBCHEM_EXACT_MASS>  (1) 
294.125594432

>  <PUBCHEM_MOLECULAR_FORMULA>  (1) 
C19H18O3

>  <PUBCHEM_MOLECULAR_WEIGHT>  (1) 
294.3

>  <PUBCHEM_OPENEYE_CAN_SMILES>  (1) 
CC1=COC2=C1C(=O)C(=O)C3=C2C=CC4=C3CCCC4(C)C

>  <PUBCHEM_OPENEYE_ISO_SMILES>  (1) 
CC1=COC2=C1C(=O)C(=O)C3=C2C=CC4=C3CCCC4(C)C

>  <PUBCHEM_CACTVS_TPSA>  (1) 
47.3

>  <PUBCHEM_MONOISOTOPIC_WEIGHT>  (1) 
294.125594432

>  <PUBCHEM_TOTAL_CHARGE>  (1) 
0

>  <PUBCHEM_HEAVY_ATOM_COUNT>  (1) 
22

>  <PUBCHEM_ATOM_DEF_STEREO_COUNT>  (1) 
0

>  <PUBCHEM_ATOM_UDEF_STEREO_COUNT>  (1) 
0

>  <PUBCHEM_BOND_DEF_STEREO_COUNT>  (1) 
0

>  <PUBCHEM_BOND_UDEF_STEREO_COUNT>  (1) 
0

>  <PUBCHEM_ISOTOPIC_ATOM_COUNT>  (1) 
0

>  <PUBCHEM_COMPONENT_COUNT>  (1) 
1

>  <PUBCHEM_CACTVS_TAUTO_COUNT>  (1) 
-1

>  <PUBCHEM_COORDINATE_TYPE>  (1) 
1
5
255

>  <PUBCHEM_BONDANNOTATIONS>  (1) 
1  16  8
1  21  8
12  14  8
13  15  8
14  15  8
16  18  8
18  20  8
20  21  8
6  13  8
6  8  8
8  12  8

$$$$
