71659628
     RDKit          2D

 33 36  0  0  1  0  0  0  0  0999 V2000
    7.0360   -0.2699    0.0000 O   0  0  0  0  0  0  0  0  0  0  0  0
   10.5560   -0.2699    0.0000 O   0  0  0  0  0  0  0  0  0  0  0  0
    2.6200    2.8285    0.0000 O   0  0  0  0  0  0  0  0  0  0  0  0
    8.7960    2.7648    0.0000 O   0  0  0  0  0  0  0  0  0  0  0  0
   10.5444    2.7994    0.0000 O   0  0  0  0  0  0  0  0  0  0  0  0
   13.1825   -2.7627    0.0000 O   0  0  0  0  0  0  0  0  0  0  0  0
   14.9184   -1.7694    0.0000 O   0  0  0  0  0  0  0  0  0  0  0  0
    6.1300    0.2440    0.0000 C   0  0  0  0  0  0  0  0  0  0  0  0
    6.1300    1.2856    0.0000 C   0  0  0  0  0  0  0  0  0  0  0  0
    5.1300    0.2401    0.0000 C   0  0  0  0  0  0  0  0  0  0  0  0
    7.0360    1.7994    0.0000 C   0  0  0  0  0  0  0  0  0  0  0  0
    4.6267    1.1042    0.0000 C   0  0  0  0  0  0  0  0  0  0  0  0
    7.9300    1.2648    0.0000 C   0  0  0  0  0  0  0  0  0  0  0  0
    5.6333   -0.6240    0.0000 C   0  0  0  0  0  0  0  0  0  0  0  0
    7.9300    0.2648    0.0000 C   0  0  0  0  0  0  0  0  0  0  0  0
    3.6267    1.1003    0.0000 C   0  0  0  0  0  0  0  0  0  0  0  0
    3.1233    1.9644    0.0000 C   0  0  0  0  0  0  0  0  0  0  0  0
    8.7960    1.7648    0.0000 C   0  0  0  0  0  0  0  0  0  0  0  0
    8.7960   -0.2352    0.0000 C   0  0  0  0  0  0  0  0  0  0  0  0
    9.6620    1.2648    0.0000 C   0  0  0  0  0  0  0  0  0  0  0  0
    9.6620    0.2648    0.0000 C   0  0  0  0  0  0  0  0  0  0  0  0
   11.4621    0.2440    0.0000 C   0  0  0  0  0  0  0  0  0  0  0  0
   11.4621    1.2856    0.0000 C   0  0  0  0  0  0  0  0  0  0  0  0
    2.2592    1.4611    0.0000 C   0  0  0  0  0  0  0  0  0  0  0  0
    3.9874    2.4678    0.0000 C   0  0  0  0  0  0  0  0  0  0  0  0
   10.5560    1.7994    0.0000 C   0  0  0  0  0  0  0  0  0  0  0  0
   12.3261   -0.2594    0.0000 C   0  0  0  0  0  0  0  0  0  0  0  0
   12.3223   -1.2594    0.0000 C   0  0  0  0  0  0  0  0  0  0  0  0
   13.1941    0.2373    0.0000 C   0  0  0  0  0  0  0  0  0  0  0  0
   13.1864   -1.7627    0.0000 C   0  0  0  0  0  0  0  0  0  0  0  0
   14.0582   -0.2661    0.0000 C   0  0  0  0  0  0  0  0  0  0  0  0
   14.0543   -1.2660    0.0000 C   0  0  0  0  0  0  0  0  0  0  0  0
   15.7864   -1.2727    0.0000 C   0  0  0  0  0  0  0  0  0  0  0  0
  1  8  1  0
  1 15  1  0
  2 21  1  0
  2 22  1  0
  3 17  1  0
  4 18  1  0
  5 26  2  0
  6 30  1  0
  7 32  1  0
  7 33  1  0
  8  9  1  0
  8 10  1  0
  8 14  1  0
  9 11  1  0
 10 12  1  0
 11 13  1  0
 12 16  1  0
 13 15  2  0
 13 18  1  0
 15 19  1  0
 16 17  1  0
 17 24  1  0
 17 25  1  0
 18 20  2  0
 19 21  2  0
 20 21  1  0
 20 26  1  0
 22 23  1  0
 22 27  1  1
 23 26  1  0
 27 28  2  0
 27 29  1  0
 28 30  1  0
 29 31  2  0
 30 32  2  0
 31 32  1  0
M  END
>  <PUBCHEM_COMPOUND_CID>  (1) 
71659628

>  <PUBCHEM_COMPOUND_CANONICALIZED>  (1) 
1

>  <PUBCHEM_CACTVS_COMPLEXITY>  (1) 
696

>  <PUBCHEM_CACTVS_HBOND_ACCEPTOR>  (1) 
7

>  <PUBCHEM_CACTVS_HBOND_DONOR>  (1) 
3

>  <PUBCHEM_CACTVS_ROTATABLE_BOND>  (1) 
6

>  <PUBCHEM_CACTVS_SUBSKEYS>  (1) 
AAADcfB4OAAAAAAAAAAAAAAAAAAAAAAAAAA0aIEAAAAAAACRQAAAGgAACAAADFSgmAIyBoAABgCIAqBSAAACCAAkIAAIiAEGiMgNJzaGNRqCeWOl4BULuQfI7PzOIAADCAAIQABAAAYQABCAAAAAAAAAAA==

>  <PUBCHEM_IUPAC_OPENEYE_NAME>  (1) 
(8S)-5-hydroxy-8-(3-hydroxy-4-methoxy-phenyl)-2-(4-hydroxy-4-methyl-pentyl)-2-methyl-3,4,7,8-tetrahydropyrano[3,2-g]chromen-6-one

>  <PUBCHEM_IUPAC_CAS_NAME>  (1) 
(8S)-5-hydroxy-8-(3-hydroxy-4-methoxyphenyl)-2-(4-hydroxy-4-methylpentyl)-2-methyl-3,4,7,8-tetrahydropyrano[3,2-g][1]benzopyran-6-one

>  <PUBCHEM_IUPAC_NAME_MARKUP>  (1) 
(8<I>S</I>)-5-hydroxy-8-(3-hydroxy-4-methoxyphenyl)-2-(4-hydroxy-4-methylpentyl)-2-methyl-3,4,7,8-tetrahydropyrano[3,2-g]chromen-6-one

>  <PUBCHEM_IUPAC_NAME>  (1) 
(8S)-5-hydroxy-8-(3-hydroxy-4-methoxyphenyl)-2-(4-hydroxy-4-methylpentyl)-2-methyl-3,4,7,8-tetrahydropyrano[3,2-g]chromen-6-one

>  <PUBCHEM_IUPAC_SYSTEMATIC_NAME>  (1) 
(8S)-8-(4-methoxy-3-oxidanyl-phenyl)-2-methyl-2-(4-methyl-4-oxidanyl-pentyl)-5-oxidanyl-3,4,7,8-tetrahydropyrano[3,2-g]chromen-6-one

>  <PUBCHEM_IUPAC_TRADITIONAL_NAME>  (1) 
(8S)-5-hydroxy-8-(3-hydroxy-4-methoxy-phenyl)-2-(4-hydroxy-4-methyl-pentyl)-2-methyl-3,4,7,8-tetrahydropyrano[3,2-g]chromen-6-one

>  <PUBCHEM_IUPAC_INCHI>  (1) 
InChI=1S/C26H32O7/c1-25(2,30)9-5-10-26(3)11-8-16-21(33-26)14-22-23(24(16)29)18(28)13-20(32-22)15-6-7-19(31-4)17(27)12-15/h6-7,12,14,20,27,29-30H,5,8-11,13H2,1-4H3/t20-,26?/m0/s1

>  <PUBCHEM_IUPAC_INCHIKEY>  (1) 
JKVINBILQDMNEH-DQUNLGLBSA-N

>  <PUBCHEM_XLOGP3_AA>  (1) 
4.3

>  <PUBCHEM_EXACT_MASS>  (1) 
456.21480336

>  <PUBCHEM_MOLECULAR_FORMULA>  (1) 
C26H32O7

>  <PUBCHEM_MOLECULAR_WEIGHT>  (1) 
456.5

>  <PUBCHEM_OPENEYE_CAN_SMILES>  (1) 
CC1(CCC2=C(C3=C(C=C2O1)OC(CC3=O)C4=CC(=C(C=C4)OC)O)O)CCCC(C)(C)O

>  <PUBCHEM_OPENEYE_ISO_SMILES>  (1) 
CC1(CCC2=C(C3=C(C=C2O1)O[C@@H](CC3=O)C4=CC(=C(C=C4)OC)O)O)CCCC(C)(C)O

>  <PUBCHEM_CACTVS_TPSA>  (1) 
105

>  <PUBCHEM_MONOISOTOPIC_WEIGHT>  (1) 
456.21480336

>  <PUBCHEM_TOTAL_CHARGE>  (1) 
0

>  <PUBCHEM_HEAVY_ATOM_COUNT>  (1) 
33

>  <PUBCHEM_ATOM_DEF_STEREO_COUNT>  (1) 
1

>  <PUBCHEM_ATOM_UDEF_STEREO_COUNT>  (1) 
1

>  <PUBCHEM_BOND_DEF_STEREO_COUNT>  (1) 
0

>  <PUBCHEM_BOND_UDEF_STEREO_COUNT>  (1) 
0

>  <PUBCHEM_ISOTOPIC_ATOM_COUNT>  (1) 
0

>  <PUBCHEM_COMPONENT_COUNT>  (1) 
1

>  <PUBCHEM_CACTVS_TAUTO_COUNT>  (1) 
-1

>  <PUBCHEM_COORDINATE_TYPE>  (1) 
1
5
255

>  <PUBCHEM_BONDANNOTATIONS>  (1) 
13  15  8
13  18  8
15  19  8
18  20  8
19  21  8
20  21  8
22  27  5
27  28  8
27  29  8
28  30  8
29  31  8
30  32  8
31  32  8
8  14  3

$$$$
