25056407
     RDKit          2D

 29 31  0  0  0  0  0  0  0  0999 V2000
    6.0682   -0.0600    0.0000 O   0  0  0  0  0  0  0  0  0  0  0  0
   10.3984    3.4400    0.0000 O   0  0  0  0  0  0  0  0  0  0  0  0
    6.0682    2.9400    0.0000 O   0  0  0  0  0  0  0  0  0  0  0  0
    2.5381   -0.0841    0.0000 O   0  0  0  0  0  0  0  0  0  0  0  0
   10.3984    1.4400    0.0000 C   0  0  0  0  0  0  0  0  0  0  0  0
   11.2644   -1.0600    0.0000 C   0  0  0  0  0  0  0  0  0  0  0  0
    9.5323    1.9400    0.0000 C   0  0  0  0  0  0  0  0  0  0  0  0
   11.2644   -0.0600    0.0000 C   0  0  0  0  0  0  0  0  0  0  0  0
   10.3984    0.4400    0.0000 C   0  0  0  0  0  0  0  0  0  0  0  0
    7.8003    1.9400    0.0000 C   0  0  0  0  0  0  0  0  0  0  0  0
   12.1304   -1.5600    0.0000 C   0  0  0  0  0  0  0  0  0  0  0  0
    8.6663    1.4400    0.0000 C   0  0  0  0  0  0  0  0  0  0  0  0
    6.9343    1.4400    0.0000 C   0  0  0  0  0  0  0  0  0  0  0  0
    9.5323    2.9400    0.0000 C   0  0  0  0  0  0  0  0  0  0  0  0
    7.8003    2.9400    0.0000 C   0  0  0  0  0  0  0  0  0  0  0  0
   12.1304    0.4400    0.0000 C   0  0  0  0  0  0  0  0  0  0  0  0
    6.0682    1.9400    0.0000 C   0  0  0  0  0  0  0  0  0  0  0  0
    8.6663    3.4400    0.0000 C   0  0  0  0  0  0  0  0  0  0  0  0
    5.2022    1.4400    0.0000 C   0  0  0  0  0  0  0  0  0  0  0  0
   12.1304   -2.5600    0.0000 C   0  0  0  0  0  0  0  0  0  0  0  0
    5.2022    0.4400    0.0000 C   0  0  0  0  0  0  0  0  0  0  0  0
    6.9343    0.4400    0.0000 C   0  0  0  0  0  0  0  0  0  0  0  0
   12.9965   -3.0600    0.0000 C   0  0  0  0  0  0  0  0  0  0  0  0
    4.3083    1.9747    0.0000 C   0  0  0  0  0  0  0  0  0  0  0  0
    4.3083   -0.0947    0.0000 C   0  0  0  0  0  0  0  0  0  0  0  0
    3.4022    1.4608    0.0000 C   0  0  0  0  0  0  0  0  0  0  0  0
    3.4022    0.4192    0.0000 C   0  0  0  0  0  0  0  0  0  0  0  0
   12.9965   -4.0600    0.0000 C   0  0  0  0  0  0  0  0  0  0  0  0
   13.8625   -2.5600    0.0000 C   0  0  0  0  0  0  0  0  0  0  0  0
  1 21  1  0
  1 22  1  0
  2 14  1  0
  3 17  2  0
  4 27  1  0
  5  7  1  0
  5  9  1  0
  6  8  1  0
  6 11  1  0
  7 12  2  0
  7 14  1  0
  8  9  2  0
  8 16  1  0
 10 12  1  0
 10 13  1  0
 10 15  2  0
 11 20  1  0
 13 17  1  0
 13 22  2  0
 14 18  2  0
 15 18  1  0
 17 19  1  0
 19 21  2  0
 19 24  1  0
 20 23  2  0
 21 25  1  0
 23 28  1  0
 23 29  1  0
 24 26  2  0
 25 27  2  0
 26 27  1  0
M  END
>  <PUBCHEM_COMPOUND_CID>  (1) 
25056407

>  <PUBCHEM_COMPOUND_CANONICALIZED>  (1) 
1

>  <PUBCHEM_CACTVS_COMPLEXITY>  (1) 
670

>  <PUBCHEM_CACTVS_HBOND_ACCEPTOR>  (1) 
4

>  <PUBCHEM_CACTVS_HBOND_DONOR>  (1) 
2

>  <PUBCHEM_CACTVS_ROTATABLE_BOND>  (1) 
6

>  <PUBCHEM_CACTVS_SUBSKEYS>  (1) 
AAADceB4OAAAAAAAAAAAAAAAAAAAAAAAAAAwYIAAAAAAAACBQAAAGgAACAAADASgmAIyBoAABgCIAqBSAAACCAAkIAAIiAEGCMgMJzaGNRqAcWAl4BUIuYeI7PzOIAACCAAIAABAAAQQABAAAAAAAAAAAA==

>  <PUBCHEM_IUPAC_OPENEYE_NAME>  (1) 
3-[3-[(2E)-3,7-dimethylocta-2,6-dienyl]-4-hydroxy-phenyl]-7-hydroxy-chromen-4-one

>  <PUBCHEM_IUPAC_CAS_NAME>  (1) 
3-[3-[(2E)-3,7-dimethylocta-2,6-dienyl]-4-hydroxyphenyl]-7-hydroxy-1-benzopyran-4-one

>  <PUBCHEM_IUPAC_NAME_MARKUP>  (1) 
3-[3-[(2<I>E</I>)-3,7-dimethylocta-2,6-dienyl]-4-hydroxyphenyl]-7-hydroxychromen-4-one

>  <PUBCHEM_IUPAC_NAME>  (1) 
3-[3-[(2E)-3,7-dimethylocta-2,6-dienyl]-4-hydroxyphenyl]-7-hydroxychromen-4-one

>  <PUBCHEM_IUPAC_SYSTEMATIC_NAME>  (1) 
3-[3-[(2E)-3,7-dimethylocta-2,6-dienyl]-4-oxidanyl-phenyl]-7-oxidanyl-chromen-4-one

>  <PUBCHEM_IUPAC_TRADITIONAL_NAME>  (1) 
3-[3-[(2E)-3,7-dimethylocta-2,6-dienyl]-4-hydroxy-phenyl]-7-hydroxy-chromone

>  <PUBCHEM_IUPAC_INCHI>  (1) 
InChI=1S/C25H26O4/c1-16(2)5-4-6-17(3)7-8-19-13-18(9-12-23(19)27)22-15-29-24-14-20(26)10-11-21(24)25(22)28/h5,7,9-15,26-27H,4,6,8H2,1-3H3/b17-7+

>  <PUBCHEM_IUPAC_INCHIKEY>  (1) 
ZBHUUXLHDOUMKM-REZTVBANSA-N

>  <PUBCHEM_XLOGP3_AA>  (1) 
6.3

>  <PUBCHEM_EXACT_MASS>  (1) 
390.18310931

>  <PUBCHEM_MOLECULAR_FORMULA>  (1) 
C25H26O4

>  <PUBCHEM_MOLECULAR_WEIGHT>  (1) 
390.5

>  <PUBCHEM_OPENEYE_CAN_SMILES>  (1) 
CC(=CCCC(=CCC1=C(C=CC(=C1)C2=COC3=C(C2=O)C=CC(=C3)O)O)C)C

>  <PUBCHEM_OPENEYE_ISO_SMILES>  (1) 
CC(=CCC/C(=C/CC1=C(C=CC(=C1)C2=COC3=C(C2=O)C=CC(=C3)O)O)/C)C

>  <PUBCHEM_CACTVS_TPSA>  (1) 
66.8

>  <PUBCHEM_MONOISOTOPIC_WEIGHT>  (1) 
390.18310931

>  <PUBCHEM_TOTAL_CHARGE>  (1) 
0

>  <PUBCHEM_HEAVY_ATOM_COUNT>  (1) 
29

>  <PUBCHEM_ATOM_DEF_STEREO_COUNT>  (1) 
0

>  <PUBCHEM_ATOM_UDEF_STEREO_COUNT>  (1) 
0

>  <PUBCHEM_BOND_DEF_STEREO_COUNT>  (1) 
1

>  <PUBCHEM_BOND_UDEF_STEREO_COUNT>  (1) 
0

>  <PUBCHEM_ISOTOPIC_ATOM_COUNT>  (1) 
0

>  <PUBCHEM_COMPONENT_COUNT>  (1) 
1

>  <PUBCHEM_CACTVS_TAUTO_COUNT>  (1) 
-1

>  <PUBCHEM_COORDINATE_TYPE>  (1) 
1
5
255

>  <PUBCHEM_BONDANNOTATIONS>  (1) 
1  21  8
1  22  8
10  12  8
10  15  8
13  17  8
13  22  8
14  18  8
15  18  8
17  19  8
19  21  8
19  24  8
21  25  8
24  26  8
25  27  8
26  27  8
7  12  8
7  14  8

$$$$
