10088141
     RDKit          2D

 24 25  0  0  1  0  0  0  0  0999 V2000
    7.7331    1.7500    0.0000 O   0  0  0  0  0  0  0  0  0  0  0  0
    4.2690    5.7500    0.0000 O   0  0  0  0  0  0  0  0  0  0  0  0
    6.8671   -4.7500    0.0000 O   0  0  0  0  0  0  0  0  0  0  0  0
    2.5369    4.7500    0.0000 O   0  0  0  0  0  0  0  0  0  0  0  0
    8.5991   -5.7500    0.0000 O   0  0  0  0  0  0  0  0  0  0  0  0
    6.8671    0.2500    0.0000 C   0  0  0  0  0  0  0  0  0  0  0  0
    6.8671    1.2500    0.0000 C   0  0  0  0  0  0  0  0  0  0  0  0
    7.7331   -0.2500    0.0000 C   0  0  0  0  0  0  0  0  0  0  0  0
    6.0010    1.7500    0.0000 C   0  0  0  0  0  0  0  0  0  0  0  0
    7.7331   -1.2500    0.0000 C   0  0  0  0  0  0  0  0  0  0  0  0
    6.0010    2.7500    0.0000 C   0  0  0  0  0  0  0  0  0  0  0  0
    8.5991   -1.7500    0.0000 C   0  0  0  0  0  0  0  0  0  0  0  0
    5.1350    3.2500    0.0000 C   0  0  0  0  0  0  0  0  0  0  0  0
    8.5991   -2.7500    0.0000 C   0  0  0  0  0  0  0  0  0  0  0  0
    5.1350    4.2500    0.0000 C   0  0  0  0  0  0  0  0  0  0  0  0
    4.2690    2.7500    0.0000 C   0  0  0  0  0  0  0  0  0  0  0  0
    7.7331   -3.2500    0.0000 C   0  0  0  0  0  0  0  0  0  0  0  0
    9.4651   -3.2500    0.0000 C   0  0  0  0  0  0  0  0  0  0  0  0
    4.2690    4.7500    0.0000 C   0  0  0  0  0  0  0  0  0  0  0  0
    3.4030    3.2500    0.0000 C   0  0  0  0  0  0  0  0  0  0  0  0
    7.7331   -4.2500    0.0000 C   0  0  0  0  0  0  0  0  0  0  0  0
    9.4651   -4.2500    0.0000 C   0  0  0  0  0  0  0  0  0  0  0  0
    3.4030    4.2500    0.0000 C   0  0  0  0  0  0  0  0  0  0  0  0
    8.5991   -4.7500    0.0000 C   0  0  0  0  0  0  0  0  0  0  0  0
  7  1  1  6
  2 19  1  0
  3 21  1  0
  4 23  1  0
  5 24  1  0
  6  7  1  0
  6  8  1  0
  7  9  1  0
  8 10  1  0
  9 11  1  0
 10 12  1  0
 11 13  1  0
 12 14  1  0
 13 15  2  0
 13 16  1  0
 14 17  2  0
 14 18  1  0
 15 19  1  0
 16 20  2  0
 17 21  1  0
 18 22  2  0
 19 23  2  0
 20 23  1  0
 21 24  2  0
 22 24  1  0
M  END
>  <PUBCHEM_COMPOUND_CID>  (1) 
10088141

>  <PUBCHEM_COMPOUND_CANONICALIZED>  (1) 
1

>  <PUBCHEM_CACTVS_COMPLEXITY>  (1) 
351

>  <PUBCHEM_CACTVS_HBOND_ACCEPTOR>  (1) 
5

>  <PUBCHEM_CACTVS_HBOND_DONOR>  (1) 
5

>  <PUBCHEM_CACTVS_ROTATABLE_BOND>  (1) 
8

>  <PUBCHEM_CACTVS_SUBSKEYS>  (1) 
AAADceB4OAAAAAAAAAAAAAAAAAAAAAAAAAAwYAAAAAAAAAABQAAAGgAACAAADBSgmAIwBoAAAgCAAiBCAAACAAAgIAAIiAAGiIgJNiKCERKAcAEkwBEJmAeAwPAOIAABAAAAQABAAAIAAACAAAAAAAAAAA==

>  <PUBCHEM_IUPAC_OPENEYE_NAME>  (1) 
4-[(5R)-7-(3,4-dihydroxyphenyl)-5-hydroxy-heptyl]benzene-1,2-diol

>  <PUBCHEM_IUPAC_CAS_NAME>  (1) 
4-[(5R)-7-(3,4-dihydroxyphenyl)-5-hydroxyheptyl]benzene-1,2-diol

>  <PUBCHEM_IUPAC_NAME_MARKUP>  (1) 
4-[(5<I>R</I>)-7-(3,4-dihydroxyphenyl)-5-hydroxyheptyl]benzene-1,2-diol

>  <PUBCHEM_IUPAC_NAME>  (1) 
4-[(5R)-7-(3,4-dihydroxyphenyl)-5-hydroxyheptyl]benzene-1,2-diol

>  <PUBCHEM_IUPAC_SYSTEMATIC_NAME>  (1) 
4-[(5R)-7-[3,4-bis(oxidanyl)phenyl]-5-oxidanyl-heptyl]benzene-1,2-diol

>  <PUBCHEM_IUPAC_TRADITIONAL_NAME>  (1) 
4-[(5R)-7-(3,4-dihydroxyphenyl)-5-hydroxy-heptyl]pyrocatechol

>  <PUBCHEM_IUPAC_INCHI>  (1) 
InChI=1S/C19H24O5/c20-15(8-5-14-7-10-17(22)19(24)12-14)4-2-1-3-13-6-9-16(21)18(23)11-13/h6-7,9-12,15,20-24H,1-5,8H2/t15-/m1/s1

>  <PUBCHEM_IUPAC_INCHIKEY>  (1) 
KCWHZHZEQUHBCW-OAHLLOKOSA-N

>  <PUBCHEM_XLOGP3_AA>  (1) 
3.7

>  <PUBCHEM_EXACT_MASS>  (1) 
332.16237386

>  <PUBCHEM_MOLECULAR_FORMULA>  (1) 
C19H24O5

>  <PUBCHEM_MOLECULAR_WEIGHT>  (1) 
332.4

>  <PUBCHEM_OPENEYE_CAN_SMILES>  (1) 
C1=CC(=C(C=C1CCCCC(CCC2=CC(=C(C=C2)O)O)O)O)O

>  <PUBCHEM_OPENEYE_ISO_SMILES>  (1) 
C1=CC(=C(C=C1CCCC[C@H](CCC2=CC(=C(C=C2)O)O)O)O)O

>  <PUBCHEM_CACTVS_TPSA>  (1) 
101

>  <PUBCHEM_MONOISOTOPIC_WEIGHT>  (1) 
332.16237386

>  <PUBCHEM_TOTAL_CHARGE>  (1) 
0

>  <PUBCHEM_HEAVY_ATOM_COUNT>  (1) 
24

>  <PUBCHEM_ATOM_DEF_STEREO_COUNT>  (1) 
1

>  <PUBCHEM_ATOM_UDEF_STEREO_COUNT>  (1) 
0

>  <PUBCHEM_BOND_DEF_STEREO_COUNT>  (1) 
0

>  <PUBCHEM_BOND_UDEF_STEREO_COUNT>  (1) 
0

>  <PUBCHEM_ISOTOPIC_ATOM_COUNT>  (1) 
0

>  <PUBCHEM_COMPONENT_COUNT>  (1) 
1

>  <PUBCHEM_CACTVS_TAUTO_COUNT>  (1) 
998

>  <PUBCHEM_COORDINATE_TYPE>  (1) 
1
5
255

>  <PUBCHEM_BONDANNOTATIONS>  (1) 
7  1  6
13  15  8
13  16  8
14  17  8
14  18  8
15  19  8
16  20  8
17  21  8
18  22  8
19  23  8
20  23  8
21  24  8
22  24  8

$$$$
