71659766
     RDKit          2D

 35 38  0  0  1  0  0  0  0  0999 V2000
    7.0360   -0.1776    0.0000 O   0  0  0  0  0  0  0  0  0  0  0  0
   10.5560   -0.1776    0.0000 O   0  0  0  0  0  0  0  0  0  0  0  0
    2.6200    2.9208    0.0000 O   0  0  0  0  0  0  0  0  0  0  0  0
    8.7960    2.8571    0.0000 O   0  0  0  0  0  0  0  0  0  0  0  0
   10.5444    2.8917    0.0000 O   0  0  0  0  0  0  0  0  0  0  0  0
   13.1825   -2.6704    0.0000 O   0  0  0  0  0  0  0  0  0  0  0  0
   14.9261    0.3229    0.0000 O   0  0  0  0  0  0  0  0  0  0  0  0
   14.9184   -1.6771    0.0000 O   0  0  0  0  0  0  0  0  0  0  0  0
    6.1300    0.3362    0.0000 C   0  0  0  0  0  0  0  0  0  0  0  0
    6.1300    1.3779    0.0000 C   0  0  0  0  0  0  0  0  0  0  0  0
    5.1300    0.3324    0.0000 C   0  0  0  0  0  0  0  0  0  0  0  0
    7.0360    1.8917    0.0000 C   0  0  0  0  0  0  0  0  0  0  0  0
    4.6267    1.1965    0.0000 C   0  0  0  0  0  0  0  0  0  0  0  0
    7.9300    1.3571    0.0000 C   0  0  0  0  0  0  0  0  0  0  0  0
    5.6333   -0.5317    0.0000 C   0  0  0  0  0  0  0  0  0  0  0  0
    7.9300    0.3571    0.0000 C   0  0  0  0  0  0  0  0  0  0  0  0
    3.6267    1.1926    0.0000 C   0  0  0  0  0  0  0  0  0  0  0  0
    3.1233    2.0567    0.0000 C   0  0  0  0  0  0  0  0  0  0  0  0
    8.7960    1.8571    0.0000 C   0  0  0  0  0  0  0  0  0  0  0  0
    8.7960   -0.1429    0.0000 C   0  0  0  0  0  0  0  0  0  0  0  0
    9.6620    1.3571    0.0000 C   0  0  0  0  0  0  0  0  0  0  0  0
    9.6620    0.3571    0.0000 C   0  0  0  0  0  0  0  0  0  0  0  0
   11.4621    0.3362    0.0000 C   0  0  0  0  0  0  0  0  0  0  0  0
   11.4621    1.3779    0.0000 C   0  0  0  0  0  0  0  0  0  0  0  0
   10.5560    1.8917    0.0000 C   0  0  0  0  0  0  0  0  0  0  0  0
    2.2592    1.5534    0.0000 C   0  0  0  0  0  0  0  0  0  0  0  0
    3.9874    2.5601    0.0000 C   0  0  0  0  0  0  0  0  0  0  0  0
   12.3261   -0.1671    0.0000 C   0  0  0  0  0  0  0  0  0  0  0  0
   13.1941    0.3296    0.0000 C   0  0  0  0  0  0  0  0  0  0  0  0
   12.3223   -1.1671    0.0000 C   0  0  0  0  0  0  0  0  0  0  0  0
   13.1864   -1.6704    0.0000 C   0  0  0  0  0  0  0  0  0  0  0  0
   14.0582   -0.1738    0.0000 C   0  0  0  0  0  0  0  0  0  0  0  0
   14.0543   -1.1738    0.0000 C   0  0  0  0  0  0  0  0  0  0  0  0
   12.3146   -3.1671    0.0000 C   0  0  0  0  0  0  0  0  0  0  0  0
   14.9300    1.3229    0.0000 C   0  0  0  0  0  0  0  0  0  0  0  0
  1  9  1  0
  1 16  1  0
  2 22  1  0
  2 23  1  0
  3 18  1  0
  4 19  1  0
  5 25  2  0
  6 31  1  0
  6 34  1  0
  7 32  1  0
  7 35  1  0
  8 33  1  0
  9 10  1  0
  9 11  1  0
  9 15  1  0
 10 12  1  0
 11 13  1  0
 12 14  1  0
 13 17  1  0
 14 16  2  0
 14 19  1  0
 16 20  1  0
 17 18  1  0
 18 26  1  0
 18 27  1  0
 19 21  2  0
 20 22  2  0
 21 22  1  0
 21 25  1  0
 23 24  1  0
 23 28  1  1
 24 25  1  0
 28 29  2  0
 28 30  1  0
 29 32  1  0
 30 31  2  0
 31 33  1  0
 32 33  2  0
M  END
>  <PUBCHEM_COMPOUND_CID>  (1) 
71659766

>  <PUBCHEM_COMPOUND_CANONICALIZED>  (1) 
1

>  <PUBCHEM_CACTVS_COMPLEXITY>  (1) 
729

>  <PUBCHEM_CACTVS_HBOND_ACCEPTOR>  (1) 
8

>  <PUBCHEM_CACTVS_HBOND_DONOR>  (1) 
3

>  <PUBCHEM_CACTVS_ROTATABLE_BOND>  (1) 
7

>  <PUBCHEM_CACTVS_SUBSKEYS>  (1) 
AAADcfB4PAAAAAAAAAAAAAAAAAAAAAAAAAA0aIEAAAAAAACRQAAAGgAACAAADFSgmAIyBoAABgCIAqBSAAACCAAkIAAAiAEGiMgNJzaGNRqCeWOl4BULuQfI7PzOIAADCAAIQABAAAYQABCAAAAAAAAAAA==

>  <PUBCHEM_IUPAC_OPENEYE_NAME>  (1) 
(8S)-5-hydroxy-8-(4-hydroxy-3,5-dimethoxy-phenyl)-2-(4-hydroxy-4-methyl-pentyl)-2-methyl-3,4,7,8-tetrahydropyrano[3,2-g]chromen-6-one

>  <PUBCHEM_IUPAC_CAS_NAME>  (1) 
(8S)-5-hydroxy-8-(4-hydroxy-3,5-dimethoxyphenyl)-2-(4-hydroxy-4-methylpentyl)-2-methyl-3,4,7,8-tetrahydropyrano[3,2-g][1]benzopyran-6-one

>  <PUBCHEM_IUPAC_NAME_MARKUP>  (1) 
(8<I>S</I>)-5-hydroxy-8-(4-hydroxy-3,5-dimethoxyphenyl)-2-(4-hydroxy-4-methylpentyl)-2-methyl-3,4,7,8-tetrahydropyrano[3,2-g]chromen-6-one

>  <PUBCHEM_IUPAC_NAME>  (1) 
(8S)-5-hydroxy-8-(4-hydroxy-3,5-dimethoxyphenyl)-2-(4-hydroxy-4-methylpentyl)-2-methyl-3,4,7,8-tetrahydropyrano[3,2-g]chromen-6-one

>  <PUBCHEM_IUPAC_SYSTEMATIC_NAME>  (1) 
(8S)-8-(3,5-dimethoxy-4-oxidanyl-phenyl)-2-methyl-2-(4-methyl-4-oxidanyl-pentyl)-5-oxidanyl-3,4,7,8-tetrahydropyrano[3,2-g]chromen-6-one

>  <PUBCHEM_IUPAC_TRADITIONAL_NAME>  (1) 
(8S)-5-hydroxy-8-(4-hydroxy-3,5-dimethoxy-phenyl)-2-(4-hydroxy-4-methyl-pentyl)-2-methyl-3,4,7,8-tetrahydropyrano[3,2-g]chromen-6-one

>  <PUBCHEM_IUPAC_INCHI>  (1) 
InChI=1S/C27H34O8/c1-26(2,31)8-6-9-27(3)10-7-16-19(35-27)14-20-23(24(16)29)17(28)13-18(34-20)15-11-21(32-4)25(30)22(12-15)33-5/h11-12,14,18,29-31H,6-10,13H2,1-5H3/t18-,27?/m0/s1

>  <PUBCHEM_IUPAC_INCHIKEY>  (1) 
DHYMKZKAVOUQFT-HSYKDVHTSA-N

>  <PUBCHEM_XLOGP3_AA>  (1) 
4.3

>  <PUBCHEM_EXACT_MASS>  (1) 
486.22536804

>  <PUBCHEM_MOLECULAR_FORMULA>  (1) 
C27H34O8

>  <PUBCHEM_MOLECULAR_WEIGHT>  (1) 
486.6

>  <PUBCHEM_OPENEYE_CAN_SMILES>  (1) 
CC1(CCC2=C(C3=C(C=C2O1)OC(CC3=O)C4=CC(=C(C(=C4)OC)O)OC)O)CCCC(C)(C)O

>  <PUBCHEM_OPENEYE_ISO_SMILES>  (1) 
CC1(CCC2=C(C3=C(C=C2O1)O[C@@H](CC3=O)C4=CC(=C(C(=C4)OC)O)OC)O)CCCC(C)(C)O

>  <PUBCHEM_CACTVS_TPSA>  (1) 
115

>  <PUBCHEM_MONOISOTOPIC_WEIGHT>  (1) 
486.22536804

>  <PUBCHEM_TOTAL_CHARGE>  (1) 
0

>  <PUBCHEM_HEAVY_ATOM_COUNT>  (1) 
35

>  <PUBCHEM_ATOM_DEF_STEREO_COUNT>  (1) 
1

>  <PUBCHEM_ATOM_UDEF_STEREO_COUNT>  (1) 
1

>  <PUBCHEM_BOND_DEF_STEREO_COUNT>  (1) 
0

>  <PUBCHEM_BOND_UDEF_STEREO_COUNT>  (1) 
0

>  <PUBCHEM_ISOTOPIC_ATOM_COUNT>  (1) 
0

>  <PUBCHEM_COMPONENT_COUNT>  (1) 
1

>  <PUBCHEM_CACTVS_TAUTO_COUNT>  (1) 
-1

>  <PUBCHEM_COORDINATE_TYPE>  (1) 
1
5
255

>  <PUBCHEM_BONDANNOTATIONS>  (1) 
14  16  8
14  19  8
16  20  8
19  21  8
20  22  8
21  22  8
23  28  5
28  29  8
28  30  8
29  32  8
30  31  8
31  33  8
32  33  8
9  15  3

$$$$
