44584733
     RDKit          2D

 78 88  0  0  1  0  0  0  0  0999 V2000
    3.3926    0.2662    0.0000 O   0  0  0  0  0  0  0  0  0  0  0  0
    6.5334    0.5470    0.0000 O   0  0  0  0  0  0  0  0  0  0  0  0
    6.0427    1.8146    0.0000 O   0  0  0  0  0  0  0  0  0  0  0  0
    4.3107    2.8146    0.0000 O   0  0  0  0  0  0  0  0  0  0  0  0
    2.5405    1.8177    0.0000 O   0  0  0  0  0  0  0  0  0  0  0  0
    2.9535   -2.5850    0.0000 O   0  0  0  0  0  0  0  0  0  0  0  0
    8.0665    1.2936    0.0000 O   0  0  0  0  0  0  0  0  0  0  0  0
    7.0825    0.3298    0.0000 O   0  0  0  0  0  0  0  0  0  0  0  0
   10.2699   -6.0110    0.0000 O   0  0  0  0  0  0  0  0  0  0  0  0
    7.7598   -4.9595    0.0000 O   0  0  0  0  0  0  0  0  0  0  0  0
    5.1767    4.3146    0.0000 O   0  0  0  0  0  0  0  0  0  0  0  0
    2.0342   -4.1779    0.0000 O   0  0  0  0  0  0  0  0  0  0  0  0
    8.7590   -2.0939    0.0000 O   0  0  0  0  0  0  0  0  0  0  0  0
   11.5149   -1.9586    0.0000 O   0  0  0  0  0  0  0  0  0  0  0  0
    7.6886   -3.4529    0.0000 O   0  0  0  0  0  0  0  0  0  0  0  0
    8.6572    4.3492    0.0000 O   0  0  0  0  0  0  0  0  0  0  0  0
    6.5862   -5.6876    0.0000 O   0  0  0  0  0  0  0  0  0  0  0  0
    8.0268    5.2350    0.0000 O   0  0  0  0  0  0  0  0  0  0  0  0
    8.1662   -5.5357    0.0000 O   0  0  0  0  0  0  0  0  0  0  0  0
   11.5470   -4.9686    0.0000 O   0  0  0  0  0  0  0  0  0  0  0  0
   11.3688    1.0697    0.0000 O   0  0  0  0  0  0  0  0  0  0  0  0
   12.1343   -0.1343    0.0000 O   0  0  0  0  0  0  0  0  0  0  0  0
    6.2218   -6.3952    0.0000 O   0  0  0  0  0  0  0  0  0  0  0  0
    6.2662   -5.2705    0.0000 O   0  0  0  0  0  0  0  0  0  0  0  0
   10.5748    1.7899    0.0000 O   0  0  0  0  0  0  0  0  0  0  0  0
   10.4389    3.3388    0.0000 O   0  0  0  0  0  0  0  0  0  0  0  0
    3.6458    5.3834    0.0000 O   0  0  0  0  0  0  0  0  0  0  0  0
    5.8826    6.6748    0.0000 O   0  0  0  0  0  0  0  0  0  0  0  0
    6.5761   -4.5015    0.0000 O   0  0  0  0  0  0  0  0  0  0  0  0
    5.2077   -3.1454    0.0000 O   0  0  0  0  0  0  0  0  0  0  0  0
    5.1928    0.2731    0.0000 C   0  0  0  0  0  0  0  0  0  0  0  0
    5.1767    1.3146    0.0000 C   0  0  0  0  0  0  0  0  0  0  0  0
    4.3107    1.8146    0.0000 C   0  0  0  0  0  0  0  0  0  0  0  0
    4.2947   -0.2547    0.0000 C   0  0  0  0  0  0  0  0  0  0  0  0
    3.4007    1.3078    0.0000 C   0  0  0  0  0  0  0  0  0  0  0  0
    3.4031   -1.2926    0.0000 C   0  0  0  0  0  0  0  0  0  0  0  0
    7.8813    0.3109    0.0000 C   0  0  0  0  0  0  0  0  0  0  0  0
    6.9088    1.3146    0.0000 C   0  0  0  0  0  0  0  0  0  0  0  0
    5.1767    3.3146    0.0000 C   0  0  0  0  0  0  0  0  0  0  0  0
    9.0490   -0.4023    0.0000 C   0  0  0  0  0  0  0  0  0  0  0  0
    7.7748    1.8146    0.0000 C   0  0  0  0  0  0  0  0  0  0  0  0
    6.0427    2.8146    0.0000 C   0  0  0  0  0  0  0  0  0  0  0  0
    9.8745   -1.4937    0.0000 C   0  0  0  0  0  0  0  0  0  0  0  0
    7.7748    2.8146    0.0000 C   0  0  0  0  0  0  0  0  0  0  0  0
    6.9088    3.3146    0.0000 C   0  0  0  0  0  0  0  0  0  0  0  0
    9.4750   -5.3882    0.0000 C   0  0  0  0  0  0  0  0  0  0  0  0
   10.2431   -2.8115    0.0000 C   0  0  0  0  0  0  0  0  0  0  0  0
    8.4452   -6.2892    0.0000 C   0  0  0  0  0  0  0  0  0  0  0  0
   10.1034   -4.1727    0.0000 C   0  0  0  0  0  0  0  0  0  0  0  0
    3.0084   -3.9523    0.0000 C   0  0  0  0  0  0  0  0  0  0  0  0
    7.1569   -6.7505    0.0000 C   0  0  0  0  0  0  0  0  0  0  0  0
    5.7892   -6.7080    0.0000 C   0  0  0  0  0  0  0  0  0  0  0  0
    3.5601   -5.2045    0.0000 C   0  0  0  0  0  0  0  0  0  0  0  0
    4.5321   -6.1677    0.0000 C   0  0  0  0  0  0  0  0  0  0  0  0
    8.7340   -4.7276    0.0000 C   0  0  0  0  0  0  0  0  0  0  0  0
    9.4127   -6.5118    0.0000 C   0  0  0  0  0  0  0  0  0  0  0  0
    9.5615    0.4445    0.0000 C   0  0  0  0  0  0  0  0  0  0  0  0
    9.2612   -2.9586    0.0000 C   0  0  0  0  0  0  0  0  0  0  0  0
    8.6687    1.2799    0.0000 C   0  0  0  0  0  0  0  0  0  0  0  0
   10.8288   -1.2310    0.0000 C   0  0  0  0  0  0  0  0  0  0  0  0
    4.6314    3.3917    0.0000 C   0  0  0  0  0  0  0  0  0  0  0  0
    8.6469   -3.7386    0.0000 C   0  0  0  0  0  0  0  0  0  0  0  0
    8.6687    3.3493    0.0000 C   0  0  0  0  0  0  0  0  0  0  0  0
    7.1146    4.8254    0.0000 C   0  0  0  0  0  0  0  0  0  0  0  0
    6.9945   -6.6005    0.0000 C   0  0  0  0  0  0  0  0  0  0  0  0
   10.5511   -5.0588    0.0000 C   0  0  0  0  0  0  0  0  0  0  0  0
    8.2028   -6.5351    0.0000 C   0  0  0  0  0  0  0  0  0  0  0  0
    7.1442   -5.7492    0.0000 C   0  0  0  0  0  0  0  0  0  0  0  0
   10.5500    0.4956    0.0000 C   0  0  0  0  0  0  0  0  0  0  0  0
   11.1471   -0.2938    0.0000 C   0  0  0  0  0  0  0  0  0  0  0  0
    5.4395   -5.7723    0.0000 C   0  0  0  0  0  0  0  0  0  0  0  0
    3.9472   -4.2936    0.0000 C   0  0  0  0  0  0  0  0  0  0  0  0
    9.5748    1.7938    0.0000 C   0  0  0  0  0  0  0  0  0  0  0  0
    9.5748    2.8354    0.0000 C   0  0  0  0  0  0  0  0  0  0  0  0
    4.5282    4.9130    0.0000 C   0  0  0  0  0  0  0  0  0  0  0  0
    5.8487    5.6754    0.0000 C   0  0  0  0  0  0  0  0  0  0  0  0
    5.6215   -4.7994    0.0000 C   0  0  0  0  0  0  0  0  0  0  0  0
    4.9184   -4.1027    0.0000 C   0  0  0  0  0  0  0  0  0  0  0  0
  1 34  1  0
  1 35  1  0
 31  2  1  6
  2 37  1  0
 32  3  1  1
  3 38  1  0
 33  4  1  6
  4 39  1  0
  5 35  1  0
  6 36  1  0
  6 50  1  0
  7 37  2  0
  8 38  2  0
  9 56  1  0
  9 66  1  0
 10 55  1  0
 10 68  1  0
 11 39  2  0
 12 50  2  0
 13 58  1  0
 14 60  1  0
 15 62  1  0
 16 63  1  0
 17 65  1  0
 18 64  1  0
 19 67  1  0
 20 66  2  0
 21 69  1  0
 22 70  1  0
 23 71  1  0
 24 68  2  0
 25 73  1  0
 26 74  1  0
 27 75  1  0
 28 76  1  0
 29 77  1  0
 30 78  1  0
 31 32  1  0
 31 34  1  0
 32 33  1  0
 33 35  1  0
 34 36  1  1
 37 40  1  0
 38 41  1  0
 39 42  1  0
 40 43  2  0
 40 57  1  0
 41 44  2  0
 41 59  1  0
 42 45  2  0
 42 61  1  0
 43 47  1  0
 43 60  1  0
 44 45  1  0
 44 63  1  0
 45 64  1  0
 46 48  1  0
 46 49  2  0
 46 55  1  0
 47 49  1  0
 47 58  2  0
 48 51  1  0
 48 56  2  0
 49 66  1  0
 50 53  1  0
 51 52  2  0
 51 68  1  0
 52 54  1  0
 52 65  1  0
 53 54  2  0
 53 72  1  0
 54 71  1  0
 55 62  2  0
 56 67  1  0
 57 69  2  0
 58 62  1  0
 59 73  2  0
 60 70  2  0
 61 75  2  0
 63 74  2  0
 64 76  2  0
 65 67  2  0
 69 70  1  0
 71 77  2  0
 72 78  2  0
 73 74  1  0
 75 76  1  0
 77 78  1  0
M  END
>  <PUBCHEM_COMPOUND_CID>  (1) 
44584733

>  <PUBCHEM_COMPOUND_CANONICALIZED>  (1) 
1

>  <PUBCHEM_CACTVS_COMPLEXITY>  (1) 
2380

>  <PUBCHEM_CACTVS_HBOND_ACCEPTOR>  (1) 
30

>  <PUBCHEM_CACTVS_HBOND_DONOR>  (1) 
17

>  <PUBCHEM_CACTVS_ROTATABLE_BOND>  (1) 
0

>  <PUBCHEM_CACTVS_SUBSKEYS>  (1) 
AAADceB8PgAAAAAAAAAAAAAAAAAAAAAAAAA0aNGDAAAAAACRVAAAGgAACAAADBSwmAMwDoAABgCIAiDSCAACCAAkIAAAiAEGiMgdNzKGNBqCeyOlwBUPuYfK7PzOoAADCAAYQABAAAYQADCAAAAAAAAAAA==

>  <PUBCHEM_IUPAC_OPENEYE_NAME>  (1) 
(1R,35R,38R,55S)-6,7,8,11,12,23,24,27,28,29,37,43,44,45,48,49,50-heptadecahydroxy-2,14,21,33,36,39,54-heptaoxaundecacyclo[33.20.0.04,9.010,19.013,18.016,25.017,22.026,31.038,55.041,46.047,52]pentapentaconta-4,6,8,10,12,16,18,22,24,26,28,30,41,43,45,47,49,51-octadecaene-3,15,20,32,40,53-hexone

>  <PUBCHEM_IUPAC_CAS_NAME>  (1) 
(1R,35R,38R,55S)-6,7,8,11,12,23,24,27,28,29,37,43,44,45,48,49,50-heptadecahydroxy-2,14,21,33,36,39,54-heptaoxaundecacyclo[33.20.0.04,9.010,19.013,18.016,25.017,22.026,31.038,55.041,46.047,52]pentapentaconta-4,6,8,10,12,16,18,22,24,26,28,30,41,43,45,47,49,51-octadecaene-3,15,20,32,40,53-hexone

>  <PUBCHEM_IUPAC_NAME_MARKUP>  (1) 
(1<I>R</I>,35<I>R</I>,38<I>R</I>,55<I>S</I>)-6,7,8,11,12,23,24,27,28,29,37,43,44,45,48,49,50-heptadecahydroxy-2,14,21,33,36,39,54-heptaoxaundecacyclo[33.20.0.0<SUP>4,9</SUP>.0<SUP>10,19</SUP>.0<SUP>13,18</SUP>.0<SUP>16,25</SUP>.0<SUP>17,22</SUP>.0<SUP>26,31</SUP>.0<SUP>38,55</SUP>.0<SUP>41,46</SUP>.0<SUP>47,52</SUP>]pentapentaconta-4,6,8,10,12,16,18,22,24,26,28,30,41,43,45,47,49,51-octadecaene-3,15,20,32,40,53-hexone

>  <PUBCHEM_IUPAC_NAME>  (1) 
(1R,35R,38R,55S)-6,7,8,11,12,23,24,27,28,29,37,43,44,45,48,49,50-heptadecahydroxy-2,14,21,33,36,39,54-heptaoxaundecacyclo[33.20.0.04,9.010,19.013,18.016,25.017,22.026,31.038,55.041,46.047,52]pentapentaconta-4,6,8,10,12,16,18,22,24,26,28,30,41,43,45,47,49,51-octadecaene-3,15,20,32,40,53-hexone

>  <PUBCHEM_IUPAC_SYSTEMATIC_NAME>  (1) 
(1R,35R,38R,55S)-6,7,8,11,12,23,24,27,28,29,37,43,44,45,48,49,50-heptadecakis(oxidanyl)-2,14,21,33,36,39,54-heptaoxaundecacyclo[33.20.0.04,9.010,19.013,18.016,25.017,22.026,31.038,55.041,46.047,52]pentapentaconta-4,6,8,10,12,16,18,22,24,26,28,30,41,43,45,47,49,51-octadecaene-3,15,20,32,40,53-hexone

>  <PUBCHEM_IUPAC_TRADITIONAL_NAME>  (1) 
(1R,35R,38R,55S)-6,7,8,11,12,23,24,27,28,29,37,43,44,45,48,49,50-heptadecahydroxy-2,14,21,33,36,39,54-heptaoxaundecacyclo[33.20.0.04,9.010,19.013,18.016,25.017,22.026,31.038,55.041,46.047,52]pentapentaconta-4,6,8,10,12,16,18,22,24,26,28,30,41,43,45,47,49,51-octadecaene-3,15,20,32,40,53-triquinone

>  <PUBCHEM_IUPAC_INCHI>  (1) 
InChI=1S/C48H28O30/c49-10-1-6-17(31(59)27(10)55)19-23-21-22-24(47(70)76-38(21)35(63)33(19)61)20(34(62)36(64)39(22)75-46(23)69)18-9(4-13(52)28(56)32(18)60)43(66)74-37-14(5-72-42(6)65)73-48(71)41-40(37)77-44(67)7-2-11(50)25(53)29(57)15(7)16-8(45(68)78-41)3-12(51)26(54)30(16)58/h1-4,14,37,40-41,48-64,71H,5H2/t14-,37-,40+,41-,48?/m1/s1

>  <PUBCHEM_IUPAC_INCHIKEY>  (1) 
ZJVUMAFASBFUBG-UYMKNUMKSA-N

>  <PUBCHEM_XLOGP3_AA>  (1) 
1.7

>  <PUBCHEM_EXACT_MASS>  (1) 
1084.06653947

>  <PUBCHEM_MOLECULAR_FORMULA>  (1) 
C48H28O30

>  <PUBCHEM_MOLECULAR_WEIGHT>  (1) 
1084.7

>  <PUBCHEM_OPENEYE_CAN_SMILES>  (1) 
C1C2C(C3C(C(O2)O)OC(=O)C4=CC(=C(C(=C4C5=C(C(=C(C=C5C(=O)O3)O)O)O)O)O)O)OC(=O)C6=CC(=C(C(=C6C7=C(C(=C8C9=C7C(=O)OC2=C(C(=C(C3=C(C(=C(C=C3C(=O)O1)O)O)O)C(=C92)C(=O)O8)O)O)O)O)O)O)O

>  <PUBCHEM_OPENEYE_ISO_SMILES>  (1) 
C1[C@@H]2[C@H]([C@H]3[C@H](C(O2)O)OC(=O)C4=CC(=C(C(=C4C5=C(C(=C(C=C5C(=O)O3)O)O)O)O)O)O)OC(=O)C6=CC(=C(C(=C6C7=C(C(=C8C9=C7C(=O)OC2=C(C(=C(C3=C(C(=C(C=C3C(=O)O1)O)O)O)C(=C92)C(=O)O8)O)O)O)O)O)O)O

>  <PUBCHEM_CACTVS_TPSA>  (1) 
511

>  <PUBCHEM_MONOISOTOPIC_WEIGHT>  (1) 
1084.06653947

>  <PUBCHEM_TOTAL_CHARGE>  (1) 
0

>  <PUBCHEM_HEAVY_ATOM_COUNT>  (1) 
78

>  <PUBCHEM_ATOM_DEF_STEREO_COUNT>  (1) 
4

>  <PUBCHEM_ATOM_UDEF_STEREO_COUNT>  (1) 
1

>  <PUBCHEM_BOND_DEF_STEREO_COUNT>  (1) 
0

>  <PUBCHEM_BOND_UDEF_STEREO_COUNT>  (1) 
0

>  <PUBCHEM_ISOTOPIC_ATOM_COUNT>  (1) 
0

>  <PUBCHEM_COMPONENT_COUNT>  (1) 
1

>  <PUBCHEM_CACTVS_TAUTO_COUNT>  (1) 
-1

>  <PUBCHEM_COORDINATE_TYPE>  (1) 
1
5
255

>  <PUBCHEM_BONDANNOTATIONS>  (1) 
10  55  8
10  68  8
31  79  5
32  80  6
33  81  5
34  82  6
40  43  8
40  57  8
41  44  8
41  59  8
42  45  8
42  61  8
43  60  8
44  63  8
45  64  8
46  48  8
46  49  8
46  55  8
47  49  8
47  58  8
48  51  8
48  56  8
49  66  8
35  5  3
51  52  8
51  68  8
52  65  8
53  54  8
53  72  8
54  71  8
55  62  8
56  67  8
57  69  8
58  62  8
59  73  8
60  70  8
61  75  8
63  74  8
64  76  8
65  67  8
69  70  8
71  77  8
72  78  8
73  74  8
75  76  8
77  78  8
9  56  8
9  66  8

$$$$
