5318517
     RDKit          2D

 25 27  0  0  1  0  0  0  0  0999 V2000
    2.5369    1.9100    0.0000 O   0  0  0  0  0  0  0  0  0  0  0  0
    4.2690    3.6421    0.0000 O   0  0  0  0  0  0  0  0  0  0  0  0
    7.3482   -4.1790    0.0000 O   0  0  0  0  0  0  0  0  0  0  0  0
    5.1028   -2.8929    0.0000 O   0  0  0  0  0  0  0  0  0  0  0  0
    8.6228   -2.9336    0.0000 O   0  0  0  0  0  0  0  0  0  0  0  0
    5.1350    0.4100    0.0000 C   0  0  0  0  0  0  0  0  0  0  0  0
    5.1350    1.4100    0.0000 C   0  0  0  0  0  0  0  0  0  0  0  0
    4.2690    1.9100    0.0000 C   0  0  0  0  0  0  0  0  0  0  0  0
    6.0290   -0.1246    0.0000 C   0  0  0  0  0  0  0  0  0  0  0  0
    4.2690   -0.0900    0.0000 C   0  0  0  0  0  0  0  0  0  0  0  0
    3.4030    1.4100    0.0000 C   0  0  0  0  0  0  0  0  0  0  0  0
    6.0290    1.9447    0.0000 C   0  0  0  0  0  0  0  0  0  0  0  0
    3.4030    0.4100    0.0000 C   0  0  0  0  0  0  0  0  0  0  0  0
    5.1350   -0.5900    0.0000 C   0  0  0  0  0  0  0  0  0  0  0  0
    6.9350    1.4308    0.0000 C   0  0  0  0  0  0  0  0  0  0  0  0
    6.9350    0.3892    0.0000 C   0  0  0  0  0  0  0  0  0  0  0  0
    3.7690    2.7760    0.0000 C   0  0  0  0  0  0  0  0  0  0  0  0
    4.7690    2.7760    0.0000 C   0  0  0  0  0  0  0  0  0  0  0  0
    6.0174   -1.1246    0.0000 C   0  0  0  0  0  0  0  0  0  0  0  0
    7.7991   -0.1141    0.0000 C   0  0  0  0  0  0  0  0  0  0  0  0
    6.8776   -1.6346    0.0000 C   0  0  0  0  0  0  0  0  0  0  0  0
    6.8660   -2.6345    0.0000 C   0  0  0  0  0  0  0  0  0  0  0  0
    6.0502   -3.2129    0.0000 C   0  0  0  0  0  0  0  0  0  0  0  0
    7.6682   -3.2316    0.0000 C   0  0  0  0  0  0  0  0  0  0  0  0
    6.3482   -4.1674    0.0000 C   0  0  0  0  0  0  0  0  0  0  0  0
 11  1  1  1
  2 17  1  0
  3 24  1  0
  3 25  1  0
 23  4  1  1
  5 24  2  0
  6  7  1  0
  6  9  1  0
  6 10  1  0
  6 14  1  1
  7  8  1  0
  7 12  1  1
  8 11  1  0
  8 17  1  0
  8 18  1  6
  9 16  1  0
  9 19  1  1
 10 13  1  0
 11 13  1  0
 12 15  1  0
 15 16  1  0
 16 20  2  0
 19 21  1  0
 21 22  2  0
 22 23  1  0
 22 24  1  0
 23 25  1  0
M  END
>  <PUBCHEM_COMPOUND_CID>  (1) 
5318517

>  <PUBCHEM_COMPOUND_CANONICALIZED>  (1) 
1

>  <PUBCHEM_CACTVS_COMPLEXITY>  (1) 
597

>  <PUBCHEM_CACTVS_HBOND_ACCEPTOR>  (1) 
5

>  <PUBCHEM_CACTVS_HBOND_DONOR>  (1) 
3

>  <PUBCHEM_CACTVS_ROTATABLE_BOND>  (1) 
3

>  <PUBCHEM_CACTVS_SUBSKEYS>  (1) 
AAADceB4OAAAAAAAAAAAAAAAAAAAASAAAAAwYAAAAAAAAADAAAAAGgAACAAADxSggAICCAAABgCIAiDSCAAAAAAgAAAACAEAAEgBFBYAIQACUAAF4AALMYOCwPAPgAAAAAAAAABAAAYAADAAAAAAAAAAAA==

>  <PUBCHEM_IUPAC_OPENEYE_NAME>  (1) 
(3E,4S)-3-[2-[(1R,4aS,5R,6R,8aS)-6-hydroxy-5-(hydroxymethyl)-5,8a-dimethyl-2-methylene-decalin-1-yl]ethylidene]-4-hydroxy-tetrahydrofuran-2-one

>  <PUBCHEM_IUPAC_CAS_NAME>  (1) 
(3E,4S)-3-[2-[(1R,4aS,5R,6R,8aS)-6-hydroxy-5-(hydroxymethyl)-5,8a-dimethyl-2-methylene-3,4,4a,6,7,8-hexahydro-1H-naphthalen-1-yl]ethylidene]-4-hydroxy-2-oxolanone

>  <PUBCHEM_IUPAC_NAME_MARKUP>  (1) 
(3<I>E</I>,4<I>S</I>)-3-[2-[(1<I>R</I>,4<I>a</I><I>S</I>,5<I>R</I>,6<I>R</I>,8<I>a</I><I>S</I>)-6-hydroxy-5-(hydroxymethyl)-5,8<I>a</I>-dimethyl-2-methylidene-3,4,4<I>a</I>,6,7,8-hexahydro-1<I>H</I>-naphthalen-1-yl]ethylidene]-4-hydroxyoxolan-2-one

>  <PUBCHEM_IUPAC_NAME>  (1) 
(3E,4S)-3-[2-[(1R,4aS,5R,6R,8aS)-6-hydroxy-5-(hydroxymethyl)-5,8a-dimethyl-2-methylidene-3,4,4a,6,7,8-hexahydro-1H-naphthalen-1-yl]ethylidene]-4-hydroxyoxolan-2-one

>  <PUBCHEM_IUPAC_SYSTEMATIC_NAME>  (1) 
(3E,4S)-3-[2-[(1R,4aS,5R,6R,8aS)-5-(hydroxymethyl)-5,8a-dimethyl-2-methylidene-6-oxidanyl-3,4,4a,6,7,8-hexahydro-1H-naphthalen-1-yl]ethylidene]-4-oxidanyl-oxolan-2-one

>  <PUBCHEM_IUPAC_TRADITIONAL_NAME>  (1) 
(3E,4S)-3-[2-[(1R,4aS,5R,6R,8aS)-6-hydroxy-5,8a-dimethyl-2-methylene-5-methylol-decalin-1-yl]ethylidene]-4-hydroxy-tetrahydrofuran-2-one

>  <PUBCHEM_IUPAC_INCHI>  (1) 
InChI=1S/C20H30O5/c1-12-4-7-16-19(2,9-8-17(23)20(16,3)11-21)14(12)6-5-13-15(22)10-25-18(13)24/h5,14-17,21-23H,1,4,6-11H2,2-3H3/b13-5+/t14-,15-,16+,17-,19+,20+/m1/s1

>  <PUBCHEM_IUPAC_INCHIKEY>  (1) 
BOJKULTULYSRAS-OTESTREVSA-N

>  <PUBCHEM_XLOGP3_AA>  (1) 
2.2

>  <PUBCHEM_EXACT_MASS>  (1) 
350.20932405

>  <PUBCHEM_MOLECULAR_FORMULA>  (1) 
C20H30O5

>  <PUBCHEM_MOLECULAR_WEIGHT>  (1) 
350.4

>  <PUBCHEM_OPENEYE_CAN_SMILES>  (1) 
CC12CCC(C(C1CCC(=C)C2CC=C3C(COC3=O)O)(C)CO)O

>  <PUBCHEM_OPENEYE_ISO_SMILES>  (1) 
C[C@@]12CC[C@H]([C@@]([C@H]1CCC(=C)[C@H]2C/C=C/3\[C@@H](COC3=O)O)(C)CO)O

>  <PUBCHEM_CACTVS_TPSA>  (1) 
87

>  <PUBCHEM_MONOISOTOPIC_WEIGHT>  (1) 
350.20932405

>  <PUBCHEM_TOTAL_CHARGE>  (1) 
0

>  <PUBCHEM_HEAVY_ATOM_COUNT>  (1) 
25

>  <PUBCHEM_ATOM_DEF_STEREO_COUNT>  (1) 
6

>  <PUBCHEM_ATOM_UDEF_STEREO_COUNT>  (1) 
0

>  <PUBCHEM_BOND_DEF_STEREO_COUNT>  (1) 
1

>  <PUBCHEM_BOND_UDEF_STEREO_COUNT>  (1) 
0

>  <PUBCHEM_ISOTOPIC_ATOM_COUNT>  (1) 
0

>  <PUBCHEM_COMPONENT_COUNT>  (1) 
1

>  <PUBCHEM_CACTVS_TAUTO_COUNT>  (1) 
-1

>  <PUBCHEM_COORDINATE_TYPE>  (1) 
1
5
255

>  <PUBCHEM_BONDANNOTATIONS>  (1) 
11  1  5
23  4  5
6  14  5
7  26  6
8  18  6
9  19  5

$$$$
