9065
     RDKit          2D

 12 11  0  0  1  0  0  0  0  0999 V2000
    5.6720    2.4650    0.0000 Cl  0  0  0  0  0  0  0  0  0  0  0  0
    0.5369    4.1200    0.0000 O   0  0  0  0  0  0  0  0  0  0  0  0
    2.2690    5.1200    0.0000 N   0  0  0  0  0  0  0  0  0  0  0  0
    1.4030    3.6200    0.0000 C   0  0  0  0  0  0  0  0  0  0  0  0
    2.2690    4.1200    0.0000 C   0  0  0  0  0  0  0  0  0  0  0  0
    1.4030    2.6200    0.0000 C   0  0  0  0  0  0  0  0  0  0  0  0
    3.1350    3.6200    0.0000 C   0  0  0  0  0  0  0  0  0  0  0  0
    0.5369    2.1200    0.0000 C   0  0  0  0  0  0  0  0  0  0  0  0
    2.2690    2.1200    0.0000 C   0  0  0  0  0  0  0  0  0  0  0  0
    0.5369    1.1200    0.0000 C   0  0  0  0  0  0  0  0  0  0  0  0
    2.2690    1.1200    0.0000 C   0  0  0  0  0  0  0  0  0  0  0  0
    1.4030    0.6200    0.0000 C   0  0  0  0  0  0  0  0  0  0  0  0
  2  4  1  0
  3  5  1  0
  4  5  1  0
  4  6  1  0
  5  7  1  0
  6  8  2  0
  6  9  1  0
  8 10  1  0
  9 11  2  0
 10 12  2  0
 11 12  1  0
M  END
>  <PUBCHEM_COMPOUND_CID>  (1) 
9065

>  <PUBCHEM_COMPOUND_CANONICALIZED>  (1) 
1

>  <PUBCHEM_CACTVS_COMPLEXITY>  (1) 
110

>  <PUBCHEM_CACTVS_HBOND_ACCEPTOR>  (1) 
2

>  <PUBCHEM_CACTVS_HBOND_DONOR>  (1) 
3

>  <PUBCHEM_CACTVS_ROTATABLE_BOND>  (1) 
2

>  <PUBCHEM_CACTVS_SUBSKEYS>  (1) 
AAADccByIAAEAAAAAAAAAAAAAAAAAAAAAAAwAAAAAAAAAAABAAAAHgAQCAAADDzhmAYyAIBAAgCAAiBCAAACAAAgAAAIiIAACIgKNiKAkRGAcAAk0AEImAeQwKAOAAAAAAAAAAAAAAAAAAAAAAAAAAAAAA==

>  <PUBCHEM_IUPAC_OPENEYE_NAME>  (1) 
2-amino-1-phenyl-propan-1-ol;hydrochloride

>  <PUBCHEM_IUPAC_CAS_NAME>  (1) 
2-amino-1-phenyl-1-propanol;hydrochloride

>  <PUBCHEM_IUPAC_NAME_MARKUP>  (1) 
2-amino-1-phenylpropan-1-ol;hydrochloride

>  <PUBCHEM_IUPAC_NAME>  (1) 
2-amino-1-phenylpropan-1-ol;hydrochloride

>  <PUBCHEM_IUPAC_SYSTEMATIC_NAME>  (1) 
2-azanyl-1-phenyl-propan-1-ol;hydrochloride

>  <PUBCHEM_IUPAC_TRADITIONAL_NAME>  (1) 
2-amino-1-phenyl-propan-1-ol;hydrochloride

>  <PUBCHEM_IUPAC_INCHI>  (1) 
InChI=1S/C9H13NO.ClH/c1-7(10)9(11)8-5-3-2-4-6-8;/h2-7,9,11H,10H2,1H3;1H

>  <PUBCHEM_IUPAC_INCHIKEY>  (1) 
DYWNLSQWJMTVGJ-UHFFFAOYSA-N

>  <PUBCHEM_EXACT_MASS>  (1) 
187.0763918

>  <PUBCHEM_MOLECULAR_FORMULA>  (1) 
C9H14ClNO

>  <PUBCHEM_MOLECULAR_WEIGHT>  (1) 
187.66

>  <PUBCHEM_OPENEYE_CAN_SMILES>  (1) 
CC(C(C1=CC=CC=C1)O)N.Cl

>  <PUBCHEM_OPENEYE_ISO_SMILES>  (1) 
CC(C(C1=CC=CC=C1)O)N.Cl

>  <PUBCHEM_CACTVS_TPSA>  (1) 
46.2

>  <PUBCHEM_MONOISOTOPIC_WEIGHT>  (1) 
187.0763918

>  <PUBCHEM_TOTAL_CHARGE>  (1) 
0

>  <PUBCHEM_HEAVY_ATOM_COUNT>  (1) 
12

>  <PUBCHEM_ATOM_DEF_STEREO_COUNT>  (1) 
0

>  <PUBCHEM_ATOM_UDEF_STEREO_COUNT>  (1) 
2

>  <PUBCHEM_BOND_DEF_STEREO_COUNT>  (1) 
0

>  <PUBCHEM_BOND_UDEF_STEREO_COUNT>  (1) 
0

>  <PUBCHEM_ISOTOPIC_ATOM_COUNT>  (1) 
0

>  <PUBCHEM_COMPONENT_COUNT>  (1) 
2

>  <PUBCHEM_CACTVS_TAUTO_COUNT>  (1) 
-1

>  <PUBCHEM_COORDINATE_TYPE>  (1) 
1
5
255

>  <PUBCHEM_BONDANNOTATIONS>  (1) 
10  12  8
11  12  8
4  2  3
5  3  3
6  8  8
6  9  8
8  10  8
9  11  8

$$$$
