SA52_0001
  -OEChem-07172407372D

 58 60  0     0  0  0  0  0  0999 V2000
    8.1301    0.5746    0.0000 O   0  0  0  0  0  0  0  0  0  0  0  0
    6.3817    3.6092    0.0000 O   0  0  0  0  0  0  0  0  0  0  0  0
    4.6000    0.5505    0.0000 O   0  0  0  0  0  0  0  0  0  0  0  0
    9.8622    2.5746    0.0000 O   0  0  0  0  0  0  0  0  0  0  0  0
    8.1301    3.5746    0.0000 O   0  0  0  0  0  0  0  0  0  0  0  0
   12.4602   -0.9254    0.0000 O   0  0  0  0  0  0  0  0  0  0  0  0
   12.4602    1.0746    0.0000 O   0  0  0  0  0  0  0  0  0  0  0  0
    7.2641    2.0746    0.0000 C   0  0  0  0  0  0  0  0  0  0  0  0
    5.4641    2.0954    0.0000 C   0  0  0  0  0  0  0  0  0  0  0  0
    7.2641    1.0746    0.0000 C   0  0  0  0  0  0  0  0  0  0  0  0
    6.3701    2.6093    0.0000 C   0  0  0  0  0  0  0  0  0  0  0  0
    8.9961    1.0746    0.0000 C   0  0  0  0  0  0  0  0  0  0  0  0
    9.8622    0.5746    0.0000 C   0  0  0  0  0  0  0  0  0  0  0  0
    4.6000    2.5988    0.0000 C   0  0  0  0  0  0  0  0  0  0  0  0
    5.4641    1.0538    0.0000 C   0  0  0  0  0  0  0  0  0  0  0  0
    8.1301    2.5746    0.0000 C   0  0  0  0  0  0  0  0  0  0  0  0
   10.7282   -0.9254    0.0000 C   0  0  0  0  0  0  0  0  0  0  0  0
    6.3701    0.5399    0.0000 C   0  0  0  0  0  0  0  0  0  0  0  0
    8.9961    2.0746    0.0000 C   0  0  0  0  0  0  0  0  0  0  0  0
    9.8622   -0.4254    0.0000 C   0  0  0  0  0  0  0  0  0  0  0  0
   10.7282   -1.9254    0.0000 C   0  0  0  0  0  0  0  0  0  0  0  0
   10.7282    1.0746    0.0000 C   0  0  0  0  0  0  0  0  0  0  0  0
   11.5942   -0.4254    0.0000 C   0  0  0  0  0  0  0  0  0  0  0  0
   11.5942    0.5746    0.0000 C   0  0  0  0  0  0  0  0  0  0  0  0
    3.7320    2.1021    0.0000 C   0  0  0  0  0  0  0  0  0  0  0  0
    9.8622   -2.4254    0.0000 C   0  0  0  0  0  0  0  0  0  0  0  0
    2.8680    2.6054    0.0000 C   0  0  0  0  0  0  0  0  0  0  0  0
    9.8622   -3.4254    0.0000 C   0  0  0  0  0  0  0  0  0  0  0  0
    2.0000    2.1088    0.0000 C   0  0  0  0  0  0  0  0  0  0  0  0
    2.8718    3.6054    0.0000 C   0  0  0  0  0  0  0  0  0  0  0  0
    8.9961   -3.9254    0.0000 C   0  0  0  0  0  0  0  0  0  0  0  0
   10.7282   -3.9254    0.0000 C   0  0  0  0  0  0  0  0  0  0  0  0
    5.0003    3.0722    0.0000 H   0  0  0  0  0  0  0  0  0  0  0  0
    4.2033    3.0752    0.0000 H   0  0  0  0  0  0  0  0  0  0  0  0
    6.3773   -0.0800    0.0000 H   0  0  0  0  0  0  0  0  0  0  0  0
    9.3252   -0.7354    0.0000 H   0  0  0  0  0  0  0  0  0  0  0  0
   10.9402   -2.5080    0.0000 H   0  0  0  0  0  0  0  0  0  0  0  0
   11.3388   -1.8177    0.0000 H   0  0  0  0  0  0  0  0  0  0  0  0
   10.7282    1.6946    0.0000 H   0  0  0  0  0  0  0  0  0  0  0  0
    3.7296    1.4821    0.0000 H   0  0  0  0  0  0  0  0  0  0  0  0
    9.3252   -2.1154    0.0000 H   0  0  0  0  0  0  0  0  0  0  0  0
    5.8484    3.9254    0.0000 H   0  0  0  0  0  0  0  0  0  0  0  0
    4.6024   -0.0695    0.0000 H   0  0  0  0  0  0  0  0  0  0  0  0
    9.8622    3.1946    0.0000 H   0  0  0  0  0  0  0  0  0  0  0  0
    1.6921    2.6469    0.0000 H   0  0  0  0  0  0  0  0  0  0  0  0
    1.4619    1.8008    0.0000 H   0  0  0  0  0  0  0  0  0  0  0  0
    2.3079    1.5707    0.0000 H   0  0  0  0  0  0  0  0  0  0  0  0
    3.4918    3.6030    0.0000 H   0  0  0  0  0  0  0  0  0  0  0  0
    2.8742    4.2254    0.0000 H   0  0  0  0  0  0  0  0  0  0  0  0
    2.2518    3.6078    0.0000 H   0  0  0  0  0  0  0  0  0  0  0  0
   12.9972   -0.6154    0.0000 H   0  0  0  0  0  0  0  0  0  0  0  0
    8.6861   -3.3885    0.0000 H   0  0  0  0  0  0  0  0  0  0  0  0
    8.4592   -4.2354    0.0000 H   0  0  0  0  0  0  0  0  0  0  0  0
    9.3061   -4.4623    0.0000 H   0  0  0  0  0  0  0  0  0  0  0  0
   10.4182   -4.4623    0.0000 H   0  0  0  0  0  0  0  0  0  0  0  0
   11.2651   -4.2354    0.0000 H   0  0  0  0  0  0  0  0  0  0  0  0
   11.0382   -3.3885    0.0000 H   0  0  0  0  0  0  0  0  0  0  0  0
   12.4602    1.6946    0.0000 H   0  0  0  0  0  0  0  0  0  0  0  0
  1 10  1  0  0  0  0
  1 12  1  0  0  0  0
  2 11  1  0  0  0  0
  2 42  1  0  0  0  0
  3 15  1  0  0  0  0
  3 43  1  0  0  0  0
  4 19  1  0  0  0  0
  4 44  1  0  0  0  0
  5 16  2  0  0  0  0
  6 23  1  0  0  0  0
  6 51  1  0  0  0  0
  7 24  1  0  0  0  0
  7 58  1  0  0  0  0
  8 10  2  0  0  0  0
  8 11  1  0  0  0  0
  8 16  1  0  0  0  0
  9 11  2  0  0  0  0
  9 14  1  0  0  0  0
  9 15  1  0  0  0  0
 10 18  1  0  0  0  0
 12 13  1  0  0  0  0
 12 19  2  0  0  0  0
 13 20  2  0  0  0  0
 13 22  1  0  0  0  0
 14 25  1  0  0  0  0
 14 33  1  0  0  0  0
 14 34  1  0  0  0  0
 15 18  2  0  0  0  0
 16 19  1  0  0  0  0
 17 20  1  0  0  0  0
 17 21  1  0  0  0  0
 17 23  2  0  0  0  0
 18 35  1  0  0  0  0
 20 36  1  0  0  0  0
 21 26  1  0  0  0  0
 21 37  1  0  0  0  0
 21 38  1  0  0  0  0
 22 24  2  0  0  0  0
 22 39  1  0  0  0  0
 23 24  1  0  0  0  0
 25 27  2  0  0  0  0
 25 40  1  0  0  0  0
 26 28  2  0  0  0  0
 26 41  1  0  0  0  0
 27 29  1  0  0  0  0
 27 30  1  0  0  0  0
 28 31  1  0  0  0  0
 28 32  1  0  0  0  0
 29 45  1  0  0  0  0
 29 46  1  0  0  0  0
 29 47  1  0  0  0  0
 30 48  1  0  0  0  0
 30 49  1  0  0  0  0
 30 50  1  0  0  0  0
 31 52  1  0  0  0  0
 31 53  1  0  0  0  0
 31 54  1  0  0  0  0
 32 55  1  0  0  0  0
 32 56  1  0  0  0  0
 32 57  1  0  0  0  0
M  END
> <PUBCHEM_COMPOUND_CID>
10343070

> <PUBCHEM_COMPOUND_CANONICALIZED>
1

> <PUBCHEM_CACTVS_COMPLEXITY>
790

> <PUBCHEM_CACTVS_HBOND_ACCEPTOR>
7

> <PUBCHEM_CACTVS_HBOND_DONOR>
5

> <PUBCHEM_CACTVS_ROTATABLE_BOND>
5

> <PUBCHEM_CACTVS_SUBSKEYS>
AAADceB4OAAAAAAAAAAAAAAAAAAAAAAAAAAwYIAAAAAAAACBQAAAGgAACAAADASAmAAyBoAABgCIAqBSAAICCAAkIAAAiAFGiMgNJzaGNRqCeWGl4BUJuQfI7PzOIAADCAAIQABAAAYQABCAAAAAAAAAAA==

> <PUBCHEM_IUPAC_OPENEYE_NAME>
2-[3,4-dihydroxy-5-(3-methylbut-2-enyl)phenyl]-3,5,7-trihydroxy-6-(3-methylbut-2-enyl)chromen-4-one

> <PUBCHEM_IUPAC_CAS_NAME>
2-[3,4-dihydroxy-5-(3-methylbut-2-enyl)phenyl]-3,5,7-trihydroxy-6-(3-methylbut-2-enyl)-1-benzopyran-4-one

> <PUBCHEM_IUPAC_NAME_MARKUP>
2-[3,4-dihydroxy-5-(3-methylbut-2-enyl)phenyl]-3,5,7-trihydroxy-6-(3-methylbut-2-enyl)chromen-4-one

> <PUBCHEM_IUPAC_NAME>
2-[3,4-dihydroxy-5-(3-methylbut-2-enyl)phenyl]-3,5,7-trihydroxy-6-(3-methylbut-2-enyl)chromen-4-one

> <PUBCHEM_IUPAC_SYSTEMATIC_NAME>
6-(3-methylbut-2-enyl)-2-[3-(3-methylbut-2-enyl)-4,5-bis(oxidanyl)phenyl]-3,5,7-tris(oxidanyl)chromen-4-one

> <PUBCHEM_IUPAC_TRADITIONAL_NAME>
2-[3,4-dihydroxy-5-(3-methylbut-2-enyl)phenyl]-3,5,7-trihydroxy-6-(3-methylbut-2-enyl)chromone

> <PUBCHEM_IUPAC_INCHI>
InChI=1S/C25H26O7/c1-12(2)5-7-14-9-15(10-18(27)21(14)28)25-24(31)23(30)20-19(32-25)11-17(26)16(22(20)29)8-6-13(3)4/h5-6,9-11,26-29,31H,7-8H2,1-4H3

> <PUBCHEM_IUPAC_INCHIKEY>
NQBROFAEMRVICP-UHFFFAOYSA-N

> <PUBCHEM_XLOGP3_AA>
6

> <PUBCHEM_EXACT_MASS>
438.16785316

> <PUBCHEM_MOLECULAR_FORMULA>
C25H26O7

> <PUBCHEM_MOLECULAR_WEIGHT>
438.5

> <PUBCHEM_OPENEYE_CAN_SMILES>
CC(=CCC1=C(C(=CC(=C1)C2=C(C(=O)C3=C(O2)C=C(C(=C3O)CC=C(C)C)O)O)O)O)C

> <PUBCHEM_OPENEYE_ISO_SMILES>
CC(=CCC1=C(C(=CC(=C1)C2=C(C(=O)C3=C(O2)C=C(C(=C3O)CC=C(C)C)O)O)O)O)C

> <PUBCHEM_CACTVS_TPSA>
127

> <PUBCHEM_MONOISOTOPIC_WEIGHT>
438.16785316

> <PUBCHEM_TOTAL_CHARGE>
0

> <PUBCHEM_HEAVY_ATOM_COUNT>
32

> <PUBCHEM_ATOM_DEF_STEREO_COUNT>
0

> <PUBCHEM_ATOM_UDEF_STEREO_COUNT>
0

> <PUBCHEM_BOND_DEF_STEREO_COUNT>
0

> <PUBCHEM_BOND_UDEF_STEREO_COUNT>
0

> <PUBCHEM_ISOTOPIC_ATOM_COUNT>
0

> <PUBCHEM_COMPONENT_COUNT>
1

> <PUBCHEM_CACTVS_TAUTO_COUNT>
-1

> <PUBCHEM_COORDINATE_TYPE>
1
5
255

> <PUBCHEM_BONDANNOTATIONS>
1  10  8
1  12  8
10  18  8
12  19  8
13  20  8
13  22  8
15  18  8
16  19  8
17  20  8
17  23  8
22  24  8
23  24  8
8  10  8
8  11  8
8  16  8
9  11  8
9  15  8

$$$$
