SV_J3_0003.mol
  ChemDraw02072412332D

 33 37  0  0  0  0  0  0  0  0999 V2000
   -2.8579   -0.8803    0.0000 C   0  0  0  0  0  0  0  0  0  0  0  0
   -2.8579   -1.7053    0.0000 C   0  0  0  0  0  0  0  0  0  0  0  0
   -2.1434   -2.1178    0.0000 C   0  0  0  0  0  0  0  0  0  0  0  0
   -1.4289   -1.7053    0.0000 C   0  0  0  0  0  0  0  0  0  0  0  0
   -1.4289   -0.8803    0.0000 C   0  0  0  0  0  0  0  0  0  0  0  0
   -2.1434   -0.4678    0.0000 C   0  0  0  0  0  0  0  0  0  0  0  0
   -0.7145   -2.1178    0.0000 C   0  0  0  0  0  0  0  0  0  0  0  0
   -0.0000   -1.7053    0.0000 C   0  0  0  0  0  0  0  0  0  0  0  0
   -0.0000   -0.8803    0.0000 C   0  0  0  0  0  0  0  0  0  0  0  0
   -0.7145   -0.4678    0.0000 C   0  0  0  0  0  0  0  0  0  0  0  0
    0.7145   -0.4678    0.0000 C   0  0  0  0  0  0  0  0  0  0  0  0
    0.7145    0.3572    0.0000 C   0  0  0  0  0  0  0  0  0  0  0  0
   -0.0000    0.7697    0.0000 C   0  0  0  0  0  0  0  0  0  0  0  0
   -0.7145    0.3572    0.0000 C   0  0  0  0  0  0  0  0  0  0  0  0
   -0.0000   -0.0553    0.0000 C   0  0  0  0  0  0  0  0  0  0  0  0
    0.7145   -1.2928    0.0000 C   0  0  0  0  0  0  0  0  0  0  0  0
    1.4289   -0.8803    0.0000 C   0  0  0  0  0  0  0  0  0  0  0  0
    2.1434   -0.4678    0.0000 C   0  0  0  0  0  0  0  0  0  0  0  0
    2.1434    0.3572    0.0000 C   0  0  0  0  0  0  0  0  0  0  0  0
    1.4289    0.7697    0.0000 C   0  0  0  0  0  0  0  0  0  0  0  0
    2.8579    0.7697    0.0000 C   0  0  0  0  0  0  0  0  0  0  0  0
    2.8579    1.5947    0.0000 C   0  0  0  0  0  0  0  0  0  0  0  0
    2.1434    2.0072    0.0000 C   0  0  0  0  0  0  0  0  0  0  0  0
    1.4289    1.5947    0.0000 C   0  0  0  0  0  0  0  0  0  0  0  0
    0.7145    2.0072    0.0000 C   0  0  0  0  0  0  0  0  0  0  0  0
    2.1434    2.8322    0.0000 C   0  0  0  0  0  0  0  0  0  0  0  0
    2.8579   -0.0553    0.0000 C   0  0  0  0  0  0  0  0  0  0  0  0
    3.5724    0.3572    0.0000 O   0  0  0  0  0  0  0  0  0  0  0  0
    2.8579   -0.8803    0.0000 O   0  0  0  0  0  0  0  0  0  0  0  0
   -1.4289   -0.0553    0.0000 C   0  0  0  0  0  0  0  0  0  0  0  0
   -3.5724   -2.1178    0.0000 O   0  0  0  0  0  0  0  0  0  0  0  0
   -1.7309   -2.8322    0.0000 C   0  0  0  0  0  0  0  0  0  0  0  0
   -2.7268   -2.7011    0.0000 C   0  0  0  0  0  0  0  0  0  0  0  0
  1  2  1  0      
  2  3  1  0      
  3  4  1  0      
  4  5  1  0      
  5  6  1  0      
  6  1  1  0      
  4  7  1  0      
  7  8  1  0      
  8  9  1  0      
  9 10  1  0      
 10  5  1  0      
  9 11  1  0      
 11 12  1  0      
 12 13  2  0      
 13 14  1  0      
 14 10  1  0      
  9 15  1  0      
 11 16  1  0      
 11 17  1  0      
 17 18  1  0      
 18 19  1  0      
 19 20  1  0      
 20 12  1  0      
 19 21  1  0      
 21 22  1  0      
 22 23  1  0      
 23 24  1  0      
 24 20  1  0      
 24 25  1  0      
 23 26  1  0      
 19 27  1  0      
 27 28  1  0      
 27 29  2  0      
  5 30  1  0      
  2 31  1  0      
  3 32  1  0      
  3 33  1  0      
M  END
