73337
     RDKit          2D

 25 28  0  0  1  0  0  0  0  0999 V2000
    5.5103    1.4285    0.0000 O   0  0  0  0  0  0  0  0  0  0  0  0
    7.2762    2.4663    0.0000 O   0  0  0  0  0  0  0  0  0  0  0  0
    4.6497    0.9316    0.0000 O   0  0  0  0  0  0  0  0  0  0  0  0
    2.8680   -0.0788    0.0000 O   0  0  0  0  0  0  0  0  0  0  0  0
    8.1223   -2.0999    0.0000 N   0  0  0  0  0  0  0  0  0  0  0  0
    7.2641   -1.6030    0.0000 C   0  0  0  0  0  0  0  0  0  0  0  0
    8.9878   -1.6157    0.0000 C   0  0  0  0  0  0  0  0  0  0  0  0
    7.2641   -0.6030    0.0000 C   0  0  0  0  0  0  0  0  0  0  0  0
    6.3981   -2.1030    0.0000 C   0  0  0  0  0  0  0  0  0  0  0  0
    9.0134   -0.6244    0.0000 C   0  0  0  0  0  0  0  0  0  0  0  0
    8.1741   -0.0961    0.0000 C   0  0  0  0  0  0  0  0  0  0  0  0
    8.6159   -2.9696    0.0000 C   0  0  0  0  0  0  0  0  0  0  0  0
    7.6159   -2.9622    0.0000 C   0  0  0  0  0  0  0  0  0  0  0  0
    6.3981   -0.1030    0.0000 C   0  0  0  0  0  0  0  0  0  0  0  0
    5.5320   -1.6030    0.0000 C   0  0  0  0  0  0  0  0  0  0  0  0
    5.5320   -0.6030    0.0000 C   0  0  0  0  0  0  0  0  0  0  0  0
    8.1821    0.9455    0.0000 C   0  0  0  0  0  0  0  0  0  0  0  0
    6.3820    0.9385    0.0000 C   0  0  0  0  0  0  0  0  0  0  0  0
    7.2800    1.4663    0.0000 C   0  0  0  0  0  0  0  0  0  0  0  0
    4.6381   -2.1376    0.0000 C   0  0  0  0  0  0  0  0  0  0  0  0
    4.6381   -0.0683    0.0000 C   0  0  0  0  0  0  0  0  0  0  0  0
    3.7320   -0.5822    0.0000 C   0  0  0  0  0  0  0  0  0  0  0  0
    3.7320   -1.6238    0.0000 C   0  0  0  0  0  0  0  0  0  0  0  0
    8.1403    2.9696    0.0000 C   0  0  0  0  0  0  0  0  0  0  0  0
    2.0000   -0.5755    0.0000 C   0  0  0  0  0  0  0  0  0  0  0  0
  1 18  1  0
  2 19  1  0
  2 24  1  0
  3 21  1  0
  4 22  1  0
  4 25  1  0
  5  6  1  0
  5  7  1  0
  5 12  1  0
  5 13  1  0
  6  8  1  0
  6  9  1  1
  7 10  1  0
  8 11  2  0
  8 14  1  0
  9 15  1  0
 10 11  1  0
 11 17  1  0
 14 16  1  0
 14 18  2  0
 15 16  2  0
 15 20  1  0
 16 21  1  0
 17 19  2  0
 18 19  1  0
 20 23  2  0
 21 22  2  0
 22 23  1  0
M  CHG  1   5   1
M  END
>  <PUBCHEM_COMPOUND_CID>  (1) 
73337

>  <PUBCHEM_COMPOUND_CANONICALIZED>  (1) 
1

>  <PUBCHEM_CACTVS_COMPLEXITY>  (1) 
498

>  <PUBCHEM_CACTVS_HBOND_ACCEPTOR>  (1) 
4

>  <PUBCHEM_CACTVS_HBOND_DONOR>  (1) 
2

>  <PUBCHEM_CACTVS_ROTATABLE_BOND>  (1) 
2

>  <PUBCHEM_CACTVS_SUBSKEYS>  (1) 
AAADceB6OAAAAAAAAAAAAAAAAAAAAAAAAAA8YMEAAAAAAADxQAAAHgAACAAADCzBmAYyBoMABgCAAiBCAACCCAAgIAAIiAAOjIgNJiKGsRuEcCtkwBGLuAfw8P8OoAADAAAYQADQAAaAADSAAAAAAAAAAA==

>  <PUBCHEM_IUPAC_OPENEYE_NAME>  (1) 
(6aS)-2,10-dimethoxy-6,6-dimethyl-5,6,6a,7-tetrahydro-4H-dibenzo[de,g]quinolin-6-ium-1,11-diol

>  <PUBCHEM_IUPAC_CAS_NAME>  (1) 
(6aS)-2,10-dimethoxy-6,6-dimethyl-5,6,6a,7-tetrahydro-4H-dibenzo[de,g]quinolin-6-ium-1,11-diol

>  <PUBCHEM_IUPAC_NAME_MARKUP>  (1) 
(6<I>a</I><I>S</I>)-2,10-dimethoxy-6,6-dimethyl-5,6,6<I>a</I>,7-tetrahydro-4<I>H</I>-dibenzo[de,g]quinolin-6-ium-1,11-diol

>  <PUBCHEM_IUPAC_NAME>  (1) 
(6aS)-2,10-dimethoxy-6,6-dimethyl-5,6,6a,7-tetrahydro-4H-dibenzo[de,g]quinolin-6-ium-1,11-diol

>  <PUBCHEM_IUPAC_SYSTEMATIC_NAME>  (1) 
(6aS)-2,10-dimethoxy-6,6-dimethyl-5,6,6a,7-tetrahydro-4H-dibenzo[de,g]quinolin-6-ium-1,11-diol

>  <PUBCHEM_IUPAC_TRADITIONAL_NAME>  (1) 
(6aS)-2,10-dimethoxy-6,6-dimethyl-5,6,6a,7-tetrahydro-4H-dibenzo[de,g]quinolin-6-ium-1,11-diol

>  <PUBCHEM_IUPAC_INCHI>  (1) 
InChI=1S/C20H23NO4/c1-21(2)8-7-12-10-15(25-4)20(23)18-16(12)13(21)9-11-5-6-14(24-3)19(22)17(11)18/h5-6,10,13H,7-9H2,1-4H3,(H-,22,23)/p+1/t13-/m0/s1

>  <PUBCHEM_IUPAC_INCHIKEY>  (1) 
YLRXAIKMLINXQY-ZDUSSCGKSA-O

>  <PUBCHEM_XLOGP3_AA>  (1) 
2.7

>  <PUBCHEM_EXACT_MASS>  (1) 
342.17053325

>  <PUBCHEM_MOLECULAR_FORMULA>  (1) 
C20H24NO4+

>  <PUBCHEM_MOLECULAR_WEIGHT>  (1) 
342.4

>  <PUBCHEM_OPENEYE_CAN_SMILES>  (1) 
C[N+]1(CCC2=CC(=C(C3=C2C1CC4=C3C(=C(C=C4)OC)O)O)OC)C

>  <PUBCHEM_OPENEYE_ISO_SMILES>  (1) 
C[N+]1(CCC2=CC(=C(C3=C2[C@@H]1CC4=C3C(=C(C=C4)OC)O)O)OC)C

>  <PUBCHEM_CACTVS_TPSA>  (1) 
58.9

>  <PUBCHEM_MONOISOTOPIC_WEIGHT>  (1) 
342.17053325

>  <PUBCHEM_TOTAL_CHARGE>  (1) 
1

>  <PUBCHEM_HEAVY_ATOM_COUNT>  (1) 
25

>  <PUBCHEM_ATOM_DEF_STEREO_COUNT>  (1) 
1

>  <PUBCHEM_ATOM_UDEF_STEREO_COUNT>  (1) 
0

>  <PUBCHEM_BOND_DEF_STEREO_COUNT>  (1) 
0

>  <PUBCHEM_BOND_UDEF_STEREO_COUNT>  (1) 
0

>  <PUBCHEM_ISOTOPIC_ATOM_COUNT>  (1) 
0

>  <PUBCHEM_COMPONENT_COUNT>  (1) 
1

>  <PUBCHEM_CACTVS_TAUTO_COUNT>  (1) 
-1

>  <PUBCHEM_COORDINATE_TYPE>  (1) 
1
5
255

>  <PUBCHEM_BONDANNOTATIONS>  (1) 
11  17  8
14  18  8
15  16  8
15  20  8
16  21  8
17  19  8
18  19  8
20  23  8
21  22  8
22  23  8
6  26  6
8  11  8
8  14  8

$$$$
