5280863
     RDKit          2D

 21 23  0  0  0  0  0  0  0  0999 V2000
    6.0682   -0.6154    0.0000 O   0  0  0  0  0  0  0  0  0  0  0  0
    7.8003    1.3846    0.0000 O   0  0  0  0  0  0  0  0  0  0  0  0
    4.3198    2.4192    0.0000 O   0  0  0  0  0  0  0  0  0  0  0  0
    6.0682    2.3846    0.0000 O   0  0  0  0  0  0  0  0  0  0  0  0
    2.5381   -0.6395    0.0000 O   0  0  0  0  0  0  0  0  0  0  0  0
   10.3984   -2.1154    0.0000 O   0  0  0  0  0  0  0  0  0  0  0  0
    5.2022    0.8846    0.0000 C   0  0  0  0  0  0  0  0  0  0  0  0
    5.2022   -0.1154    0.0000 C   0  0  0  0  0  0  0  0  0  0  0  0
    6.9343   -0.1154    0.0000 C   0  0  0  0  0  0  0  0  0  0  0  0
    6.0682    1.3846    0.0000 C   0  0  0  0  0  0  0  0  0  0  0  0
    6.9343    0.8846    0.0000 C   0  0  0  0  0  0  0  0  0  0  0  0
    7.8003   -0.6154    0.0000 C   0  0  0  0  0  0  0  0  0  0  0  0
    4.3083    1.4193    0.0000 C   0  0  0  0  0  0  0  0  0  0  0  0
    4.3083   -0.6501    0.0000 C   0  0  0  0  0  0  0  0  0  0  0  0
    3.4022   -0.1362    0.0000 C   0  0  0  0  0  0  0  0  0  0  0  0
    3.4022    0.9054    0.0000 C   0  0  0  0  0  0  0  0  0  0  0  0
    8.6663   -0.1154    0.0000 C   0  0  0  0  0  0  0  0  0  0  0  0
    7.8003   -1.6154    0.0000 C   0  0  0  0  0  0  0  0  0  0  0  0
    9.5323   -0.6154    0.0000 C   0  0  0  0  0  0  0  0  0  0  0  0
    8.6663   -2.1154    0.0000 C   0  0  0  0  0  0  0  0  0  0  0  0
    9.5323   -1.6154    0.0000 C   0  0  0  0  0  0  0  0  0  0  0  0
  1  8  1  0
  1  9  1  0
  2 11  1  0
  3 13  1  0
  4 10  2  0
  5 15  1  0
  6 21  1  0
  7  8  2  0
  7 10  1  0
  7 13  1  0
  8 14  1  0
  9 11  2  0
  9 12  1  0
 10 11  1  0
 12 17  2  0
 12 18  1  0
 13 16  2  0
 14 15  2  0
 15 16  1  0
 17 19  1  0
 18 20  2  0
 19 21  2  0
 20 21  1  0
M  END
>  <PUBCHEM_COMPOUND_CID>  (1) 
5280863

>  <PUBCHEM_COMPOUND_CANONICALIZED>  (1) 
1

>  <PUBCHEM_CACTVS_COMPLEXITY>  (1) 
451

>  <PUBCHEM_CACTVS_HBOND_ACCEPTOR>  (1) 
6

>  <PUBCHEM_CACTVS_HBOND_DONOR>  (1) 
4

>  <PUBCHEM_CACTVS_ROTATABLE_BOND>  (1) 
1

>  <PUBCHEM_CACTVS_SUBSKEYS>  (1) 
AAADccBwOAAAAAAAAAAAAAAAAAAAAAAAAAAwYIAAAAAAAACBQAAAGgAACAAADASAmAAwBoAABgCIAqBSAAICCAAkIAAIiAFGCMgMJzaGNRqCeWCl4BUIuQfI7KzOIAAACAAIAABAAAAQABAAAAAAAAAAAA==

>  <PUBCHEM_IUPAC_OPENEYE_NAME>  (1) 
3,5,7-trihydroxy-2-(4-hydroxyphenyl)chromen-4-one

>  <PUBCHEM_IUPAC_CAS_NAME>  (1) 
3,5,7-trihydroxy-2-(4-hydroxyphenyl)-1-benzopyran-4-one

>  <PUBCHEM_IUPAC_NAME_MARKUP>  (1) 
3,5,7-trihydroxy-2-(4-hydroxyphenyl)chromen-4-one

>  <PUBCHEM_IUPAC_NAME>  (1) 
3,5,7-trihydroxy-2-(4-hydroxyphenyl)chromen-4-one

>  <PUBCHEM_IUPAC_SYSTEMATIC_NAME>  (1) 
2-(4-hydroxyphenyl)-3,5,7-tris(oxidanyl)chromen-4-one

>  <PUBCHEM_IUPAC_TRADITIONAL_NAME>  (1) 
3,5,7-trihydroxy-2-(4-hydroxyphenyl)chromone

>  <PUBCHEM_IUPAC_INCHI>  (1) 
InChI=1S/C15H10O6/c16-8-3-1-7(2-4-8)15-14(20)13(19)12-10(18)5-9(17)6-11(12)21-15/h1-6,16-18,20H

>  <PUBCHEM_IUPAC_INCHIKEY>  (1) 
IYRMWMYZSQPJKC-UHFFFAOYSA-N

>  <PUBCHEM_XLOGP3>  (1) 
1.9

>  <PUBCHEM_EXACT_MASS>  (1) 
286.04773803

>  <PUBCHEM_MOLECULAR_FORMULA>  (1) 
C15H10O6

>  <PUBCHEM_MOLECULAR_WEIGHT>  (1) 
286.24

>  <PUBCHEM_OPENEYE_CAN_SMILES>  (1) 
C1=CC(=CC=C1C2=C(C(=O)C3=C(C=C(C=C3O2)O)O)O)O

>  <PUBCHEM_OPENEYE_ISO_SMILES>  (1) 
C1=CC(=CC=C1C2=C(C(=O)C3=C(C=C(C=C3O2)O)O)O)O

>  <PUBCHEM_CACTVS_TPSA>  (1) 
107

>  <PUBCHEM_MONOISOTOPIC_WEIGHT>  (1) 
286.04773803

>  <PUBCHEM_TOTAL_CHARGE>  (1) 
0

>  <PUBCHEM_HEAVY_ATOM_COUNT>  (1) 
21

>  <PUBCHEM_ATOM_DEF_STEREO_COUNT>  (1) 
0

>  <PUBCHEM_ATOM_UDEF_STEREO_COUNT>  (1) 
0

>  <PUBCHEM_BOND_DEF_STEREO_COUNT>  (1) 
0

>  <PUBCHEM_BOND_UDEF_STEREO_COUNT>  (1) 
0

>  <PUBCHEM_ISOTOPIC_ATOM_COUNT>  (1) 
0

>  <PUBCHEM_COMPONENT_COUNT>  (1) 
1

>  <PUBCHEM_CACTVS_TAUTO_COUNT>  (1) 
-1

>  <PUBCHEM_COORDINATE_TYPE>  (1) 
1
5
255

>  <PUBCHEM_BONDANNOTATIONS>  (1) 
1  8  8
1  9  8
10  11  8
12  17  8
12  18  8
13  16  8
14  15  8
15  16  8
17  19  8
18  20  8
19  21  8
20  21  8
7  10  8
7  13  8
7  8  8
8  14  8
9  11  8

$$$$
