5743
     RDKit          2D

 28 31  0  0  1  0  0  0  0  0999 V2000
    5.0182   -0.2293    0.0000 F   0  0  0  0  0  0  0  0  0  0  0  0
    8.0319    1.2610    0.0000 O   0  0  0  0  0  0  0  0  0  0  0  0
    4.7950    0.5046    0.0000 O   0  0  0  0  0  0  0  0  0  0  0  0
   10.0622    0.4874    0.0000 O   0  0  0  0  0  0  0  0  0  0  0  0
    9.8566    2.4768    0.0000 O   0  0  0  0  0  0  0  0  0  0  0  0
    2.0000   -3.0477    0.0000 O   0  0  0  0  0  0  0  0  0  0  0  0
    7.3931    0.0046    0.0000 C   0  0  0  0  0  0  0  0  0  0  0  0
    7.3931   -0.9954    0.0000 C   0  0  0  0  0  0  0  0  0  0  0  0
    6.5271   -1.4954    0.0000 C   0  0  0  0  0  0  0  0  0  0  0  0
    5.6610   -0.9954    0.0000 C   0  0  0  0  0  0  0  0  0  0  0  0
    8.3393    0.3094    0.0000 C   0  0  0  0  0  0  0  0  0  0  0  0
    8.3393   -1.3001    0.0000 C   0  0  0  0  0  0  0  0  0  0  0  0
    6.5271    0.5046    0.0000 C   0  0  0  0  0  0  0  0  0  0  0  0
    8.9229   -0.4954    0.0000 C   0  0  0  0  0  0  0  0  0  0  0  0
    5.6610    0.0046    0.0000 C   0  0  0  0  0  0  0  0  0  0  0  0
    4.7510   -1.5022    0.0000 C   0  0  0  0  0  0  0  0  0  0  0  0
    6.5431   -2.5369    0.0000 C   0  0  0  0  0  0  0  0  0  0  0  0
    7.3931    1.0046    0.0000 C   0  0  0  0  0  0  0  0  0  0  0  0
    5.6451   -3.0646    0.0000 C   0  0  0  0  0  0  0  0  0  0  0  0
    4.7430   -2.5438    0.0000 C   0  0  0  0  0  0  0  0  0  0  0  0
    9.1493    0.8957    0.0000 C   0  0  0  0  0  0  0  0  0  0  0  0
    9.9229   -0.4954    0.0000 C   0  0  0  0  0  0  0  0  0  0  0  0
    4.4163   -0.5599    0.0000 C   0  0  0  0  0  0  0  0  0  0  0  0
    3.8242   -0.9381    0.0000 C   0  0  0  0  0  0  0  0  0  0  0  0
    3.8076   -3.0935    0.0000 C   0  0  0  0  0  0  0  0  0  0  0  0
    9.0465    1.8904    0.0000 C   0  0  0  0  0  0  0  0  0  0  0  0
    2.8763   -1.4661    0.0000 C   0  0  0  0  0  0  0  0  0  0  0  0
    2.8680   -2.5510    0.0000 C   0  0  0  0  0  0  0  0  0  0  0  0
 10  1  1  6
 11  2  1  6
 15  3  1  1
  4 21  2  0
  5 26  1  0
  6 28  2  0
  7  8  1  0
  7 11  1  0
  7 13  1  0
  7 18  1  1
  8  9  1  0
  8 12  1  1
  9 10  1  0
  9 17  1  6
 10 15  1  0
 10 16  1  0
 11 14  1  0
 11 21  1  0
 12 14  1  0
 13 15  1  0
 14 22  1  6
 16 20  1  0
 16 23  1  1
 16 24  1  0
 17 19  1  0
 19 20  1  0
 20 25  2  0
 21 26  1  0
 24 27  2  0
 25 28  1  0
 27 28  1  0
M  END
>  <PUBCHEM_COMPOUND_CID>  (1) 
5743

>  <PUBCHEM_COMPOUND_CANONICALIZED>  (1) 
1

>  <PUBCHEM_CACTVS_COMPLEXITY>  (1) 
805

>  <PUBCHEM_CACTVS_HBOND_ACCEPTOR>  (1) 
6

>  <PUBCHEM_CACTVS_HBOND_DONOR>  (1) 
3

>  <PUBCHEM_CACTVS_ROTATABLE_BOND>  (1) 
2

>  <PUBCHEM_CACTVS_SUBSKEYS>  (1) 
AAADceB4OQAAAAAAAAAAAAAAAAAAAYAAAAAwYIAAAAAAAGDAAAAAGwAACAAAD1SggAICAAAAAgCIAqBSAAIAAAAgAAAICAFAAEgAEBIAAQAAQAAFgAAIAYPIzPDPgAAAAAAAAADAAAYAADAAAYAADAAAAA==

>  <PUBCHEM_IUPAC_OPENEYE_NAME>  (1) 
(8S,9R,10S,11S,13S,14S,16R,17R)-9-fluoro-11,17-dihydroxy-17-(2-hydroxyacetyl)-10,13,16-trimethyl-6,7,8,11,12,14,15,16-octahydrocyclopenta[a]phenanthren-3-one

>  <PUBCHEM_IUPAC_CAS_NAME>  (1) 
(8S,9R,10S,11S,13S,14S,16R,17R)-9-fluoro-11,17-dihydroxy-17-(2-hydroxy-1-oxoethyl)-10,13,16-trimethyl-6,7,8,11,12,14,15,16-octahydrocyclopenta[a]phenanthren-3-one

>  <PUBCHEM_IUPAC_NAME_MARKUP>  (1) 
(8<I>S</I>,9<I>R</I>,10<I>S</I>,11<I>S</I>,13<I>S</I>,14<I>S</I>,16<I>R</I>,17<I>R</I>)-9-fluoro-11,17-dihydroxy-17-(2-hydroxyacetyl)-10,13,16-trimethyl-6,7,8,11,12,14,15,16-octahydrocyclopenta[a]phenanthren-3-one

>  <PUBCHEM_IUPAC_NAME>  (1) 
(8S,9R,10S,11S,13S,14S,16R,17R)-9-fluoro-11,17-dihydroxy-17-(2-hydroxyacetyl)-10,13,16-trimethyl-6,7,8,11,12,14,15,16-octahydrocyclopenta[a]phenanthren-3-one

>  <PUBCHEM_IUPAC_SYSTEMATIC_NAME>  (1) 
(8S,9R,10S,11S,13S,14S,16R,17R)-9-fluoranyl-10,13,16-trimethyl-11,17-bis(oxidanyl)-17-(2-oxidanylethanoyl)-6,7,8,11,12,14,15,16-octahydrocyclopenta[a]phenanthren-3-one

>  <PUBCHEM_IUPAC_TRADITIONAL_NAME>  (1) 
(8S,9R,10S,11S,13S,14S,16R,17R)-9-fluoro-17-glycoloyl-11,17-dihydroxy-10,13,16-trimethyl-6,7,8,11,12,14,15,16-octahydrocyclopenta[a]phenanthren-3-one

>  <PUBCHEM_IUPAC_INCHI>  (1) 
InChI=1S/C22H29FO5/c1-12-8-16-15-5-4-13-9-14(25)6-7-19(13,2)21(15,23)17(26)10-20(16,3)22(12,28)18(27)11-24/h6-7,9,12,15-17,24,26,28H,4-5,8,10-11H2,1-3H3/t12-,15+,16+,17+,19+,20+,21+,22+/m1/s1

>  <PUBCHEM_IUPAC_INCHIKEY>  (1) 
UREBDLICKHMUKA-CXSFZGCWSA-N

>  <PUBCHEM_XLOGP3>  (1) 
1.9

>  <PUBCHEM_EXACT_MASS>  (1) 
392.19990218

>  <PUBCHEM_MOLECULAR_FORMULA>  (1) 
C22H29FO5

>  <PUBCHEM_MOLECULAR_WEIGHT>  (1) 
392.5

>  <PUBCHEM_OPENEYE_CAN_SMILES>  (1) 
CC1CC2C3CCC4=CC(=O)C=CC4(C3(C(CC2(C1(C(=O)CO)O)C)O)F)C

>  <PUBCHEM_OPENEYE_ISO_SMILES>  (1) 
C[C@@H]1C[C@H]2[C@@H]3CCC4=CC(=O)C=C[C@@]4([C@]3([C@H](C[C@@]2([C@]1(C(=O)CO)O)C)O)F)C

>  <PUBCHEM_CACTVS_TPSA>  (1) 
94.8

>  <PUBCHEM_MONOISOTOPIC_WEIGHT>  (1) 
392.19990218

>  <PUBCHEM_TOTAL_CHARGE>  (1) 
0

>  <PUBCHEM_HEAVY_ATOM_COUNT>  (1) 
28

>  <PUBCHEM_ATOM_DEF_STEREO_COUNT>  (1) 
8

>  <PUBCHEM_ATOM_UDEF_STEREO_COUNT>  (1) 
0

>  <PUBCHEM_BOND_DEF_STEREO_COUNT>  (1) 
0

>  <PUBCHEM_BOND_UDEF_STEREO_COUNT>  (1) 
0

>  <PUBCHEM_ISOTOPIC_ATOM_COUNT>  (1) 
0

>  <PUBCHEM_COMPONENT_COUNT>  (1) 
1

>  <PUBCHEM_CACTVS_TAUTO_COUNT>  (1) 
9

>  <PUBCHEM_COORDINATE_TYPE>  (1) 
1
5
255

>  <PUBCHEM_BONDANNOTATIONS>  (1) 
10  1  6
14  22  6
16  23  5
11  2  6
15  3  5
7  18  5
8  29  6
9  30  5

$$$$
