323
     RDKit          2D

 11 12  0  0  0  0  0  0  0  0999 V2000
    4.6660   -1.0000    0.0000 O   0  0  0  0  0  0  0  0  0  0  0  0
    6.3981   -1.0000    0.0000 O   0  0  0  0  0  0  0  0  0  0  0  0
    3.8000    0.5000    0.0000 C   0  0  0  0  0  0  0  0  0  0  0  0
    3.8000   -0.5000    0.0000 C   0  0  0  0  0  0  0  0  0  0  0  0
    2.9061    1.0347    0.0000 C   0  0  0  0  0  0  0  0  0  0  0  0
    4.6660    1.0000    0.0000 C   0  0  0  0  0  0  0  0  0  0  0  0
    2.9061   -1.0347    0.0000 C   0  0  0  0  0  0  0  0  0  0  0  0
    2.0000    0.5208    0.0000 C   0  0  0  0  0  0  0  0  0  0  0  0
    2.0000   -0.5208    0.0000 C   0  0  0  0  0  0  0  0  0  0  0  0
    5.5321    0.5000    0.0000 C   0  0  0  0  0  0  0  0  0  0  0  0
    5.5321   -0.5000    0.0000 C   0  0  0  0  0  0  0  0  0  0  0  0
  1  4  1  0
  1 11  1  0
  2 11  2  0
  3  4  2  0
  3  5  1  0
  3  6  1  0
  4  7  1  0
  5  8  2  0
  6 10  2  0
  7  9  2  0
  8  9  1  0
 10 11  1  0
M  END
>  <PUBCHEM_COMPOUND_CID>  (1) 
323

>  <PUBCHEM_COMPOUND_CANONICALIZED>  (1) 
1

>  <PUBCHEM_CACTVS_COMPLEXITY>  (1) 
196

>  <PUBCHEM_CACTVS_HBOND_ACCEPTOR>  (1) 
2

>  <PUBCHEM_CACTVS_HBOND_DONOR>  (1) 
0

>  <PUBCHEM_CACTVS_ROTATABLE_BOND>  (1) 
0

>  <PUBCHEM_CACTVS_SUBSKEYS>  (1) 
AAADcYBwMAAAAAAAAAAAAAAAAAAAAAAAAAAwQAAAAAAAAACBAAAAGgAAAAAADASAmAAwDoAABACIAiDSCAACCAAgIAAIiAAGCMgMJiKEMRqCOiCkwBEIqYeAwCAOAAAAAAAIAAAAAAAAABAAAAAAAAAAAA==

>  <PUBCHEM_IUPAC_OPENEYE_NAME>  (1) 
chromen-2-one

>  <PUBCHEM_IUPAC_CAS_NAME>  (1) 
1-benzopyran-2-one

>  <PUBCHEM_IUPAC_NAME_MARKUP>  (1) 
chromen-2-one

>  <PUBCHEM_IUPAC_NAME>  (1) 
chromen-2-one

>  <PUBCHEM_IUPAC_SYSTEMATIC_NAME>  (1) 
chromen-2-one

>  <PUBCHEM_IUPAC_TRADITIONAL_NAME>  (1) 
coumarin

>  <PUBCHEM_IUPAC_INCHI>  (1) 
InChI=1S/C9H6O2/c10-9-6-5-7-3-1-2-4-8(7)11-9/h1-6H

>  <PUBCHEM_IUPAC_INCHIKEY>  (1) 
ZYGHJZDHTFUPRJ-UHFFFAOYSA-N

>  <PUBCHEM_XLOGP3>  (1) 
1.4

>  <PUBCHEM_EXACT_MASS>  (1) 
146.036779430

>  <PUBCHEM_MOLECULAR_FORMULA>  (1) 
C9H6O2

>  <PUBCHEM_MOLECULAR_WEIGHT>  (1) 
146.14

>  <PUBCHEM_OPENEYE_CAN_SMILES>  (1) 
C1=CC=C2C(=C1)C=CC(=O)O2

>  <PUBCHEM_OPENEYE_ISO_SMILES>  (1) 
C1=CC=C2C(=C1)C=CC(=O)O2

>  <PUBCHEM_CACTVS_TPSA>  (1) 
26.3

>  <PUBCHEM_MONOISOTOPIC_WEIGHT>  (1) 
146.036779430

>  <PUBCHEM_TOTAL_CHARGE>  (1) 
0

>  <PUBCHEM_HEAVY_ATOM_COUNT>  (1) 
11

>  <PUBCHEM_ATOM_DEF_STEREO_COUNT>  (1) 
0

>  <PUBCHEM_ATOM_UDEF_STEREO_COUNT>  (1) 
0

>  <PUBCHEM_BOND_DEF_STEREO_COUNT>  (1) 
0

>  <PUBCHEM_BOND_UDEF_STEREO_COUNT>  (1) 
0

>  <PUBCHEM_ISOTOPIC_ATOM_COUNT>  (1) 
0

>  <PUBCHEM_COMPONENT_COUNT>  (1) 
1

>  <PUBCHEM_CACTVS_TAUTO_COUNT>  (1) 
-1

>  <PUBCHEM_COORDINATE_TYPE>  (1) 
1
5
255

>  <PUBCHEM_BONDANNOTATIONS>  (1) 
1  11  8
1  4  8
10  11  8
3  4  8
3  5  8
3  6  8
4  7  8
5  8  8
6  10  8
7  9  8
8  9  8

$$$$
