SV_J22_0025
  -OEChem-07172407052D

 45 46  0     1  0  0  0  0  0999 V2000
    6.0010    0.2500    0.0000 O   0  0  0  0  0  0  0  0  0  0  0  0
    4.2690    1.2500    0.0000 O   0  0  0  0  0  0  0  0  0  0  0  0
    8.5991    4.7500    0.0000 O   0  0  0  0  0  0  0  0  0  0  0  0
    5.1350    2.7500    0.0000 O   0  0  0  0  0  0  0  0  0  0  0  0
    6.8671    5.7500    0.0000 O   0  0  0  0  0  0  0  0  0  0  0  0
    4.2690    0.2500    0.0000 O   0  0  0  0  0  0  0  0  0  0  0  0
    2.5369   -4.7500    0.0000 O   0  0  0  0  0  0  0  0  0  0  0  0
    4.2690   -5.7500    0.0000 O   0  0  0  0  0  0  0  0  0  0  0  0
    6.8671    1.7500    0.0000 C   0  0  0  0  0  0  0  0  0  0  0  0
    6.0010    1.2500    0.0000 C   0  0  2  0  0  0  0  0  0  0  0  0
    6.8671    2.7500    0.0000 C   0  0  0  0  0  0  0  0  0  0  0  0
    7.7331    3.2500    0.0000 C   0  0  0  0  0  0  0  0  0  0  0  0
    6.0010    3.2500    0.0000 C   0  0  0  0  0  0  0  0  0  0  0  0
    5.1350    1.7500    0.0000 C   0  0  0  0  0  0  0  0  0  0  0  0
    7.7331    4.2500    0.0000 C   0  0  0  0  0  0  0  0  0  0  0  0
    6.0010    4.2500    0.0000 C   0  0  0  0  0  0  0  0  0  0  0  0
    6.8671    4.7500    0.0000 C   0  0  0  0  0  0  0  0  0  0  0  0
    5.1350   -0.2500    0.0000 C   0  0  0  0  0  0  0  0  0  0  0  0
    4.2690   -2.7500    0.0000 C   0  0  0  0  0  0  0  0  0  0  0  0
    5.1350   -1.2500    0.0000 C   0  0  0  0  0  0  0  0  0  0  0  0
    4.2690   -1.7500    0.0000 C   0  0  0  0  0  0  0  0  0  0  0  0
    3.4030   -3.2500    0.0000 C   0  0  0  0  0  0  0  0  0  0  0  0
    5.1350   -3.2500    0.0000 C   0  0  0  0  0  0  0  0  0  0  0  0
    3.4030   -4.2500    0.0000 C   0  0  0  0  0  0  0  0  0  0  0  0
    5.1350   -4.2500    0.0000 C   0  0  0  0  0  0  0  0  0  0  0  0
    4.2690   -4.7500    0.0000 C   0  0  0  0  0  0  0  0  0  0  0  0
    3.4030    1.7500    0.0000 C   0  0  0  0  0  0  0  0  0  0  0  0
    7.0791    1.1674    0.0000 H   0  0  0  0  0  0  0  0  0  0  0  0
    7.4776    1.8577    0.0000 H   0  0  0  0  0  0  0  0  0  0  0  0
    6.5380    0.9400    0.0000 H   0  0  0  0  0  0  0  0  0  0  0  0
    8.2700    2.9400    0.0000 H   0  0  0  0  0  0  0  0  0  0  0  0
    5.4641    2.9400    0.0000 H   0  0  0  0  0  0  0  0  0  0  0  0
    5.4641    4.5600    0.0000 H   0  0  0  0  0  0  0  0  0  0  0  0
    5.6720   -1.5600    0.0000 H   0  0  0  0  0  0  0  0  0  0  0  0
    3.7320   -1.4400    0.0000 H   0  0  0  0  0  0  0  0  0  0  0  0
    2.8660   -2.9400    0.0000 H   0  0  0  0  0  0  0  0  0  0  0  0
    5.6720   -2.9400    0.0000 H   0  0  0  0  0  0  0  0  0  0  0  0
    9.1360    4.4400    0.0000 H   0  0  0  0  0  0  0  0  0  0  0  0
    5.6720   -4.5600    0.0000 H   0  0  0  0  0  0  0  0  0  0  0  0
    6.3301    6.0600    0.0000 H   0  0  0  0  0  0  0  0  0  0  0  0
    3.7130    2.2869    0.0000 H   0  0  0  0  0  0  0  0  0  0  0  0
    2.8660    2.0600    0.0000 H   0  0  0  0  0  0  0  0  0  0  0  0
    3.0930    1.2131    0.0000 H   0  0  0  0  0  0  0  0  0  0  0  0
    2.0000   -4.4400    0.0000 H   0  0  0  0  0  0  0  0  0  0  0  0
    4.8059   -6.0600    0.0000 H   0  0  0  0  0  0  0  0  0  0  0  0
 10  1  1  1  0  0  0
  1 18  1  0  0  0  0
  2 14  1  0  0  0  0
  2 27  1  0  0  0  0
  3 15  1  0  0  0  0
  3 38  1  0  0  0  0
  4 14  2  0  0  0  0
  5 17  1  0  0  0  0
  5 40  1  0  0  0  0
  6 18  2  0  0  0  0
  7 24  1  0  0  0  0
  7 44  1  0  0  0  0
  8 26  1  0  0  0  0
  8 45  1  0  0  0  0
  9 10  1  0  0  0  0
  9 11  1  0  0  0  0
  9 28  1  0  0  0  0
  9 29  1  0  0  0  0
 10 14  1  0  0  0  0
 10 30  1  0  0  0  0
 11 12  2  0  0  0  0
 11 13  1  0  0  0  0
 12 15  1  0  0  0  0
 12 31  1  0  0  0  0
 13 16  2  0  0  0  0
 13 32  1  0  0  0  0
 15 17  2  0  0  0  0
 16 17  1  0  0  0  0
 16 33  1  0  0  0  0
 18 20  1  0  0  0  0
 19 21  1  0  0  0  0
 19 22  2  0  0  0  0
 19 23  1  0  0  0  0
 20 21  2  0  0  0  0
 20 34  1  0  0  0  0
 21 35  1  0  0  0  0
 22 24  1  0  0  0  0
 22 36  1  0  0  0  0
 23 25  2  0  0  0  0
 23 37  1  0  0  0  0
 24 26  2  0  0  0  0
 25 26  1  0  0  0  0
 25 39  1  0  0  0  0
 27 41  1  0  0  0  0
 27 42  1  0  0  0  0
 27 43  1  0  0  0  0
M  END
> <PUBCHEM_COMPOUND_CID>
6479915

> <PUBCHEM_COMPOUND_CANONICALIZED>
1

> <PUBCHEM_CACTVS_COMPLEXITY>
534

> <PUBCHEM_CACTVS_HBOND_ACCEPTOR>
8

> <PUBCHEM_CACTVS_HBOND_DONOR>
4

> <PUBCHEM_CACTVS_ROTATABLE_BOND>
8

> <PUBCHEM_CACTVS_SUBSKEYS>
AAADceB4PAAAAAAAAAAAAAAAAAAAAAAAAAAwYAAAAAAAAAABQAAAGgAACAAADBSgmAIyDoAABgCIAiDSCAICAAAgIAAIiAFGiMgJJjKCMRaCcAEkwBELuYeI6LyOIAABAAAAQABAAAIAAACAAAAAAAAAAA==

> <PUBCHEM_IUPAC_OPENEYE_NAME>
methyl (2R)-3-(3,4-dihydroxyphenyl)-2-[(E)-3-(3,4-dihydroxyphenyl)prop-2-enoyl]oxy-propanoate

> <PUBCHEM_IUPAC_CAS_NAME>
(2R)-3-(3,4-dihydroxyphenyl)-2-[(E)-3-(3,4-dihydroxyphenyl)-1-oxoprop-2-enoxy]propanoic acid methyl ester

> <PUBCHEM_IUPAC_NAME_MARKUP>
methyl (2<I>R</I>)-3-(3,4-dihydroxyphenyl)-2-[(<I>E</I>)-3-(3,4-dihydroxyphenyl)prop-2-enoyl]oxypropanoate

> <PUBCHEM_IUPAC_NAME>
methyl (2R)-3-(3,4-dihydroxyphenyl)-2-[(E)-3-(3,4-dihydroxyphenyl)prop-2-enoyl]oxypropanoate

> <PUBCHEM_IUPAC_SYSTEMATIC_NAME>
methyl (2R)-3-[3,4-bis(oxidanyl)phenyl]-2-[(E)-3-[3,4-bis(oxidanyl)phenyl]prop-2-enoyl]oxy-propanoate

> <PUBCHEM_IUPAC_TRADITIONAL_NAME>
(2R)-3-(3,4-dihydroxyphenyl)-2-[(E)-3-(3,4-dihydroxyphenyl)acryloyl]oxy-propionic acid methyl ester

> <PUBCHEM_IUPAC_INCHI>
InChI=1S/C19H18O8/c1-26-19(25)17(10-12-3-6-14(21)16(23)9-12)27-18(24)7-4-11-2-5-13(20)15(22)8-11/h2-9,17,20-23H,10H2,1H3/b7-4+/t17-/m1/s1

> <PUBCHEM_IUPAC_INCHIKEY>
XHALVRQBZGZHFE-BBOMDTFKSA-N

> <PUBCHEM_XLOGP3_AA>
2.7

> <PUBCHEM_EXACT_MASS>
374.10016753

> <PUBCHEM_MOLECULAR_FORMULA>
C19H18O8

> <PUBCHEM_MOLECULAR_WEIGHT>
374.3

> <PUBCHEM_OPENEYE_CAN_SMILES>
COC(=O)C(CC1=CC(=C(C=C1)O)O)OC(=O)C=CC2=CC(=C(C=C2)O)O

> <PUBCHEM_OPENEYE_ISO_SMILES>
COC(=O)[C@@H](CC1=CC(=C(C=C1)O)O)OC(=O)/C=C/C2=CC(=C(C=C2)O)O

> <PUBCHEM_CACTVS_TPSA>
134

> <PUBCHEM_MONOISOTOPIC_WEIGHT>
374.10016753

> <PUBCHEM_TOTAL_CHARGE>
0

> <PUBCHEM_HEAVY_ATOM_COUNT>
27

> <PUBCHEM_ATOM_DEF_STEREO_COUNT>
1

> <PUBCHEM_ATOM_UDEF_STEREO_COUNT>
0

> <PUBCHEM_BOND_DEF_STEREO_COUNT>
1

> <PUBCHEM_BOND_UDEF_STEREO_COUNT>
0

> <PUBCHEM_ISOTOPIC_ATOM_COUNT>
0

> <PUBCHEM_COMPONENT_COUNT>
1

> <PUBCHEM_CACTVS_TAUTO_COUNT>
-1

> <PUBCHEM_COORDINATE_TYPE>
1
5
255

> <PUBCHEM_BONDANNOTATIONS>
10  1  5
11  12  8
11  13  8
12  15  8
13  16  8
15  17  8
16  17  8
19  22  8
19  23  8
22  24  8
23  25  8
24  26  8
25  26  8

$$$$
