5281671
     RDKit          2D

 31 34  0  0  0  0  0  0  0  0999 V2000
   10.4366    1.2002    0.0000 O   0  0  0  0  0  0  0  0  0  0  0  0
    6.9006    1.2280    0.0000 O   0  0  0  0  0  0  0  0  0  0  0  0
    8.6605   -1.8067    0.0000 O   0  0  0  0  0  0  0  0  0  0  0  0
    6.9121   -1.8413    0.0000 O   0  0  0  0  0  0  0  0  0  0  0  0
    6.0022    2.7141    0.0000 O   0  0  0  0  0  0  0  0  0  0  0  0
    2.5381    2.7275    0.0000 O   0  0  0  0  0  0  0  0  0  0  0  0
   10.4446    2.2418    0.0000 C   0  0  0  0  0  0  0  0  0  0  0  0
    8.6605    1.1933    0.0000 C   0  0  0  0  0  0  0  0  0  0  0  0
    7.7945    0.6933    0.0000 C   0  0  0  0  0  0  0  0  0  0  0  0
    9.5266    0.6933    0.0000 C   0  0  0  0  0  0  0  0  0  0  0  0
    7.7945   -0.3067    0.0000 C   0  0  0  0  0  0  0  0  0  0  0  0
    9.5425    2.7626    0.0000 C   0  0  0  0  0  0  0  0  0  0  0  0
    8.6445    2.2348    0.0000 C   0  0  0  0  0  0  0  0  0  0  0  0
    5.9945   -0.3275    0.0000 C   0  0  0  0  0  0  0  0  0  0  0  0
   10.9479    3.1059    0.0000 C   0  0  0  0  0  0  0  0  0  0  0  0
   11.4446    2.2379    0.0000 C   0  0  0  0  0  0  0  0  0  0  0  0
    6.9006   -0.8413    0.0000 C   0  0  0  0  0  0  0  0  0  0  0  0
    5.9945    0.7142    0.0000 C   0  0  0  0  0  0  0  0  0  0  0  0
    8.6605   -0.8067    0.0000 C   0  0  0  0  0  0  0  0  0  0  0  0
    9.5266   -0.3067    0.0000 C   0  0  0  0  0  0  0  0  0  0  0  0
    5.1304   -0.8308    0.0000 C   0  0  0  0  0  0  0  0  0  0  0  0
    5.1304    1.2175    0.0000 C   0  0  0  0  0  0  0  0  0  0  0  0
    5.1343   -1.8308    0.0000 C   0  0  0  0  0  0  0  0  0  0  0  0
    5.1343    2.2175    0.0000 C   0  0  0  0  0  0  0  0  0  0  0  0
    4.2625    0.7208    0.0000 C   0  0  0  0  0  0  0  0  0  0  0  0
    4.2702   -2.3341    0.0000 C   0  0  0  0  0  0  0  0  0  0  0  0
    4.2702    2.7208    0.0000 C   0  0  0  0  0  0  0  0  0  0  0  0
    3.3984    1.2242    0.0000 C   0  0  0  0  0  0  0  0  0  0  0  0
    3.4022    2.2242    0.0000 C   0  0  0  0  0  0  0  0  0  0  0  0
    4.2740   -3.3341    0.0000 C   0  0  0  0  0  0  0  0  0  0  0  0
    3.4022   -1.8375    0.0000 C   0  0  0  0  0  0  0  0  0  0  0  0
  1  7  1  0
  1 10  1  0
  2  9  1  0
  2 18  1  0
  3 19  1  0
  4 17  2  0
  5 24  1  0
  6 29  1  0
  7 12  1  0
  7 15  1  0
  7 16  1  0
  8  9  1  0
  8 10  2  0
  8 13  1  0
  9 11  2  0
 10 20  1  0
 11 17  1  0
 11 19  1  0
 12 13  2  0
 14 17  1  0
 14 18  2  0
 14 21  1  0
 18 22  1  0
 19 20  2  0
 21 23  1  0
 22 24  2  0
 22 25  1  0
 23 26  2  0
 24 27  1  0
 25 28  2  0
 26 30  1  0
 26 31  1  0
 27 29  2  0
 28 29  1  0
M  END
>  <PUBCHEM_COMPOUND_CID>  (1) 
5281671

>  <PUBCHEM_COMPOUND_CANONICALIZED>  (1) 
1

>  <PUBCHEM_CACTVS_COMPLEXITY>  (1) 
805

>  <PUBCHEM_CACTVS_HBOND_ACCEPTOR>  (1) 
6

>  <PUBCHEM_CACTVS_HBOND_DONOR>  (1) 
3

>  <PUBCHEM_CACTVS_ROTATABLE_BOND>  (1) 
3

>  <PUBCHEM_CACTVS_SUBSKEYS>  (1) 
AAADceB4OAAAAAAAAAAAAAAAAAAAAAAAAAAwYIEAAAAAAACBQAAAGgAACAAADESAmAAyBoAABgCIAqBSAAACCAAkIAAIiAEGCMgMJzaGNRqCeWCl4BUIuQeI7OzOIAACCAAIAABAAAQQABAAAAAAAAAAAA==

>  <PUBCHEM_IUPAC_OPENEYE_NAME>  (1) 
2-(2,4-dihydroxyphenyl)-5-hydroxy-8,8-dimethyl-3-(3-methylbut-2-enyl)pyrano[2,3-h]chromen-4-one

>  <PUBCHEM_IUPAC_CAS_NAME>  (1) 
2-(2,4-dihydroxyphenyl)-5-hydroxy-8,8-dimethyl-3-(3-methylbut-2-enyl)-4-pyrano[2,3-h][1]benzopyranone

>  <PUBCHEM_IUPAC_NAME_MARKUP>  (1) 
2-(2,4-dihydroxyphenyl)-5-hydroxy-8,8-dimethyl-3-(3-methylbut-2-enyl)pyrano[2,3-h]chromen-4-one

>  <PUBCHEM_IUPAC_NAME>  (1) 
2-(2,4-dihydroxyphenyl)-5-hydroxy-8,8-dimethyl-3-(3-methylbut-2-enyl)pyrano[2,3-h]chromen-4-one

>  <PUBCHEM_IUPAC_SYSTEMATIC_NAME>  (1) 
2-[2,4-bis(oxidanyl)phenyl]-8,8-dimethyl-3-(3-methylbut-2-enyl)-5-oxidanyl-pyrano[2,3-h]chromen-4-one

>  <PUBCHEM_IUPAC_TRADITIONAL_NAME>  (1) 
2-(2,4-dihydroxyphenyl)-5-hydroxy-8,8-dimethyl-3-(3-methylbut-2-enyl)pyrano[2,3-h]chromen-4-one

>  <PUBCHEM_IUPAC_INCHI>  (1) 
InChI=1S/C25H24O6/c1-13(2)5-7-17-22(29)21-19(28)12-20-16(9-10-25(3,4)31-20)24(21)30-23(17)15-8-6-14(26)11-18(15)27/h5-6,8-12,26-28H,7H2,1-4H3

>  <PUBCHEM_IUPAC_INCHIKEY>  (1) 
XFFOMNJIDRDDLQ-UHFFFAOYSA-N

>  <PUBCHEM_XLOGP3_AA>  (1) 
5.5

>  <PUBCHEM_EXACT_MASS>  (1) 
420.15728848

>  <PUBCHEM_MOLECULAR_FORMULA>  (1) 
C25H24O6

>  <PUBCHEM_MOLECULAR_WEIGHT>  (1) 
420.5

>  <PUBCHEM_OPENEYE_CAN_SMILES>  (1) 
CC(=CCC1=C(OC2=C(C1=O)C(=CC3=C2C=CC(O3)(C)C)O)C4=C(C=C(C=C4)O)O)C

>  <PUBCHEM_OPENEYE_ISO_SMILES>  (1) 
CC(=CCC1=C(OC2=C(C1=O)C(=CC3=C2C=CC(O3)(C)C)O)C4=C(C=C(C=C4)O)O)C

>  <PUBCHEM_CACTVS_TPSA>  (1) 
96.2

>  <PUBCHEM_MONOISOTOPIC_WEIGHT>  (1) 
420.15728848

>  <PUBCHEM_TOTAL_CHARGE>  (1) 
0

>  <PUBCHEM_HEAVY_ATOM_COUNT>  (1) 
31

>  <PUBCHEM_ATOM_DEF_STEREO_COUNT>  (1) 
0

>  <PUBCHEM_ATOM_UDEF_STEREO_COUNT>  (1) 
0

>  <PUBCHEM_BOND_DEF_STEREO_COUNT>  (1) 
0

>  <PUBCHEM_BOND_UDEF_STEREO_COUNT>  (1) 
0

>  <PUBCHEM_ISOTOPIC_ATOM_COUNT>  (1) 
0

>  <PUBCHEM_COMPONENT_COUNT>  (1) 
1

>  <PUBCHEM_CACTVS_TAUTO_COUNT>  (1) 
-1

>  <PUBCHEM_COORDINATE_TYPE>  (1) 
1
5
255

>  <PUBCHEM_BONDANNOTATIONS>  (1) 
10  20  8
11  17  8
11  19  8
14  17  8
14  18  8
19  20  8
2  18  8
2  9  8
22  24  8
22  25  8
24  27  8
25  28  8
27  29  8
28  29  8
8  10  8
8  9  8
9  11  8

$$$$
