11111496
     RDKit          2D

 27 29  0  0  1  0  0  0  0  0999 V2000
    6.0290    0.4653    0.0000 O   0  0  0  0  0  0  0  0  0  0  0  0
    6.0174    3.5346    0.0000 O   0  0  0  0  0  0  0  0  0  0  0  0
    4.2690    3.5000    0.0000 O   0  0  0  0  0  0  0  0  0  0  0  0
    2.5369    0.5000    0.0000 O   0  0  0  0  0  0  0  0  0  0  0  0
    8.6555   -2.0275    0.0000 O   0  0  0  0  0  0  0  0  0  0  0  0
   10.3914   -1.0341    0.0000 O   0  0  0  0  0  0  0  0  0  0  0  0
    2.5369   -3.5000    0.0000 O   0  0  0  0  0  0  0  0  0  0  0  0
    6.9350    0.9792    0.0000 C   0  0  0  0  0  0  0  0  0  0  0  0
    6.9350    2.0208    0.0000 C   0  0  0  0  0  0  0  0  0  0  0  0
    5.1350    1.0000    0.0000 C   0  0  0  0  0  0  0  0  0  0  0  0
    5.1350    2.0000    0.0000 C   0  0  0  0  0  0  0  0  0  0  0  0
    6.0290    2.5347    0.0000 C   0  0  0  0  0  0  0  0  0  0  0  0
    4.2690    0.5000    0.0000 C   0  0  0  0  0  0  0  0  0  0  0  0
    7.7991    0.4758    0.0000 C   0  0  0  0  0  0  0  0  0  0  0  0
    4.2690   -0.5000    0.0000 C   0  0  0  0  0  0  0  0  0  0  0  0
    4.2690    2.5000    0.0000 C   0  0  0  0  0  0  0  0  0  0  0  0
    3.4030    1.0000    0.0000 C   0  0  0  0  0  0  0  0  0  0  0  0
    3.4030    2.0000    0.0000 C   0  0  0  0  0  0  0  0  0  0  0  0
    7.7953   -0.5241    0.0000 C   0  0  0  0  0  0  0  0  0  0  0  0
    8.6671    0.9725    0.0000 C   0  0  0  0  0  0  0  0  0  0  0  0
    3.4030   -1.0000    0.0000 C   0  0  0  0  0  0  0  0  0  0  0  0
    8.6594   -1.0275    0.0000 C   0  0  0  0  0  0  0  0  0  0  0  0
    9.5312    0.4692    0.0000 C   0  0  0  0  0  0  0  0  0  0  0  0
    9.5273   -0.5308    0.0000 C   0  0  0  0  0  0  0  0  0  0  0  0
    3.4030   -2.0000    0.0000 C   0  0  0  0  0  0  0  0  0  0  0  0
    2.5369   -2.5000    0.0000 C   0  0  0  0  0  0  0  0  0  0  0  0
    4.2690   -2.5000    0.0000 C   0  0  0  0  0  0  0  0  0  0  0  0
  1  8  1  0
  1 10  1  0
  2 12  2  0
  3 16  1  0
  4 17  1  0
  5 22  1  0
  6 24  1  0
  7 26  1  0
  8  9  1  0
  8 14  1  1
  9 12  1  0
 10 11  2  0
 10 13  1  0
 11 12  1  0
 11 16  1  0
 13 15  1  0
 13 17  2  0
 14 19  2  0
 14 20  1  0
 15 21  1  0
 16 18  2  0
 17 18  1  0
 19 22  1  0
 20 23  2  0
 21 25  2  0
 22 24  2  0
 23 24  1  0
 25 26  1  0
 25 27  1  0
M  END
>  <PUBCHEM_COMPOUND_CID>  (1) 
11111496

>  <PUBCHEM_COMPOUND_CANONICALIZED>  (1) 
1

>  <PUBCHEM_CACTVS_COMPLEXITY>  (1) 
563

>  <PUBCHEM_CACTVS_HBOND_ACCEPTOR>  (1) 
7

>  <PUBCHEM_CACTVS_HBOND_DONOR>  (1) 
5

>  <PUBCHEM_CACTVS_ROTATABLE_BOND>  (1) 
4

>  <PUBCHEM_CACTVS_SUBSKEYS>  (1) 
AAADceB4OAAAAAAAAAAAAAAAAAAAAAAAAAA0YIAAAAAAAACRQAAAGgAACAAADBSgmAIyBoAABgCIAqBSAAACCAAkIAAIiAEGiMgNNzaGNRqCeWGl4BUJuQfI7PzOIAADCAAIQABAAAYQABCAAAAAAAAAAA==

>  <PUBCHEM_IUPAC_OPENEYE_NAME>  (1) 
(2S)-2-(3,4-dihydroxyphenyl)-5,7-dihydroxy-8-[(E)-4-hydroxy-3-methyl-but-2-enyl]chroman-4-one

>  <PUBCHEM_IUPAC_CAS_NAME>  (1) 
(2S)-2-(3,4-dihydroxyphenyl)-5,7-dihydroxy-8-[(E)-4-hydroxy-3-methylbut-2-enyl]-3,4-dihydro-2H-1-benzopyran-4-one

>  <PUBCHEM_IUPAC_NAME_MARKUP>  (1) 
(2<I>S</I>)-2-(3,4-dihydroxyphenyl)-5,7-dihydroxy-8-[(<I>E</I>)-4-hydroxy-3-methylbut-2-enyl]-2,3-dihydrochromen-4-one

>  <PUBCHEM_IUPAC_NAME>  (1) 
(2S)-2-(3,4-dihydroxyphenyl)-5,7-dihydroxy-8-[(E)-4-hydroxy-3-methylbut-2-enyl]-2,3-dihydrochromen-4-one

>  <PUBCHEM_IUPAC_SYSTEMATIC_NAME>  (1) 
(2S)-2-[3,4-bis(oxidanyl)phenyl]-8-[(E)-3-methyl-4-oxidanyl-but-2-enyl]-5,7-bis(oxidanyl)-2,3-dihydrochromen-4-one

>  <PUBCHEM_IUPAC_TRADITIONAL_NAME>  (1) 
(2S)-2-(3,4-dihydroxyphenyl)-5,7-dihydroxy-8-[(E)-4-hydroxy-3-methyl-but-2-enyl]chroman-4-one

>  <PUBCHEM_IUPAC_INCHI>  (1) 
InChI=1S/C20H20O7/c1-10(9-21)2-4-12-14(23)7-16(25)19-17(26)8-18(27-20(12)19)11-3-5-13(22)15(24)6-11/h2-3,5-7,18,21-25H,4,8-9H2,1H3/b10-2+/t18-/m0/s1

>  <PUBCHEM_IUPAC_INCHIKEY>  (1) 
CIJATEIGJFIOPE-OUOXKOSGSA-N

>  <PUBCHEM_XLOGP3_AA>  (1) 
2.7

>  <PUBCHEM_EXACT_MASS>  (1) 
372.12090297

>  <PUBCHEM_MOLECULAR_FORMULA>  (1) 
C20H20O7

>  <PUBCHEM_MOLECULAR_WEIGHT>  (1) 
372.4

>  <PUBCHEM_OPENEYE_CAN_SMILES>  (1) 
CC(=CCC1=C2C(=C(C=C1O)O)C(=O)CC(O2)C3=CC(=C(C=C3)O)O)CO

>  <PUBCHEM_OPENEYE_ISO_SMILES>  (1) 
C/C(=C\CC1=C2C(=C(C=C1O)O)C(=O)C[C@H](O2)C3=CC(=C(C=C3)O)O)/CO

>  <PUBCHEM_CACTVS_TPSA>  (1) 
127

>  <PUBCHEM_MONOISOTOPIC_WEIGHT>  (1) 
372.12090297

>  <PUBCHEM_TOTAL_CHARGE>  (1) 
0

>  <PUBCHEM_HEAVY_ATOM_COUNT>  (1) 
27

>  <PUBCHEM_ATOM_DEF_STEREO_COUNT>  (1) 
1

>  <PUBCHEM_ATOM_UDEF_STEREO_COUNT>  (1) 
0

>  <PUBCHEM_BOND_DEF_STEREO_COUNT>  (1) 
1

>  <PUBCHEM_BOND_UDEF_STEREO_COUNT>  (1) 
0

>  <PUBCHEM_ISOTOPIC_ATOM_COUNT>  (1) 
0

>  <PUBCHEM_COMPONENT_COUNT>  (1) 
1

>  <PUBCHEM_CACTVS_TAUTO_COUNT>  (1) 
-1

>  <PUBCHEM_COORDINATE_TYPE>  (1) 
1
5
255

>  <PUBCHEM_BONDANNOTATIONS>  (1) 
10  11  8
10  13  8
11  16  8
13  17  8
14  19  8
14  20  8
16  18  8
17  18  8
19  22  8
20  23  8
22  24  8
23  24  8
8  14  5

$$$$
