15215479
     RDKit          2D

 24 27  0  0  1  0  0  0  0  0999 V2000
    4.4455   -0.7881    0.0000 O   0  0  0  0  0  0  0  0  0  0  0  0
    9.7477    0.2295    0.0000 O   0  0  0  0  0  0  0  0  0  0  0  0
    6.2237    2.2641    0.0000 O   0  0  0  0  0  0  0  0  0  0  0  0
    5.3631   -2.3019    0.0000 O   0  0  0  0  0  0  0  0  0  0  0  0
    2.0000    1.0993    0.0000 O   0  0  0  0  0  0  0  0  0  0  0  0
    6.2455    0.2327    0.0000 C   0  0  0  0  0  0  0  0  0  0  0  0
    7.1115    0.7327    0.0000 C   0  0  0  0  0  0  0  0  0  0  0  0
    7.9775    0.2327    0.0000 C   0  0  0  0  0  0  0  0  0  0  0  0
    6.2455   -0.7673    0.0000 C   0  0  0  0  0  0  0  0  0  0  0  0
    7.9775   -0.7673    0.0000 C   0  0  0  0  0  0  0  0  0  0  0  0
    7.1115   -1.2673    0.0000 C   0  0  0  0  0  0  0  0  0  0  0  0
    5.3515    0.7673    0.0000 C   0  0  0  0  0  0  0  0  0  0  0  0
    8.8875    0.7395    0.0000 C   0  0  0  0  0  0  0  0  0  0  0  0
    6.2455    1.2327    0.0000 C   0  0  0  0  0  0  0  0  0  0  0  0
    8.8435   -0.2673    0.0000 C   0  0  0  0  0  0  0  0  0  0  0  0
    7.0954    1.7742    0.0000 C   0  0  0  0  0  0  0  0  0  0  0  0
    4.4455    0.2535    0.0000 C   0  0  0  0  0  0  0  0  0  0  0  0
    5.3515   -1.3020    0.0000 C   0  0  0  0  0  0  0  0  0  0  0  0
    8.8956    1.7811    0.0000 C   0  0  0  0  0  0  0  0  0  0  0  0
    7.9935    2.3019    0.0000 C   0  0  0  0  0  0  0  0  0  0  0  0
    3.5814    0.7568    0.0000 C   0  0  0  0  0  0  0  0  0  0  0  0
    3.4807    1.7517    0.0000 C   0  0  0  0  0  0  0  0  0  0  0  0
    2.6663    0.3536    0.0000 C   0  0  0  0  0  0  0  0  0  0  0  0
    2.5033    1.9634    0.0000 C   0  0  0  0  0  0  0  0  0  0  0  0
  1 17  1  0
  1 18  1  0
 13  2  1  1
  3 16  2  0
  4 18  2  0
  5 23  1  0
  5 24  1  0
  6  7  1  0
  6  9  1  0
  6 12  1  0
  6 14  1  6
  7  8  1  0
  7 16  1  6
  8 10  1  0
  8 13  1  0
  8 15  1  1
  9 11  1  1
  9 18  1  0
 10 11  1  0
 12 17  1  0
 13 19  1  0
 16 20  1  0
 17 21  1  6
 19 20  2  0
 21 22  1  0
 21 23  2  0
 22 24  2  0
M  END
>  <PUBCHEM_COMPOUND_CID>  (1) 
15215479

>  <PUBCHEM_COMPOUND_CANONICALIZED>  (1) 
1

>  <PUBCHEM_CACTVS_COMPLEXITY>  (1) 
599

>  <PUBCHEM_CACTVS_HBOND_ACCEPTOR>  (1) 
5

>  <PUBCHEM_CACTVS_HBOND_DONOR>  (1) 
1

>  <PUBCHEM_CACTVS_ROTATABLE_BOND>  (1) 
1

>  <PUBCHEM_CACTVS_SUBSKEYS>  (1) 
AAADceB4OAAAAAAAAAAAAAAAAAAAASAAAAA0QIAAAAAAAACRgAAAGgAACAAADxSgmAIyDIAABkCIAqjSiAACCAAkIAAIiAEGCMgMNxYENQqCWSCl4BEIOYPKzvDvgAAAAAAAAACAAAQAACAAAAAAAAAAAA==

>  <PUBCHEM_IUPAC_OPENEYE_NAME>  (1) 
(2S,4aR,6aR,7R,10aS,10bS)-2-(3-furyl)-7-hydroxy-6a,10b-dimethyl-2,4a,5,6,7,10a-hexahydro-1H-benzo[f]isochromene-4,10-dione

>  <PUBCHEM_IUPAC_CAS_NAME>  (1) 
(2S,4aR,6aR,7R,10aS,10bS)-2-(3-furanyl)-7-hydroxy-6a,10b-dimethyl-2,4a,5,6,7,10a-hexahydro-1H-benzo[f][2]benzopyran-4,10-dione

>  <PUBCHEM_IUPAC_NAME_MARKUP>  (1) 
(2<I>S</I>,4<I>a</I><I>R</I>,6<I>a</I><I>R</I>,7<I>R</I>,10<I>a</I><I>S</I>,10<I>b</I><I>S</I>)-2-(furan-3-yl)-7-hydroxy-6<I>a</I>,10<I>b</I>-dimethyl-2,4<I>a</I>,5,6,7,10<I>a</I>-hexahydro-1<I>H</I>-benzo[f]isochromene-4,10-dione

>  <PUBCHEM_IUPAC_NAME>  (1) 
(2S,4aR,6aR,7R,10aS,10bS)-2-(furan-3-yl)-7-hydroxy-6a,10b-dimethyl-2,4a,5,6,7,10a-hexahydro-1H-benzo[f]isochromene-4,10-dione

>  <PUBCHEM_IUPAC_SYSTEMATIC_NAME>  (1) 
(2S,4aR,6aR,7R,10aS,10bS)-2-(furan-3-yl)-6a,10b-dimethyl-7-oxidanyl-2,4a,5,6,7,10a-hexahydro-1H-benzo[f]isochromene-4,10-dione

>  <PUBCHEM_IUPAC_TRADITIONAL_NAME>  (1) 
(2S,4aR,6aR,7R,10aS,10bS)-2-(3-furyl)-7-hydroxy-6a,10b-dimethyl-2,4a,5,6,7,10a-hexahydro-1H-benz[f]isochromene-4,10-quinone

>  <PUBCHEM_IUPAC_INCHI>  (1) 
InChI=1S/C19H22O5/c1-18-7-5-12-17(22)24-14(11-6-8-23-10-11)9-19(12,2)16(18)13(20)3-4-15(18)21/h3-4,6,8,10,12,14-16,21H,5,7,9H2,1-2H3/t12-,14-,15+,16+,18-,19+/m0/s1

>  <PUBCHEM_IUPAC_INCHIKEY>  (1) 
RKUPDDZLTBYXDN-RSDLCGCGSA-N

>  <PUBCHEM_XLOGP3_AA>  (1) 
1.8

>  <PUBCHEM_EXACT_MASS>  (1) 
330.14672380

>  <PUBCHEM_MOLECULAR_FORMULA>  (1) 
C19H22O5

>  <PUBCHEM_MOLECULAR_WEIGHT>  (1) 
330.4

>  <PUBCHEM_OPENEYE_CAN_SMILES>  (1) 
CC12CCC3C(=O)OC(CC3(C1C(=O)C=CC2O)C)C4=COC=C4

>  <PUBCHEM_OPENEYE_ISO_SMILES>  (1) 
C[C@@]12CC[C@H]3C(=O)O[C@@H](C[C@]3([C@@H]1C(=O)C=C[C@H]2O)C)C4=COC=C4

>  <PUBCHEM_CACTVS_TPSA>  (1) 
76.7

>  <PUBCHEM_MONOISOTOPIC_WEIGHT>  (1) 
330.14672380

>  <PUBCHEM_TOTAL_CHARGE>  (1) 
0

>  <PUBCHEM_HEAVY_ATOM_COUNT>  (1) 
24

>  <PUBCHEM_ATOM_DEF_STEREO_COUNT>  (1) 
6

>  <PUBCHEM_ATOM_UDEF_STEREO_COUNT>  (1) 
0

>  <PUBCHEM_BOND_DEF_STEREO_COUNT>  (1) 
0

>  <PUBCHEM_BOND_UDEF_STEREO_COUNT>  (1) 
0

>  <PUBCHEM_ISOTOPIC_ATOM_COUNT>  (1) 
0

>  <PUBCHEM_COMPONENT_COUNT>  (1) 
1

>  <PUBCHEM_CACTVS_TAUTO_COUNT>  (1) 
-1

>  <PUBCHEM_COORDINATE_TYPE>  (1) 
1
5
255

>  <PUBCHEM_BONDANNOTATIONS>  (1) 
17  21  6
13  2  5
21  22  8
21  23  8
22  24  8
5  23  8
5  24  8
6  14  6
7  25  5
8  15  5
9  26  6

$$$$
