
  MOE2015           2D

  8  7  0  0  1  0  0  0  0  0999 V2000
    6.3160   -1.8800    0.0000 O   0  0  0  0  0  0  0  0  0  0  0  0
    5.0170   -2.6300    0.0000 C   0  0  0  0  0  0  0  0  0  0  0  0
    3.7180   -1.8800    0.0000 C   0  0  1  0  0  0  0  0  0  0  0  0
    3.7180   -0.3800    0.0000 N   0  0  0  0  0  0  0  0  0  0  0  0
    2.4190   -2.6300    0.0000 C   0  0  0  0  0  0  0  0  0  0  0  0
    1.1200   -1.8800    0.0000 C   0  0  0  0  0  0  0  0  0  0  0  0
   -0.1790   -2.6300    0.0000 C   0  0  0  0  0  0  0  0  0  0  0  0
    1.1200   -0.3800    0.0000 C   0  0  0  0  0  0  0  0  0  0  0  0
  1  2  2  0  0  0  0
  2  3  1  0  0  0  0
  3  4  1  6  0  0  0
  3  5  1  0  0  0  0
  5  6  1  0  0  0  0
  6  7  1  0  0  0  0
  6  8  1  0  0  0  0
M  END
>  <name>
O=[C;amide][C@@H]([N;amide])CC(C)C

>  <apo>
2

>  <freq>
31

>  <freq0>
0

>  <freq1>
31

>  <freqA>
30.994177

>  <a_count>
21

$$$$

  MOE2015           2D

  8  8  0  0  0  0  0  0  0  0999 V2000
    5.4110   -0.8000    0.0000 Cl  0  0  0  0  0  0  0  0  0  0  0  0
    4.1120   -0.0500    0.0000 C   0  0  0  0  0  0  0  0  0  0  0  0
    2.8120   -0.8000    0.0000 C   0  0  0  0  0  0  0  0  0  0  0  0
    1.5130   -0.0500    0.0000 C   0  0  0  0  0  0  0  0  0  0  0  0
    0.2140   -0.8000    0.0000 O   0  0  0  0  0  0  0  0  0  0  0  0
    1.5130    1.4500    0.0000 C   0  0  0  0  0  0  0  0  0  0  0  0
    2.8120    2.2000    0.0000 N   0  0  0  0  0  0  0  0  0  0  0  0
    4.1120    1.4500    0.0000 C   0  0  0  0  0  0  0  0  0  0  0  0
  1  2  1  0  0  0  0
  2  3  1  0  0  0  0
  2  8  2  0  0  0  0
  3  4  2  0  0  0  0
  4  5  1  0  0  0  0
  4  6  1  0  0  0  0
  6  7  2  0  0  0  0
  7  8  1  0  0  0  0
M  END
>  <name>
Clc1cc([O;ester])cnc1

>  <apo>
1

>  <freq>
30

>  <freq0>
0

>  <freq1>
30

>  <freqA>
29.994183

>  <a_count>
12

$$$$

  MOE2015           2D

 11 11  0  0  0  0  0  0  0  0999 V2000
    6.3410    3.6610    0.0000 S   0  0  0  0  0  0  0  0  0  0  0  0
    5.5910    2.3620    0.0000 C   0  0  0  0  0  0  0  0  0  0  0  0
    6.3410    1.0630    0.0000 N   0  0  0  0  0  0  0  0  0  0  0  0
    4.0910    2.3620    0.0000 N   0  5  0  0  0  0  0  0  0  0  0  0
    3.3410    1.0630    0.0000 N   0  0  0  0  0  0  0  0  0  0  0  0
    1.8410    1.0630    0.0000 C   0  0  0  0  0  0  0  0  0  0  0  0
    1.0910    2.3620    0.0000 C   0  0  0  0  0  0  0  0  0  0  0  0
    1.7010    3.7320    0.0000 O   0  0  0  0  0  0  0  0  0  0  0  0
    0.5860    4.7360    0.0000 C   0  0  0  0  0  0  0  0  0  0  0  0
   -0.7130    3.9860    0.0000 C   0  0  0  0  0  0  0  0  0  0  0  0
   -0.4010    2.5190    0.0000 C   0  0  0  0  0  0  0  0  0  0  0  0
  1  2  2  0  0  0  0
  2  3  1  0  0  0  0
  2  4  1  0  0  0  0
  4  5  1  0  0  0  0
  5  6  2  0  0  0  0
  6  7  1  0  0  0  0
  7  8  1  0  0  0  0
  7 11  2  0  0  0  0
  8  9  1  0  0  0  0
  9 10  2  0  0  0  0
 10 11  1  0  0  0  0
M  CHG  1   4  -1
M  END
>  <name>
S=C(N)[N-]/N=C\c1o[c;biphenyl]cc1

>  <apo>
1

>  <freq>
18

>  <freq0>
0

>  <freq1>
18

>  <freqA>
17.994307

>  <a_count>
17

$$$$

  MOE2015           2D

  7  6  0  0  1  0  0  0  0  0999 V2000
    5.3550   -0.7920    0.0000 O   0  0  0  0  0  0  0  0  0  0  0  0
    4.0560   -1.5420    0.0000 C   0  0  0  0  0  0  0  0  0  0  0  0
    2.7570   -0.7920    0.0000 C   0  0  1  0  0  0  0  0  0  0  0  0
    2.7570    0.7080    0.0000 N   0  0  0  0  0  0  0  0  0  0  0  0
    1.4580   -1.5420    0.0000 C   0  0  0  0  0  0  0  0  0  0  0  0
    1.4580   -3.0420    0.0000 C   0  0  0  0  0  0  0  0  0  0  0  0
    0.1590   -0.7920    0.0000 C   0  0  0  0  0  0  0  0  0  0  0  0
  1  2  2  0  0  0  0
  2  3  1  0  0  0  0
  3  4  1  6  0  0  0
  3  5  1  0  0  0  0
  5  6  1  0  0  0  0
  5  7  1  0  0  0  0
M  END
>  <name>
O=[C;amide][C@@H]([N;amide])C(C)C

>  <apo>
2

>  <freq>
15

>  <freq0>
0

>  <freq1>
15

>  <freqA>
14.994366

>  <a_count>
18

$$$$

  MOE2015           2D

  6  6  0  0  0  0  0  0  0  0999 V2000
   -2.0490    2.0490    0.0000 C   0  0  0  0  0  0  0  0  0  0  0  0
   -2.0490    0.5490    0.0000 C   0  0  0  0  0  0  0  0  0  0  0  0
   -0.7500   -0.2010    0.0000 C   0  0  0  0  0  0  0  0  0  0  0  0
    0.5490    0.5490    0.0000 C   0  0  0  0  0  0  0  0  0  0  0  0
    0.5490    2.0490    0.0000 C   0  0  0  0  0  0  0  0  0  0  0  0
   -0.7500    2.7990    0.0000 C   0  0  0  0  0  0  0  0  0  0  0  0
  1  2  1  0  0  0  0
  1  6  2  0  0  0  0
  2  3  2  0  0  0  0
  3  4  1  0  0  0  0
  4  5  2  0  0  0  0
  5  6  1  0  0  0  0
M  END
>  <name>
[c;biphenyl]1ccccc1

>  <apo>
1

>  <freq>
15

>  <freq0>
0

>  <freq1>
15

>  <freqA>
14.994366

>  <a_count>
12

$$$$

  MOE2015           2D

  8  7  0  0  1  0  0  0  0  0999 V2000
    5.6420    1.5120    0.0000 O   0  0  0  0  0  0  0  0  0  0  0  0
    4.3430    0.7620    0.0000 C   0  0  0  0  0  0  0  0  0  0  0  0
    3.0440    1.5120    0.0000 C   0  0  1  0  0  0  0  0  0  0  0  0
    3.0440    3.0120    0.0000 N   0  0  0  0  0  0  0  0  0  0  0  0
    1.7440    0.7620    0.0000 C   0  0  0  0  0  0  0  0  0  0  0  0
    0.9940    2.0610    0.0000 C   0  0  0  0  0  0  0  0  0  0  0  0
    0.4450    0.0120    0.0000 C   0  0  0  0  0  0  0  0  0  0  0  0
    2.4940   -0.5370    0.0000 C   0  0  0  0  0  0  0  0  0  0  0  0
  1  2  2  0  0  0  0
  2  3  1  0  0  0  0
  3  4  1  6  0  0  0
  3  5  1  0  0  0  0
  5  6  1  0  0  0  0
  5  7  1  0  0  0  0
  5  8  1  0  0  0  0
M  END
>  <name>
O=[C;amide][C@@H]([N;amide])C(C)(C)C

>  <apo>
2

>  <freq>
12

>  <freq0>
0

>  <freq1>
12

>  <freqA>
11.994452

>  <a_count>
21

$$$$

  MOE2015           2D

 10 11  0  0  0  0  0  0  0  0999 V2000
   -0.0220   -2.2100    0.0000 S   0  0  0  0  0  0  0  0  0  0  0  0
    1.0920   -1.2060    0.0000 C   0  0  0  0  0  0  0  0  0  0  0  0
    2.5600   -1.5180    0.0000 C   0  0  0  0  0  0  0  0  0  0  0  0
    3.3100   -0.2190    0.0000 C   0  0  0  0  0  0  0  0  0  0  0  0
    2.3060    0.8960    0.0000 N   0  0  0  0  0  0  0  0  0  0  0  0
    0.9360    0.2860    0.0000 C   0  0  0  0  0  0  0  0  0  0  0  0
    4.8100   -0.2190    0.0000 C   0  0  0  0  0  0  0  0  0  0  0  0
    5.5600   -1.5180    0.0000 C   0  0  0  0  0  0  0  0  0  0  0  0
    4.8100   -2.8170    0.0000 C   0  0  0  0  0  0  0  0  0  0  0  0
    3.3100   -2.8170    0.0000 C   0  0  0  0  0  0  0  0  0  0  0  0
  1  2  1  0  0  0  0
  2  3  1  0  0  0  0
  2  6  2  0  0  0  0
  3  4  1  0  0  0  0
  3 10  2  0  0  0  0
  4  5  1  0  0  0  0
  4  7  2  0  0  0  0
  5  6  1  0  0  0  0
  7  8  1  0  0  0  0
  8  9  2  0  0  0  0
  9 10  1  0  0  0  0
M  END
>  <name>
[S;thioether]c1c2c([nH]c1)cccc2

>  <apo>
1

>  <freq>
12

>  <freq0>
0

>  <freq1>
12

>  <freqA>
11.994452

>  <a_count>
17

$$$$

  MOE2015           2D

  6  6  0  0  0  0  0  0  0  0999 V2000
   -2.0490    2.0490    0.0000 O   0  0  0  0  0  0  0  0  0  0  0  0
   -2.0490    0.5490    0.0000 C   0  0  0  0  0  0  0  0  0  0  0  0
   -0.7500   -0.2010    0.0000 C   0  0  0  0  0  0  0  0  0  0  0  0
    0.5490    0.5490    0.0000 N   0  3  0  0  0  0  0  0  0  0  0  0
    0.5490    2.0490    0.0000 C   0  0  0  0  0  0  0  0  0  0  0  0
   -0.7500    2.7990    0.0000 C   0  0  0  0  0  0  0  0  0  0  0  0
  1  2  1  0  0  0  0
  1  6  1  0  0  0  0
  2  3  1  0  0  0  0
  3  4  1  0  0  0  0
  4  5  1  0  0  0  0
  5  6  1  0  0  0  0
M  CHG  1   4   1
M  END
>  <name>
O1CC[N+;amine]CC1

>  <apo>
1

>  <freq>
12

>  <freq0>
0

>  <freq1>
12

>  <freqA>
11.994452

>  <a_count>
16

$$$$

  MOE2015           2D

  9  9  0  0  0  0  0  0  0  0999 V2000
    0.0000    0.0000    0.0000 F   0  0  0  0  0  0  0  0  0  0  0  0
    1.5000    0.0000    0.0000 C   0  0  0  0  0  0  0  0  0  0  0  0
    2.2500    1.2990    0.0000 C   0  0  0  0  0  0  0  0  0  0  0  0
    1.5000    2.5980    0.0000 O   0  0  0  0  0  0  0  0  0  0  0  0
    3.7500    1.2990    0.0000 N   0  0  0  0  0  0  0  0  0  0  0  0
    4.5000    0.0000    0.0000 C   0  0  0  0  0  0  0  0  0  0  0  0
    6.0000    0.0000    0.0000 O   0  0  0  0  0  0  0  0  0  0  0  0
    3.7500   -1.2990    0.0000 N   0  0  0  0  0  0  0  0  0  0  0  0
    2.2500   -1.2990    0.0000 C   0  0  0  0  0  0  0  0  0  0  0  0
  1  2  1  0  0  0  0
  2  3  1  0  0  0  0
  2  9  2  0  0  0  0
  3  4  2  0  0  0  0
  3  5  1  0  0  0  0
  5  6  1  0  0  0  0
  6  7  2  0  0  0  0
  6  8  1  0  0  0  0
  8  9  1  0  0  0  0
M  END
>  <name>
FC=1C(=O)NC(=O)[N;urea]C=1

>  <apo>
1

>  <freq>
12

>  <freq0>
0

>  <freq1>
12

>  <freqA>
11.994452

>  <a_count>
12

$$$$

  MOE2015           2D

  8  8  0  0  0  0  0  0  0  0999 V2000
    5.3440   -0.8120    0.0000 N   0  0  0  0  0  0  0  0  0  0  0  0
    4.5940   -2.1110    0.0000 C   0  0  0  0  0  0  0  0  0  0  0  0
    3.0940   -2.1110    0.0000 C   0  0  0  0  0  0  0  0  0  0  0  0
    2.3440   -3.4100    0.0000 C   0  0  0  0  0  0  0  0  0  0  0  0
    0.8440   -3.4100    0.0000 C   0  0  0  0  0  0  0  0  0  0  0  0
    0.0940   -2.1110    0.0000 C   0  0  0  0  0  0  0  0  0  0  0  0
    0.8440   -0.8120    0.0000 C   0  0  0  0  0  0  0  0  0  0  0  0
    2.3440   -0.8120    0.0000 C   0  0  0  0  0  0  0  0  0  0  0  0
  1  2  1  0  0  0  0
  2  3  1  0  0  0  0
  3  4  1  0  0  0  0
  3  8  2  0  0  0  0
  4  5  2  0  0  0  0
  5  6  1  0  0  0  0
  6  7  2  0  0  0  0
  7  8  1  0  0  0  0
M  END
>  <name>
[N;amide]Cc1ccccc1

>  <apo>
1

>  <freq>
11

>  <freq0>
0

>  <freq1>
11

>  <freqA>
10.994492

>  <a_count>
17

$$$$

  MOE2015           2D

  5  4  0  0  0  0  0  0  0  0999 V2000
    4.9980   -1.3390    0.0000 N   0  0  0  0  0  0  0  0  0  0  0  0
    3.6990   -0.5890    0.0000 C   0  0  0  0  0  0  0  0  0  0  0  0
    2.4000   -1.3390    0.0000 C   0  0  0  0  0  0  0  0  0  0  0  0
    1.1010   -0.5890    0.0000 C   0  0  0  0  0  0  0  0  0  0  0  0
   -0.1980   -1.3390    0.0000 N   0  0  0  0  0  0  0  0  0  0  0  0
  1  2  1  0  0  0  0
  2  3  1  0  0  0  0
  3  4  1  0  0  0  0
  4  5  1  0  0  0  0
M  END
>  <name>
[N;amide]CCC[N;urea]

>  <apo>
2

>  <freq>
11

>  <freq0>
0

>  <freq1>
11

>  <freqA>
10.994492

>  <a_count>
15

$$$$

  MOE2015           2D

  6  6  0  0  0  0  0  0  0  0999 V2000
    4.6270    0.0000    0.0000 C   0  0  0  0  0  0  0  0  0  0  0  0
    3.1270    0.0000    0.0000 C   0  0  0  0  0  0  0  0  0  0  0  0
    2.2450   -1.2140    0.0000 N   0  0  0  0  0  0  0  0  0  0  0  0
    0.8180   -0.7500    0.0000 C   0  0  0  0  0  0  0  0  0  0  0  0
    0.8180    0.7500    0.0000 C   0  0  0  0  0  0  0  0  0  0  0  0
    2.2450    1.2140    0.0000 C   0  0  0  0  0  0  0  0  0  0  0  0
  1  2  1  0  0  0  0
  2  3  1  0  0  0  0
  2  6  2  0  0  0  0
  3  4  1  0  0  0  0
  4  5  2  0  0  0  0
  5  6  1  0  0  0  0
M  END
>  <name>
[C;amine]c1[nH]ccc1

>  <apo>
1

>  <freq>
11

>  <freq0>
0

>  <freq1>
11

>  <freqA>
10.994492

>  <a_count>
13

$$$$

  MOE2015           2D

  7  6  0  0  1  0  0  0  0  0999 V2000
    5.3550   -0.7920    0.0000 O   0  0  0  0  0  0  0  0  0  0  0  0
    4.0560   -1.5420    0.0000 C   0  0  0  0  0  0  0  0  0  0  0  0
    2.7570   -0.7920    0.0000 C   0  0  1  0  0  0  0  0  0  0  0  0
    2.7570    0.7080    0.0000 N   0  0  0  0  0  0  0  0  0  0  0  0
    1.4580   -1.5420    0.0000 C   0  0  2  0  0  0  0  0  0  0  0  0
    1.4580   -3.0420    0.0000 O   0  0  0  0  0  0  0  0  0  0  0  0
    0.1590   -0.7920    0.0000 C   0  0  0  0  0  0  0  0  0  0  0  0
  1  2  2  0  0  0  0
  2  3  1  0  0  0  0
  3  4  1  6  0  0  0
  3  5  1  0  0  0  0
  5  6  1  0  0  0  0
  5  7  1  6  0  0  0
M  END
>  <name>
O=[C;amide][C@@H]([N;amide])[C@H](O)C

>  <apo>
2

>  <freq>
10

>  <freq0>
0

>  <freq1>
10

>  <freqA>
9.9945374

>  <a_count>
16

$$$$

  MOE2015           2D

  5  4  0  0  1  0  0  0  0  0999 V2000
    3.8780   -1.0390    0.0000 O   0  0  0  0  0  0  0  0  0  0  0  0
    2.5790   -1.7890    0.0000 C   0  0  0  0  0  0  0  0  0  0  0  0
    1.2800   -1.0390    0.0000 C   0  0  1  0  0  0  0  0  0  0  0  0
   -0.0190   -1.7890    0.0000 N   0  0  0  0  0  0  0  0  0  0  0  0
    1.2800    0.4610    0.0000 C   0  0  0  0  0  0  0  0  0  0  0  0
  1  2  2  0  0  0  0
  2  3  1  0  0  0  0
  3  4  1  0  0  0  0
  3  5  1  1  0  0  0
M  END
>  <name>
O=[C;amide][C@@H]([N;amide])C

>  <apo>
2

>  <freq>
10

>  <freq0>
0

>  <freq1>
10

>  <freqA>
9.9945374

>  <a_count>
12

$$$$

  MOE2015           2D

 13 13  0  0  1  0  0  0  0  0999 V2000
    7.5250    4.2930    0.0000 O   0  0  0  0  0  0  0  0  0  0  0  0
    6.7620    3.0010    0.0000 C   0  0  0  0  0  0  0  0  0  0  0  0
    5.2620    3.0170    0.0000 C   0  0  2  0  0  0  0  0  0  0  0  0
    5.2780    4.5170    0.0000 N   0  0  0  0  0  0  0  0  0  0  0  0
    5.2460    1.5170    0.0000 C   0  0  0  0  0  0  0  0  0  0  0  0
    3.7620    3.0330    0.0000 C   0  0  0  0  0  0  0  0  0  0  0  0
    2.8930    4.2550    0.0000 O   0  0  0  0  0  0  0  0  0  0  0  0
    1.4620    3.8070    0.0000 C   0  0  0  0  0  0  0  0  0  0  0  0
    0.2570    4.7010    0.0000 C   0  0  0  0  0  0  0  0  0  0  0  0
    1.4460    2.3070    0.0000 C   0  0  0  0  0  0  0  0  0  0  0  0
    0.2230    1.4380    0.0000 C   0  0  0  0  0  0  0  0  0  0  0  0
    0.3650   -0.0550    0.0000 O   0  0  0  0  0  0  0  0  0  0  0  0
    2.8680    1.8280    0.0000 N   0  0  0  0  0  0  0  0  0  0  0  0
  1  2  2  0  0  0  0
  3  2  1  6  0  0  0
  3  4  1  1  0  0  0
  3  5  1  0  0  0  0
  3  6  1  0  0  0  0
  6  7  1  0  0  0  0
  6 13  2  0  0  0  0
  7  8  1  0  0  0  0
  8  9  1  0  0  0  0
  8 10  2  0  0  0  0
 10 11  1  0  0  0  0
 10 13  1  0  0  0  0
 11 12  2  0  0  0  0
M  END
>  <name>
O=[C;amide][C@]([N;amide])(C)c1oc(C)c([C;amide]=O)n1

>  <apo>
3

>  <freq>
9

>  <freq0>
0

>  <freq1>
9

>  <freqA>
8.9945917

>  <a_count>
23

$$$$

  MOE2015           2D

 11 11  0  0  0  0  0  0  0  0999 V2000
    2.1430    3.7850    0.0000 O   0  0  0  0  0  0  0  0  0  0  0  0
    1.0280    2.7810    0.0000 C   0  0  0  0  0  0  0  0  0  0  0  0
    1.1850    1.2900    0.0000 N   0  0  0  0  0  0  0  0  0  0  0  0
    2.4840    0.5400    0.0000 C   0  0  0  0  0  0  0  0  0  0  0  0
    3.7830    1.2900    0.0000 C   0  0  0  0  0  0  0  0  0  0  0  0
    5.0820    0.5400    0.0000 C   0  0  0  0  0  0  0  0  0  0  0  0
    6.3810    1.2900    0.0000 O   0  0  0  0  0  0  0  0  0  0  0  0
   -0.1850    0.6790    0.0000 C   0  0  0  0  0  0  0  0  0  0  0  0
   -0.4970   -0.7880    0.0000 O   0  0  0  0  0  0  0  0  0  0  0  0
   -1.1890    1.7940    0.0000 C   0  0  0  0  0  0  0  0  0  0  0  0
   -0.4390    3.0930    0.0000 C   0  0  0  0  0  0  0  0  0  0  0  0
  1  2  2  0  0  0  0
  2  3  1  0  0  0  0
  2 11  1  0  0  0  0
  3  4  1  0  0  0  0
  3  8  1  0  0  0  0
  4  5  1  0  0  0  0
  5  6  1  0  0  0  0
  6  7  1  0  0  0  0
  8  9  2  0  0  0  0
  8 10  1  0  0  0  0
 10 11  2  0  0  0  0
M  END
>  <name>
O=C1N(CCC[O;ester])C(=O)C=C1

>  <apo>
1

>  <freq>
9

>  <freq0>
0

>  <freq1>
9

>  <freqA>
8.9945917

>  <a_count>
20

$$$$

  MOE2015           2D

  7  6  0  0  1  0  0  0  0  0999 V2000
   -0.3690   -1.3770    0.0000 O   0  0  0  0  0  0  0  0  0  0  0  0
    0.9300   -2.1270    0.0000 C   0  0  0  0  0  0  0  0  0  0  0  0
    2.2290   -1.3770    0.0000 C   0  0  1  0  0  0  0  0  0  0  0  0
    2.2290    0.1230    0.0000 N   0  0  0  0  0  0  0  0  0  0  0  0
    3.5280   -2.1270    0.0000 C   0  0  0  0  0  0  0  0  0  0  0  0
    4.8270   -1.3770    0.0000 C   0  0  0  0  0  0  0  0  0  0  0  0
    6.1260   -2.1270    0.0000 N   0  3  0  0  0  0  0  0  0  0  0  0
  1  2  2  0  0  0  0
  2  3  1  0  0  0  0
  3  4  1  1  0  0  0
  3  5  1  0  0  0  0
  5  6  1  0  0  0  0
  6  7  1  0  0  0  0
M  CHG  1   7   1
M  END
>  <name>
O=[C;amide][C@@H]([N;amide])CC[N+]

>  <apo>
2

>  <freq>
9

>  <freq0>
0

>  <freq1>
9

>  <freqA>
8.9945917

>  <a_count>
18

$$$$

  MOE2015           2D

 10 10  0  0  0  0  0  0  0  0999 V2000
    2.9290    3.4450    0.0000 O   0  0  0  0  0  0  0  0  0  0  0  0
    1.8150    2.4410    0.0000 C   0  0  0  0  0  0  0  0  0  0  0  0
    1.9710    0.9490    0.0000 N   0  0  0  0  0  0  0  0  0  0  0  0
    3.2700    0.1990    0.0000 C   0  0  0  0  0  0  0  0  0  0  0  0
    4.5690    0.9490    0.0000 C   0  0  0  0  0  0  0  0  0  0  0  0
    5.8680    0.1990    0.0000 O   0  0  0  0  0  0  0  0  0  0  0  0
    0.6010    0.3390    0.0000 C   0  0  0  0  0  0  0  0  0  0  0  0
    0.2890   -1.1280    0.0000 O   0  0  0  0  0  0  0  0  0  0  0  0
   -0.4030    1.4540    0.0000 C   0  0  0  0  0  0  0  0  0  0  0  0
    0.3470    2.7530    0.0000 C   0  0  0  0  0  0  0  0  0  0  0  0
  1  2  2  0  0  0  0
  2  3  1  0  0  0  0
  2 10  1  0  0  0  0
  3  4  1  0  0  0  0
  3  7  1  0  0  0  0
  4  5  1  0  0  0  0
  5  6  1  0  0  0  0
  7  8  2  0  0  0  0
  7  9  1  0  0  0  0
  9 10  2  0  0  0  0
M  END
>  <name>
O=C1N(CC[O;ester])C(=O)C=C1

>  <apo>
1

>  <freq>
9

>  <freq0>
0

>  <freq1>
9

>  <freqA>
8.9945917

>  <a_count>
17

$$$$

  MOE2015           2D

  3  2  0  0  0  0  0  0  0  0999 V2000
    0.2500    0.0670    0.0000 N   0  3  0  0  0  0  0  0  0  0  0  0
    1.5490   -0.6830    0.0000 C   0  0  0  0  0  0  0  0  0  0  0  0
   -1.0490   -0.6830    0.0000 C   0  0  0  0  0  0  0  0  0  0  0  0
  1  2  1  0  0  0  0
  1  3  1  0  0  0  0
M  CHG  1   1   1
M  END
>  <name>
[N+;amine](C)C

>  <apo>
1

>  <freq>
9

>  <freq0>
0

>  <freq1>
9

>  <freqA>
8.9945917

>  <a_count>
11

$$$$

  MOE2015           2D

 11 11  0  0  1  0  0  0  0  0999 V2000
    8.2240   -2.2040    0.0000 O   0  0  0  0  0  0  0  0  0  0  0  0
    6.9250   -1.4540    0.0000 C   0  0  0  0  0  0  0  0  0  0  0  0
    5.6260   -2.2040    0.0000 C   0  0  1  0  0  0  0  0  0  0  0  0
    5.6260   -3.7040    0.0000 N   0  0  0  0  0  0  0  0  0  0  0  0
    4.3270   -1.4540    0.0000 C   0  0  0  0  0  0  0  0  0  0  0  0
    3.0280   -2.2040    0.0000 C   0  0  1  0  0  0  0  0  0  0  0  0
    1.6570   -1.5930    0.0000 C   0  0  0  0  0  0  0  0  0  0  0  0
    1.3450   -0.1260    0.0000 O   0  0  0  0  0  0  0  0  0  0  0  0
    0.6540   -2.7080    0.0000 N   0  0  0  0  0  0  0  0  0  0  0  0
    1.4040   -4.0070    0.0000 C   0  0  0  0  0  0  0  0  0  0  0  0
    2.8710   -3.6950    0.0000 C   0  0  0  0  0  0  0  0  0  0  0  0
  1  2  2  0  0  0  0
  2  3  1  0  0  0  0
  3  4  1  1  0  0  0
  3  5  1  0  0  0  0
  6  5  1  6  0  0  0
  6  7  1  0  0  0  0
  6 11  1  0  0  0  0
  7  8  2  0  0  0  0
  7  9  1  0  0  0  0
  9 10  1  0  0  0  0
 10 11  1  0  0  0  0
M  END
>  <name>
O=C[C@@H]([N;amide])C[C@H]1C(=O)NCC1

>  <apo>
1

>  <freq>
8

>  <freq0>
0

>  <freq1>
8

>  <freqA>
7.9946589

>  <a_count>
23

$$$$

  MOE2015           2D

 10 10  0  0  0  0  0  0  0  0999 V2000
   -3.0000    0.0000    0.0000 O   0  0  0  0  0  0  0  0  0  0  0  0
   -4.5000    0.0000    0.0000 C   0  0  0  0  0  0  0  0  0  0  0  0
   -2.2500    1.2990    0.0000 C   0  0  0  0  0  0  0  0  0  0  0  0
   -0.7500    1.2990    0.0000 C   0  0  0  0  0  0  0  0  0  0  0  0
    0.0000    0.0000    0.0000 C   0  0  0  0  0  0  0  0  0  0  0  0
    1.5000    0.0000    0.0000 N   0  0  0  0  0  0  0  0  0  0  0  0
    0.0000    2.5980    0.0000 C   0  0  0  0  0  0  0  0  0  0  0  0
   -0.7500    3.8970    0.0000 C   0  0  0  0  0  0  0  0  0  0  0  0
   -2.2500    3.8970    0.0000 C   0  0  0  0  0  0  0  0  0  0  0  0
   -3.0000    2.5980    0.0000 C   0  0  0  0  0  0  0  0  0  0  0  0
  1  2  1  0  0  0  0
  1  3  1  0  0  0  0
  3  4  1  0  0  0  0
  3 10  2  0  0  0  0
  4  5  1  0  0  0  0
  4  7  2  0  0  0  0
  5  6  1  0  0  0  0
  7  8  1  0  0  0  0
  8  9  2  0  0  0  0
  9 10  1  0  0  0  0
M  END
>  <name>
O(C)c1c(C[N;amide])cccc1

>  <apo>
1

>  <freq>
8

>  <freq0>
0

>  <freq1>
8

>  <freqA>
7.9946589

>  <a_count>
21

$$$$

  MOE2015           2D

 11 11  0  0  0  0  0  0  0  0999 V2000
   -2.0450   -2.0450    0.0000 S   0  0  0  0  0  0  0  0  0  0  0  0
   -2.0450   -0.5450    0.0000 O   0  0  0  0  0  0  0  0  0  0  0  0
   -2.0450   -3.5450    0.0000 O   0  0  0  0  0  0  0  0  0  0  0  0
   -3.5450   -2.0450    0.0000 N   0  0  0  0  0  0  0  0  0  0  0  0
   -0.5450   -2.0450    0.0000 C   0  0  0  0  0  0  0  0  0  0  0  0
    0.2050   -0.7460    0.0000 C   0  0  0  0  0  0  0  0  0  0  0  0
    1.7050   -0.7460    0.0000 C   0  0  0  0  0  0  0  0  0  0  0  0
    2.4550   -2.0450    0.0000 C   0  0  0  0  0  0  0  0  0  0  0  0
    3.9550   -2.0450    0.0000 N   0  0  0  0  0  0  0  0  0  0  0  0
    1.7050   -3.3440    0.0000 C   0  0  0  0  0  0  0  0  0  0  0  0
    0.2050   -3.3440    0.0000 C   0  0  0  0  0  0  0  0  0  0  0  0
  1  2  2  0  0  0  0
  1  3  2  0  0  0  0
  1  4  1  0  0  0  0
  1  5  1  0  0  0  0
  5  6  1  0  0  0  0
  5 11  2  0  0  0  0
  6  7  2  0  0  0  0
  7  8  1  0  0  0  0
  8  9  1  0  0  0  0
  8 10  2  0  0  0  0
 10 11  1  0  0  0  0
M  END
>  <name>
S(=O)(=O)(N)c1ccc([N;amide])cc1

>  <apo>
1

>  <freq>
8

>  <freq0>
0

>  <freq1>
8

>  <freqA>
7.9946589

>  <a_count>
19

$$$$

  MOE2015           2D

 11 10  0  0  1  0  0  0  0  0999 V2000
   10.0870   -2.0210    0.0000 O   0  0  0  0  0  0  0  0  0  0  0  0
    8.7880   -2.7710    0.0000 C   0  0  0  0  0  0  0  0  0  0  0  0
    7.4890   -2.0210    0.0000 C   0  0  1  0  0  0  0  0  0  0  0  0
    7.4890   -0.5210    0.0000 N   0  0  0  0  0  0  0  0  0  0  0  0
    6.1900   -2.7710    0.0000 C   0  0  0  0  0  0  0  0  0  0  0  0
    4.8910   -2.0210    0.0000 C   0  0  0  0  0  0  0  0  0  0  0  0
    3.5920   -2.7710    0.0000 C   0  0  0  0  0  0  0  0  0  0  0  0
    2.2930   -2.0210    0.0000 N   0  0  0  0  0  0  0  0  0  0  0  0
    0.9940   -2.7710    0.0000 C   0  0  0  0  0  0  0  0  0  0  0  0
   -0.3050   -2.0210    0.0000 N   0  3  0  0  0  0  0  0  0  0  0  0
    0.9940   -4.2710    0.0000 N   0  0  0  0  0  0  0  0  0  0  0  0
  1  2  2  0  0  0  0
  2  3  1  0  0  0  0
  3  4  1  6  0  0  0
  3  5  1  0  0  0  0
  5  6  1  0  0  0  0
  6  7  1  0  0  0  0
  7  8  1  0  0  0  0
  8  9  1  0  0  0  0
  9 10  2  0  0  0  0
  9 11  1  0  0  0  0
M  CHG  1  10   1
M  END
>  <name>
O=[C;amide][C@@H]([N;amide])CCCNC(=[N+])N

>  <apo>
2

>  <freq>
7

>  <freq0>
0

>  <freq1>
7

>  <freqA>
6.9947429

>  <a_count>
26

$$$$

  MOE2015           2D

 12 12  0  0  1  0  0  0  0  0999 V2000
    8.8090    3.4850    0.0000 O   0  0  0  0  0  0  0  0  0  0  0  0
    7.5100    4.2350    0.0000 C   0  0  0  0  0  0  0  0  0  0  0  0
    6.2110    3.4850    0.0000 C   0  0  1  0  0  0  0  0  0  0  0  0
    6.2110    1.9850    0.0000 N   0  0  0  0  0  0  0  0  0  0  0  0
    4.9120    4.2350    0.0000 C   0  0  0  0  0  0  0  0  0  0  0  0
    3.6130    3.4850    0.0000 C   0  0  0  0  0  0  0  0  0  0  0  0
    3.6130    1.9850    0.0000 C   0  0  0  0  0  0  0  0  0  0  0  0
    2.3140    1.2350    0.0000 C   0  0  0  0  0  0  0  0  0  0  0  0
    1.0150    1.9850    0.0000 C   0  0  0  0  0  0  0  0  0  0  0  0
   -0.2840    1.2350    0.0000 O   0  0  0  0  0  0  0  0  0  0  0  0
    1.0150    3.4850    0.0000 C   0  0  0  0  0  0  0  0  0  0  0  0
    2.3140    4.2350    0.0000 C   0  0  0  0  0  0  0  0  0  0  0  0
  1  2  2  0  0  0  0
  2  3  1  0  0  0  0
  3  4  1  1  0  0  0
  3  5  1  0  0  0  0
  5  6  1  0  0  0  0
  6  7  1  0  0  0  0
  6 12  2  0  0  0  0
  7  8  2  0  0  0  0
  8  9  1  0  0  0  0
  9 10  1  0  0  0  0
  9 11  2  0  0  0  0
 11 12  1  0  0  0  0
M  END
>  <name>
O=[C;amide][C@@H]([N;amide])Cc1ccc(O)cc1

>  <apo>
2

>  <freq>
7

>  <freq0>
0

>  <freq1>
7

>  <freqA>
6.9947429

>  <a_count>
23

$$$$

  MOE2015           2D

  4  3  0  0  0  0  0  0  0  0999 V2000
    0.0000    0.0000    0.0000 C   0  0  0  0  0  0  0  0  0  0  0  0
   -1.2990   -0.7500    0.0000 C   0  0  0  0  0  0  0  0  0  0  0  0
    0.0000    1.5000    0.0000 C   0  0  0  0  0  0  0  0  0  0  0  0
    1.2990   -0.7500    0.0000 C   0  0  0  0  0  0  0  0  0  0  0  0
  1  2  1  0  0  0  0
  1  3  1  0  0  0  0
  1  4  1  0  0  0  0
M  END
>  <name>
C([C;NaroC])(C)C

>  <apo>
1

>  <freq>
7

>  <freq0>
0

>  <freq1>
7

>  <freqA>
6.9947429

>  <a_count>
14

$$$$

  MOE2015           2D

 10 10  0  0  0  0  0  0  0  0999 V2000
    0.2720    1.0150    0.0000 Cl  0  0  0  0  0  0  0  0  0  0  0  0
    1.5710    0.2650    0.0000 C   0  0  0  0  0  0  0  0  0  0  0  0
    1.5710   -1.2350    0.0000 C   0  0  0  0  0  0  0  0  0  0  0  0
    0.2720   -1.9850    0.0000 Cl  0  0  0  0  0  0  0  0  0  0  0  0
    2.8700   -1.9850    0.0000 C   0  0  0  0  0  0  0  0  0  0  0  0
    4.1690   -1.2350    0.0000 C   0  0  0  0  0  0  0  0  0  0  0  0
    4.1690    0.2650    0.0000 C   0  0  0  0  0  0  0  0  0  0  0  0
    5.4680    1.0150    0.0000 C   0  0  0  0  0  0  0  0  0  0  0  0
    6.7670    0.2650    0.0000 N   0  0  0  0  0  0  0  0  0  0  0  0
    2.8700    1.0150    0.0000 C   0  0  0  0  0  0  0  0  0  0  0  0
  1  2  1  0  0  0  0
  2  3  1  0  0  0  0
  2 10  2  0  0  0  0
  3  4  1  0  0  0  0
  3  5  2  0  0  0  0
  5  6  1  0  0  0  0
  6  7  2  0  0  0  0
  7  8  1  0  0  0  0
  7 10  1  0  0  0  0
  8  9  1  0  0  0  0
M  END
>  <name>
Clc1c(Cl)ccc(C[N;amide])c1

>  <apo>
1

>  <freq>
6

>  <freq0>
0

>  <freq1>
6

>  <freqA>
5.9948511

>  <a_count>
17

$$$$

  MOE2015           2D

 10 11  0  0  0  0  0  0  0  0999 V2000
    0.5660    0.9790    0.0000 N   0  0  0  0  0  0  0  0  0  0  0  0
    1.3160   -0.3200    0.0000 C   0  0  0  0  0  0  0  0  0  0  0  0
    0.5660   -1.6190    0.0000 N   0  0  0  0  0  0  0  0  0  0  0  0
    1.3160   -2.9180    0.0000 C   0  0  0  0  0  0  0  0  0  0  0  0
    2.8160   -2.9180    0.0000 N   0  0  0  0  0  0  0  0  0  0  0  0
    3.5660   -1.6190    0.0000 C   0  0  0  0  0  0  0  0  0  0  0  0
    5.0330   -1.3070    0.0000 N   0  0  0  0  0  0  0  0  0  0  0  0
    5.1900    0.1850    0.0000 C   0  0  0  0  0  0  0  0  0  0  0  0
    3.8190    0.7950    0.0000 N   0  0  0  0  0  0  0  0  0  0  0  0
    2.8160   -0.3200    0.0000 C   0  0  0  0  0  0  0  0  0  0  0  0
  1  2  1  0  0  0  0
  2  3  1  0  0  0  0
  2 10  2  0  0  0  0
  3  4  2  0  0  0  0
  4  5  1  0  0  0  0
  5  6  2  0  0  0  0
  6  7  1  0  0  0  0
  6 10  1  0  0  0  0
  7  8  1  0  0  0  0
  8  9  2  0  0  0  0
  9 10  1  0  0  0  0
M  END
>  <name>
Nc1ncnc2[nH;NaroC]cnc12

>  <apo>
1

>  <freq>
6

>  <freq0>
0

>  <freq1>
6

>  <freqA>
5.9948511

>  <a_count>
15

$$$$

  MOE2015           2D

  8  7  0  0  1  0  0  0  0  0999 V2000
    0.0090   -0.0320    0.0000 O   0  0  0  0  0  0  0  0  0  0  0  0
    1.3080    0.7180    0.0000 C   0  0  0  0  0  0  0  0  0  0  0  0
    1.3080    2.2180    0.0000 O   0  5  0  0  0  0  0  0  0  0  0  0
    2.6070   -0.0320    0.0000 C   0  0  0  0  0  0  0  0  0  0  0  0
    3.9060    0.7180    0.0000 C   0  0  2  0  0  0  0  0  0  0  0  0
    3.9060    2.2180    0.0000 N   0  0  0  0  0  0  0  0  0  0  0  0
    5.2050   -0.0320    0.0000 C   0  0  0  0  0  0  0  0  0  0  0  0
    6.5040    0.7180    0.0000 O   0  0  0  0  0  0  0  0  0  0  0  0
  1  2  2  0  0  0  0
  2  3  1  0  0  0  0
  2  4  1  0  0  0  0
  4  5  1  0  0  0  0
  5  6  1  6  0  0  0
  5  7  1  0  0  0  0
  7  8  2  0  0  0  0
M  CHG  1   3  -1
M  END
>  <name>
O=C([O-])C[C@H]([N;amide])[C;amide]=O

>  <apo>
2

>  <freq>
6

>  <freq0>
0

>  <freq1>
6

>  <freqA>
5.9948511

>  <a_count>
14

$$$$

  MOE2015           2D

  7  7  0  0  1  0  0  0  0  0999 V2000
    4.9030   -0.6040    0.0000 O   0  0  0  0  0  0  0  0  0  0  0  0
    4.1530   -1.9030    0.0000 C   0  0  0  0  0  0  0  0  0  0  0  0
    2.6530   -1.9030    0.0000 C   0  0  1  0  0  0  0  0  0  0  0  0
    1.7710   -3.1160    0.0000 N   0  0  0  0  0  0  0  0  0  0  0  0
    0.3450   -2.6530    0.0000 C   0  0  0  0  0  0  0  0  0  0  0  0
    0.3450   -1.1530    0.0000 S   0  0  0  0  0  0  0  0  0  0  0  0
    1.7710   -0.6890    0.0000 C   0  0  0  0  0  0  0  0  0  0  0  0
  1  2  2  0  0  0  0
  3  2  1  1  0  0  0
  3  4  1  0  0  0  0
  3  7  1  0  0  0  0
  4  5  1  0  0  0  0
  5  6  1  0  0  0  0
  6  7  1  0  0  0  0
M  END
>  <name>
O=[C;amide][C@H]1[N;amide]CSC1

>  <apo>
2

>  <freq>
6

>  <freq0>
0

>  <freq1>
6

>  <freqA>
5.9948511

>  <a_count>
14

$$$$

  MOE2015           2D

  9  9  0  0  0  0  0  0  0  0999 V2000
   -0.0830   -0.1460    0.0000 O   0  0  0  0  0  0  0  0  0  0  0  0
    0.6880   -1.4330    0.0000 N   0  3  0  0  0  0  0  0  0  0  0  0
   -0.0420   -2.7440    0.0000 O   0  5  0  0  0  0  0  0  0  0  0  0
    2.1870   -1.4090    0.0000 C   0  0  0  0  0  0  0  0  0  0  0  0
    3.0880   -2.6090    0.0000 S   0  0  0  0  0  0  0  0  0  0  0  0
    4.5070   -2.1230    0.0000 C   0  0  0  0  0  0  0  0  0  0  0  0
    5.7350   -2.9850    0.0000 N   0  0  0  0  0  0  0  0  0  0  0  0
    4.4830   -0.6230    0.0000 N   0  0  0  0  0  0  0  0  0  0  0  0
    3.0500   -0.1820    0.0000 C   0  0  0  0  0  0  0  0  0  0  0  0
  1  2  2  0  0  0  0
  2  3  1  0  0  0  0
  2  4  1  0  0  0  0
  4  5  1  0  0  0  0
  4  9  2  0  0  0  0
  5  6  1  0  0  0  0
  6  7  1  0  0  0  0
  6  8  2  0  0  0  0
  8  9  1  0  0  0  0
M  CHG  1   2   1
M  CHG  1   3  -1
M  END
>  <name>
O=[N+]([O-])c1sc([N;amide])nc1

>  <apo>
1

>  <freq>
6

>  <freq0>
0

>  <freq1>
6

>  <freqA>
5.9948511

>  <a_count>
12

$$$$

  MOE2015           2D

 15 16  0  0  0  0  0  0  0  0999 V2000
   -0.2500   -0.9330    0.0000 N   0  0  0  0  0  0  0  0  0  0  0  0
   -1.5490   -1.6830    0.0000 C   0  0  0  0  0  0  0  0  0  0  0  0
   -2.8480   -0.9330    0.0000 C   0  0  0  0  0  0  0  0  0  0  0  0
   -4.1470   -1.6830    0.0000 C   0  0  0  0  0  0  0  0  0  0  0  0
   -5.4460   -0.9330    0.0000 C   0  0  0  0  0  0  0  0  0  0  0  0
   -5.4460    0.5670    0.0000 C   0  0  0  0  0  0  0  0  0  0  0  0
   -4.1470    1.3170    0.0000 C   0  0  0  0  0  0  0  0  0  0  0  0
   -2.8480    0.5670    0.0000 C   0  0  0  0  0  0  0  0  0  0  0  0
    1.0490   -1.6830    0.0000 C   0  0  0  0  0  0  0  0  0  0  0  0
    2.3480   -0.9330    0.0000 C   0  0  0  0  0  0  0  0  0  0  0  0
    2.3480    0.5670    0.0000 C   0  0  0  0  0  0  0  0  0  0  0  0
    3.6470    1.3170    0.0000 C   0  0  0  0  0  0  0  0  0  0  0  0
    4.9460    0.5670    0.0000 C   0  0  0  0  0  0  0  0  0  0  0  0
    4.9460   -0.9330    0.0000 C   0  0  0  0  0  0  0  0  0  0  0  0
    3.6470   -1.6830    0.0000 C   0  0  0  0  0  0  0  0  0  0  0  0
  1  2  1  0  0  0  0
  1  9  1  0  0  0  0
  2  3  1  0  0  0  0
  3  4  1  0  0  0  0
  3  8  2  0  0  0  0
  4  5  2  0  0  0  0
  5  6  1  0  0  0  0
  6  7  2  0  0  0  0
  7  8  1  0  0  0  0
  9 10  1  0  0  0  0
 10 11  1  0  0  0  0
 10 15  2  0  0  0  0
 11 12  2  0  0  0  0
 12 13  1  0  0  0  0
 13 14  2  0  0  0  0
 14 15  1  0  0  0  0
M  END
>  <name>
[N;amide](Cc1ccccc1)Cc1ccccc1

>  <apo>
1

>  <freq>
5

>  <freq0>
0

>  <freq1>
5

>  <freqA>
4.9949946

>  <a_count>
30

$$$$

  MOE2015           2D

  9  8  0  0  1  0  0  0  0  0999 V2000
   -0.4970   -1.8540    0.0000 O   0  0  0  0  0  0  0  0  0  0  0  0
    0.8020   -2.6040    0.0000 C   0  0  0  0  0  0  0  0  0  0  0  0
    2.1010   -1.8540    0.0000 C   0  0  1  0  0  0  0  0  0  0  0  0
    2.1010   -0.3540    0.0000 N   0  0  0  0  0  0  0  0  0  0  0  0
    3.4000   -2.6040    0.0000 C   0  0  0  0  0  0  0  0  0  0  0  0
    4.6990   -1.8540    0.0000 C   0  0  0  0  0  0  0  0  0  0  0  0
    5.9980   -2.6040    0.0000 C   0  0  0  0  0  0  0  0  0  0  0  0
    7.2970   -1.8540    0.0000 C   0  0  0  0  0  0  0  0  0  0  0  0
    8.5960   -2.6040    0.0000 N   0  3  0  0  0  0  0  0  0  0  0  0
  1  2  2  0  0  0  0
  2  3  1  0  0  0  0
  3  4  1  1  0  0  0
  3  5  1  0  0  0  0
  5  6  1  0  0  0  0
  6  7  1  0  0  0  0
  7  8  1  0  0  0  0
  8  9  1  0  0  0  0
M  CHG  1   9   1
M  END
>  <name>
O=[C;amide][C@@H]([N;amide])CCCC[N+]

>  <apo>
2

>  <freq>
5

>  <freq0>
0

>  <freq1>
5

>  <freqA>
4.9949946

>  <a_count>
24

$$$$

  MOE2015           2D

 11 11  0  0  1  0  0  0  0  0999 V2000
    8.1690   -3.0070    0.0000 O   0  0  0  0  0  0  0  0  0  0  0  0
    6.8700   -3.7570    0.0000 C   0  0  0  0  0  0  0  0  0  0  0  0
    5.5710   -3.0070    0.0000 C   0  0  1  0  0  0  0  0  0  0  0  0
    5.5710   -1.5070    0.0000 N   0  0  0  0  0  0  0  0  0  0  0  0
    4.2720   -3.7570    0.0000 C   0  0  0  0  0  0  0  0  0  0  0  0
    2.9730   -3.0070    0.0000 C   0  0  0  0  0  0  0  0  0  0  0  0
    1.6740   -3.7570    0.0000 C   0  0  0  0  0  0  0  0  0  0  0  0
    0.3750   -3.0070    0.0000 C   0  0  0  0  0  0  0  0  0  0  0  0
    0.3750   -1.5070    0.0000 C   0  0  0  0  0  0  0  0  0  0  0  0
    1.6740   -0.7570    0.0000 C   0  0  0  0  0  0  0  0  0  0  0  0
    2.9730   -1.5070    0.0000 C   0  0  0  0  0  0  0  0  0  0  0  0
  1  2  2  0  0  0  0
  2  3  1  0  0  0  0
  3  4  1  6  0  0  0
  3  5  1  0  0  0  0
  5  6  1  0  0  0  0
  6  7  1  0  0  0  0
  6 11  2  0  0  0  0
  7  8  2  0  0  0  0
  8  9  1  0  0  0  0
  9 10  2  0  0  0  0
 10 11  1  0  0  0  0
M  END
>  <name>
O=[C;amide][C@@H]([N;amide])Cc1ccccc1

>  <apo>
2

>  <freq>
5

>  <freq0>
0

>  <freq1>
5

>  <freqA>
4.9949946

>  <a_count>
22

$$$$

  MOE2015           2D

  8  7  0  0  1  0  0  0  0  0999 V2000
    6.3160   -1.8800    0.0000 O   0  0  0  0  0  0  0  0  0  0  0  0
    5.0170   -2.6300    0.0000 C   0  0  0  0  0  0  0  0  0  0  0  0
    3.7180   -1.8800    0.0000 C   0  0  2  0  0  0  0  0  0  0  0  0
    3.7180   -0.3800    0.0000 N   0  0  0  0  0  0  0  0  0  0  0  0
    2.4190   -2.6300    0.0000 C   0  0  0  0  0  0  0  0  0  0  0  0
    1.1200   -1.8800    0.0000 C   0  0  0  0  0  0  0  0  0  0  0  0
   -0.1790   -2.6300    0.0000 C   0  0  0  0  0  0  0  0  0  0  0  0
    1.1200   -0.3800    0.0000 C   0  0  0  0  0  0  0  0  0  0  0  0
  1  2  2  0  0  0  0
  2  3  1  0  0  0  0
  3  4  1  1  0  0  0
  3  5  1  0  0  0  0
  5  6  1  0  0  0  0
  6  7  1  0  0  0  0
  6  8  1  0  0  0  0
M  END
>  <name>
O=[C;amide][C@H]([N;amide])CC(C)C

>  <apo>
2

>  <freq>
5

>  <freq0>
0

>  <freq1>
5

>  <freqA>
4.9949946

>  <a_count>
21

$$$$

  MOE2015           2D

 11 12  0  0  0  0  0  0  0  0999 V2000
    1.2770    1.7580    0.0000 S   0  0  0  0  0  0  0  0  0  0  0  0
    1.7400    0.3310    0.0000 C   0  0  0  0  0  0  0  0  0  0  0  0
    3.1670   -0.1330    0.0000 C   0  0  0  0  0  0  0  0  0  0  0  0
    3.1670   -1.6330    0.0000 C   0  0  0  0  0  0  0  0  0  0  0  0
    1.7400   -2.0960    0.0000 N   0  0  0  0  0  0  0  0  0  0  0  0
    1.2770   -3.5230    0.0000 C   0  0  0  0  0  0  0  0  0  0  0  0
    0.8590   -0.8830    0.0000 C   0  0  0  0  0  0  0  0  0  0  0  0
    4.4660   -2.3830    0.0000 C   0  0  0  0  0  0  0  0  0  0  0  0
    5.7650   -1.6330    0.0000 C   0  0  0  0  0  0  0  0  0  0  0  0
    5.7650   -0.1330    0.0000 C   0  0  0  0  0  0  0  0  0  0  0  0
    4.4660    0.6170    0.0000 C   0  0  0  0  0  0  0  0  0  0  0  0
  1  2  1  0  0  0  0
  2  3  1  0  0  0  0
  2  7  2  0  0  0  0
  3  4  1  0  0  0  0
  3 11  2  0  0  0  0
  4  5  1  0  0  0  0
  4  8  2  0  0  0  0
  5  6  1  0  0  0  0
  5  7  1  0  0  0  0
  8  9  1  0  0  0  0
  9 10  2  0  0  0  0
 10 11  1  0  0  0  0
M  END
>  <name>
[S;thioether]c1c2c(n(C)c1)cccc2

>  <apo>
1

>  <freq>
5

>  <freq0>
0

>  <freq1>
5

>  <freqA>
4.9949946

>  <a_count>
20

$$$$

  MOE2015           2D

 11 12  0  0  0  0  0  0  0  0999 V2000
    1.3740    3.6010    0.0000 Br  0  0  0  0  0  0  0  0  0  0  0  0
    1.3740    2.1010    0.0000 C   0  0  0  0  0  0  0  0  0  0  0  0
    2.6730    1.3510    0.0000 C   0  0  0  0  0  0  0  0  0  0  0  0
    4.0990    1.8140    0.0000 C   0  0  0  0  0  0  0  0  0  0  0  0
    4.5630    3.2410    0.0000 S   0  0  0  0  0  0  0  0  0  0  0  0
    4.9810    0.6010    0.0000 C   0  0  0  0  0  0  0  0  0  0  0  0
    4.0990   -0.6130    0.0000 N   0  0  0  0  0  0  0  0  0  0  0  0
    2.6730   -0.1490    0.0000 C   0  0  0  0  0  0  0  0  0  0  0  0
    1.3740   -0.8990    0.0000 C   0  0  0  0  0  0  0  0  0  0  0  0
    0.0750   -0.1490    0.0000 C   0  0  0  0  0  0  0  0  0  0  0  0
    0.0750    1.3510    0.0000 C   0  0  0  0  0  0  0  0  0  0  0  0
  1  2  1  0  0  0  0
  2  3  1  0  0  0  0
  2 11  2  0  0  0  0
  3  4  1  0  0  0  0
  3  8  2  0  0  0  0
  4  5  1  0  0  0  0
  4  6  2  0  0  0  0
  6  7  1  0  0  0  0
  7  8  1  0  0  0  0
  8  9  1  0  0  0  0
  9 10  2  0  0  0  0
 10 11  1  0  0  0  0
M  END
>  <name>
Brc1c2c([S;thioether])c[nH]c2ccc1

>  <apo>
1

>  <freq>
5

>  <freq0>
0

>  <freq1>
5

>  <freqA>
4.9949946

>  <a_count>
17

$$$$

  MOE2015           2D

  7  6  0  0  1  0  0  0  0  0999 V2000
    5.3550   -0.7920    0.0000 S   0  0  0  0  0  0  0  0  0  0  0  0
    4.0560   -1.5420    0.0000 C   0  0  0  0  0  0  0  0  0  0  0  0
    2.7570   -0.7920    0.0000 C   0  0  2  0  0  0  0  0  0  0  0  0
    2.7570    0.7080    0.0000 N   0  0  0  0  0  0  0  0  0  0  0  0
    1.4580   -1.5420    0.0000 C   0  0  0  0  0  0  0  0  0  0  0  0
    1.4580   -3.0420    0.0000 O   0  0  0  0  0  0  0  0  0  0  0  0
    0.1590   -0.7920    0.0000 N   0  0  0  0  0  0  0  0  0  0  0  0
  1  2  1  0  0  0  0
  2  3  1  0  0  0  0
  3  4  1  1  0  0  0
  3  5  1  0  0  0  0
  5  6  2  0  0  0  0
  5  7  1  0  0  0  0
M  END
>  <name>
SC[C@H]([N;amide])C(=O)N

>  <apo>
1

>  <freq>
5

>  <freq0>
0

>  <freq1>
5

>  <freqA>
4.9949946

>  <a_count>
15

$$$$

  MOE2015           2D

  7  7  0  0  0  0  0  0  0  0999 V2000
    5.1430    0.0000    0.0000 C   0  0  0  0  0  0  0  0  0  0  0  0
    3.6430    0.0000    0.0000 C   0  0  0  0  0  0  0  0  0  0  0  0
    2.8930    1.2990    0.0000 C   0  0  0  0  0  0  0  0  0  0  0  0
    1.3930    1.2990    0.0000 C   0  0  0  0  0  0  0  0  0  0  0  0
    0.6430    0.0000    0.0000 C   0  0  0  0  0  0  0  0  0  0  0  0
    1.3930   -1.2990    0.0000 C   0  0  0  0  0  0  0  0  0  0  0  0
    2.8930   -1.2990    0.0000 C   0  0  0  0  0  0  0  0  0  0  0  0
  1  2  1  0  0  0  0
  2  3  1  0  0  0  0
  2  7  2  0  0  0  0
  3  4  2  0  0  0  0
  4  5  1  0  0  0  0
  5  6  2  0  0  0  0
  6  7  1  0  0  0  0
M  END
>  <name>
[C;NaroC]c1ccccc1

>  <apo>
1

>  <freq>
5

>  <freq0>
0

>  <freq1>
5

>  <freqA>
4.9949946

>  <a_count>
15

$$$$

  MOE2015           2D

  8  8  0  0  0  0  0  0  0  0999 V2000
    5.3440   -0.8120    0.0000 O   0  0  0  0  0  0  0  0  0  0  0  0
    4.5940   -2.1110    0.0000 C   0  0  0  0  0  0  0  0  0  0  0  0
    3.0940   -2.1110    0.0000 C   0  0  0  0  0  0  0  0  0  0  0  0
    2.3440   -3.4100    0.0000 C   0  0  0  0  0  0  0  0  0  0  0  0
    0.8440   -3.4100    0.0000 C   0  0  0  0  0  0  0  0  0  0  0  0
    0.0940   -2.1110    0.0000 C   0  0  0  0  0  0  0  0  0  0  0  0
    0.8440   -0.8120    0.0000 C   0  0  0  0  0  0  0  0  0  0  0  0
    2.3440   -0.8120    0.0000 C   0  0  0  0  0  0  0  0  0  0  0  0
  1  2  2  0  0  0  0
  2  3  1  0  0  0  0
  3  4  1  0  0  0  0
  3  8  2  0  0  0  0
  4  5  2  0  0  0  0
  5  6  1  0  0  0  0
  6  7  2  0  0  0  0
  7  8  1  0  0  0  0
M  END
>  <name>
O=[C;amide]c1cc[c;biphenyl]cc1

>  <apo>
2

>  <freq>
5

>  <freq0>
0

>  <freq1>
5

>  <freqA>
4.9949946

>  <a_count>
14

$$$$

  MOE2015           2D

  9 10  0  0  0  0  0  0  0  0999 V2000
    0.8370    0.6970    0.0000 N   0  0  0  0  0  0  0  0  0  0  0  0
   -0.5900    1.1610    0.0000 C   0  0  0  0  0  0  0  0  0  0  0  0
   -1.8890    0.4110    0.0000 N   0  0  0  0  0  0  0  0  0  0  0  0
   -3.1880    1.1610    0.0000 C   0  0  0  0  0  0  0  0  0  0  0  0
   -3.1880    2.6610    0.0000 N   0  0  0  0  0  0  0  0  0  0  0  0
   -1.8890    3.4110    0.0000 C   0  0  0  0  0  0  0  0  0  0  0  0
   -0.5900    2.6610    0.0000 C   0  0  0  0  0  0  0  0  0  0  0  0
    0.8370    3.1240    0.0000 C   0  0  0  0  0  0  0  0  0  0  0  0
    1.7190    1.9110    0.0000 C   0  0  0  0  0  0  0  0  0  0  0  0
  1  2  1  0  0  0  0
  1  9  1  0  0  0  0
  2  3  1  0  0  0  0
  2  7  2  0  0  0  0
  3  4  2  0  0  0  0
  4  5  1  0  0  0  0
  5  6  2  0  0  0  0
  6  7  1  0  0  0  0
  7  8  1  0  0  0  0
  8  9  2  0  0  0  0
M  END
>  <name>
[nH]1c2ncn[c;biphenyl]c2cc1

>  <apo>
1

>  <freq>
5

>  <freq0>
0

>  <freq1>
5

>  <freqA>
4.9949946

>  <a_count>
14

$$$$

  MOE2015           2D

  6  5  0  0  1  0  0  0  0  0999 V2000
   -0.3480   -1.2990    0.0000 O   0  0  0  0  0  0  0  0  0  0  0  0
    0.9510   -2.0490    0.0000 C   0  0  0  0  0  0  0  0  0  0  0  0
    2.2500   -1.2990    0.0000 C   0  0  1  0  0  0  0  0  0  0  0  0
    2.2500    0.2010    0.0000 N   0  0  0  0  0  0  0  0  0  0  0  0
    3.5490   -2.0490    0.0000 C   0  0  0  0  0  0  0  0  0  0  0  0
    4.8480   -1.2990    0.0000 O   0  0  0  0  0  0  0  0  0  0  0  0
  1  2  2  0  0  0  0
  2  3  1  0  0  0  0
  3  4  1  1  0  0  0
  3  5  1  0  0  0  0
  5  6  1  0  0  0  0
M  END
>  <name>
O=[C;amide][C@@H]([N;amide])CO

>  <apo>
2

>  <freq>
5

>  <freq0>
0

>  <freq1>
5

>  <freqA>
4.9949946

>  <a_count>
13

$$$$

  MOE2015           2D

  4  3  0  0  0  0  0  0  0  0999 V2000
    3.0000    0.0000    0.0000 O   0  0  0  0  0  0  0  0  0  0  0  0
    1.5000    0.0000    0.0000 C   0  0  0  0  0  0  0  0  0  0  0  0
    0.7500   -1.2990    0.0000 C   0  0  0  0  0  0  0  0  0  0  0  0
    0.7500    1.2990    0.0000 C   0  0  0  0  0  0  0  0  0  0  0  0
  1  2  1  0  0  0  0
  2  3  1  0  0  0  0
  2  4  1  0  0  0  0
M  END
>  <name>
[O;ester]C(C)C

>  <apo>
1

>  <freq>
5

>  <freq0>
0

>  <freq1>
5

>  <freqA>
4.9949946

>  <a_count>
12

$$$$

  MOE2015           2D

 18 18  0  0  1  0  0  0  0  0999 V2000
    0.4580   -1.6600    0.0000 O   0  0  0  0  0  0  0  0  0  0  0  0
    1.2080   -0.3610    0.0000 C   0  0  0  0  0  0  0  0  0  0  0  0
    2.7080   -0.3610    0.0000 O   0  0  0  0  0  0  0  0  0  0  0  0
    3.4580   -1.6600    0.0000 C   0  0  0  0  0  0  0  0  0  0  0  0
    4.9580   -1.6600    0.0000 C   0  0  0  0  0  0  0  0  0  0  0  0
    5.7080   -0.3610    0.0000 C   0  0  0  0  0  0  0  0  0  0  0  0
    7.2080   -0.3610    0.0000 C   0  0  0  0  0  0  0  0  0  0  0  0
    7.9580   -1.6600    0.0000 C   0  0  0  0  0  0  0  0  0  0  0  0
    7.2080   -2.9590    0.0000 C   0  0  0  0  0  0  0  0  0  0  0  0
    5.7080   -2.9590    0.0000 C   0  0  0  0  0  0  0  0  0  0  0  0
    0.4580    0.9380    0.0000 N   0  0  0  0  0  0  0  0  0  0  0  0
   -1.0420    0.9380    0.0000 C   0  0  2  0  0  0  0  0  0  0  0  0
   -1.7920    2.2370    0.0000 C   0  0  0  0  0  0  0  0  0  0  0  0
   -1.0420    3.5360    0.0000 O   0  0  0  0  0  0  0  0  0  0  0  0
   -1.7920   -0.3610    0.0000 C   0  0  0  0  0  0  0  0  0  0  0  0
   -3.2920   -0.3610    0.0000 C   0  0  0  0  0  0  0  0  0  0  0  0
   -4.0420   -1.6600    0.0000 C   0  0  0  0  0  0  0  0  0  0  0  0
   -4.0420    0.9380    0.0000 C   0  0  0  0  0  0  0  0  0  0  0  0
  1  2  2  0  0  0  0
  2  3  1  0  0  0  0
  2 11  1  0  0  0  0
  3  4  1  0  0  0  0
  4  5  1  0  0  0  0
  5  6  1  0  0  0  0
  5 10  2  0  0  0  0
  6  7  2  0  0  0  0
  7  8  1  0  0  0  0
  8  9  2  0  0  0  0
  9 10  1  0  0  0  0
 12 11  1  1  0  0  0
 12 13  1  0  0  0  0
 12 15  1  0  0  0  0
 13 14  2  0  0  0  0
 15 16  1  0  0  0  0
 16 17  1  0  0  0  0
 16 18  1  0  0  0  0
M  END
>  <name>
O=C(OCc1ccccc1)N[C@H]([C;amide]=O)CC(C)C

>  <apo>
1

>  <freq>
4

>  <freq0>
0

>  <freq1>
4

>  <freqA>
3.9951959

>  <a_count>
37

$$$$

  MOE2015           2D

 32 35  0  0  0  0  0  0  0  0999 V2000
    4.7110    2.7200    0.0000 I   0  0  0  0  0  0  0  0  0  0  0  0
    3.9610    1.4210    0.0000 C   0  0  0  0  0  0  0  0  0  0  0  0
    2.4610    1.4210    0.0000 C   0  0  0  0  0  0  0  0  0  0  0  0
    1.7110    2.7200    0.0000 O   0  5  0  0  0  0  0  0  0  0  0  0
    1.7110    0.1220    0.0000 C   0  0  0  0  0  0  0  0  0  0  0  0
    0.2110    0.1220    0.0000 I   0  0  0  0  0  0  0  0  0  0  0  0
    2.4610   -1.1770    0.0000 C   0  0  0  0  0  0  0  0  0  0  0  0
    3.9610   -1.1770    0.0000 C   0  0  0  0  0  0  0  0  0  0  0  0
    4.7110   -2.4760    0.0000 C   0  0  0  0  0  0  0  0  0  0  0  0
    3.9610   -3.7750    0.0000 C   0  0  0  0  0  0  0  0  0  0  0  0
    4.7110   -5.0740    0.0000 C   0  0  0  0  0  0  0  0  0  0  0  0
    6.2110   -5.0740    0.0000 Cl  0  0  0  0  0  0  0  0  0  0  0  0
    3.9610   -6.3730    0.0000 C   0  0  0  0  0  0  0  0  0  0  0  0
    4.7110   -7.6720    0.0000 Cl  0  0  0  0  0  0  0  0  0  0  0  0
    2.4610   -6.3730    0.0000 C   0  0  0  0  0  0  0  0  0  0  0  0
    1.7110   -7.6720    0.0000 Cl  0  0  0  0  0  0  0  0  0  0  0  0
    1.7110   -5.0740    0.0000 C   0  0  0  0  0  0  0  0  0  0  0  0
    0.2110   -5.0740    0.0000 Cl  0  0  0  0  0  0  0  0  0  0  0  0
    2.4610   -3.7750    0.0000 C   0  0  0  0  0  0  0  0  0  0  0  0
    1.7110   -2.4760    0.0000 C   0  0  0  0  0  0  0  0  0  0  0  0
    0.2110   -2.4760    0.0000 O   0  0  0  0  0  0  0  0  0  0  0  0
    6.2110   -2.4760    0.0000 C   0  0  0  0  0  0  0  0  0  0  0  0
    6.9610   -1.1770    0.0000 C   0  0  0  0  0  0  0  0  0  0  0  0
    8.4610   -1.1770    0.0000 C   0  0  0  0  0  0  0  0  0  0  0  0
    9.2110    0.1220    0.0000 I   0  0  0  0  0  0  0  0  0  0  0  0
    9.2110   -2.4760    0.0000 C   0  0  0  0  0  0  0  0  0  0  0  0
   10.7110   -2.4760    0.0000 O   0  0  0  0  0  0  0  0  0  0  0  0
    8.4610   -3.7750    0.0000 C   0  0  0  0  0  0  0  0  0  0  0  0
    9.2110   -5.0740    0.0000 I   0  0  0  0  0  0  0  0  0  0  0  0
    6.9610   -3.7750    0.0000 C   0  0  0  0  0  0  0  0  0  0  0  0
    6.2110    0.1220    0.0000 O   0  0  0  0  0  0  0  0  0  0  0  0
    4.7110    0.1220    0.0000 C   0  0  0  0  0  0  0  0  0  0  0  0
  1  2  1  0  0  0  0
  2  3  1  0  0  0  0
  2 32  2  0  0  0  0
  3  4  1  0  0  0  0
  3  5  2  0  0  0  0
  5  6  1  0  0  0  0
  5  7  1  0  0  0  0
  7  8  2  0  0  0  0
  8  9  1  0  0  0  0
  8 32  1  0  0  0  0
  9 10  1  0  0  0  0
  9 22  2  0  0  0  0
 10 11  1  0  0  0  0
 10 19  2  0  0  0  0
 11 12  1  0  0  0  0
 11 13  2  0  0  0  0
 13 14  1  0  0  0  0
 13 15  1  0  0  0  0
 15 16  1  0  0  0  0
 15 17  2  0  0  0  0
 17 18  1  0  0  0  0
 17 19  1  0  0  0  0
 19 20  1  0  0  0  0
 20 21  2  0  0  0  0
 22 23  1  0  0  0  0
 22 30  1  0  0  0  0
 23 24  2  0  0  0  0
 23 31  1  0  0  0  0
 24 25  1  0  0  0  0
 24 26  1  0  0  0  0
 26 27  2  0  0  0  0
 26 28  1  0  0  0  0
 28 29  1  0  0  0  0
 28 30  2  0  0  0  0
 31 32  1  0  0  0  0
M  CHG  1   4  -1
M  END
>  <name>
Ic1c([O-])c(I)cc2C(c3c(Cl)c(Cl)c(Cl)c(Cl)c3[C;ester]=O)=C3C(=C(I)C(=O)C(I)=C3)Oc12

>  <apo>
1

>  <freq>
4

>  <freq0>
0

>  <freq1>
4

>  <freqA>
3.9951959

>  <a_count>
35

$$$$

  MOE2015           2D

 22 24  0  0  1  0  0  0  0  0999 V2000
   -2.1750    6.0940    0.0000 O   0  0  0  0  0  0  0  0  0  0  0  0
   -2.2370    4.5960    0.0000 C   0  0  0  0  0  0  0  0  0  0  0  0
   -3.5660    3.9000    0.0000 C   0  0  0  0  0  0  0  0  0  0  0  0
   -0.9700    3.7930    0.0000 C   0  0  0  0  0  0  0  0  0  0  0  0
    0.3590    4.4880    0.0000 C   0  0  0  0  0  0  0  0  0  0  0  0
    0.4210    5.9870    0.0000 O   0  0  0  0  0  0  0  0  0  0  0  0
    1.6260    3.6850    0.0000 C   0  0  2  0  0  0  0  0  0  0  0  0
    1.7920    5.1760    0.0000 C   0  0  0  0  0  0  0  0  0  0  0  0
    3.0710    4.0900    0.0000 C   0  0  0  0  0  0  0  0  0  0  0  0
    3.7370    5.4340    0.0000 C   0  0  0  0  0  0  0  0  0  0  0  0
    2.9060    6.6820    0.0000 O   0  0  0  0  0  0  0  0  0  0  0  0
    5.2340    5.5290    0.0000 C   0  0  0  0  0  0  0  0  0  0  0  0
    5.9000    6.8730    0.0000 C   0  0  0  0  0  0  0  0  0  0  0  0
    6.0650    4.2800    0.0000 C   0  0  0  0  0  0  0  0  0  0  0  0
    7.5620    4.3750    0.0000 O   0  0  0  0  0  0  0  0  0  0  0  0
    5.3980    2.9360    0.0000 C   0  0  0  0  0  0  0  0  0  0  0  0
    3.9010    2.8410    0.0000 C   0  0  0  0  0  0  0  0  0  0  0  0
    2.9700    1.6650    0.0000 O   0  0  0  0  0  0  0  0  0  0  0  0
    1.5640    2.1870    0.0000 C   0  0  0  0  0  0  0  0  0  0  0  0
    0.2350    1.4910    0.0000 C   0  0  0  0  0  0  0  0  0  0  0  0
   -1.0320    2.2940    0.0000 C   0  0  0  0  0  0  0  0  0  0  0  0
   -2.3610    1.5980    0.0000 O   0  5  0  0  0  0  0  0  0  0  0  0
  1  2  2  0  0  0  0
  2  3  1  0  0  0  0
  2  4  1  0  0  0  0
  4  5  1  0  0  0  0
  4 21  2  0  0  0  0
  5  6  2  0  0  0  0
  5  7  1  0  0  0  0
  7  8  1  1  0  0  0
  7  9  1  0  0  0  0
  7 19  1  0  0  0  0
  9 10  2  0  0  0  0
  9 17  1  0  0  0  0
 10 11  1  0  0  0  0
 10 12  1  0  0  0  0
 12 13  1  0  0  0  0
 12 14  2  0  0  0  0
 14 15  1  0  0  0  0
 14 16  1  0  0  0  0
 16 17  2  0  0  0  0
 17 18  1  0  0  0  0
 18 19  1  0  0  0  0
 19 20  2  0  0  0  0
 20 21  1  0  0  0  0
 21 22  1  0  0  0  0
M  CHG  1  22  -1
M  END
>  <name>
O=C(C)C=1C(=O)[C@]2(C)c3c(O)c(C)c(O)[c;biphenyl]c3OC2=CC=1[O-]

>  <apo>
1

>  <freq>
4

>  <freq0>
0

>  <freq1>
4

>  <freqA>
3.9951959

>  <a_count>
35

$$$$

  MOE2015           2D

 17 18  0  0  1  0  0  0  0  0999 V2000
    2.6350    4.5640    0.0000 O   0  0  0  0  0  0  0  0  0  0  0  0
    3.3850    3.2650    0.0000 C   0  0  0  0  0  0  0  0  0  0  0  0
    2.6350    1.9660    0.0000 N   0  0  0  0  0  0  0  0  0  0  0  0
    1.1350    1.9660    0.0000 C   0  0  3  0  0  0  0  0  0  0  0  0
    0.3850    0.6670    0.0000 C   0  0  3  0  0  0  0  0  0  0  0  0
    1.6840   -0.0830    0.0000 O   0  0  0  0  0  0  0  0  0  0  0  0
    0.3850   -0.8330    0.0000 C   0  0  0  0  0  0  0  0  0  0  0  0
   -1.1150    0.6670    0.0000 C   0  0  0  0  0  0  0  0  0  0  0  0
   -1.8650    1.9660    0.0000 C   0  0  0  0  0  0  0  0  0  0  0  0
   -1.1150    3.2650    0.0000 N   0  0  0  0  0  0  0  0  0  0  0  0
    0.3850    3.2650    0.0000 C   0  0  0  0  0  0  0  0  0  0  0  0
    3.3850    0.6670    0.0000 C   0  0  0  0  0  0  0  0  0  0  0  0
    4.8850    0.6670    0.0000 C   0  0  0  0  0  0  0  0  0  0  0  0
    5.6350   -0.6320    0.0000 C   0  0  0  0  0  0  0  0  0  0  0  0
    5.6350    1.9660    0.0000 C   0  0  0  0  0  0  0  0  0  0  0  0
    7.1350    1.9660    0.0000 O   0  0  0  0  0  0  0  0  0  0  0  0
    4.8850    3.2650    0.0000 N   0  0  0  0  0  0  0  0  0  0  0  0
  1  2  2  0  0  0  0
  2  3  1  0  0  0  0
  2 17  1  0  0  0  0
  3  4  1  0  0  0  0
  3 12  1  0  0  0  0
  4  5  1  0  0  0  0
  4 11  1  0  0  0  0
  5  6  1  0  0  0  0
  5  7  1  0  0  0  0
  5  8  1  0  0  0  0
  8  9  1  0  0  0  0
  9 10  1  0  0  0  0
 10 11  1  0  0  0  0
 12 13  2  0  0  0  0
 13 14  1  0  0  0  0
 13 15  1  0  0  0  0
 15 16  2  0  0  0  0
 15 17  1  0  0  0  0
M  END
>  <name>
O=C1N(C2C(O)(C)CC[N;amide]C2)C=C(C)C(=O)N1

>  <apo>
1

>  <freq>
4

>  <freq0>
0

>  <freq1>
4

>  <freqA>
3.9951959

>  <a_count>
34

$$$$

  MOE2015           2D

 11 11  0  0  1  0  0  0  0  0999 V2000
    8.1690   -3.0070    0.0000 O   0  0  0  0  0  0  0  0  0  0  0  0
    6.8700   -3.7570    0.0000 C   0  0  0  0  0  0  0  0  0  0  0  0
    5.5710   -3.0070    0.0000 C   0  0  1  0  0  0  0  0  0  0  0  0
    5.5710   -1.5070    0.0000 N   0  0  0  0  0  0  0  0  0  0  0  0
    4.2720   -3.7570    0.0000 C   0  0  0  0  0  0  0  0  0  0  0  0
    2.9730   -3.0070    0.0000 C   0  0  0  0  0  0  0  0  0  0  0  0
    1.6740   -3.7570    0.0000 C   0  0  0  0  0  0  0  0  0  0  0  0
    0.3750   -3.0070    0.0000 C   0  0  0  0  0  0  0  0  0  0  0  0
    0.3750   -1.5070    0.0000 C   0  0  0  0  0  0  0  0  0  0  0  0
    1.6740   -0.7570    0.0000 C   0  0  0  0  0  0  0  0  0  0  0  0
    2.9730   -1.5070    0.0000 C   0  0  0  0  0  0  0  0  0  0  0  0
  1  2  2  0  0  0  0
  2  3  1  0  0  0  0
  3  4  1  6  0  0  0
  3  5  1  0  0  0  0
  5  6  1  0  0  0  0
  6  7  1  0  0  0  0
  6 11  1  0  0  0  0
  7  8  1  0  0  0  0
  8  9  1  0  0  0  0
  9 10  1  0  0  0  0
 10 11  1  0  0  0  0
M  END
>  <name>
O=[C;amide][C@@H]([N;amide])CC1CCCCC1

>  <apo>
2

>  <freq>
4

>  <freq0>
0

>  <freq1>
4

>  <freqA>
3.9951959

>  <a_count>
28

$$$$

  MOE2015           2D

 14 15  0  0  1  0  0  0  0  0999 V2000
   10.1920    2.1660    0.0000 O   0  0  0  0  0  0  0  0  0  0  0  0
    8.8220    1.5560    0.0000 C   0  0  0  0  0  0  0  0  0  0  0  0
    7.6080    2.4380    0.0000 C   0  0  1  0  0  0  0  0  0  0  0  0
    7.7650    3.9300    0.0000 N   0  0  0  0  0  0  0  0  0  0  0  0
    6.2380    1.8280    0.0000 C   0  0  0  0  0  0  0  0  0  0  0  0
    5.0240    2.7090    0.0000 C   0  0  0  0  0  0  0  0  0  0  0  0
    3.5980    2.2460    0.0000 C   0  0  0  0  0  0  0  0  0  0  0  0
    2.7160    3.4590    0.0000 C   0  0  0  0  0  0  0  0  0  0  0  0
    3.5980    4.6730    0.0000 N   0  0  0  0  0  0  0  0  0  0  0  0
    5.0240    4.2090    0.0000 C   0  0  0  0  0  0  0  0  0  0  0  0
    1.2240    3.3030    0.0000 C   0  0  0  0  0  0  0  0  0  0  0  0
    0.6140    1.9320    0.0000 C   0  0  0  0  0  0  0  0  0  0  0  0
    1.4960    0.7190    0.0000 C   0  0  0  0  0  0  0  0  0  0  0  0
    2.9870    0.8760    0.0000 C   0  0  0  0  0  0  0  0  0  0  0  0
  1  2  2  0  0  0  0
  2  3  1  0  0  0  0
  3  4  1  6  0  0  0
  3  5  1  0  0  0  0
  5  6  1  0  0  0  0
  6  7  1  0  0  0  0
  6 10  2  0  0  0  0
  7  8  2  0  0  0  0
  7 14  1  0  0  0  0
  8  9  1  0  0  0  0
  8 11  1  0  0  0  0
  9 10  1  0  0  0  0
 11 12  2  0  0  0  0
 12 13  1  0  0  0  0
 13 14  2  0  0  0  0
M  END
>  <name>
O=[C;amide][C@@H]([N;amide])Cc1c2c([nH]c1)cccc2

>  <apo>
2

>  <freq>
4

>  <freq0>
0

>  <freq1>
4

>  <freqA>
3.9951959

>  <a_count>
26

$$$$

  MOE2015           2D

 13 13  0  0  1  0  0  0  0  0999 V2000
    4.5580    4.5580    0.0000 O   0  0  0  0  0  0  0  0  0  0  0  0
    4.5580    3.0580    0.0000 C   0  0  0  0  0  0  0  0  0  0  0  0
    3.2590    2.3080    0.0000 C   0  0  1  0  0  0  0  0  0  0  0  0
    3.2590    0.8080    0.0000 N   0  0  0  0  0  0  0  0  0  0  0  0
    1.9600    3.0580    0.0000 C   0  0  0  0  0  0  0  0  0  0  0  0
    0.6610    2.3080    0.0000 C   0  0  1  0  0  0  0  0  0  0  0  0
   -0.7100    2.9180    0.0000 C   0  0  0  0  0  0  0  0  0  0  0  0
   -1.0210    4.3850    0.0000 O   0  0  0  0  0  0  0  0  0  0  0  0
   -1.7130    1.8030    0.0000 N   0  0  0  0  0  0  0  0  0  0  0  0
   -0.9630    0.5040    0.0000 C   0  0  0  0  0  0  0  0  0  0  0  0
    0.5040    0.8160    0.0000 C   0  0  0  0  0  0  0  0  0  0  0  0
    5.8570    2.3080    0.0000 C   0  0  0  0  0  0  0  0  0  0  0  0
    7.1560    3.0580    0.0000 O   0  0  0  0  0  0  0  0  0  0  0  0
  1  2  2  0  0  0  0
  2  3  1  0  0  0  0
  2 12  1  0  0  0  0
  3  4  1  1  0  0  0
  3  5  1  0  0  0  0
  6  5  1  6  0  0  0
  6  7  1  0  0  0  0
  6 11  1  0  0  0  0
  7  8  2  0  0  0  0
  7  9  1  0  0  0  0
  9 10  1  0  0  0  0
 10 11  1  0  0  0  0
 12 13  2  0  0  0  0
M  END
>  <name>
O=C([C@@H]([N;amide])C[C@H]1C(=O)NCC1)[C;amide]=O

>  <apo>
2

>  <freq>
4

>  <freq0>
0

>  <freq1>
4

>  <freqA>
3.9951959

>  <a_count>
25

$$$$

  MOE2015           2D

 11 11  0  0  1  0  0  0  0  0999 V2000
    8.2240   -2.2040    0.0000 O   0  0  0  0  0  0  0  0  0  0  0  0
    6.9250   -1.4540    0.0000 C   0  0  0  0  0  0  0  0  0  0  0  0
    5.6260   -2.2040    0.0000 C   0  0  2  0  0  0  0  0  0  0  0  0
    5.6260   -3.7040    0.0000 N   0  0  0  0  0  0  0  0  0  0  0  0
    4.3270   -1.4540    0.0000 C   0  0  0  0  0  0  0  0  0  0  0  0
    3.0280   -2.2040    0.0000 C   0  0  2  0  0  0  0  0  0  0  0  0
    1.6570   -1.5930    0.0000 C   0  0  0  0  0  0  0  0  0  0  0  0
    1.3450   -0.1260    0.0000 O   0  0  0  0  0  0  0  0  0  0  0  0
    0.6540   -2.7080    0.0000 N   0  0  0  0  0  0  0  0  0  0  0  0
    1.4040   -4.0070    0.0000 C   0  0  0  0  0  0  0  0  0  0  0  0
    2.8710   -3.6950    0.0000 C   0  0  0  0  0  0  0  0  0  0  0  0
  1  2  2  0  0  0  0
  2  3  1  0  0  0  0
  3  4  1  6  0  0  0
  3  5  1  0  0  0  0
  6  5  1  1  0  0  0
  6  7  1  0  0  0  0
  6 11  1  0  0  0  0
  7  8  2  0  0  0  0
  7  9  1  0  0  0  0
  9 10  1  0  0  0  0
 10 11  1  0  0  0  0
M  END
>  <name>
O=C[C@H]([N;amide])C[C@@H]1C(=O)NCC1

>  <apo>
1

>  <freq>
4

>  <freq0>
0

>  <freq1>
4

>  <freqA>
3.9951959

>  <a_count>
23

$$$$

  MOE2015           2D

 11 11  0  0  1  0  0  0  0  0999 V2000
    6.5450    0.4720    0.0000 O   0  0  0  0  0  0  0  0  0  0  0  0
    5.7950    1.7710    0.0000 C   0  0  0  0  0  0  0  0  0  0  0  0
    4.2950    1.7710    0.0000 C   0  0  2  0  0  0  0  0  0  0  0  0
    3.5450    3.0700    0.0000 C   0  0  1  0  0  0  0  0  0  0  0  0
    4.2950    4.3690    0.0000 O   0  0  0  0  0  0  0  0  0  0  0  0
    2.0450    3.0700    0.0000 C   0  0  1  0  0  0  0  0  0  0  0  0
    1.2950    4.3690    0.0000 O   0  0  0  0  0  0  0  0  0  0  0  0
    1.2950    1.7710    0.0000 C   0  0  2  0  0  0  0  0  0  0  0  0
   -0.2050    1.7710    0.0000 O   0  0  0  0  0  0  0  0  0  0  0  0
    2.0450    0.4720    0.0000 C   0  0  0  0  0  0  0  0  0  0  0  0
    3.5450    0.4720    0.0000 O   0  0  0  0  0  0  0  0  0  0  0  0
  1  2  1  0  0  0  0
  3  2  1  1  0  0  0
  3  4  1  0  0  0  0
  3 11  1  0  0  0  0
  4  5  1  6  0  0  0
  4  6  1  0  0  0  0
  6  7  1  6  0  0  0
  6  8  1  0  0  0  0
  8  9  1  1  0  0  0
  8 10  1  0  0  0  0
 10 11  1  0  0  0  0
M  END
>  <name>
OC[C@@H]1[C@@H](O)[C@@H](O)[C@H](O)[C;ether]O1

>  <apo>
1

>  <freq>
4

>  <freq0>
0

>  <freq1>
4

>  <freqA>
3.9951959

>  <a_count>
23

$$$$

  MOE2015           2D

 10 10  0  0  1  0  0  0  0  0999 V2000
    6.5070    1.7440    0.0000 O   0  0  0  0  0  0  0  0  0  0  0  0
    5.2080    0.9940    0.0000 C   0  0  0  0  0  0  0  0  0  0  0  0
    3.9090    1.7440    0.0000 C   0  0  2  0  0  0  0  0  0  0  0  0
    2.6100    0.9940    0.0000 C   0  0  1  0  0  0  0  0  0  0  0  0
    2.6100   -0.5060    0.0000 O   0  0  0  0  0  0  0  0  0  0  0  0
    1.3110    1.7440    0.0000 C   0  0  1  0  0  0  0  0  0  0  0  0
    0.0120    0.9940    0.0000 O   0  0  0  0  0  0  0  0  0  0  0  0
    1.3110    3.2440    0.0000 C   0  0  0  0  0  0  0  0  0  0  0  0
    2.6100    3.9940    0.0000 C   0  0  0  0  0  0  0  0  0  0  0  0
    3.9090    3.2440    0.0000 O   0  0  0  0  0  0  0  0  0  0  0  0
  1  2  1  0  0  0  0
  3  2  1  6  0  0  0
  3  4  1  0  0  0  0
  3 10  1  0  0  0  0
  4  5  1  1  0  0  0
  4  6  1  0  0  0  0
  6  7  1  1  0  0  0
  6  8  1  0  0  0  0
  8  9  1  0  0  0  0
  9 10  1  0  0  0  0
M  END
>  <name>
OC[C@@H]1[C@@H](O)[C@@H](O)[C;ether][C;ether]O1

>  <apo>
2

>  <freq>
4

>  <freq0>
0

>  <freq1>
4

>  <freqA>
3.9951959

>  <a_count>
22

$$$$

  MOE2015           2D

 11 10  0  0  1  0  0  0  0  0999 V2000
   -0.3280    1.2260    0.0000 F   0  0  0  0  0  0  0  0  0  0  0  0
    0.9710    1.9760    0.0000 C   0  0  0  0  0  0  0  0  0  0  0  0
    2.2700    1.2260    0.0000 C   0  0  0  0  0  0  0  0  0  0  0  0
    2.2700   -0.2740    0.0000 O   0  0  0  0  0  0  0  0  0  0  0  0
    3.5690    1.9760    0.0000 C   0  0  1  0  0  0  0  0  0  0  0  0
    3.5690    3.4760    0.0000 N   0  0  0  0  0  0  0  0  0  0  0  0
    4.8680    1.2260    0.0000 C   0  0  0  0  0  0  0  0  0  0  0  0
    6.1670    1.9760    0.0000 C   0  0  0  0  0  0  0  0  0  0  0  0
    6.1670    3.4760    0.0000 O   0  0  0  0  0  0  0  0  0  0  0  0
    7.4660    1.2260    0.0000 O   0  0  0  0  0  0  0  0  0  0  0  0
    8.7650    1.9760    0.0000 C   0  0  0  0  0  0  0  0  0  0  0  0
  1  2  1  0  0  0  0
  2  3  1  0  0  0  0
  3  4  2  0  0  0  0
  3  5  1  0  0  0  0
  5  6  1  1  0  0  0
  5  7  1  0  0  0  0
  7  8  1  0  0  0  0
  8  9  2  0  0  0  0
  8 10  1  0  0  0  0
 10 11  1  0  0  0  0
M  END
>  <name>
FCC(=O)[C@@H]([N;amide])CC(=O)OC

>  <apo>
1

>  <freq>
4

>  <freq0>
0

>  <freq1>
4

>  <freqA>
3.9951959

>  <a_count>
21

$$$$

  MOE2015           2D

  8  7  0  0  1  0  0  0  0  0999 V2000
   -0.2480   -1.6740    0.0000 O   0  0  0  0  0  0  0  0  0  0  0  0
    1.0510   -0.9240    0.0000 C   0  0  0  0  0  0  0  0  0  0  0  0
    2.3500   -1.6740    0.0000 C   0  0  1  0  0  0  0  0  0  0  0  0
    2.3500   -3.1740    0.0000 N   0  0  0  0  0  0  0  0  0  0  0  0
    3.6500   -0.9240    0.0000 C   0  0  2  0  0  0  0  0  0  0  0  0
    4.9490   -1.6740    0.0000 C   0  0  0  0  0  0  0  0  0  0  0  0
    6.2480   -0.9240    0.0000 C   0  0  0  0  0  0  0  0  0  0  0  0
    3.6500    0.5760    0.0000 C   0  0  0  0  0  0  0  0  0  0  0  0
  1  2  2  0  0  0  0
  2  3  1  0  0  0  0
  3  4  1  6  0  0  0
  3  5  1  0  0  0  0
  5  6  1  0  0  0  0
  5  8  1  1  0  0  0
  6  7  1  0  0  0  0
M  END
>  <name>
O=[C;amide][C@@H]([N;amide])[C@H](CC)C

>  <apo>
2

>  <freq>
4

>  <freq0>
0

>  <freq1>
4

>  <freqA>
3.9951959

>  <a_count>
21

$$$$

  MOE2015           2D

 12 13  0  0  0  0  0  0  0  0999 V2000
    8.0000    0.8660    0.0000 Cl  0  0  0  0  0  0  0  0  0  0  0  0
    6.5000    0.8660    0.0000 C   0  0  0  0  0  0  0  0  0  0  0  0
    5.7500   -0.4330    0.0000 C   0  0  0  0  0  0  0  0  0  0  0  0
    4.2500   -0.4330    0.0000 C   0  0  0  0  0  0  0  0  0  0  0  0
    3.5000   -1.7320    0.0000 N   0  3  0  0  0  0  0  0  0  0  0  0
    2.0000   -1.7320    0.0000 C   0  0  0  0  0  0  0  0  0  0  0  0
    1.2500   -0.4330    0.0000 C   0  0  0  0  0  0  0  0  0  0  0  0
    2.0000    0.8660    0.0000 C   0  0  0  0  0  0  0  0  0  0  0  0
    1.2500    2.1650    0.0000 N   0  0  0  0  0  0  0  0  0  0  0  0
    3.5000    0.8660    0.0000 C   0  0  0  0  0  0  0  0  0  0  0  0
    4.2500    2.1650    0.0000 C   0  0  0  0  0  0  0  0  0  0  0  0
    5.7500    2.1650    0.0000 C   0  0  0  0  0  0  0  0  0  0  0  0
  1  2  1  0  0  0  0
  2  3  1  0  0  0  0
  2 12  2  0  0  0  0
  3  4  2  0  0  0  0
  4  5  1  0  0  0  0
  4 10  1  0  0  0  0
  5  6  2  0  0  0  0
  6  7  1  0  0  0  0
  7  8  2  0  0  0  0
  8  9  1  0  0  0  0
  8 10  1  0  0  0  0
 10 11  2  0  0  0  0
 11 12  1  0  0  0  0
M  CHG  1   5   1
M  END
>  <name>
Clc1cc2[n+]ccc([N;amine])c2cc1

>  <apo>
1

>  <freq>
4

>  <freq0>
0

>  <freq1>
4

>  <freqA>
3.9951959

>  <a_count>
20

$$$$

  MOE2015           2D

 10 10  0  0  1  0  0  0  0  0999 V2000
    7.6590   -2.6900    0.0000 O   0  0  0  0  0  0  0  0  0  0  0  0
    6.3600   -3.4400    0.0000 C   0  0  0  0  0  0  0  0  0  0  0  0
    5.0610   -2.6900    0.0000 C   0  0  1  0  0  0  0  0  0  0  0  0
    5.0610   -1.1900    0.0000 N   0  0  0  0  0  0  0  0  0  0  0  0
    3.7620   -3.4400    0.0000 C   0  0  0  0  0  0  0  0  0  0  0  0
    2.4630   -2.6900    0.0000 C   0  0  0  0  0  0  0  0  0  0  0  0
    1.0920   -3.3000    0.0000 N   0  0  0  0  0  0  0  0  0  0  0  0
    0.0890   -2.1860    0.0000 C   0  0  0  0  0  0  0  0  0  0  0  0
    0.8390   -0.8870    0.0000 N   0  0  0  0  0  0  0  0  0  0  0  0
    2.3060   -1.1980    0.0000 C   0  0  0  0  0  0  0  0  0  0  0  0
  1  2  2  0  0  0  0
  2  3  1  0  0  0  0
  3  4  1  6  0  0  0
  3  5  1  0  0  0  0
  5  6  1  0  0  0  0
  6  7  1  0  0  0  0
  6 10  2  0  0  0  0
  7  8  1  0  0  0  0
  8  9  2  0  0  0  0
  9 10  1  0  0  0  0
M  END
>  <name>
O=[C;amide][C@@H]([N;amide])Cc1[nH]cnc1

>  <apo>
2

>  <freq>
4

>  <freq0>
0

>  <freq1>
4

>  <freqA>
3.9951959

>  <a_count>
19

$$$$

  MOE2015           2D

 11 11  0  0  0  0  0  0  0  0999 V2000
    0.8180    1.6530    0.0000 S   0  0  0  0  0  0  0  0  0  0  0  0
    1.5680    2.9520    0.0000 O   0  0  0  0  0  0  0  0  0  0  0  0
    1.5680    0.3540    0.0000 O   0  0  0  0  0  0  0  0  0  0  0  0
    3.0680    0.3540    0.0000 N   0  0  0  0  0  0  0  0  0  0  0  0
   -0.6820    1.6530    0.0000 C   0  0  0  0  0  0  0  0  0  0  0  0
   -1.4320    0.3540    0.0000 C   0  0  0  0  0  0  0  0  0  0  0  0
   -2.9320    0.3540    0.0000 C   0  0  0  0  0  0  0  0  0  0  0  0
   -3.6820    1.6530    0.0000 C   0  0  0  0  0  0  0  0  0  0  0  0
   -5.1820    1.6530    0.0000 N   0  0  0  0  0  0  0  0  0  0  0  0
   -2.9320    2.9520    0.0000 C   0  0  0  0  0  0  0  0  0  0  0  0
   -1.4320    2.9520    0.0000 C   0  0  0  0  0  0  0  0  0  0  0  0
  1  2  2  0  0  0  0
  1  3  1  0  0  0  0
  1  5  1  0  0  0  0
  3  4  1  0  0  0  0
  5  6  1  0  0  0  0
  5 11  2  0  0  0  0
  6  7  2  0  0  0  0
  7  8  1  0  0  0  0
  8  9  1  0  0  0  0
  8 10  2  0  0  0  0
 10 11  1  0  0  0  0
M  END
>  <name>
[SH0](=O)(ON)c1ccc([N;amide])cc1

>  <apo>
1

>  <freq>
4

>  <freq0>
0

>  <freq1>
4

>  <freqA>
3.9951959

>  <a_count>
19

$$$$

  MOE2015           2D

  7  6  0  0  1  0  0  0  0  0999 V2000
    5.3550   -0.7920    0.0000 O   0  0  0  0  0  0  0  0  0  0  0  0
    4.0560   -1.5420    0.0000 C   0  0  0  0  0  0  0  0  0  0  0  0
    2.7570   -0.7920    0.0000 C   0  0  2  0  0  0  0  0  0  0  0  0
    2.7570    0.7080    0.0000 N   0  0  0  0  0  0  0  0  0  0  0  0
    1.4580   -1.5420    0.0000 C   0  0  0  0  0  0  0  0  0  0  0  0
    1.4580   -3.0420    0.0000 C   0  0  0  0  0  0  0  0  0  0  0  0
    0.1590   -0.7920    0.0000 C   0  0  0  0  0  0  0  0  0  0  0  0
  1  2  2  0  0  0  0
  2  3  1  0  0  0  0
  3  4  1  1  0  0  0
  3  5  1  0  0  0  0
  5  6  1  0  0  0  0
  5  7  1  0  0  0  0
M  END
>  <name>
O=[C;amide][C@H]([N;amide])C(C)C

>  <apo>
2

>  <freq>
4

>  <freq0>
0

>  <freq1>
4

>  <freqA>
3.9951959

>  <a_count>
18

$$$$

  MOE2015           2D

 11 12  0  0  0  0  0  0  0  0999 V2000
    7.0780   -4.0870    0.0000 O   0  0  0  0  0  0  0  0  0  0  0  0
    6.3280   -2.7880    0.0000 C   0  0  0  0  0  0  0  0  0  0  0  0
    4.8280   -2.7880    0.0000 C   0  0  0  0  0  0  0  0  0  0  0  0
    3.9470   -4.0010    0.0000 N   0  0  0  0  0  0  0  0  0  0  0  0
    2.5200   -3.5380    0.0000 C   0  0  0  0  0  0  0  0  0  0  0  0
    2.5200   -2.0380    0.0000 C   0  0  0  0  0  0  0  0  0  0  0  0
    3.9470   -1.5740    0.0000 C   0  0  0  0  0  0  0  0  0  0  0  0
    1.2210   -1.2880    0.0000 C   0  0  0  0  0  0  0  0  0  0  0  0
   -0.0780   -2.0380    0.0000 C   0  0  0  0  0  0  0  0  0  0  0  0
   -0.0780   -3.5380    0.0000 C   0  0  0  0  0  0  0  0  0  0  0  0
    1.2210   -4.2880    0.0000 C   0  0  0  0  0  0  0  0  0  0  0  0
  1  2  2  0  0  0  0
  2  3  1  0  0  0  0
  3  4  1  0  0  0  0
  3  7  2  0  0  0  0
  4  5  1  0  0  0  0
  5  6  1  0  0  0  0
  5 11  2  0  0  0  0
  6  7  1  0  0  0  0
  6  8  2  0  0  0  0
  8  9  1  0  0  0  0
  9 10  2  0  0  0  0
 10 11  1  0  0  0  0
M  END
>  <name>
O=[C;amide]c1[nH]c2c(c1)cccc2

>  <apo>
1

>  <freq>
4

>  <freq0>
0

>  <freq1>
4

>  <freqA>
3.9951959

>  <a_count>
18

$$$$

  MOE2015           2D

 11 12  0  0  0  0  0  0  0  0999 V2000
    0.5190   -0.9000    0.0000 Br  0  0  0  0  0  0  0  0  0  0  0  0
    1.2690    0.3990    0.0000 C   0  0  0  0  0  0  0  0  0  0  0  0
    2.7690    0.3990    0.0000 C   0  0  0  0  0  0  0  0  0  0  0  0
    3.7730   -0.7150    0.0000 N   0  0  0  0  0  0  0  0  0  0  0  0
    5.1430   -0.1050    0.0000 C   0  0  0  0  0  0  0  0  0  0  0  0
    4.9870    1.3870    0.0000 C   0  0  0  0  0  0  0  0  0  0  0  0
    6.1010    2.3900    0.0000 S   0  0  0  0  0  0  0  0  0  0  0  0
    3.5190    1.6980    0.0000 C   0  0  0  0  0  0  0  0  0  0  0  0
    2.7690    2.9980    0.0000 C   0  0  0  0  0  0  0  0  0  0  0  0
    1.2690    2.9980    0.0000 C   0  0  0  0  0  0  0  0  0  0  0  0
    0.5190    1.6980    0.0000 C   0  0  0  0  0  0  0  0  0  0  0  0
  1  2  1  0  0  0  0
  2  3  1  0  0  0  0
  2 11  2  0  0  0  0
  3  4  1  0  0  0  0
  3  8  2  0  0  0  0
  4  5  1  0  0  0  0
  5  6  2  0  0  0  0
  6  7  1  0  0  0  0
  6  8  1  0  0  0  0
  8  9  1  0  0  0  0
  9 10  2  0  0  0  0
 10 11  1  0  0  0  0
M  END
>  <name>
Brc1c2[nH]cc([S;thioether])c2ccc1

>  <apo>
1

>  <freq>
4

>  <freq0>
0

>  <freq1>
4

>  <freqA>
3.9951959

>  <a_count>
17

$$$$

  MOE2015           2D

  5  4  0  0  0  0  0  0  0  0999 V2000
    0.1500   -0.0400    0.0000 C   0  0  0  0  0  0  0  0  0  0  0  0
    1.4490    0.7100    0.0000 C   0  0  0  0  0  0  0  0  0  0  0  0
    2.7480   -0.0400    0.0000 C   0  0  0  0  0  0  0  0  0  0  0  0
   -1.1490    0.7100    0.0000 C   0  0  0  0  0  0  0  0  0  0  0  0
   -2.4480   -0.0400    0.0000 C   0  0  0  0  0  0  0  0  0  0  0  0
  1  2  1  0  0  0  0
  1  4  1  0  0  0  0
  2  3  1  0  0  0  0
  4  5  1  0  0  0  0
M  END
>  <name>
C(C[C;amine])[C;amine]C

>  <apo>
2

>  <freq>
4

>  <freq0>
0

>  <freq1>
4

>  <freqA>
3.9951959

>  <a_count>
17

$$$$

  MOE2015           2D

 10 10  0  0  0  0  0  0  0  0999 V2000
   -0.3750    3.2480    0.0000 O   0  0  0  0  0  0  0  0  0  0  0  0
    0.3750    1.9490    0.0000 N   0  3  0  0  0  0  0  0  0  0  0  0
   -0.3750    0.6500    0.0000 O   0  5  0  0  0  0  0  0  0  0  0  0
    1.8750    1.9490    0.0000 C   0  0  0  0  0  0  0  0  0  0  0  0
    2.6250    0.6500    0.0000 C   0  0  0  0  0  0  0  0  0  0  0  0
    4.1250    0.6500    0.0000 C   0  0  0  0  0  0  0  0  0  0  0  0
    4.8750    1.9490    0.0000 C   0  0  0  0  0  0  0  0  0  0  0  0
    6.3750    1.9490    0.0000 C   0  0  0  0  0  0  0  0  0  0  0  0
    4.1250    3.2480    0.0000 C   0  0  0  0  0  0  0  0  0  0  0  0
    2.6250    3.2480    0.0000 C   0  0  0  0  0  0  0  0  0  0  0  0
  1  2  2  0  0  0  0
  2  3  1  0  0  0  0
  2  4  1  0  0  0  0
  4  5  1  0  0  0  0
  4 10  2  0  0  0  0
  5  6  2  0  0  0  0
  6  7  1  0  0  0  0
  7  8  1  0  0  0  0
  7  9  2  0  0  0  0
  9 10  1  0  0  0  0
M  CHG  1   2   1
M  CHG  1   3  -1
M  END
>  <name>
O=[N+]([O-])c1ccc([C;olefin])cc1

>  <apo>
1

>  <freq>
4

>  <freq0>
0

>  <freq1>
4

>  <freqA>
3.9951959

>  <a_count>
17

$$$$

  MOE2015           2D

  8  7  0  0  1  0  0  0  0  0999 V2000
    0.0090   -0.0320    0.0000 O   0  0  0  0  0  0  0  0  0  0  0  0
    1.3080    0.7180    0.0000 C   0  0  0  0  0  0  0  0  0  0  0  0
    1.3080    2.2180    0.0000 N   0  0  0  0  0  0  0  0  0  0  0  0
    2.6070   -0.0320    0.0000 C   0  0  0  0  0  0  0  0  0  0  0  0
    3.9060    0.7180    0.0000 C   0  0  2  0  0  0  0  0  0  0  0  0
    3.9060    2.2180    0.0000 N   0  0  0  0  0  0  0  0  0  0  0  0
    5.2050   -0.0320    0.0000 C   0  0  0  0  0  0  0  0  0  0  0  0
    6.5040    0.7180    0.0000 O   0  0  0  0  0  0  0  0  0  0  0  0
  1  2  2  0  0  0  0
  2  3  1  0  0  0  0
  2  4  1  0  0  0  0
  4  5  1  0  0  0  0
  5  6  1  6  0  0  0
  5  7  1  0  0  0  0
  7  8  2  0  0  0  0
M  END
>  <name>
O=C(N)C[C@H]([N;amide])[C;amide]=O

>  <apo>
2

>  <freq>
4

>  <freq0>
0

>  <freq1>
4

>  <freqA>
3.9951959

>  <a_count>
16

$$$$

  MOE2015           2D

  5  4  0  0  0  0  0  0  0  0999 V2000
    3.0000    0.0000    0.0000 N   0  0  0  0  0  0  0  0  0  0  0  0
    1.5000    0.0000    0.0000 C   0  0  0  0  0  0  0  0  0  0  0  0
    1.5000    1.5000    0.0000 C   0  0  0  0  0  0  0  0  0  0  0  0
    0.0000    0.0000    0.0000 C   0  0  0  0  0  0  0  0  0  0  0  0
    1.5000   -1.5000    0.0000 C   0  0  0  0  0  0  0  0  0  0  0  0
  1  2  1  0  0  0  0
  2  3  1  0  0  0  0
  2  4  1  0  0  0  0
  2  5  1  0  0  0  0
M  END
>  <name>
[N;amide]C(C)(C)C

>  <apo>
1

>  <freq>
4

>  <freq0>
0

>  <freq1>
4

>  <freqA>
3.9951959

>  <a_count>
16

$$$$

  MOE2015           2D

  8  8  0  0  0  0  0  0  0  0999 V2000
    0.0000    0.0000    0.0000 F   0  0  0  0  0  0  0  0  0  0  0  0
    1.5000    0.0000    0.0000 C   0  0  0  0  0  0  0  0  0  0  0  0
    2.2500   -1.2990    0.0000 C   0  0  0  0  0  0  0  0  0  0  0  0
    3.7500   -1.2990    0.0000 C   0  0  0  0  0  0  0  0  0  0  0  0
    4.5000    0.0000    0.0000 C   0  0  0  0  0  0  0  0  0  0  0  0
    6.0000    0.0000    0.0000 C   0  0  0  0  0  0  0  0  0  0  0  0
    3.7500    1.2990    0.0000 C   0  0  0  0  0  0  0  0  0  0  0  0
    2.2500    1.2990    0.0000 C   0  0  0  0  0  0  0  0  0  0  0  0
  1  2  1  0  0  0  0
  2  3  1  0  0  0  0
  2  8  2  0  0  0  0
  3  4  2  0  0  0  0
  4  5  1  0  0  0  0
  5  6  1  0  0  0  0
  5  7  2  0  0  0  0
  7  8  1  0  0  0  0
M  END
>  <name>
Fc1ccc([C;olefin])cc1

>  <apo>
1

>  <freq>
4

>  <freq0>
0

>  <freq1>
4

>  <freqA>
3.9951959

>  <a_count>
15

$$$$

  MOE2015           2D

  6  5  0  0  1  0  0  0  0  0999 V2000
   -0.3480   -1.2990    0.0000 O   0  0  0  0  0  0  0  0  0  0  0  0
    0.9510   -2.0490    0.0000 C   0  0  0  0  0  0  0  0  0  0  0  0
    2.2500   -1.2990    0.0000 C   0  0  1  0  0  0  0  0  0  0  0  0
    2.2500    0.2010    0.0000 N   0  0  0  0  0  0  0  0  0  0  0  0
    3.5490   -2.0490    0.0000 C   0  0  0  0  0  0  0  0  0  0  0  0
    4.8480   -1.2990    0.0000 C   0  0  0  0  0  0  0  0  0  0  0  0
  1  2  2  0  0  0  0
  2  3  1  0  0  0  0
  3  4  1  1  0  0  0
  3  5  1  0  0  0  0
  5  6  1  0  0  0  0
M  END
>  <name>
O=[C;amide][C@@H]([N;amide])CC

>  <apo>
2

>  <freq>
4

>  <freq0>
0

>  <freq1>
4

>  <freqA>
3.9951959

>  <a_count>
15

$$$$

  MOE2015           2D

  6  5  0  0  1  0  0  0  0  0999 V2000
   -0.3480   -1.2990    0.0000 O   0  0  0  0  0  0  0  0  0  0  0  0
    0.9510   -2.0490    0.0000 C   0  0  0  0  0  0  0  0  0  0  0  0
    2.2500   -1.2990    0.0000 C   0  0  1  0  0  0  0  0  0  0  0  0
    2.2500    0.2010    0.0000 N   0  0  0  0  0  0  0  0  0  0  0  0
    3.5490   -2.0490    0.0000 C   0  0  0  0  0  0  0  0  0  0  0  0
    4.8480   -1.2990    0.0000 C   0  0  0  0  0  0  0  0  0  0  0  0
  1  2  2  0  0  0  0
  2  3  1  0  0  0  0
  3  4  1  1  0  0  0
  3  5  1  0  0  0  0
  5  6  1  0  0  0  0
M  END
>  <name>
O=[C;amide][C@@H]([N;amide])C[C;thioether]

>  <apo>
3

>  <freq>
4

>  <freq0>
0

>  <freq1>
4

>  <freqA>
3.9951959

>  <a_count>
15

$$$$

  MOE2015           2D

  9  9  0  0  0  0  0  0  0  0999 V2000
    2.3330   -2.3330    0.0000 O   0  0  0  0  0  0  0  0  0  0  0  0
    2.3330   -0.8330    0.0000 C   0  0  0  0  0  0  0  0  0  0  0  0
    3.6320   -0.0830    0.0000 C   0  0  0  0  0  0  0  0  0  0  0  0
    4.9310   -0.8330    0.0000 O   0  0  0  0  0  0  0  0  0  0  0  0
    3.6320    1.4170    0.0000 C   0  0  0  0  0  0  0  0  0  0  0  0
    2.3330    2.1670    0.0000 C   0  0  0  0  0  0  0  0  0  0  0  0
    1.0340    1.4170    0.0000 C   0  0  0  0  0  0  0  0  0  0  0  0
    1.0340   -0.0830    0.0000 C   0  0  0  0  0  0  0  0  0  0  0  0
   -0.2650   -0.8330    0.0000 O   0  0  0  0  0  0  0  0  0  0  0  0
  1  2  1  0  0  0  0
  2  3  1  0  0  0  0
  2  8  2  0  0  0  0
  3  4  1  0  0  0  0
  3  5  2  0  0  0  0
  5  6  1  0  0  0  0
  6  7  2  0  0  0  0
  7  8  1  0  0  0  0
  8  9  1  0  0  0  0
M  END
>  <name>
Oc1c(O)c[c;biphenyl]cc1O

>  <apo>
1

>  <freq>
4

>  <freq0>
0

>  <freq1>
4

>  <freqA>
3.9951959

>  <a_count>
15

$$$$

  MOE2015           2D

  7  7  0  0  0  0  0  0  0  0999 V2000
    5.1430    0.0000    0.0000 C   0  0  0  0  0  0  0  0  0  0  0  0
    3.6430    0.0000    0.0000 C   0  0  0  0  0  0  0  0  0  0  0  0
    2.8930    1.2990    0.0000 C   0  0  0  0  0  0  0  0  0  0  0  0
    1.3930    1.2990    0.0000 C   0  0  0  0  0  0  0  0  0  0  0  0
    0.6430    0.0000    0.0000 C   0  0  0  0  0  0  0  0  0  0  0  0
    1.3930   -1.2990    0.0000 C   0  0  0  0  0  0  0  0  0  0  0  0
    2.8930   -1.2990    0.0000 C   0  0  0  0  0  0  0  0  0  0  0  0
  1  2  1  0  0  0  0
  2  3  1  0  0  0  0
  2  7  2  0  0  0  0
  3  4  2  0  0  0  0
  4  5  1  0  0  0  0
  5  6  2  0  0  0  0
  6  7  1  0  0  0  0
M  END
>  <name>
[C;olefin]c1ccccc1

>  <apo>
1

>  <freq>
4

>  <freq0>
0

>  <freq1>
4

>  <freqA>
3.9951959

>  <a_count>
15

$$$$

  MOE2015           2D

  9  9  0  0  0  0  0  0  0  0999 V2000
    5.0000    0.2890    0.0000 O   0  0  0  0  0  0  0  0  0  0  0  0
    4.2500    1.5880    0.0000 C   0  0  0  0  0  0  0  0  0  0  0  0
    5.0000    2.8870    0.0000 O   0  5  0  0  0  0  0  0  0  0  0  0
    2.7500    1.5880    0.0000 C   0  0  0  0  0  0  0  0  0  0  0  0
    2.0000    2.8870    0.0000 C   0  0  0  0  0  0  0  0  0  0  0  0
    0.5000    2.8870    0.0000 C   0  0  0  0  0  0  0  0  0  0  0  0
   -0.2500    1.5880    0.0000 C   0  0  0  0  0  0  0  0  0  0  0  0
    0.5000    0.2890    0.0000 C   0  0  0  0  0  0  0  0  0  0  0  0
    2.0000    0.2890    0.0000 C   0  0  0  0  0  0  0  0  0  0  0  0
  1  2  2  0  0  0  0
  2  3  1  0  0  0  0
  2  4  1  0  0  0  0
  4  5  1  0  0  0  0
  4  9  2  0  0  0  0
  5  6  2  0  0  0  0
  6  7  1  0  0  0  0
  7  8  2  0  0  0  0
  8  9  1  0  0  0  0
M  CHG  1   3  -1
M  END
>  <name>
O=C([O-])c1cc[c;biphenyl]cc1

>  <apo>
1

>  <freq>
4

>  <freq0>
0

>  <freq1>
4

>  <freqA>
3.9951959

>  <a_count>
14

$$$$

  MOE2015           2D

  6  5  0  0  1  0  0  0  0  0999 V2000
   -0.3480   -1.2990    0.0000 S   0  0  0  0  0  0  0  0  0  0  0  0
    0.9510   -2.0490    0.0000 C   0  0  0  0  0  0  0  0  0  0  0  0
    2.2500   -1.2990    0.0000 C   0  0  2  0  0  0  0  0  0  0  0  0
    2.2500    0.2010    0.0000 N   0  0  0  0  0  0  0  0  0  0  0  0
    3.5490   -2.0490    0.0000 C   0  0  0  0  0  0  0  0  0  0  0  0
    4.8480   -1.2990    0.0000 O   0  0  0  0  0  0  0  0  0  0  0  0
  1  2  1  0  0  0  0
  2  3  1  0  0  0  0
  3  4  1  6  0  0  0
  3  5  1  0  0  0  0
  5  6  2  0  0  0  0
M  END
>  <name>
SC[C@H]([N;amide])[C;amide]=O

>  <apo>
2

>  <freq>
4

>  <freq0>
0

>  <freq1>
4

>  <freqA>
3.9951959

>  <a_count>
13

$$$$

  MOE2015           2D

  6  5  0  0  1  0  0  0  0  0999 V2000
   -0.3480   -1.2990    0.0000 S   0  0  0  0  0  0  0  0  0  0  0  0
    0.9510   -2.0490    0.0000 C   0  0  0  0  0  0  0  0  0  0  0  0
    2.2500   -1.2990    0.0000 C   0  0  2  0  0  0  0  0  0  0  0  0
    2.2500    0.2010    0.0000 N   0  0  0  0  0  0  0  0  0  0  0  0
    3.5490   -2.0490    0.0000 C   0  0  0  0  0  0  0  0  0  0  0  0
    4.8480   -1.2990    0.0000 O   0  0  0  0  0  0  0  0  0  0  0  0
  1  2  1  0  0  0  0
  2  3  1  0  0  0  0
  3  4  1  6  0  0  0
  3  5  1  0  0  0  0
  5  6  2  0  0  0  0
M  END
>  <name>
[S;disulfide]C[C@H]([N;amide])[C;amide]=O

>  <apo>
3

>  <freq>
4

>  <freq0>
0

>  <freq1>
4

>  <freqA>
3.9951959

>  <a_count>
13

$$$$

  MOE2015           2D

  5  4  0  0  0  0  0  0  0  0999 V2000
   -0.9700    0.2600    0.0000 S   0  0  0  0  0  0  0  0  0  0  0  0
   -2.2690   -0.4900    0.0000 O   0  0  0  0  0  0  0  0  0  0  0  0
   -0.9700    1.7600    0.0000 O   0  0  0  0  0  0  0  0  0  0  0  0
    0.3290   -0.4900    0.0000 C   0  0  0  0  0  0  0  0  0  0  0  0
    1.6280    0.2600    0.0000 C   0  0  0  0  0  0  0  0  0  0  0  0
  1  2  2  0  0  0  0
  1  3  2  0  0  0  0
  1  4  1  0  0  0  0
  4  5  1  0  0  0  0
M  END
>  <name>
[SH;so2amide](=O)(=O)CC

>  <apo>
1

>  <freq>
4

>  <freq0>
0

>  <freq1>
4

>  <freqA>
3.9951959

>  <a_count>
11

$$$$

  MOE2015           2D

 22 24  0  0  1  0  0  0  0  0999 V2000
   -2.1750    6.0940    0.0000 O   0  0  0  0  0  0  0  0  0  0  0  0
   -2.2370    4.5960    0.0000 C   0  0  0  0  0  0  0  0  0  0  0  0
   -3.5660    3.9000    0.0000 C   0  0  0  0  0  0  0  0  0  0  0  0
   -0.9700    3.7930    0.0000 C   0  0  0  0  0  0  0  0  0  0  0  0
    0.3590    4.4880    0.0000 C   0  0  0  0  0  0  0  0  0  0  0  0
    0.4210    5.9870    0.0000 O   0  0  0  0  0  0  0  0  0  0  0  0
    1.6260    3.6850    0.0000 C   0  0  1  0  0  0  0  0  0  0  0  0
    1.7920    5.1760    0.0000 C   0  0  0  0  0  0  0  0  0  0  0  0
    3.0710    4.0900    0.0000 C   0  0  0  0  0  0  0  0  0  0  0  0
    3.7370    5.4340    0.0000 C   0  0  0  0  0  0  0  0  0  0  0  0
    2.9060    6.6820    0.0000 O   0  0  0  0  0  0  0  0  0  0  0  0
    5.2340    5.5290    0.0000 C   0  0  0  0  0  0  0  0  0  0  0  0
    5.9000    6.8730    0.0000 C   0  0  0  0  0  0  0  0  0  0  0  0
    6.0650    4.2800    0.0000 C   0  0  0  0  0  0  0  0  0  0  0  0
    7.5620    4.3750    0.0000 O   0  0  0  0  0  0  0  0  0  0  0  0
    5.3980    2.9360    0.0000 C   0  0  0  0  0  0  0  0  0  0  0  0
    3.9010    2.8410    0.0000 C   0  0  0  0  0  0  0  0  0  0  0  0
    2.9700    1.6650    0.0000 O   0  0  0  0  0  0  0  0  0  0  0  0
    1.5640    2.1870    0.0000 C   0  0  0  0  0  0  0  0  0  0  0  0
    0.2350    1.4910    0.0000 C   0  0  0  0  0  0  0  0  0  0  0  0
   -1.0320    2.2940    0.0000 C   0  0  0  0  0  0  0  0  0  0  0  0
   -2.3610    1.5980    0.0000 O   0  5  0  0  0  0  0  0  0  0  0  0
  1  2  2  0  0  0  0
  2  3  1  0  0  0  0
  2  4  1  0  0  0  0
  4  5  1  0  0  0  0
  4 21  2  0  0  0  0
  5  6  2  0  0  0  0
  5  7  1  0  0  0  0
  7  8  1  6  0  0  0
  7  9  1  0  0  0  0
  7 19  1  0  0  0  0
  9 10  2  0  0  0  0
  9 17  1  0  0  0  0
 10 11  1  0  0  0  0
 10 12  1  0  0  0  0
 12 13  1  0  0  0  0
 12 14  2  0  0  0  0
 14 15  1  0  0  0  0
 14 16  1  0  0  0  0
 16 17  2  0  0  0  0
 17 18  1  0  0  0  0
 18 19  1  0  0  0  0
 19 20  2  0  0  0  0
 20 21  1  0  0  0  0
 21 22  1  0  0  0  0
M  CHG  1  22  -1
M  END
>  <name>
O=C(C)C=1C(=O)[C@@]2(C)c3c(O)c(C)c(O)[c;biphenyl]c3OC2=CC=1[O-]

>  <apo>
1

>  <freq>
3

>  <freq0>
0

>  <freq1>
3

>  <freqA>
2.9954975

>  <a_count>
35

$$$$

  MOE2015           2D

 17 17  0  0  1  0  0  0  0  0999 V2000
    1.2980   -2.6730    0.0000 O   0  0  0  0  0  0  0  0  0  0  0  0
    1.2980   -1.1730    0.0000 C   0  0  0  0  0  0  0  0  0  0  0  0
    2.5970   -0.4230    0.0000 O   0  0  0  0  0  0  0  0  0  0  0  0
    3.8960   -1.1730    0.0000 C   0  0  0  0  0  0  0  0  0  0  0  0
    5.1950   -0.4230    0.0000 C   0  0  0  0  0  0  0  0  0  0  0  0
    5.1950    1.0770    0.0000 C   0  0  0  0  0  0  0  0  0  0  0  0
    6.4940    1.8270    0.0000 C   0  0  0  0  0  0  0  0  0  0  0  0
    7.7930    1.0770    0.0000 C   0  0  0  0  0  0  0  0  0  0  0  0
    7.7930   -0.4230    0.0000 C   0  0  0  0  0  0  0  0  0  0  0  0
    6.4940   -1.1730    0.0000 C   0  0  0  0  0  0  0  0  0  0  0  0
   -0.0010   -0.4230    0.0000 N   0  0  0  0  0  0  0  0  0  0  0  0
   -1.3010   -1.1730    0.0000 C   0  0  2  0  0  0  0  0  0  0  0  0
   -1.3010   -2.6730    0.0000 C   0  0  0  0  0  0  0  0  0  0  0  0
   -2.6000   -3.4230    0.0000 O   0  0  0  0  0  0  0  0  0  0  0  0
   -2.6000   -0.4230    0.0000 C   0  0  0  0  0  0  0  0  0  0  0  0
   -2.6000    1.0770    0.0000 C   0  0  0  0  0  0  0  0  0  0  0  0
   -3.8990   -1.1730    0.0000 C   0  0  0  0  0  0  0  0  0  0  0  0
  1  2  2  0  0  0  0
  2  3  1  0  0  0  0
  2 11  1  0  0  0  0
  3  4  1  0  0  0  0
  4  5  1  0  0  0  0
  5  6  1  0  0  0  0
  5 10  2  0  0  0  0
  6  7  2  0  0  0  0
  7  8  1  0  0  0  0
  8  9  2  0  0  0  0
  9 10  1  0  0  0  0
 12 11  1  6  0  0  0
 12 13  1  0  0  0  0
 12 15  1  0  0  0  0
 13 14  2  0  0  0  0
 15 16  1  0  0  0  0
 15 17  1  0  0  0  0
M  END
>  <name>
O=C(OCc1ccccc1)N[C@H]([C;amide]=O)C(C)C

>  <apo>
1

>  <freq>
3

>  <freq0>
0

>  <freq1>
3

>  <freqA>
2.9954975

>  <a_count>
34

$$$$

  MOE2015           2D

 16 17  0  0  1  0  0  0  0  0999 V2000
    2.6120    4.5250    0.0000 O   0  0  0  0  0  0  0  0  0  0  0  0
    3.3620    3.2260    0.0000 C   0  0  0  0  0  0  0  0  0  0  0  0
    2.6120    1.9270    0.0000 N   0  0  0  0  0  0  0  0  0  0  0  0
    1.1120    1.9270    0.0000 C   0  0  3  0  0  0  0  0  0  0  0  0
    0.3620    0.6280    0.0000 C   0  0  3  0  0  0  0  0  0  0  0  0
    1.6610   -0.1220    0.0000 O   0  0  0  0  0  0  0  0  0  0  0  0
    0.3620   -0.8720    0.0000 C   0  0  0  0  0  0  0  0  0  0  0  0
   -1.1380    0.6280    0.0000 C   0  0  0  0  0  0  0  0  0  0  0  0
   -1.8880    1.9270    0.0000 C   0  0  0  0  0  0  0  0  0  0  0  0
   -1.1380    3.2260    0.0000 N   0  0  0  0  0  0  0  0  0  0  0  0
    0.3620    3.2260    0.0000 C   0  0  0  0  0  0  0  0  0  0  0  0
    3.3620    0.6280    0.0000 C   0  0  0  0  0  0  0  0  0  0  0  0
    4.8620    0.6280    0.0000 C   0  0  0  0  0  0  0  0  0  0  0  0
    5.6120    1.9270    0.0000 C   0  0  0  0  0  0  0  0  0  0  0  0
    7.1120    1.9270    0.0000 O   0  0  0  0  0  0  0  0  0  0  0  0
    4.8620    3.2260    0.0000 N   0  0  0  0  0  0  0  0  0  0  0  0
  1  2  2  0  0  0  0
  2  3  1  0  0  0  0
  2 16  1  0  0  0  0
  3  4  1  0  0  0  0
  3 12  1  0  0  0  0
  4  5  1  0  0  0  0
  4 11  1  0  0  0  0
  5  6  1  0  0  0  0
  5  7  1  0  0  0  0
  5  8  1  0  0  0  0
  8  9  1  0  0  0  0
  9 10  1  0  0  0  0
 10 11  1  0  0  0  0
 12 13  2  0  0  0  0
 13 14  1  0  0  0  0
 14 15  2  0  0  0  0
 14 16  1  0  0  0  0
M  END
>  <name>
O=C1N(C2C(O)(C)CC[N;amide]C2)C=CC(=O)N1

>  <apo>
1

>  <freq>
3

>  <freq0>
0

>  <freq1>
3

>  <freqA>
2.9954975

>  <a_count>
31

$$$$

  MOE2015           2D

 13 13  0  0  0  0  0  0  0  0999 V2000
   10.0380   -2.5980    0.0000 N   0  3  0  0  0  0  0  0  0  0  0  0
    8.5380   -2.5980    0.0000 C   0  0  0  0  0  0  0  0  0  0  0  0
    7.7880   -1.2990    0.0000 C   0  0  0  0  0  0  0  0  0  0  0  0
    6.2880   -1.2990    0.0000 C   0  0  0  0  0  0  0  0  0  0  0  0
    5.5380    0.0000    0.0000 C   0  0  0  0  0  0  0  0  0  0  0  0
    6.2880    1.2990    0.0000 N   0  0  0  0  0  0  0  0  0  0  0  0
    4.0380    0.0000    0.0000 C   0  0  0  0  0  0  0  0  0  0  0  0
    3.2880   -1.2990    0.0000 C   0  0  0  0  0  0  0  0  0  0  0  0
    1.7880   -1.2990    0.0000 N   0  0  0  0  0  0  0  0  0  0  0  0
    1.0380   -2.5980    0.0000 C   0  0  0  0  0  0  0  0  0  0  0  0
    1.0380    0.0000    0.0000 C   0  0  0  0  0  0  0  0  0  0  0  0
    4.0380   -2.5980    0.0000 C   0  0  0  0  0  0  0  0  0  0  0  0
    5.5380   -2.5980    0.0000 C   0  0  0  0  0  0  0  0  0  0  0  0
  1  2  1  0  0  0  0
  2  3  1  0  0  0  0
  3  4  1  0  0  0  0
  4  5  1  0  0  0  0
  4 13  2  0  0  0  0
  5  6  1  0  0  0  0
  5  7  2  0  0  0  0
  7  8  1  0  0  0  0
  8  9  1  0  0  0  0
  8 12  2  0  0  0  0
  9 10  1  0  0  0  0
  9 11  1  0  0  0  0
 12 13  1  0  0  0  0
M  CHG  1   1   1
M  END
>  <name>
[N+]CCc1c([N;amide])cc(N(C)C)cc1

>  <apo>
1

>  <freq>
3

>  <freq0>
0

>  <freq1>
3

>  <freqA>
2.9954975

>  <a_count>
31

$$$$

  MOE2015           2D

 19 21  0  0  0  0  0  0  0  0999 V2000
    2.2280    3.8590    0.0000 O   0  0  0  0  0  0  0  0  0  0  0  0
    2.9780    2.5600    0.0000 C   0  0  0  0  0  0  0  0  0  0  0  0
    0.7280    3.8590    0.0000 C   0  0  0  0  0  0  0  0  0  0  0  0
   -0.0220    5.1580    0.0000 C   0  0  0  0  0  0  0  0  0  0  0  0
   -1.5220    5.1580    0.0000 C   0  0  0  0  0  0  0  0  0  0  0  0
   -2.5250    6.2730    0.0000 C   0  0  0  0  0  0  0  0  0  0  0  0
   -2.2140    7.7400    0.0000 O   0  0  0  0  0  0  0  0  0  0  0  0
   -3.8960    5.6630    0.0000 C   0  0  0  0  0  0  0  0  0  0  0  0
   -5.1950    6.4130    0.0000 O   0  0  0  0  0  0  0  0  0  0  0  0
   -3.7390    4.1710    0.0000 N   0  0  0  0  0  0  0  0  0  0  0  0
   -4.8540    3.1680    0.0000 C   0  0  0  0  0  0  0  0  0  0  0  0
   -6.2800    3.6310    0.0000 C   0  0  0  0  0  0  0  0  0  0  0  0
   -6.7440    5.0580    0.0000 N   0  0  0  0  0  0  0  0  0  0  0  0
   -8.2440    5.0580    0.0000 N   0  0  0  0  0  0  0  0  0  0  0  0
   -8.7070    3.6310    0.0000 N   0  0  0  0  0  0  0  0  0  0  0  0
   -7.4940    2.7490    0.0000 C   0  0  0  0  0  0  0  0  0  0  0  0
   -2.2720    3.8590    0.0000 C   0  0  0  0  0  0  0  0  0  0  0  0
   -1.5220    2.5600    0.0000 C   0  0  0  0  0  0  0  0  0  0  0  0
   -0.0220    2.5600    0.0000 C   0  0  0  0  0  0  0  0  0  0  0  0
  1  2  1  0  0  0  0
  1  3  1  0  0  0  0
  3  4  1  0  0  0  0
  3 19  2  0  0  0  0
  4  5  2  0  0  0  0
  5  6  1  0  0  0  0
  5 17  1  0  0  0  0
  6  7  2  0  0  0  0
  6  8  1  0  0  0  0
  8  9  2  0  0  0  0
  8 10  1  0  0  0  0
 10 11  1  0  0  0  0
 10 17  1  0  0  0  0
 11 12  1  0  0  0  0
 12 13  1  0  0  0  0
 12 16  2  0  0  0  0
 13 14  2  0  0  0  0
 14 15  1  0  0  0  0
 15 16  1  0  0  0  0
 17 18  2  0  0  0  0
 18 19  1  0  0  0  0
M  END
>  <name>
O(C)c1cc2C(=O)C(=O)N(Cc3nn[nH;NaroC]c3)c2cc1

>  <apo>
1

>  <freq>
3

>  <freq0>
0

>  <freq1>
3

>  <freqA>
2.9954975

>  <a_count>
29

$$$$

  MOE2015           2D

 11 10  0  0  1  0  0  0  0  0999 V2000
   10.0870   -2.0210    0.0000 O   0  0  0  0  0  0  0  0  0  0  0  0
    8.7880   -2.7710    0.0000 C   0  0  0  0  0  0  0  0  0  0  0  0
    7.4890   -2.0210    0.0000 C   0  0  1  0  0  0  0  0  0  0  0  0
    7.4890   -0.5210    0.0000 N   0  0  0  0  0  0  0  0  0  0  0  0
    6.1900   -2.7710    0.0000 C   0  0  0  0  0  0  0  0  0  0  0  0
    4.8910   -2.0210    0.0000 C   0  0  0  0  0  0  0  0  0  0  0  0
    3.5920   -2.7710    0.0000 C   0  0  0  0  0  0  0  0  0  0  0  0
    2.2930   -2.0210    0.0000 N   0  3  0  0  0  0  0  0  0  0  0  0
    0.9940   -2.7710    0.0000 C   0  0  0  0  0  0  0  0  0  0  0  0
    0.9940   -4.2710    0.0000 N   0  0  0  0  0  0  0  0  0  0  0  0
   -0.3050   -2.0210    0.0000 N   0  0  0  0  0  0  0  0  0  0  0  0
  1  2  2  0  0  0  0
  2  3  1  0  0  0  0
  3  4  1  6  0  0  0
  3  5  1  0  0  0  0
  5  6  1  0  0  0  0
  6  7  1  0  0  0  0
  7  8  1  0  0  0  0
  8  9  2  0  0  0  0
  9 10  1  0  0  0  0
  9 11  1  0  0  0  0
M  CHG  1   8   1
M  END
>  <name>
O=[C;amide][C@@H]([N;amide])CCC/[N+]=C(\N)/N

>  <apo>
2

>  <freq>
3

>  <freq0>
0

>  <freq1>
3

>  <freqA>
2.9954975

>  <a_count>
26

$$$$

  MOE2015           2D

 17 19  0  0  0  0  0  0  0  0999 V2000
    8.9250    5.1530    0.0000 O   0  0  0  0  0  0  0  0  0  0  0  0
    8.1750    3.8540    0.0000 C   0  0  0  0  0  0  0  0  0  0  0  0
    6.6750    3.8540    0.0000 C   0  0  0  0  0  0  0  0  0  0  0  0
    5.7930    2.6400    0.0000 N   0  0  0  0  0  0  0  0  0  0  0  0
    6.2560    1.2130    0.0000 C   0  0  0  0  0  0  0  0  0  0  0  0
    4.3660    3.1040    0.0000 C   0  0  0  0  0  0  0  0  0  0  0  0
    3.0670    2.3540    0.0000 N   0  0  0  0  0  0  0  0  0  0  0  0
    1.7680    3.1040    0.0000 C   0  0  0  0  0  0  0  0  0  0  0  0
    1.7680    4.6040    0.0000 N   0  0  0  0  0  0  0  0  0  0  0  0
    3.0670    5.3540    0.0000 C   0  0  0  0  0  0  0  0  0  0  0  0
    3.0670    6.8540    0.0000 O   0  0  0  0  0  0  0  0  0  0  0  0
    4.3660    4.6040    0.0000 C   0  0  0  0  0  0  0  0  0  0  0  0
    5.7930    5.0670    0.0000 C   0  0  0  0  0  0  0  0  0  0  0  0
    0.4690    5.3540    0.0000 C   0  0  0  0  0  0  0  0  0  0  0  0
   -0.8300    4.6040    0.0000 C   0  0  0  0  0  0  0  0  0  0  0  0
   -0.8300    3.1040    0.0000 C   0  0  0  0  0  0  0  0  0  0  0  0
    0.4690    2.3540    0.0000 C   0  0  0  0  0  0  0  0  0  0  0  0
  1  2  2  0  0  0  0
  2  3  1  0  0  0  0
  3  4  1  0  0  0  0
  3 13  2  0  0  0  0
  4  5  1  0  0  0  0
  4  6  1  0  0  0  0
  6  7  1  0  0  0  0
  6 12  2  0  0  0  0
  7  8  2  0  0  0  0
  8  9  1  0  0  0  0
  8 17  1  0  0  0  0
  9 10  1  0  0  0  0
  9 14  1  0  0  0  0
 10 11  2  0  0  0  0
 10 12  1  0  0  0  0
 12 13  1  0  0  0  0
 14 15  2  0  0  0  0
 15 16  1  0  0  0  0
 16 17  2  0  0  0  0
M  END
>  <name>
O=[C;amide]c1n(C)c2N=C3N(C(=O)c2c1)C=CC=C3

>  <apo>
1

>  <freq>
3

>  <freq0>
0

>  <freq1>
3

>  <freqA>
2.9954975

>  <a_count>
26

$$$$

  MOE2015           2D

 17 19  0  0  0  0  0  0  0  0999 V2000
    3.5620    0.9540    0.0000 O   0  0  0  0  0  0  0  0  0  0  0  0
    2.2630    0.2040    0.0000 C   0  0  0  0  0  0  0  0  0  0  0  0
    2.1060   -1.2870    0.0000 N   0  0  0  0  0  0  0  0  0  0  0  0
    3.2210   -2.2910    0.0000 C   0  0  0  0  0  0  0  0  0  0  0  0
    4.6470   -1.8280    0.0000 C   0  0  0  0  0  0  0  0  0  0  0  0
    5.8610   -2.7090    0.0000 N   0  0  0  0  0  0  0  0  0  0  0  0
    7.0740   -1.8280    0.0000 N   0  0  0  0  0  0  0  0  0  0  0  0
    6.6110   -0.4010    0.0000 N   0  0  0  0  0  0  0  0  0  0  0  0
    5.1110   -0.4010    0.0000 C   0  0  0  0  0  0  0  0  0  0  0  0
    0.6390   -1.5990    0.0000 C   0  0  0  0  0  0  0  0  0  0  0  0
   -0.1110   -0.3000    0.0000 C   0  0  0  0  0  0  0  0  0  0  0  0
    0.8920    0.8140    0.0000 C   0  0  0  0  0  0  0  0  0  0  0  0
    0.5800    2.2820    0.0000 O   0  0  0  0  0  0  0  0  0  0  0  0
   -1.6110   -0.3000    0.0000 C   0  0  0  0  0  0  0  0  0  0  0  0
   -2.3610   -1.5990    0.0000 C   0  0  0  0  0  0  0  0  0  0  0  0
   -1.6110   -2.8980    0.0000 C   0  0  0  0  0  0  0  0  0  0  0  0
   -0.1110   -2.8980    0.0000 C   0  0  0  0  0  0  0  0  0  0  0  0
  1  2  2  0  0  0  0
  2  3  1  0  0  0  0
  2 12  1  0  0  0  0
  3  4  1  0  0  0  0
  3 10  1  0  0  0  0
  4  5  1  0  0  0  0
  5  6  1  0  0  0  0
  5  9  2  0  0  0  0
  6  7  2  0  0  0  0
  7  8  1  0  0  0  0
  8  9  1  0  0  0  0
 10 11  1  0  0  0  0
 10 17  2  0  0  0  0
 11 12  1  0  0  0  0
 11 14  2  0  0  0  0
 12 13  2  0  0  0  0
 14 15  1  0  0  0  0
 15 16  2  0  0  0  0
 16 17  1  0  0  0  0
M  END
>  <name>
O=C1N(Cc2nn[nH;NaroC]c2)c2c(C1=O)cccc2

>  <apo>
1

>  <freq>
3

>  <freq0>
0

>  <freq1>
3

>  <freqA>
2.9954975

>  <a_count>
25

$$$$

  MOE2015           2D

 10 10  0  0  1  0  0  0  0  0999 V2000
    0.5560    3.6910    0.0000 O   0  0  0  0  0  0  0  0  0  0  0  0
    0.8680    2.2230    0.0000 C   0  0  0  0  0  0  0  0  0  0  0  0
    2.2380    1.6130    0.0000 C   0  0  2  0  0  0  0  0  0  0  0  0
    3.5370    2.3630    0.0000 C   0  0  0  0  0  0  0  0  0  0  0  0
    4.8360    1.6130    0.0000 C   0  0  1  0  0  0  0  0  0  0  0  0
    4.8360    0.1130    0.0000 N   0  0  0  0  0  0  0  0  0  0  0  0
    6.1350    2.3630    0.0000 C   0  0  0  0  0  0  0  0  0  0  0  0
    2.0810    0.1210    0.0000 C   0  0  0  0  0  0  0  0  0  0  0  0
    0.6140   -0.1900    0.0000 C   0  0  0  0  0  0  0  0  0  0  0  0
   -0.1360    1.1090    0.0000 N   0  0  0  0  0  0  0  0  0  0  0  0
  1  2  2  0  0  0  0
  2  3  1  0  0  0  0
  2 10  1  0  0  0  0
  3  4  1  6  0  0  0
  3  8  1  0  0  0  0
  4  5  1  0  0  0  0
  5  6  1  6  0  0  0
  5  7  1  0  0  0  0
  8  9  1  0  0  0  0
  9 10  1  0  0  0  0
M  END
>  <name>
O=C1[C@H](C[C@@H]([N;amide])[C;olefin])CCN1

>  <apo>
2

>  <freq>
3

>  <freq0>
0

>  <freq1>
3

>  <freqA>
2.9954975

>  <a_count>
24

$$$$

  MOE2015           2D

 14 14  0  0  1  0  0  0  0  0999 V2000
    7.1490    1.1110    0.0000 O   0  0  0  0  0  0  0  0  0  0  0  0
    6.3870    2.4030    0.0000 C   0  0  0  0  0  0  0  0  0  0  0  0
    7.1250    3.7090    0.0000 O   0  5  0  0  0  0  0  0  0  0  0  0
    4.8870    2.3890    0.0000 C   0  0  2  0  0  0  0  0  0  0  0  0
    4.9010    0.8890    0.0000 N   0  0  0  0  0  0  0  0  0  0  0  0
    4.8730    3.8890    0.0000 C   0  0  0  0  0  0  0  0  0  0  0  0
    3.3870    2.3750    0.0000 C   0  0  0  0  0  0  0  0  0  0  0  0
    2.5160    1.1540    0.0000 O   0  0  0  0  0  0  0  0  0  0  0  0
    1.0860    1.6040    0.0000 C   0  0  0  0  0  0  0  0  0  0  0  0
   -0.1200    0.7110    0.0000 C   0  0  0  0  0  0  0  0  0  0  0  0
    1.0720    3.1040    0.0000 C   0  0  0  0  0  0  0  0  0  0  0  0
   -0.1500    3.9740    0.0000 C   0  0  0  0  0  0  0  0  0  0  0  0
   -0.0070    5.4670    0.0000 O   0  0  0  0  0  0  0  0  0  0  0  0
    2.4940    3.5810    0.0000 N   0  0  0  0  0  0  0  0  0  0  0  0
  1  2  2  0  0  0  0
  2  3  1  0  0  0  0
  4  2  1  1  0  0  0
  4  5  1  0  0  0  0
  4  6  1  6  0  0  0
  4  7  1  0  0  0  0
  7  8  1  0  0  0  0
  7 14  2  0  0  0  0
  8  9  1  0  0  0  0
  9 10  1  0  0  0  0
  9 11  2  0  0  0  0
 11 12  1  0  0  0  0
 11 14  1  0  0  0  0
 12 13  2  0  0  0  0
M  CHG  1   3  -1
M  END
>  <name>
O=C([O-])[C@]([N;amide])(C)c1oc(C)c([C;amide]=O)n1

>  <apo>
2

>  <freq>
3

>  <freq0>
0

>  <freq1>
3

>  <freqA>
2.9954975

>  <a_count>
23

$$$$

  MOE2015           2D

 10 11  0  0  1  0  0  0  0  0999 V2000
    7.1600    1.4950    0.0000 O   0  0  0  0  0  0  0  0  0  0  0  0
    5.7850    0.8940    0.0000 C   0  0  0  0  0  0  0  0  0  0  0  0
    4.5780    1.7850    0.0000 C   0  0  1  0  0  0  0  0  0  0  0  0
    4.5890    3.2850    0.0000 N   0  0  0  0  0  0  0  0  0  0  0  0
    3.1650    3.7590    0.0000 C   0  0  0  0  0  0  0  0  0  0  0  0
    2.2740    2.5520    0.0000 C   0  0  2  0  0  0  0  0  0  0  0  0
    1.6540    1.1860    0.0000 C   0  0  0  0  0  0  0  0  0  0  0  0
    0.1550    1.1540    0.0000 C   0  0  0  0  0  0  0  0  0  0  0  0
    1.2650   -0.2630    0.0000 C   0  0  0  0  0  0  0  0  0  0  0  0
    3.1470    1.3320    0.0000 C   0  0  2  0  0  0  0  0  0  0  0  0
  1  2  2  0  0  0  0
  3  2  1  6  0  0  0
  3  4  1  0  0  0  0
  3 10  1  0  0  0  0
  4  5  1  0  0  0  0
  6  5  1  1  0  0  0
  6  7  1  0  0  0  0
  6 10  1  0  0  0  0
  7  8  1  0  0  0  0
  7  9  1  0  0  0  0
 10  7  1  1  0  0  0
M  END
>  <name>
O=[C;amide][C@H]1[N;amide]C[C@@H]2C(C)(C)[C@H]12

>  <apo>
2

>  <freq>
3

>  <freq0>
0

>  <freq1>
3

>  <freqA>
2.9954975

>  <a_count>
23

$$$$

  MOE2015           2D

 13 13  0  0  1  0  0  0  0  0999 V2000
    7.5250    4.2930    0.0000 O   0  0  0  0  0  0  0  0  0  0  0  0
    6.7620    3.0010    0.0000 C   0  0  0  0  0  0  0  0  0  0  0  0
    5.2620    3.0170    0.0000 C   0  0  2  0  0  0  0  0  0  0  0  0
    5.2780    4.5170    0.0000 N   0  0  0  0  0  0  0  0  0  0  0  0
    5.2460    1.5170    0.0000 C   0  0  0  0  0  0  0  0  0  0  0  0
    3.7620    3.0330    0.0000 C   0  0  0  0  0  0  0  0  0  0  0  0
    2.8930    4.2550    0.0000 O   0  0  0  0  0  0  0  0  0  0  0  0
    1.4620    3.8070    0.0000 C   0  0  0  0  0  0  0  0  0  0  0  0
    0.2570    4.7010    0.0000 C   0  0  0  0  0  0  0  0  0  0  0  0
    1.4460    2.3070    0.0000 C   0  0  0  0  0  0  0  0  0  0  0  0
    0.2230    1.4380    0.0000 C   0  0  0  0  0  0  0  0  0  0  0  0
    0.3650   -0.0550    0.0000 O   0  0  0  0  0  0  0  0  0  0  0  0
    2.8680    1.8280    0.0000 N   0  0  0  0  0  0  0  0  0  0  0  0
  1  2  2  0  0  0  0
  3  2  1  6  0  0  0
  3  4  1  1  0  0  0
  3  5  1  0  0  0  0
  3  6  1  0  0  0  0
  6  7  1  0  0  0  0
  6 13  2  0  0  0  0
  7  8  1  0  0  0  0
  8  9  1  0  0  0  0
  8 10  2  0  0  0  0
 10 11  1  0  0  0  0
 10 13  1  0  0  0  0
 11 12  2  0  0  0  0
M  END
>  <name>
O=[C;ester][C@]([N;amide])(C)c1oc(C)c([C;amide]=O)n1

>  <apo>
3

>  <freq>
3

>  <freq0>
0

>  <freq1>
3

>  <freqA>
2.9954975

>  <a_count>
23

$$$$

  MOE2015           2D

  9  8  0  0  1  0  0  0  0  0999 V2000
   -0.3420   -1.2770    0.0000 O   0  0  0  0  0  0  0  0  0  0  0  0
    0.9570   -2.0270    0.0000 B   0  0  0  0  0  0  0  0  0  0  0  0
    0.9570   -3.5270    0.0000 O   0  0  0  0  0  0  0  0  0  0  0  0
    2.2560   -1.2770    0.0000 C   0  0  1  0  0  0  0  0  0  0  0  0
    2.2560    0.2230    0.0000 N   0  0  0  0  0  0  0  0  0  0  0  0
    3.5550   -2.0270    0.0000 C   0  0  0  0  0  0  0  0  0  0  0  0
    4.8540   -1.2770    0.0000 C   0  0  0  0  0  0  0  0  0  0  0  0
    6.1530   -2.0270    0.0000 C   0  0  0  0  0  0  0  0  0  0  0  0
    4.8540    0.2230    0.0000 C   0  0  0  0  0  0  0  0  0  0  0  0
  1  2  1  0  0  0  0
  2  3  1  0  0  0  0
  2  4  1  0  0  0  0
  4  5  1  1  0  0  0
  4  6  1  0  0  0  0
  6  7  1  0  0  0  0
  7  8  1  0  0  0  0
  7  9  1  0  0  0  0
M  END
>  <name>
OB(O)[C@@H]([N;amide])CC(C)C

>  <apo>
1

>  <freq>
3

>  <freq0>
0

>  <freq1>
3

>  <freqA>
2.9954975

>  <a_count>
23

$$$$

  MOE2015           2D

  9  9  0  0  0  0  0  0  0  0999 V2000
    9.0840    0.0000    0.0000 N   0  0  0  0  0  0  0  0  0  0  0  0
    7.5840    0.0000    0.0000 C   0  0  0  0  0  0  0  0  0  0  0  0
    6.0840    0.0000    0.0000 C   0  0  0  0  0  0  0  0  0  0  0  0
    5.3340   -1.2990    0.0000 C   0  0  0  0  0  0  0  0  0  0  0  0
    3.8340   -1.2990    0.0000 C   0  0  0  0  0  0  0  0  0  0  0  0
    2.9530   -0.0860    0.0000 C   0  0  0  0  0  0  0  0  0  0  0  0
    1.5260   -0.5490    0.0000 C   0  0  0  0  0  0  0  0  0  0  0  0
    1.5260   -2.0490    0.0000 C   0  0  0  0  0  0  0  0  0  0  0  0
    2.9530   -2.5130    0.0000 C   0  0  0  0  0  0  0  0  0  0  0  0
  1  2  3  0  0  0  0
  2  3  1  0  0  0  0
  3  4  1  0  0  0  0
  4  5  1  0  0  0  0
  5  6  1  0  0  0  0
  5  9  1  0  0  0  0
  6  7  1  0  0  0  0
  7  8  1  0  0  0  0
  8  9  1  0  0  0  0
M  END
>  <name>
N#CC[C;NaroC]C1CCCC1

>  <apo>
1

>  <freq>
3

>  <freq0>
0

>  <freq1>
3

>  <freqA>
2.9954975

>  <a_count>
22

$$$$

  MOE2015           2D

 13 14  0  0  0  0  0  0  0  0999 V2000
    8.3810   -3.6860    0.0000 O   0  0  0  0  0  0  0  0  0  0  0  0
    7.0820   -4.4360    0.0000 C   0  0  0  0  0  0  0  0  0  0  0  0
    5.7830   -3.6860    0.0000 C   0  0  0  0  0  0  0  0  0  0  0  0
    5.6260   -2.1950    0.0000 N   0  0  0  0  0  0  0  0  0  0  0  0
    4.1590   -1.8830    0.0000 C   0  0  0  0  0  0  0  0  0  0  0  0
    3.4090   -3.1820    0.0000 C   0  0  0  0  0  0  0  0  0  0  0  0
    1.9090   -3.1820    0.0000 C   0  0  0  0  0  0  0  0  0  0  0  0
    1.1590   -4.4810    0.0000 O   0  0  0  0  0  0  0  0  0  0  0  0
   -0.3410   -4.4810    0.0000 C   0  0  0  0  0  0  0  0  0  0  0  0
    1.1590   -1.8830    0.0000 C   0  0  0  0  0  0  0  0  0  0  0  0
    1.9090   -0.5840    0.0000 C   0  0  0  0  0  0  0  0  0  0  0  0
    3.4090   -0.5840    0.0000 C   0  0  0  0  0  0  0  0  0  0  0  0
    4.4130   -4.2970    0.0000 C   0  0  0  0  0  0  0  0  0  0  0  0
  1  2  2  0  0  0  0
  2  3  1  0  0  0  0
  3  4  1  0  0  0  0
  3 13  2  0  0  0  0
  4  5  1  0  0  0  0
  5  6  1  0  0  0  0
  5 12  2  0  0  0  0
  6  7  2  0  0  0  0
  6 13  1  0  0  0  0
  7  8  1  0  0  0  0
  7 10  1  0  0  0  0
  8  9  1  0  0  0  0
 10 11  2  0  0  0  0
 11 12  1  0  0  0  0
M  END
>  <name>
O=[C;amide]c1[nH]c2c(c(OC)ccc2)c1

>  <apo>
1

>  <freq>
3

>  <freq0>
0

>  <freq1>
3

>  <freqA>
2.9954975

>  <a_count>
22

$$$$

  MOE2015           2D

 10 10  0  0  0  0  0  0  0  0999 V2000
   -3.0000    0.0000    0.0000 O   0  0  0  0  0  0  0  0  0  0  0  0
   -4.5000    0.0000    0.0000 C   0  0  0  0  0  0  0  0  0  0  0  0
   -2.2500    1.2990    0.0000 C   0  0  0  0  0  0  0  0  0  0  0  0
   -0.7500    1.2990    0.0000 C   0  0  0  0  0  0  0  0  0  0  0  0
    0.0000    0.0000    0.0000 O   0  0  0  0  0  0  0  0  0  0  0  0
    1.5000    0.0000    0.0000 C   0  0  0  0  0  0  0  0  0  0  0  0
    0.0000    2.5980    0.0000 C   0  0  0  0  0  0  0  0  0  0  0  0
   -0.7500    3.8970    0.0000 C   0  0  0  0  0  0  0  0  0  0  0  0
   -2.2500    3.8970    0.0000 C   0  0  0  0  0  0  0  0  0  0  0  0
   -3.0000    2.5980    0.0000 C   0  0  0  0  0  0  0  0  0  0  0  0
  1  2  1  0  0  0  0
  1  3  1  0  0  0  0
  3  4  1  0  0  0  0
  3 10  2  0  0  0  0
  4  5  1  0  0  0  0
  4  7  2  0  0  0  0
  5  6  1  0  0  0  0
  7  8  1  0  0  0  0
  8  9  2  0  0  0  0
  9 10  1  0  0  0  0
M  END
>  <name>
O(C)c1c(OC)c[c;biphenyl]cc1

>  <apo>
1

>  <freq>
3

>  <freq0>
0

>  <freq1>
3

>  <freqA>
2.9954975

>  <a_count>
20

$$$$

  MOE2015           2D

  9  9  0  0  0  0  0  0  0  0999 V2000
    4.5000    2.5980    0.0000 N   0  0  0  0  0  0  0  0  0  0  0  0
    3.7500    1.2990    0.0000 C   0  0  0  0  0  0  0  0  0  0  0  0
    2.2500    1.2990    0.0000 C   0  0  0  0  0  0  0  0  0  0  0  0
    1.5000    0.0000    0.0000 C   0  0  0  0  0  0  0  0  0  0  0  0
    0.0000    0.0000    0.0000 C   0  0  0  0  0  0  0  0  0  0  0  0
   -0.7500    1.2990    0.0000 C   0  0  0  0  0  0  0  0  0  0  0  0
    0.0000    2.5980    0.0000 C   0  0  0  0  0  0  0  0  0  0  0  0
    1.5000    2.5980    0.0000 C   0  0  0  0  0  0  0  0  0  0  0  0
    6.0000    2.5980    0.0000 C   0  0  0  0  0  0  0  0  0  0  0  0
  1  2  1  0  0  0  0
  1  9  1  0  0  0  0
  2  3  1  0  0  0  0
  3  4  1  0  0  0  0
  3  8  2  0  0  0  0
  4  5  2  0  0  0  0
  5  6  1  0  0  0  0
  6  7  2  0  0  0  0
  7  8  1  0  0  0  0
M  END
>  <name>
[N;amide](Cc1ccccc1)C

>  <apo>
1

>  <freq>
3

>  <freq0>
0

>  <freq1>
3

>  <freqA>
2.9954975

>  <a_count>
20

$$$$

  MOE2015           2D

 13 14  0  0  0  0  0  0  0  0999 V2000
    3.7170    1.4130    0.0000 F   0  0  0  0  0  0  0  0  0  0  0  0
    3.7170    2.9130    0.0000 C   0  0  0  0  0  0  0  0  0  0  0  0
    5.2170    2.9130    0.0000 F   0  0  0  0  0  0  0  0  0  0  0  0
    3.7170    4.4130    0.0000 F   0  0  0  0  0  0  0  0  0  0  0  0
    2.2170    2.9130    0.0000 C   0  0  0  0  0  0  0  0  0  0  0  0
    1.4670    1.6140    0.0000 C   0  0  0  0  0  0  0  0  0  0  0  0
   -0.0330    1.6140    0.0000 C   0  0  0  0  0  0  0  0  0  0  0  0
   -1.0370    0.5000    0.0000 N   0  0  0  0  0  0  0  0  0  0  0  0
   -2.4070    1.1100    0.0000 C   0  0  0  0  0  0  0  0  0  0  0  0
   -2.2510    2.6020    0.0000 C   0  0  0  0  0  0  0  0  0  0  0  0
   -0.7830    2.9130    0.0000 C   0  0  0  0  0  0  0  0  0  0  0  0
   -0.0330    4.2120    0.0000 C   0  0  0  0  0  0  0  0  0  0  0  0
    1.4670    4.2120    0.0000 C   0  0  0  0  0  0  0  0  0  0  0  0
  1  2  1  0  0  0  0
  2  3  1  0  0  0  0
  2  4  1  0  0  0  0
  2  5  1  0  0  0  0
  5  6  1  0  0  0  0
  5 13  2  0  0  0  0
  6  7  2  0  0  0  0
  7  8  1  0  0  0  0
  7 11  1  0  0  0  0
  8  9  1  0  0  0  0
  9 10  2  0  0  0  0
 10 11  1  0  0  0  0
 11 12  2  0  0  0  0
 12 13  1  0  0  0  0
M  END
>  <name>
FC(F)(F)c1cc2[nH;NaroC]c[c;biphenyl]c2cc1

>  <apo>
2

>  <freq>
3

>  <freq0>
0

>  <freq1>
3

>  <freqA>
2.9954975

>  <a_count>
19

$$$$

  MOE2015           2D

  9  9  0  0  1  0  0  0  0  0999 V2000
    6.2940   -1.6200    0.0000 O   0  0  0  0  0  0  0  0  0  0  0  0
    4.9810   -0.8960    0.0000 C   0  0  0  0  0  0  0  0  0  0  0  0
    3.6970   -1.6710    0.0000 C   0  0  2  0  0  0  0  0  0  0  0  0
    2.3150   -1.0890    0.0000 C   0  0  1  0  0  0  0  0  0  0  0  0
    1.9740    0.3720    0.0000 O   0  0  0  0  0  0  0  0  0  0  0  0
    1.3330   -2.2230    0.0000 C   0  0  1  0  0  0  0  0  0  0  0  0
   -0.1610   -2.0960    0.0000 O   0  0  0  0  0  0  0  0  0  0  0  0
    2.1090   -3.5070    0.0000 C   0  0  0  0  0  0  0  0  0  0  0  0
    3.5690   -3.1660    0.0000 O   0  0  0  0  0  0  0  0  0  0  0  0
  1  2  1  0  0  0  0
  3  2  1  1  0  0  0
  3  4  1  0  0  0  0
  3  9  1  0  0  0  0
  4  5  1  6  0  0  0
  4  6  1  0  0  0  0
  6  7  1  6  0  0  0
  6  8  1  0  0  0  0
  8  9  1  0  0  0  0
M  END
>  <name>
OC[C@@H]1[C@@H](O)[C@@H](O)[C;ether]O1

>  <apo>
1

>  <freq>
3

>  <freq0>
0

>  <freq1>
3

>  <freqA>
2.9954975

>  <a_count>
19

$$$$

  MOE2015           2D

 11 12  0  0  0  0  0  0  0  0999 V2000
    7.0780   -4.0870    0.0000 O   0  0  0  0  0  0  0  0  0  0  0  0
    6.3280   -2.7880    0.0000 C   0  0  0  0  0  0  0  0  0  0  0  0
    4.8280   -2.7880    0.0000 C   0  0  0  0  0  0  0  0  0  0  0  0
    3.9470   -4.0010    0.0000 N   0  0  0  0  0  0  0  0  0  0  0  0
    2.5200   -3.5380    0.0000 C   0  0  0  0  0  0  0  0  0  0  0  0
    2.5200   -2.0380    0.0000 C   0  0  0  0  0  0  0  0  0  0  0  0
    3.9470   -1.5740    0.0000 C   0  0  0  0  0  0  0  0  0  0  0  0
    1.2210   -1.2880    0.0000 C   0  0  0  0  0  0  0  0  0  0  0  0
   -0.0780   -2.0380    0.0000 C   0  0  0  0  0  0  0  0  0  0  0  0
   -0.0780   -3.5380    0.0000 C   0  0  0  0  0  0  0  0  0  0  0  0
    1.2210   -4.2880    0.0000 C   0  0  0  0  0  0  0  0  0  0  0  0
  1  2  2  0  0  0  0
  2  3  1  0  0  0  0
  3  4  1  0  0  0  0
  3  7  2  0  0  0  0
  4  5  1  0  0  0  0
  5  6  1  0  0  0  0
  5 11  2  0  0  0  0
  6  7  1  0  0  0  0
  6  8  2  0  0  0  0
  8  9  1  0  0  0  0
  9 10  2  0  0  0  0
 10 11  1  0  0  0  0
M  END
>  <name>
O=[C;amide]c1[nH;NaroC]c2c(c1)cccc2

>  <apo>
2

>  <freq>
3

>  <freq0>
0

>  <freq1>
3

>  <freqA>
2.9954975

>  <a_count>
18

$$$$

  MOE2015           2D

  7  6  0  0  1  0  0  0  0  0999 V2000
    5.3550   -0.7920    0.0000 O   0  0  0  0  0  0  0  0  0  0  0  0
    4.0560   -1.5420    0.0000 C   0  0  0  0  0  0  0  0  0  0  0  0
    2.7570   -0.7920    0.0000 C   0  0  1  0  0  0  0  0  0  0  0  0
    2.7570    0.7080    0.0000 N   0  0  0  0  0  0  0  0  0  0  0  0
    1.4580   -1.5420    0.0000 C   0  0  0  0  0  0  0  0  0  0  0  0
    1.4580   -3.0420    0.0000 C   0  0  0  0  0  0  0  0  0  0  0  0
    0.1590   -0.7920    0.0000 C   0  0  0  0  0  0  0  0  0  0  0  0
  1  2  2  0  0  0  0
  2  3  1  0  0  0  0
  3  4  1  6  0  0  0
  3  5  1  0  0  0  0
  5  6  1  0  0  0  0
  5  7  1  0  0  0  0
M  END
>  <name>
O=[C;ester][C@@H]([N;amide])C(C)C

>  <apo>
2

>  <freq>
3

>  <freq0>
0

>  <freq1>
3

>  <freqA>
2.9954975

>  <a_count>
18

$$$$

  MOE2015           2D

  7  6  0  0  1  0  0  0  0  0999 V2000
    5.3550   -0.7920    0.0000 O   0  0  0  0  0  0  0  0  0  0  0  0
    4.0560   -1.5420    0.0000 C   0  0  0  0  0  0  0  0  0  0  0  0
    2.7570   -0.7920    0.0000 C   0  0  2  0  0  0  0  0  0  0  0  0
    2.7570    0.7080    0.0000 N   0  0  0  0  0  0  0  0  0  0  0  0
    1.4580   -1.5420    0.0000 C   0  0  0  0  0  0  0  0  0  0  0  0
    1.4580   -3.0420    0.0000 C   0  0  0  0  0  0  0  0  0  0  0  0
    0.1590   -0.7920    0.0000 C   0  0  0  0  0  0  0  0  0  0  0  0
  1  2  2  0  0  0  0
  2  3  1  0  0  0  0
  3  4  1  1  0  0  0
  3  5  1  0  0  0  0
  5  6  1  0  0  0  0
  5  7  1  0  0  0  0
M  END
>  <name>
O=[C;ester][C@H]([N;amide])C(C)C

>  <apo>
2

>  <freq>
3

>  <freq0>
0

>  <freq1>
3

>  <freqA>
2.9954975

>  <a_count>
18

$$$$

  MOE2015           2D

 10 10  0  0  0  0  0  0  0  0999 V2000
    0.4720   -0.4720    0.0000 O   0  0  0  0  0  0  0  0  0  0  0  0
    0.4720    1.0280    0.0000 C   0  0  0  0  0  0  0  0  0  0  0  0
    1.7710    1.7780    0.0000 C   0  0  0  0  0  0  0  0  0  0  0  0
    1.7710    3.2780    0.0000 C   0  0  0  0  0  0  0  0  0  0  0  0
    0.4720    4.0280    0.0000 O   0  0  0  0  0  0  0  0  0  0  0  0
    3.0700    4.0280    0.0000 C   0  0  0  0  0  0  0  0  0  0  0  0
    4.3690    3.2780    0.0000 C   0  0  0  0  0  0  0  0  0  0  0  0
    4.3690    1.7780    0.0000 C   0  0  0  0  0  0  0  0  0  0  0  0
    5.6680    1.0280    0.0000 C   0  0  0  0  0  0  0  0  0  0  0  0
    3.0700    1.0280    0.0000 C   0  0  0  0  0  0  0  0  0  0  0  0
  1  2  2  0  0  0  0
  2  3  1  0  0  0  0
  3  4  1  0  0  0  0
  3 10  2  0  0  0  0
  4  5  1  0  0  0  0
  4  6  2  0  0  0  0
  6  7  1  0  0  0  0
  7  8  2  0  0  0  0
  8  9  1  0  0  0  0
  8 10  1  0  0  0  0
M  END
>  <name>
O=[C;ester]c1c(O)ccc(C)c1

>  <apo>
1

>  <freq>
3

>  <freq0>
0

>  <freq1>
3

>  <freqA>
2.9954975

>  <a_count>
18

$$$$

  MOE2015           2D

 10 10  0  0  0  0  0  0  0  0999 V2000
    0.4720   -0.4720    0.0000 O   0  0  0  0  0  0  0  0  0  0  0  0
    0.4720    1.0280    0.0000 C   0  0  0  0  0  0  0  0  0  0  0  0
    1.7710    1.7780    0.0000 C   0  0  0  0  0  0  0  0  0  0  0  0
    1.7710    3.2780    0.0000 C   0  0  0  0  0  0  0  0  0  0  0  0
    0.4720    4.0280    0.0000 O   0  0  0  0  0  0  0  0  0  0  0  0
    3.0700    4.0280    0.0000 C   0  0  0  0  0  0  0  0  0  0  0  0
    4.3690    3.2780    0.0000 C   0  0  0  0  0  0  0  0  0  0  0  0
    4.3690    1.7780    0.0000 C   0  0  0  0  0  0  0  0  0  0  0  0
    5.6680    1.0280    0.0000 C   0  0  0  0  0  0  0  0  0  0  0  0
    3.0700    1.0280    0.0000 C   0  0  0  0  0  0  0  0  0  0  0  0
  1  2  2  0  0  0  0
  2  3  1  0  0  0  0
  3  4  1  0  0  0  0
  3 10  2  0  0  0  0
  4  5  1  0  0  0  0
  4  6  2  0  0  0  0
  6  7  1  0  0  0  0
  7  8  2  0  0  0  0
  8  9  1  0  0  0  0
  8 10  1  0  0  0  0
M  END
>  <name>
O=[C;ester]c1c([O;ester])ccc(C)c1

>  <apo>
2

>  <freq>
3

>  <freq0>
0

>  <freq1>
3

>  <freqA>
2.9954975

>  <a_count>
18

$$$$

  MOE2015           2D

 11 12  0  0  0  0  0  0  0  0999 V2000
    6.6080    0.0000    0.0000 O   0  0  0  0  0  0  0  0  0  0  0  0
    5.1080    0.0000    0.0000 C   0  0  0  0  0  0  0  0  0  0  0  0
    4.3580    1.2990    0.0000 C   0  0  0  0  0  0  0  0  0  0  0  0
    2.8580    1.2990    0.0000 C   0  0  0  0  0  0  0  0  0  0  0  0
    2.1080    2.5980    0.0000 C   0  0  0  0  0  0  0  0  0  0  0  0
    0.6410    2.2860    0.0000 N   0  0  0  0  0  0  0  0  0  0  0  0
    0.4840    0.7940    0.0000 C   0  0  0  0  0  0  0  0  0  0  0  0
    1.8540    0.1840    0.0000 C   0  0  0  0  0  0  0  0  0  0  0  0
    2.8580    3.8970    0.0000 C   0  0  0  0  0  0  0  0  0  0  0  0
    4.3580    3.8970    0.0000 C   0  0  0  0  0  0  0  0  0  0  0  0
    5.1080    2.5980    0.0000 C   0  0  0  0  0  0  0  0  0  0  0  0
  1  2  2  0  0  0  0
  2  3  1  0  0  0  0
  3  4  1  0  0  0  0
  3 11  2  0  0  0  0
  4  5  2  0  0  0  0
  4  8  1  0  0  0  0
  5  6  1  0  0  0  0
  5  9  1  0  0  0  0
  6  7  1  0  0  0  0
  7  8  2  0  0  0  0
  9 10  2  0  0  0  0
 10 11  1  0  0  0  0
M  END
>  <name>
O=[C;ester]c1c2c([nH]cc2)ccc1

>  <apo>
1

>  <freq>
3

>  <freq0>
0

>  <freq1>
3

>  <freqA>
2.9954975

>  <a_count>
18

$$$$

  MOE2015           2D

 10 11  0  0  0  0  0  0  0  0999 V2000
    7.3810    0.0000    0.0000 O   0  0  0  0  0  0  0  0  0  0  0  0
    5.8810    0.0000    0.0000 C   0  0  0  0  0  0  0  0  0  0  0  0
    5.0000   -1.2140    0.0000 N   0  0  0  0  0  0  0  0  0  0  0  0
    3.5730   -0.7500    0.0000 C   0  0  0  0  0  0  0  0  0  0  0  0
    3.5730    0.7500    0.0000 C   0  0  0  0  0  0  0  0  0  0  0  0
    2.2740    1.5000    0.0000 C   0  0  0  0  0  0  0  0  0  0  0  0
    0.9750    0.7500    0.0000 C   0  0  0  0  0  0  0  0  0  0  0  0
    0.9750   -0.7500    0.0000 C   0  0  0  0  0  0  0  0  0  0  0  0
    2.2740   -1.5000    0.0000 C   0  0  0  0  0  0  0  0  0  0  0  0
    5.0000    1.2140    0.0000 C   0  0  0  0  0  0  0  0  0  0  0  0
  1  2  2  0  0  0  0
  2  3  1  0  0  0  0
  2 10  1  0  0  0  0
  3  4  1  0  0  0  0
  4  5  1  0  0  0  0
  4  9  2  0  0  0  0
  5  6  2  0  0  0  0
  5 10  1  0  0  0  0
  6  7  1  0  0  0  0
  7  8  2  0  0  0  0
  8  9  1  0  0  0  0
M  END
>  <name>
O=C1Nc2c(cccc2)[C;olefin]1

>  <apo>
1

>  <freq>
3

>  <freq0>
0

>  <freq1>
3

>  <freqA>
2.9954975

>  <a_count>
17

$$$$

  MOE2015           2D

  7  6  0  0  1  0  0  0  0  0999 V2000
    5.3550   -0.7920    0.0000 O   0  0  0  0  0  0  0  0  0  0  0  0
    4.0560   -1.5420    0.0000 C   0  0  0  0  0  0  0  0  0  0  0  0
    2.7570   -0.7920    0.0000 C   0  0  2  0  0  0  0  0  0  0  0  0
    2.7570    0.7080    0.0000 O   0  0  0  0  0  0  0  0  0  0  0  0
    1.4580   -1.5420    0.0000 C   0  0  0  0  0  0  0  0  0  0  0  0
    1.4580   -3.0420    0.0000 C   0  0  0  0  0  0  0  0  0  0  0  0
    0.1590   -0.7920    0.0000 C   0  0  0  0  0  0  0  0  0  0  0  0
  1  2  2  0  0  0  0
  2  3  1  0  0  0  0
  3  4  1  1  0  0  0
  3  5  1  0  0  0  0
  5  6  1  0  0  0  0
  5  7  1  0  0  0  0
M  END
>  <name>
O=[C;amide][C@H]([O;ester])C(C)C

>  <apo>
2

>  <freq>
3

>  <freq0>
0

>  <freq1>
3

>  <freqA>
2.9954975

>  <a_count>
17

$$$$

  MOE2015           2D

 10 10  0  0  0  0  0  0  0  0999 V2000
   -3.3750    1.9490    0.0000 S   0  0  0  0  0  0  0  0  0  0  0  0
   -4.1250    3.2480    0.0000 O   0  0  0  0  0  0  0  0  0  0  0  0
   -4.1250    0.6500    0.0000 O   0  0  0  0  0  0  0  0  0  0  0  0
   -1.8750    1.9490    0.0000 C   0  0  0  0  0  0  0  0  0  0  0  0
   -1.1250    0.6500    0.0000 C   0  0  0  0  0  0  0  0  0  0  0  0
    0.3750    0.6500    0.0000 C   0  0  0  0  0  0  0  0  0  0  0  0
    1.1250    1.9490    0.0000 C   0  0  0  0  0  0  0  0  0  0  0  0
    2.6250    1.9490    0.0000 N   0  0  0  0  0  0  0  0  0  0  0  0
    0.3750    3.2480    0.0000 C   0  0  0  0  0  0  0  0  0  0  0  0
   -1.1250    3.2480    0.0000 C   0  0  0  0  0  0  0  0  0  0  0  0
  1  2  2  0  0  0  0
  1  3  2  0  0  0  0
  1  4  1  0  0  0  0
  4  5  1  0  0  0  0
  4 10  2  0  0  0  0
  5  6  2  0  0  0  0
  6  7  1  0  0  0  0
  7  8  1  0  0  0  0
  7  9  2  0  0  0  0
  9 10  1  0  0  0  0
M  END
>  <name>
[SH;so2amide](=O)(=O)c1ccc(N)cc1

>  <apo>
1

>  <freq>
3

>  <freq0>
0

>  <freq1>
3

>  <freqA>
2.9954975

>  <a_count>
17

$$$$

  MOE2015           2D

 11 12  0  0  0  0  0  0  0  0999 V2000
    3.4510    2.2760    0.0000 O   0  0  0  0  0  0  0  0  0  0  0  0
    3.4510    0.7760    0.0000 C   0  0  0  0  0  0  0  0  0  0  0  0
    4.7500    0.0260    0.0000 N   0  0  0  0  0  0  0  0  0  0  0  0
    4.7500   -1.4740    0.0000 C   0  0  0  0  0  0  0  0  0  0  0  0
    6.0490   -2.2240    0.0000 N   0  0  0  0  0  0  0  0  0  0  0  0
    3.4510   -2.2240    0.0000 N   0  0  0  0  0  0  0  0  0  0  0  0
    2.1520   -1.4740    0.0000 C   0  0  0  0  0  0  0  0  0  0  0  0
    0.7250   -1.9370    0.0000 N   0  0  0  0  0  0  0  0  0  0  0  0
   -0.1560   -0.7240    0.0000 C   0  0  0  0  0  0  0  0  0  0  0  0
    0.7250    0.4900    0.0000 N   0  0  0  0  0  0  0  0  0  0  0  0
    2.1520    0.0260    0.0000 C   0  0  0  0  0  0  0  0  0  0  0  0
  1  2  2  0  0  0  0
  2  3  1  0  0  0  0
  2 11  1  0  0  0  0
  3  4  1  0  0  0  0
  4  5  1  0  0  0  0
  4  6  2  0  0  0  0
  6  7  1  0  0  0  0
  7  8  1  0  0  0  0
  7 11  2  0  0  0  0
  8  9  1  0  0  0  0
  9 10  2  0  0  0  0
 10 11  1  0  0  0  0
M  END
>  <name>
O=C1NC(N)=Nc2[nH;NaroC]cnc12

>  <apo>
1

>  <freq>
3

>  <freq0>
0

>  <freq1>
3

>  <freqA>
2.9954975

>  <a_count>
16

$$$$

  MOE2015           2D

  6  5  0  0  0  0  0  0  0  0999 V2000
    4.0400   -1.0830    0.0000 O   0  0  0  0  0  0  0  0  0  0  0  0
    2.7410   -1.8330    0.0000 C   0  0  0  0  0  0  0  0  0  0  0  0
    1.4420   -1.0830    0.0000 C   0  0  0  0  0  0  0  0  0  0  0  0
    2.1920    0.2170    0.0000 C   0  0  0  0  0  0  0  0  0  0  0  0
    0.6920   -2.3820    0.0000 C   0  0  0  0  0  0  0  0  0  0  0  0
    0.1430   -0.3330    0.0000 C   0  0  0  0  0  0  0  0  0  0  0  0
  1  2  2  0  0  0  0
  2  3  1  0  0  0  0
  3  4  1  0  0  0  0
  3  5  1  0  0  0  0
  3  6  1  0  0  0  0
M  END
>  <name>
O=[C;ester]C(C)(C)C

>  <apo>
1

>  <freq>
3

>  <freq0>
0

>  <freq1>
3

>  <freqA>
2.9954975

>  <a_count>
16

$$$$

  MOE2015           2D

  8  8  0  0  0  0  0  0  0  0999 V2000
    5.3440   -0.8120    0.0000 O   0  0  0  0  0  0  0  0  0  0  0  0
    4.5940   -2.1110    0.0000 C   0  0  0  0  0  0  0  0  0  0  0  0
    3.0940   -2.1110    0.0000 C   0  0  0  0  0  0  0  0  0  0  0  0
    2.3440   -3.4100    0.0000 C   0  0  0  0  0  0  0  0  0  0  0  0
    0.8440   -3.4100    0.0000 C   0  0  0  0  0  0  0  0  0  0  0  0
    0.0940   -2.1110    0.0000 C   0  0  0  0  0  0  0  0  0  0  0  0
    0.8440   -0.8120    0.0000 C   0  0  0  0  0  0  0  0  0  0  0  0
    2.3440   -0.8120    0.0000 C   0  0  0  0  0  0  0  0  0  0  0  0
  1  2  1  0  0  0  0
  2  3  1  0  0  0  0
  3  4  1  0  0  0  0
  3  8  2  0  0  0  0
  4  5  2  0  0  0  0
  5  6  1  0  0  0  0
  6  7  2  0  0  0  0
  7  8  1  0  0  0  0
M  END
>  <name>
[O;ester]Cc1ccccc1

>  <apo>
1

>  <freq>
3

>  <freq0>
0

>  <freq1>
3

>  <freqA>
2.9954975

>  <a_count>
16

$$$$

  MOE2015           2D

  8  8  0  0  0  0  0  0  0  0999 V2000
    0.0000    0.0000    0.0000 Cl  0  0  0  0  0  0  0  0  0  0  0  0
    1.5000    0.0000    0.0000 C   0  0  0  0  0  0  0  0  0  0  0  0
    2.2500   -1.2990    0.0000 C   0  0  0  0  0  0  0  0  0  0  0  0
    3.7500   -1.2990    0.0000 C   0  0  0  0  0  0  0  0  0  0  0  0
    4.5000    0.0000    0.0000 C   0  0  0  0  0  0  0  0  0  0  0  0
    6.0000    0.0000    0.0000 C   0  0  0  0  0  0  0  0  0  0  0  0
    3.7500    1.2990    0.0000 C   0  0  0  0  0  0  0  0  0  0  0  0
    2.2500    1.2990    0.0000 C   0  0  0  0  0  0  0  0  0  0  0  0
  1  2  1  0  0  0  0
  2  3  1  0  0  0  0
  2  8  2  0  0  0  0
  3  4  2  0  0  0  0
  4  5  1  0  0  0  0
  5  6  1  0  0  0  0
  5  7  2  0  0  0  0
  7  8  1  0  0  0  0
M  END
>  <name>
Clc1ccc([C;olefin])cc1

>  <apo>
1

>  <freq>
3

>  <freq0>
0

>  <freq1>
3

>  <freqA>
2.9954975

>  <a_count>
15

$$$$

  MOE2015           2D

 10 10  0  0  0  0  0  0  0  0999 V2000
   -0.3750    3.2480    0.0000 O   0  0  0  0  0  0  0  0  0  0  0  0
    0.3750    1.9490    0.0000 C   0  0  0  0  0  0  0  0  0  0  0  0
   -0.3750    0.6500    0.0000 O   0  5  0  0  0  0  0  0  0  0  0  0
    1.8750    1.9490    0.0000 C   0  0  0  0  0  0  0  0  0  0  0  0
    2.6250    0.6500    0.0000 C   0  0  0  0  0  0  0  0  0  0  0  0
    4.1250    0.6500    0.0000 C   0  0  0  0  0  0  0  0  0  0  0  0
    4.8750    1.9490    0.0000 C   0  0  0  0  0  0  0  0  0  0  0  0
    6.3750    1.9490    0.0000 O   0  0  0  0  0  0  0  0  0  0  0  0
    4.1250    3.2480    0.0000 C   0  0  0  0  0  0  0  0  0  0  0  0
    2.6250    3.2480    0.0000 C   0  0  0  0  0  0  0  0  0  0  0  0
  1  2  2  0  0  0  0
  2  3  1  0  0  0  0
  2  4  1  0  0  0  0
  4  5  1  0  0  0  0
  4 10  2  0  0  0  0
  5  6  2  0  0  0  0
  6  7  1  0  0  0  0
  7  8  1  0  0  0  0
  7  9  2  0  0  0  0
  9 10  1  0  0  0  0
M  CHG  1   3  -1
M  END
>  <name>
O=C([O-])c1ccc([O;ether])cc1

>  <apo>
1

>  <freq>
3

>  <freq0>
0

>  <freq1>
3

>  <freqA>
2.9954975

>  <a_count>
15

$$$$

  MOE2015           2D

  8  8  0  0  1  0  0  0  0  0999 V2000
    5.9390   -2.4250    0.0000 O   0  0  0  0  0  0  0  0  0  0  0  0
    4.6100   -3.1220    0.0000 C   0  0  0  0  0  0  0  0  0  0  0  0
    3.3430   -2.3200    0.0000 C   0  0  1  0  0  0  0  0  0  0  0  0
    1.9490   -2.8740    0.0000 N   0  0  0  0  0  0  0  0  0  0  0  0
    0.9910   -1.7200    0.0000 C   0  0  0  0  0  0  0  0  0  0  0  0
   -0.5060   -1.8170    0.0000 O   0  0  0  0  0  0  0  0  0  0  0  0
    1.7930   -0.4520    0.0000 C   0  0  0  0  0  0  0  0  0  0  0  0
    3.2460   -0.8230    0.0000 C   0  0  0  0  0  0  0  0  0  0  0  0
  1  2  2  0  0  0  0
  3  2  1  1  0  0  0
  3  4  1  0  0  0  0
  3  8  1  0  0  0  0
  4  5  1  0  0  0  0
  5  6  2  0  0  0  0
  5  7  1  0  0  0  0
  7  8  1  0  0  0  0
M  END
>  <name>
O=[C;amide][C@H]1NC(=O)CC1

>  <apo>
1

>  <freq>
3

>  <freq0>
0

>  <freq1>
3

>  <freqA>
2.9954975

>  <a_count>
15

$$$$

  MOE2015           2D

  9  9  0  0  0  0  0  0  0  0999 V2000
    6.2970   -2.3540    0.0000 O   0  0  0  0  0  0  0  0  0  0  0  0
    4.9980   -3.1040    0.0000 C   0  0  0  0  0  0  0  0  0  0  0  0
    3.6990   -2.3540    0.0000 C   0  0  0  0  0  0  0  0  0  0  0  0
    2.4000   -3.1040    0.0000 C   0  0  0  0  0  0  0  0  0  0  0  0
    1.1010   -2.3540    0.0000 C   0  0  0  0  0  0  0  0  0  0  0  0
   -0.1980   -3.1040    0.0000 O   0  0  0  0  0  0  0  0  0  0  0  0
    1.1010   -0.8540    0.0000 C   0  0  0  0  0  0  0  0  0  0  0  0
    2.4000   -0.1040    0.0000 C   0  0  0  0  0  0  0  0  0  0  0  0
    3.6990   -0.8540    0.0000 C   0  0  0  0  0  0  0  0  0  0  0  0
  1  2  2  0  0  0  0
  2  3  1  0  0  0  0
  3  4  1  0  0  0  0
  3  9  2  0  0  0  0
  4  5  2  0  0  0  0
  5  6  1  0  0  0  0
  5  7  1  0  0  0  0
  7  8  2  0  0  0  0
  8  9  1  0  0  0  0
M  END
>  <name>
O=[C;amide]c1cc([O;ether])ccc1

>  <apo>
2

>  <freq>
3

>  <freq0>
0

>  <freq1>
3

>  <freqA>
2.9954975

>  <a_count>
15

$$$$

  MOE2015           2D

  5  5  0  0  0  0  0  0  0  0999 V2000
    0.7970    1.6710    0.0000 N   0  3  0  0  0  0  0  0  0  0  0  0
    0.4090    0.2220    0.0000 C   0  0  0  0  0  0  0  0  0  0  0  0
   -1.0890    0.1430    0.0000 C   0  0  0  0  0  0  0  0  0  0  0  0
   -1.6270    1.5440    0.0000 C   0  0  0  0  0  0  0  0  0  0  0  0
   -0.4610    2.4880    0.0000 C   0  0  0  0  0  0  0  0  0  0  0  0
  1  2  1  0  0  0  0
  1  5  1  0  0  0  0
  2  3  1  0  0  0  0
  3  4  1  0  0  0  0
  4  5  1  0  0  0  0
M  CHG  1   1   1
M  END
>  <name>
[N+;amine]1CCCC1

>  <apo>
1

>  <freq>
3

>  <freq0>
0

>  <freq1>
3

>  <freqA>
2.9954975

>  <a_count>
15

$$$$

  MOE2015           2D

  9  9  0  0  0  0  0  0  0  0999 V2000
    1.3330    2.3090    0.0000 Cl  0  0  0  0  0  0  0  0  0  0  0  0
    2.0830    1.0100    0.0000 C   0  0  0  0  0  0  0  0  0  0  0  0
    1.3330   -0.2890    0.0000 C   0  0  0  0  0  0  0  0  0  0  0  0
   -0.1670   -0.2890    0.0000 Cl  0  0  0  0  0  0  0  0  0  0  0  0
    2.0830   -1.5880    0.0000 C   0  0  0  0  0  0  0  0  0  0  0  0
    3.5830   -1.5880    0.0000 C   0  0  0  0  0  0  0  0  0  0  0  0
    4.3330   -0.2890    0.0000 C   0  0  0  0  0  0  0  0  0  0  0  0
    5.8330   -0.2890    0.0000 N   0  0  0  0  0  0  0  0  0  0  0  0
    3.5830    1.0100    0.0000 C   0  0  0  0  0  0  0  0  0  0  0  0
  1  2  1  0  0  0  0
  2  3  1  0  0  0  0
  2  9  2  0  0  0  0
  3  4  1  0  0  0  0
  3  5  2  0  0  0  0
  5  6  1  0  0  0  0
  6  7  2  0  0  0  0
  7  8  1  0  0  0  0
  7  9  1  0  0  0  0
M  END
>  <name>
Clc1c(Cl)ccc([N;amide])c1

>  <apo>
1

>  <freq>
3

>  <freq0>
0

>  <freq1>
3

>  <freqA>
2.9954975

>  <a_count>
14

$$$$

  MOE2015           2D

  8  8  0  0  0  0  0  0  0  0999 V2000
    5.9390    1.4640    0.0000 O   0  0  0  0  0  0  0  0  0  0  0  0
    4.6100    0.7670    0.0000 C   0  0  0  0  0  0  0  0  0  0  0  0
    3.3430    1.5680    0.0000 C   0  0  0  0  0  0  0  0  0  0  0  0
    3.2460    3.0650    0.0000 N   0  0  0  0  0  0  0  0  0  0  0  0
    1.7930    3.4360    0.0000 O   0  0  0  0  0  0  0  0  0  0  0  0
    0.9910    2.1680    0.0000 C   0  0  0  0  0  0  0  0  0  0  0  0
   -0.5060    2.0720    0.0000 C   0  0  0  0  0  0  0  0  0  0  0  0
    1.9490    1.0140    0.0000 C   0  0  0  0  0  0  0  0  0  0  0  0
  1  2  2  0  0  0  0
  2  3  1  0  0  0  0
  3  4  2  0  0  0  0
  3  8  1  0  0  0  0
  4  5  1  0  0  0  0
  5  6  1  0  0  0  0
  6  7  1  0  0  0  0
  6  8  2  0  0  0  0
M  END
>  <name>
O=[C;amide]c1noc(C)c1

>  <apo>
1

>  <freq>
3

>  <freq0>
0

>  <freq1>
3

>  <freqA>
2.9954975

>  <a_count>
13

$$$$

  MOE2015           2D

  6  6  0  0  0  0  0  0  0  0999 V2000
    4.6270    0.0000    0.0000 C   0  0  0  0  0  0  0  0  0  0  0  0
    3.1270    0.0000    0.0000 N   0  0  0  0  0  0  0  0  0  0  0  0
    2.2450   -1.2140    0.0000 N   0  0  0  0  0  0  0  0  0  0  0  0
    0.8180   -0.7500    0.0000 C   0  0  0  0  0  0  0  0  0  0  0  0
    0.8180    0.7500    0.0000 C   0  0  0  0  0  0  0  0  0  0  0  0
    2.2450    1.2140    0.0000 C   0  0  0  0  0  0  0  0  0  0  0  0
  1  2  1  0  0  0  0
  2  3  1  0  0  0  0
  2  6  1  0  0  0  0
  3  4  2  0  0  0  0
  4  5  1  0  0  0  0
  5  6  2  0  0  0  0
M  END
>  <name>
Cn1nc[c;biphenyl]c1

>  <apo>
1

>  <freq>
3

>  <freq0>
0

>  <freq1>
3

>  <freqA>
2.9954975

>  <a_count>
12

$$$$

  MOE2015           2D

  7  6  0  0  0  0  0  0  0  0999 V2000
   -0.0760   -1.5710    0.0000 O   0  0  0  0  0  0  0  0  0  0  0  0
    1.2230   -0.8210    0.0000 C   0  0  0  0  0  0  0  0  0  0  0  0
    1.2230    0.6790    0.0000 O   0  5  0  0  0  0  0  0  0  0  0  0
    2.5220   -1.5710    0.0000 C   0  0  0  0  0  0  0  0  0  0  0  0
    3.8210   -0.8210    0.0000 C   0  0  0  0  0  0  0  0  0  0  0  0
    5.1200   -1.5710    0.0000 C   0  0  0  0  0  0  0  0  0  0  0  0
    6.4190   -0.8210    0.0000 O   0  0  0  0  0  0  0  0  0  0  0  0
  1  2  2  0  0  0  0
  2  3  1  0  0  0  0
  2  4  1  0  0  0  0
  4  5  1  0  0  0  0
  5  6  1  0  0  0  0
  6  7  2  0  0  0  0
M  CHG  1   3  -1
M  END
>  <name>
O=C([O-])CC[C;amide]=O

>  <apo>
1

>  <freq>
3

>  <freq0>
0

>  <freq1>
3

>  <freqA>
2.9954975

>  <a_count>
12

$$$$

  MOE2015           2D

  5  4  0  0  1  0  0  0  0  0999 V2000
    3.8780   -1.0390    0.0000 O   0  0  0  0  0  0  0  0  0  0  0  0
    2.5790   -1.7890    0.0000 C   0  0  0  0  0  0  0  0  0  0  0  0
    1.2800   -1.0390    0.0000 C   0  0  1  0  0  0  0  0  0  0  0  0
   -0.0190   -1.7890    0.0000 O   0  0  0  0  0  0  0  0  0  0  0  0
    1.2800    0.4610    0.0000 C   0  0  0  0  0  0  0  0  0  0  0  0
  1  2  2  0  0  0  0
  2  3  1  0  0  0  0
  3  4  1  0  0  0  0
  3  5  1  1  0  0  0
M  END
>  <name>
O=[C;amide][C@@H]([O;ester])C

>  <apo>
2

>  <freq>
3

>  <freq0>
0

>  <freq1>
3

>  <freqA>
2.9954975

>  <a_count>
11

$$$$

  MOE2015           2D

 35 37  0  0  1  0  0  0  0  0999 V2000
   -0.6120    2.1160    0.0000 S   0  0  0  0  0  0  0  0  0  0  0  0
    0.8290    1.6990    0.0000 C   0  0  0  0  0  0  0  0  0  0  0  0
    1.8350    2.8110    0.0000 N   0  0  0  0  0  0  0  0  0  0  0  0
    2.0480    4.2960    0.0000 N   0  0  0  0  0  0  0  0  0  0  0  0
    1.1480    5.4960    0.0000 C   0  0  0  0  0  0  0  0  0  0  0  0
   -0.3370    5.7090    0.0000 C   0  0  0  0  0  0  0  0  0  0  0  0
   -1.6860    5.0550    0.0000 C   0  0  0  0  0  0  0  0  0  0  0  0
   -2.7260    6.1360    0.0000 C   0  0  0  0  0  0  0  0  0  0  0  0
   -2.0180    7.4590    0.0000 N   0  0  0  0  0  0  0  0  0  0  0  0
   -0.5420    7.1950    0.0000 C   0  0  0  0  0  0  0  0  0  0  0  0
   -4.1820    5.7770    0.0000 C   0  0  0  0  0  0  0  0  0  0  0  0
   -4.5990    4.3360    0.0000 C   0  0  0  0  0  0  0  0  0  0  0  0
   -3.5600    3.2550    0.0000 C   0  0  0  0  0  0  0  0  0  0  0  0
   -2.1040    3.6140    0.0000 C   0  0  0  0  0  0  0  0  0  0  0  0
    3.2040    2.1980    0.0000 C   0  0  0  0  0  0  0  0  0  0  0  0
    4.5050    2.9440    0.0000 C   0  0  0  0  0  0  0  0  0  0  0  0
    5.8020    2.1910    0.0000 C   0  0  3  0  0  0  0  0  0  0  0  0
    7.1030    2.9370    0.0000 C   0  0  0  0  0  0  0  0  0  0  0  0
    8.4000    2.1840    0.0000 C   0  0  0  0  0  0  0  0  0  0  0  0
    9.7010    2.9310    0.0000 C   0  0  0  0  0  0  0  0  0  0  0  0
   10.9980    2.1770    0.0000 C   0  0  0  0  0  0  0  0  0  0  0  0
   12.2990    2.9240    0.0000 C   0  0  0  0  0  0  0  0  0  0  0  0
   13.5960    2.1710    0.0000 C   0  0  0  0  0  0  0  0  0  0  0  0
   14.8970    2.9170    0.0000 C   0  0  0  0  0  0  0  0  0  0  0  0
   16.1940    2.1640    0.0000 C   0  0  0  0  0  0  0  0  0  0  0  0
   17.4950    2.9110    0.0000 C   0  0  0  0  0  0  0  0  0  0  0  0
   18.7920    2.1570    0.0000 C   0  0  0  0  0  0  0  0  0  0  0  0
   20.0930    2.9040    0.0000 C   0  0  0  0  0  0  0  0  0  0  0  0
   21.3910    2.1510    0.0000 C   0  0  0  0  0  0  0  0  0  0  0  0
   22.6910    2.8970    0.0000 C   0  0  0  0  0  0  0  0  0  0  0  0
   23.9890    2.1440    0.0000 C   0  0  0  0  0  0  0  0  0  0  0  0
   25.2900    2.8910    0.0000 C   0  0  0  0  0  0  0  0  0  0  0  0
    5.7980    0.6910    0.0000 C   0  0  0  0  0  0  0  0  0  0  0  0
    3.0430    0.7060    0.0000 N   0  0  0  0  0  0  0  0  0  0  0  0
    1.5750    0.3980    0.0000 N   0  0  0  0  0  0  0  0  0  0  0  0
  1  2  1  0  0  0  0
  2  3  1  0  0  0  0
  2 35  2  0  0  0  0
  3  4  1  0  0  0  0
  3 15  1  0  0  0  0
  4  5  2  0  0  0  0
  5  6  1  0  0  0  0
  6  7  1  0  0  0  0
  6 10  2  0  0  0  0
  7  8  2  0  0  0  0
  7 14  1  0  0  0  0
  8  9  1  0  0  0  0
  8 11  1  0  0  0  0
  9 10  1  0  0  0  0
 11 12  2  0  0  0  0
 12 13  1  0  0  0  0
 13 14  2  0  0  0  0
 15 16  1  0  0  0  0
 15 34  2  0  0  0  0
 16 17  1  0  0  0  0
 17 18  1  0  0  0  0
 17 33  1  0  0  0  0
 18 19  1  0  0  0  0
 19 20  1  0  0  0  0
 20 21  1  0  0  0  0
 21 22  1  0  0  0  0
 22 23  1  0  0  0  0
 23 24  1  0  0  0  0
 24 25  1  0  0  0  0
 25 26  1  0  0  0  0
 26 27  1  0  0  0  0
 27 28  1  0  0  0  0
 28 29  1  0  0  0  0
 29 30  1  0  0  0  0
 30 31  1  0  0  0  0
 31 32  1  0  0  0  0
 34 35  1  0  0  0  0
M  END
>  <name>
[S;thioether]c1n(/N=C\c2c3c([nH;NaroC]c2)cccc3)c(CC(CCCCCCCCCCCCCCC)C)nn1

>  <apo>
2

>  <freq>
2

>  <freq0>
0

>  <freq1>
2

>  <freqA>
1.9959997

>  <a_count>
80

$$$$

  MOE2015           2D

 32 35  0  0  1  0  0  0  0  0999 V2000
   -0.8570   -1.4850    0.0000 S   0  0  0  0  0  0  0  0  0  0  0  0
   -0.1070   -2.7840    0.0000 C   0  0  0  0  0  0  0  0  0  0  0  0
    1.3930   -2.7840    0.0000 S   0  0  0  0  0  0  0  0  0  0  0  0
    2.1430   -1.4850    0.0000 C   0  0  3  0  0  0  0  0  0  0  0  0
    3.6430   -1.4850    0.0000 C   0  0  0  0  0  0  0  0  0  0  0  0
    4.3930   -2.7840    0.0000 C   0  0  2  0  0  0  0  0  0  0  0  0
    3.6430   -4.0830    0.0000 C   0  0  0  0  0  0  0  0  0  0  0  0
    2.1430   -4.0830    0.0000 C   0  0  0  0  0  0  0  0  0  0  0  0
    4.3930   -5.3820    0.0000 C   0  0  0  0  0  0  0  0  0  0  0  0
    5.8930   -5.3820    0.0000 C   0  0  0  0  0  0  0  0  0  0  0  0
    6.6430   -4.0830    0.0000 C   0  0  2  0  0  0  0  0  0  0  0  0
    8.1430   -4.0830    0.0000 C   0  0  1  0  0  0  0  0  0  0  0  0
    9.4420   -4.8330    0.0000 C   0  0  0  0  0  0  0  0  0  0  0  0
   10.7410   -4.0830    0.0000 O   0  0  0  0  0  0  0  0  0  0  0  0
    8.1430   -5.5830    0.0000 C   0  0  0  0  0  0  0  0  0  0  0  0
    8.8930   -2.7840    0.0000 C   0  0  0  0  0  0  0  0  0  0  0  0
    8.1430   -1.4850    0.0000 C   0  0  0  0  0  0  0  0  0  0  0  0
    6.6430   -1.4850    0.0000 C   0  0  0  0  0  0  0  0  0  0  0  0
    5.8930   -2.7840    0.0000 C   0  0  1  0  0  0  0  0  0  0  0  0
    5.1430   -1.4850    0.0000 C   0  0  0  0  0  0  0  0  0  0  0  0
    1.3930   -0.1860    0.0000 C   0  0  0  0  0  0  0  0  0  0  0  0
    2.0030    1.1840    0.0000 C   0  0  0  0  0  0  0  0  0  0  0  0
    3.4700    1.4960    0.0000 O   0  0  0  0  0  0  0  0  0  0  0  0
    0.8880    2.1880    0.0000 O   0  0  0  0  0  0  0  0  0  0  0  0
   -0.4110    1.4380    0.0000 C   0  0  0  0  0  0  0  0  0  0  0  0
   -0.0990   -0.0290    0.0000 C   0  0  0  0  0  0  0  0  0  0  0  0
   -0.8570   -4.0830    0.0000 N   0  0  0  0  0  0  0  0  0  0  0  0
   -2.3570   -4.0830    0.0000 C   0  0  0  0  0  0  0  0  0  0  0  0
   -3.1070   -5.3820    0.0000 C   0  0  0  0  0  0  0  0  0  0  0  0
   -2.3570   -6.6810    0.0000 N   0  3  0  0  0  0  0  0  0  0  0  0
   -0.8570   -6.6810    0.0000 C   0  0  0  0  0  0  0  0  0  0  0  0
   -0.1070   -5.3820    0.0000 C   0  0  0  0  0  0  0  0  0  0  0  0
  1  2  2  0  0  0  0
  2  3  1  0  0  0  0
  2 27  1  0  0  0  0
  3  4  1  0  0  0  0
  4  5  1  0  0  0  0
  4 21  1  0  0  0  0
  6  5  1  1  0  0  0
  6  7  1  0  0  0  0
  6 19  1  0  0  0  0
  7  8  2  0  0  0  0
  7  9  1  0  0  0  0
  9 10  1  0  0  0  0
 11 10  1  1  0  0  0
 11 12  1  0  0  0  0
 11 19  1  0  0  0  0
 12 13  1  1  0  0  0
 12 15  1  6  0  0  0
 12 16  1  0  0  0  0
 13 14  1  0  0  0  0
 16 17  1  0  0  0  0
 17 18  1  0  0  0  0
 18 19  1  0  0  0  0
 19 20  1  1  0  0  0
 21 22  1  0  0  0  0
 21 26  2  0  0  0  0
 22 23  2  0  0  0  0
 22 24  1  0  0  0  0
 24 25  1  0  0  0  0
 25 26  1  0  0  0  0
 27 28  1  0  0  0  0
 27 32  1  0  0  0  0
 28 29  1  0  0  0  0
 29 30  1  0  0  0  0
 30 31  1  0  0  0  0
 31 32  1  0  0  0  0
M  CHG  1  30   1
M  END
>  <name>
S=C(SC(C[C@@H]1C(=C)CC[C@@H]2[C@@](C[O;ester])(C)[C;ether]CC[C@@]12C)C=1C(=O)OCC=1)N1CC[N+;amine]CC1

>  <apo>
3

>  <freq>
2

>  <freq0>
0

>  <freq1>
2

>  <freqA>
1.9959997

>  <a_count>
71

$$$$

  MOE2015           2D

 29 33  0  0  1  0  0  0  0  0999 V2000
    2.3710   -1.1880    0.0000 Cl  0  0  0  0  0  0  0  0  0  0  0  0
    1.7510    0.1840    0.0000 C   0  0  0  0  0  0  0  0  0  0  0  0
    2.6390    1.4080    0.0000 C   0  0  0  0  0  0  0  0  0  0  0  0
    1.9700    2.7840    0.0000 C   0  0  0  0  0  0  0  0  0  0  0  0
    2.5620    4.1630    0.0000 C   0  0  1  0  0  0  0  0  0  0  0  0
    2.9900    2.6660    0.0000 N   0  3  3  0  0  0  0  0  0  0  0  0
    1.5860    1.8960    0.0000 C   0  0  0  0  0  0  0  0  0  0  0  0
    4.3820    2.6030    0.0000 C   0  0  0  0  0  0  0  0  0  0  0  0
    4.9960    4.0440    0.0000 C   0  0  1  0  0  0  0  0  0  0  0  0
    6.4880    3.9750    0.0000 C   0  0  0  0  0  0  0  0  0  0  0  0
    6.6520    2.4500    0.0000 C   0  0  0  0  0  0  0  0  0  0  0  0
    8.0030    1.8440    0.0000 C   0  0  0  0  0  0  0  0  0  0  0  0
    9.2400    2.6920    0.0000 C   0  0  0  0  0  0  0  0  0  0  0  0
   10.5960    2.0700    0.0000 Cl  0  0  0  0  0  0  0  0  0  0  0  0
    9.0910    4.1930    0.0000 C   0  0  0  0  0  0  0  0  0  0  0  0
    7.7300    4.8020    0.0000 C   0  0  0  0  0  0  0  0  0  0  0  0
    3.8410    4.9830    0.0000 C   0  0  1  0  0  0  0  0  0  0  0  0
    5.1290    5.7210    0.0000 C   0  0  0  0  0  0  0  0  0  0  0  0
    6.6170    5.5360    0.0000 O   0  0  0  0  0  0  0  0  0  0  0  0
    5.1380    7.2490    0.0000 C   0  0  0  0  0  0  0  0  0  0  0  0
    3.8620    7.9980    0.0000 C   0  0  0  0  0  0  0  0  0  0  0  0
    2.5610    7.2580    0.0000 N   0  0  0  0  0  0  0  0  0  0  0  0
    2.5420    5.7610    0.0000 C   0  0  0  0  0  0  0  0  0  0  0  0
    1.5200    5.1520    0.0000 C   0  0  0  0  0  0  0  0  0  0  0  0
    1.4670    6.6510    0.0000 O   0  0  0  0  0  0  0  0  0  0  0  0
    0.1460    4.3650    0.0000 N   0  0  0  0  0  0  0  0  0  0  0  0
    0.4910    2.9250    0.0000 C   0  0  0  0  0  0  0  0  0  0  0  0
   -0.3810    1.6790    0.0000 C   0  0  0  0  0  0  0  0  0  0  0  0
    0.2630    0.3330    0.0000 C   0  0  0  0  0  0  0  0  0  0  0  0
  1  2  1  0  0  0  0
  2  3  1  0  0  0  0
  2 29  2  0  0  0  0
  3  4  2  0  0  0  0
  4  5  1  0  0  0  0
  4 27  1  0  0  0  0
  5  6  1  1  0  0  0
  5 17  1  0  0  0  0
  5 24  1  0  0  0  0
  6  7  1  0  0  0  0
  6  8  1  0  0  0  0
  8  9  1  0  0  0  0
  9 10  1  6  0  0  0
  9 17  1  0  0  0  0
 10 11  1  0  0  0  0
 10 16  2  0  0  0  0
 11 12  2  0  0  0  0
 12 13  1  0  0  0  0
 13 14  1  0  0  0  0
 13 15  2  0  0  0  0
 15 16  1  0  0  0  0
 17 18  1  6  0  0  0
 17 23  1  1  0  0  0
 18 19  2  0  0  0  0
 18 20  1  0  0  0  0
 20 21  1  0  0  0  0
 21 22  1  0  0  0  0
 22 23  1  0  0  0  0
 24 25  2  0  0  0  0
 24 26  1  0  0  0  0
 26 27  1  0  0  0  0
 27 28  2  0  0  0  0
 28 29  1  0  0  0  0
M  CHG  1   6   1
M  END
>  <name>
Clc1cc2[C@]3([N+](C)C[C@@H](c4ccc(Cl)cc4)[C@]43C(=O)[C;olefin]C[N;so2amide]C4)C(=O)Nc2cc1

>  <apo>
2

>  <freq>
2

>  <freq0>
0

>  <freq1>
2

>  <freqA>
1.9959997

>  <a_count>
51

$$$$

  MOE2015           2D

 24 26  0  0  1  0  0  0  0  0999 V2000
    0.9690   -1.6790    0.0000 O   0  0  0  0  0  0  0  0  0  0  0  0
    1.7190   -0.3800    0.0000 C   0  0  0  0  0  0  0  0  0  0  0  0
    3.2190   -0.3800    0.0000 O   0  0  0  0  0  0  0  0  0  0  0  0
    3.9690   -1.6790    0.0000 C   0  0  0  0  0  0  0  0  0  0  0  0
    5.4690   -1.6790    0.0000 C   0  0  0  0  0  0  0  0  0  0  0  0
    6.2190   -2.9780    0.0000 C   0  0  0  0  0  0  0  0  0  0  0  0
    7.7190   -2.9780    0.0000 C   0  0  0  0  0  0  0  0  0  0  0  0
    8.4690   -1.6790    0.0000 C   0  0  0  0  0  0  0  0  0  0  0  0
    7.7190   -0.3800    0.0000 C   0  0  0  0  0  0  0  0  0  0  0  0
    6.2190   -0.3800    0.0000 C   0  0  0  0  0  0  0  0  0  0  0  0
    0.9690    0.9190    0.0000 N   0  0  0  0  0  0  0  0  0  0  0  0
   -0.5310    0.9190    0.0000 C   0  0  2  0  0  0  0  0  0  0  0  0
   -1.2810    2.2180    0.0000 C   0  0  0  0  0  0  0  0  0  0  0  0
   -0.5310    3.5170    0.0000 O   0  0  0  0  0  0  0  0  0  0  0  0
   -1.2810   -0.3800    0.0000 C   0  0  0  0  0  0  0  0  0  0  0  0
   -2.7810   -0.3800    0.0000 C   0  0  0  0  0  0  0  0  0  0  0  0
   -3.6620   -1.5930    0.0000 C   0  0  0  0  0  0  0  0  0  0  0  0
   -5.0890   -1.1300    0.0000 C   0  0  0  0  0  0  0  0  0  0  0  0
   -5.0890    0.3700    0.0000 N   0  0  0  0  0  0  0  0  0  0  0  0
   -3.6620    0.8340    0.0000 C   0  0  0  0  0  0  0  0  0  0  0  0
   -6.2040   -2.1340    0.0000 C   0  0  0  0  0  0  0  0  0  0  0  0
   -5.8920   -3.6010    0.0000 C   0  0  0  0  0  0  0  0  0  0  0  0
   -4.4650   -4.0640    0.0000 C   0  0  0  0  0  0  0  0  0  0  0  0
   -3.3500   -3.0610    0.0000 C   0  0  0  0  0  0  0  0  0  0  0  0
  1  2  2  0  0  0  0
  2  3  1  0  0  0  0
  2 11  1  0  0  0  0
  3  4  1  0  0  0  0
  4  5  1  0  0  0  0
  5  6  1  0  0  0  0
  5 10  2  0  0  0  0
  6  7  2  0  0  0  0
  7  8  1  0  0  0  0
  8  9  2  0  0  0  0
  9 10  1  0  0  0  0
 12 11  1  1  0  0  0
 12 13  1  0  0  0  0
 12 15  1  0  0  0  0
 13 14  2  0  0  0  0
 15 16  1  0  0  0  0
 16 17  1  0  0  0  0
 16 20  2  0  0  0  0
 17 18  2  0  0  0  0
 17 24  1  0  0  0  0
 18 19  1  0  0  0  0
 18 21  1  0  0  0  0
 19 20  1  0  0  0  0
 21 22  2  0  0  0  0
 22 23  1  0  0  0  0
 23 24  2  0  0  0  0
M  END
>  <name>
O=C(OCc1ccccc1)N[C@H]([C;amide]=O)Cc1c2c([nH]c1)cccc2

>  <apo>
1

>  <freq>
2

>  <freq0>
0

>  <freq1>
2

>  <freqA>
1.9959997

>  <a_count>
42

$$$$

  MOE2015           2D

 29 31  0  0  0  0  0  0  0  0999 V2000
   -7.1220   -6.1290    0.0000 S   0  0  0  0  0  0  0  0  0  0  0  0
   -7.8720   -4.8300    0.0000 O   0  0  0  0  0  0  0  0  0  0  0  0
   -6.3720   -7.4280    0.0000 O   0  0  0  0  0  0  0  0  0  0  0  0
   -8.4210   -6.8790    0.0000 O   0  5  0  0  0  0  0  0  0  0  0  0
   -5.8230   -5.3790    0.0000 C   0  0  0  0  0  0  0  0  0  0  0  0
   -4.5240   -6.1290    0.0000 C   0  0  0  0  0  0  0  0  0  0  0  0
   -4.5240   -7.6290    0.0000 N   0  0  0  0  0  0  0  0  0  0  0  0
   -3.2250   -5.3790    0.0000 C   0  0  0  0  0  0  0  0  0  0  0  0
   -1.9260   -6.1290    0.0000 C   0  0  0  0  0  0  0  0  0  0  0  0
   -1.9260   -7.6290    0.0000 O   0  0  0  0  0  0  0  0  0  0  0  0
   -0.6270   -5.3790    0.0000 C   0  0  0  0  0  0  0  0  0  0  0  0
    0.6720   -6.1290    0.0000 N   0  0  0  0  0  0  0  0  0  0  0  0
    1.9710   -5.3790    0.0000 N   0  0  0  0  0  0  0  0  0  0  0  0
    3.2700   -6.1290    0.0000 C   0  0  0  0  0  0  0  0  0  0  0  0
    4.5690   -5.3790    0.0000 C   0  0  0  0  0  0  0  0  0  0  0  0
    4.5690   -3.8790    0.0000 C   0  0  0  0  0  0  0  0  0  0  0  0
    5.8680   -6.1290    0.0000 C   0  0  0  0  0  0  0  0  0  0  0  0
    5.8680   -7.6290    0.0000 C   0  0  0  0  0  0  0  0  0  0  0  0
    4.5690   -8.3790    0.0000 C   0  0  0  0  0  0  0  0  0  0  0  0
    3.2700   -7.6290    0.0000 C   0  0  0  0  0  0  0  0  0  0  0  0
   -0.6270   -3.8790    0.0000 C   0  0  0  0  0  0  0  0  0  0  0  0
   -1.9260   -3.1290    0.0000 C   0  0  0  0  0  0  0  0  0  0  0  0
   -3.2250   -3.8790    0.0000 C   0  0  0  0  0  0  0  0  0  0  0  0
   -4.5240   -3.1290    0.0000 C   0  0  0  0  0  0  0  0  0  0  0  0
   -4.5240   -1.6290    0.0000 S   0  0  0  0  0  0  0  0  0  0  0  0
   -6.0240   -1.6290    0.0000 O   0  0  0  0  0  0  0  0  0  0  0  0
   -3.0240   -1.6290    0.0000 O   0  0  0  0  0  0  0  0  0  0  0  0
   -4.5240   -0.1290    0.0000 O   0  5  0  0  0  0  0  0  0  0  0  0
   -5.8230   -3.8790    0.0000 C   0  0  0  0  0  0  0  0  0  0  0  0
  1  2  2  0  0  0  0
  1  3  2  0  0  0  0
  1  4  1  0  0  0  0
  1  5  1  0  0  0  0
  5  6  1  0  0  0  0
  5 29  2  0  0  0  0
  6  7  1  0  0  0  0
  6  8  2  0  0  0  0
  8  9  1  0  0  0  0
  8 23  1  0  0  0  0
  9 10  1  0  0  0  0
  9 11  2  0  0  0  0
 11 12  1  0  0  0  0
 11 21  1  0  0  0  0
 12 13  2  0  0  0  0
 13 14  1  0  0  0  0
 14 15  1  0  0  0  0
 14 20  2  0  0  0  0
 15 16  1  0  0  0  0
 15 17  2  0  0  0  0
 17 18  1  0  0  0  0
 18 19  2  0  0  0  0
 19 20  1  0  0  0  0
 21 22  2  0  0  0  0
 22 23  1  0  0  0  0
 23 24  2  0  0  0  0
 24 25  1  0  0  0  0
 24 29  1  0  0  0  0
 25 26  2  0  0  0  0
 25 27  2  0  0  0  0
 25 28  1  0  0  0  0
M  CHG  1   4  -1
M  CHG  1  28  -1
M  END
>  <name>
S(=O)(=O)([O-])c1c(N)c2c(O)c(N=Nc3c(C)c[c;biphenyl]cc3)ccc2c(S(=O)(=O)[O-])c1

>  <apo>
1

>  <freq>
2

>  <freq0>
0

>  <freq1>
2

>  <freqA>
1.9959997

>  <a_count>
42

$$$$

  MOE2015           2D

 24 26  0  0  0  0  0  0  0  0999 V2000
   13.6320    3.6020    0.0000 Cl  0  0  0  0  0  0  0  0  0  0  0  0
   12.3270    2.8610    0.0000 C   0  0  0  0  0  0  0  0  0  0  0  0
   12.3170    1.3610    0.0000 C   0  0  0  0  0  0  0  0  0  0  0  0
   11.0130    0.6200    0.0000 C   0  0  0  0  0  0  0  0  0  0  0  0
    9.7190    1.3790    0.0000 C   0  0  0  0  0  0  0  0  0  0  0  0
    8.4150    0.6380    0.0000 C   0  0  0  0  0  0  0  0  0  0  0  0
    8.4040   -0.8620    0.0000 O   0  0  0  0  0  0  0  0  0  0  0  0
    7.1210    1.3970    0.0000 N   0  0  0  0  0  0  0  0  0  0  0  0
    6.9740    2.8900    0.0000 C   0  0  0  0  0  0  0  0  0  0  0  0
    8.0960    3.8860    0.0000 C   0  0  0  0  0  0  0  0  0  0  0  0
    5.5090    3.2120    0.0000 C   0  0  0  0  0  0  0  0  0  0  0  0
    4.9090    4.5870    0.0000 C   0  0  0  0  0  0  0  0  0  0  0  0
    3.4180    4.7540    0.0000 C   0  0  0  0  0  0  0  0  0  0  0  0
    2.8180    6.1280    0.0000 O   0  0  0  0  0  0  0  0  0  0  0  0
    4.7500    1.9180    0.0000 C   0  0  0  0  0  0  0  0  0  0  0  0
    5.7460    0.7970    0.0000 C   0  0  0  0  0  0  0  0  0  0  0  0
    5.2730   -0.6270    0.0000 C   0  0  0  0  0  0  0  0  0  0  0  0
    3.8030   -0.9280    0.0000 C   0  0  0  0  0  0  0  0  0  0  0  0
    2.8080    0.1930    0.0000 C   0  0  0  0  0  0  0  0  0  0  0  0
    1.3380   -0.1080    0.0000 O   0  0  0  0  0  0  0  0  0  0  0  0
    0.8650   -1.5320    0.0000 C   0  0  0  0  0  0  0  0  0  0  0  0
    3.2810    1.6170    0.0000 C   0  0  0  0  0  0  0  0  0  0  0  0
    9.7290    2.8790    0.0000 C   0  0  0  0  0  0  0  0  0  0  0  0
   11.0340    3.6200    0.0000 C   0  0  0  0  0  0  0  0  0  0  0  0
  1  2  1  0  0  0  0
  2  3  1  0  0  0  0
  2 24  2  0  0  0  0
  3  4  2  0  0  0  0
  4  5  1  0  0  0  0
  5  6  1  0  0  0  0
  5 23  2  0  0  0  0
  6  7  2  0  0  0  0
  6  8  1  0  0  0  0
  8  9  1  0  0  0  0
  8 16  1  0  0  0  0
  9 10  1  0  0  0  0
  9 11  2  0  0  0  0
 11 12  1  0  0  0  0
 11 15  1  0  0  0  0
 12 13  1  0  0  0  0
 13 14  2  0  0  0  0
 15 16  1  0  0  0  0
 15 22  2  0  0  0  0
 16 17  2  0  0  0  0
 17 18  1  0  0  0  0
 18 19  2  0  0  0  0
 19 20  1  0  0  0  0
 19 22  1  0  0  0  0
 20 21  1  0  0  0  0
 23 24  1  0  0  0  0
M  END
>  <name>
Clc1ccc(C(=O)n2c(C)c(C[C;amide]=O)c3c2ccc(OC)c3)cc1

>  <apo>
1

>  <freq>
2

>  <freq0>
0

>  <freq1>
2

>  <freqA>
1.9959997

>  <a_count>
40

$$$$

  MOE2015           2D

 20 21  0  0  1  0  0  0  0  0999 V2000
    1.8370    3.0530    0.0000 O   0  0  0  0  0  0  0  0  0  0  0  0
    2.5870    1.7540    0.0000 C   0  0  0  0  0  0  0  0  0  0  0  0
    1.8370    0.4550    0.0000 C   0  0  2  0  0  0  0  0  0  0  0  0
    2.5880   -0.8440    0.0000 N   0  0  0  0  0  0  0  0  0  0  0  0
    4.0880   -0.8440    0.0000 C   0  0  0  0  0  0  0  0  0  0  0  0
    4.8380    0.4550    0.0000 C   0  0  0  0  0  0  0  0  0  0  0  0
    6.3380    0.4550    0.0000 C   0  0  0  0  0  0  0  0  0  0  0  0
    7.0880   -0.8440    0.0000 C   0  0  0  0  0  0  0  0  0  0  0  0
    8.5880   -0.8440    0.0000 C   0  0  0  0  0  0  0  0  0  0  0  0
    8.5880    0.6560    0.0000 C   0  0  0  0  0  0  0  0  0  0  0  0
   10.0880   -0.8440    0.0000 C   0  0  0  0  0  0  0  0  0  0  0  0
    8.5880   -2.3440    0.0000 C   0  0  0  0  0  0  0  0  0  0  0  0
    6.3380   -2.1430    0.0000 C   0  0  0  0  0  0  0  0  0  0  0  0
    4.8380   -2.1430    0.0000 C   0  0  0  0  0  0  0  0  0  0  0  0
    0.3370    0.4550    0.0000 C   0  0  0  0  0  0  0  0  0  0  0  0
   -0.4130    1.7540    0.0000 C   0  0  0  0  0  0  0  0  0  0  0  0
   -1.9130    1.7540    0.0000 N   0  0  0  0  0  0  0  0  0  0  0  0
   -2.6630    0.4550    0.0000 C   0  0  0  0  0  0  0  0  0  0  0  0
   -1.9130   -0.8440    0.0000 C   0  0  0  0  0  0  0  0  0  0  0  0
   -0.4130   -0.8440    0.0000 C   0  0  0  0  0  0  0  0  0  0  0  0
  1  2  2  0  0  0  0
  3  2  1  6  0  0  0
  3  4  1  0  0  0  0
  3 15  1  0  0  0  0
  4  5  1  0  0  0  0
  5  6  1  0  0  0  0
  5 14  2  0  0  0  0
  6  7  2  0  0  0  0
  7  8  1  0  0  0  0
  8  9  1  0  0  0  0
  8 13  2  0  0  0  0
  9 10  1  0  0  0  0
  9 11  1  0  0  0  0
  9 12  1  0  0  0  0
 13 14  1  0  0  0  0
 15 16  2  0  0  0  0
 15 20  1  0  0  0  0
 16 17  1  0  0  0  0
 17 18  2  0  0  0  0
 18 19  1  0  0  0  0
 19 20  2  0  0  0  0
M  END
>  <name>
O=[C;amide][C@H]([N;amide]c1ccc(C(C)(C)C)cc1)c1cnccc1

>  <apo>
2

>  <freq>
2

>  <freq0>
0

>  <freq1>
2

>  <freqA>
1.9959997

>  <a_count>
40

$$$$

  MOE2015           2D

 23 24  0  0  1  0  0  0  0  0999 V2000
    6.3440   -2.6920    0.0000 O   0  0  0  0  0  0  0  0  0  0  0  0
    6.3440   -4.1920    0.0000 N   0  3  0  0  0  0  0  0  0  0  0  0
    7.6440   -4.9420    0.0000 O   0  5  0  0  0  0  0  0  0  0  0  0
    5.0450   -4.9420    0.0000 C   0  0  0  0  0  0  0  0  0  0  0  0
    3.7460   -4.1920    0.0000 C   0  0  0  0  0  0  0  0  0  0  0  0
    2.4470   -4.9420    0.0000 C   0  0  0  0  0  0  0  0  0  0  0  0
    1.1480   -4.1920    0.0000 C   0  0  3  0  0  0  0  0  0  0  0  0
   -0.1510   -4.9420    0.0000 C   0  0  0  0  0  0  0  0  0  0  0  0
   -0.1510   -6.4420    0.0000 C   0  0  0  0  0  0  0  0  0  0  0  0
    1.1480   -7.1920    0.0000 O   0  0  0  0  0  0  0  0  0  0  0  0
   -1.4500   -7.1920    0.0000 O   0  0  0  0  0  0  0  0  0  0  0  0
   -1.4500   -8.6920    0.0000 C   0  0  0  0  0  0  0  0  0  0  0  0
   -1.4500   -4.1920    0.0000 C   0  0  0  0  0  0  0  0  0  0  0  0
   -2.7490   -4.9420    0.0000 C   0  0  0  0  0  0  0  0  0  0  0  0
   -1.4500   -2.6920    0.0000 N   0  0  0  0  0  0  0  0  0  0  0  0
   -0.1510   -1.9420    0.0000 C   0  0  0  0  0  0  0  0  0  0  0  0
   -0.1510   -0.4420    0.0000 C   0  0  0  0  0  0  0  0  0  0  0  0
    1.1480   -2.6920    0.0000 C   0  0  0  0  0  0  0  0  0  0  0  0
    2.4470   -1.9420    0.0000 C   0  0  0  0  0  0  0  0  0  0  0  0
    2.4470   -0.4420    0.0000 O   0  0  0  0  0  0  0  0  0  0  0  0
    2.4470   -6.4420    0.0000 C   0  0  0  0  0  0  0  0  0  0  0  0
    3.7460   -7.1920    0.0000 C   0  0  0  0  0  0  0  0  0  0  0  0
    5.0450   -6.4420    0.0000 C   0  0  0  0  0  0  0  0  0  0  0  0
  1  2  2  0  0  0  0
  2  3  1  0  0  0  0
  2  4  1  0  0  0  0
  4  5  1  0  0  0  0
  4 23  2  0  0  0  0
  5  6  2  0  0  0  0
  6  7  1  0  0  0  0
  6 21  1  0  0  0  0
  7  8  1  0  0  0  0
  7 18  1  0  0  0  0
  8  9  1  0  0  0  0
  8 13  2  0  0  0  0
  9 10  2  0  0  0  0
  9 11  1  0  0  0  0
 11 12  1  0  0  0  0
 13 14  1  0  0  0  0
 13 15  1  0  0  0  0
 15 16  1  0  0  0  0
 16 17  1  0  0  0  0
 16 18  2  0  0  0  0
 18 19  1  0  0  0  0
 19 20  2  0  0  0  0
 21 22  2  0  0  0  0
 22 23  1  0  0  0  0
M  CHG  1   2   1
M  CHG  1   3  -1
M  END
>  <name>
O=[N+]([O-])c1cc(C2C(C(=O)OC)=C(C)NC(C)=C2[C;ester]=O)ccc1

>  <apo>
1

>  <freq>
2

>  <freq0>
0

>  <freq1>
2

>  <freqA>
1.9959997

>  <a_count>
39

$$$$

  MOE2015           2D

 21 22  0  0  1  0  0  0  0  0999 V2000
    1.0000   -1.7320    0.0000 O   0  0  0  0  0  0  0  0  0  0  0  0
    1.7500   -0.4330    0.0000 C   0  0  0  0  0  0  0  0  0  0  0  0
    3.2500   -0.4330    0.0000 O   0  0  0  0  0  0  0  0  0  0  0  0
    4.0000   -1.7320    0.0000 C   0  0  0  0  0  0  0  0  0  0  0  0
    5.5000   -1.7320    0.0000 C   0  0  0  0  0  0  0  0  0  0  0  0
    6.2500   -3.0310    0.0000 C   0  0  0  0  0  0  0  0  0  0  0  0
    7.7500   -3.0310    0.0000 C   0  0  0  0  0  0  0  0  0  0  0  0
    8.5000   -1.7320    0.0000 C   0  0  0  0  0  0  0  0  0  0  0  0
    7.7500   -0.4330    0.0000 C   0  0  0  0  0  0  0  0  0  0  0  0
    6.2500   -0.4330    0.0000 C   0  0  0  0  0  0  0  0  0  0  0  0
    1.0000    0.8660    0.0000 N   0  0  0  0  0  0  0  0  0  0  0  0
   -0.5000    0.8660    0.0000 C   0  0  2  0  0  0  0  0  0  0  0  0
   -1.2500    2.1650    0.0000 C   0  0  0  0  0  0  0  0  0  0  0  0
   -0.5000    3.4640    0.0000 O   0  0  0  0  0  0  0  0  0  0  0  0
   -1.2500   -0.4330    0.0000 C   0  0  0  0  0  0  0  0  0  0  0  0
   -2.7500   -0.4330    0.0000 C   0  0  0  0  0  0  0  0  0  0  0  0
   -3.5000   -1.7320    0.0000 C   0  0  0  0  0  0  0  0  0  0  0  0
   -5.0000   -1.7320    0.0000 C   0  0  0  0  0  0  0  0  0  0  0  0
   -5.7500   -0.4330    0.0000 C   0  0  0  0  0  0  0  0  0  0  0  0
   -5.0000    0.8660    0.0000 C   0  0  0  0  0  0  0  0  0  0  0  0
   -3.5000    0.8660    0.0000 C   0  0  0  0  0  0  0  0  0  0  0  0
  1  2  2  0  0  0  0
  2  3  1  0  0  0  0
  2 11  1  0  0  0  0
  3  4  1  0  0  0  0
  4  5  1  0  0  0  0
  5  6  1  0  0  0  0
  5 10  2  0  0  0  0
  6  7  2  0  0  0  0
  7  8  1  0  0  0  0
  8  9  2  0  0  0  0
  9 10  1  0  0  0  0
 12 11  1  1  0  0  0
 12 13  1  0  0  0  0
 12 15  1  0  0  0  0
 13 14  2  0  0  0  0
 15 16  1  0  0  0  0
 16 17  1  0  0  0  0
 16 21  2  0  0  0  0
 17 18  2  0  0  0  0
 18 19  1  0  0  0  0
 19 20  2  0  0  0  0
 20 21  1  0  0  0  0
M  END
>  <name>
O=C(OCc1ccccc1)N[C@H]([C;amide]=O)Cc1ccccc1

>  <apo>
1

>  <freq>
2

>  <freq0>
0

>  <freq1>
2

>  <freqA>
1.9959997

>  <a_count>
38

$$$$

  MOE2015           2D

 16 17  0  0  0  0  0  0  0  0999 V2000
   13.3120    0.0000    0.0000 N   0  3  0  0  0  0  0  0  0  0  0  0
   11.8120    0.0000    0.0000 C   0  0  0  0  0  0  0  0  0  0  0  0
   11.0620    1.2990    0.0000 C   0  0  0  0  0  0  0  0  0  0  0  0
    9.5620    1.2990    0.0000 C   0  0  0  0  0  0  0  0  0  0  0  0
    8.8120    2.5980    0.0000 C   0  0  0  0  0  0  0  0  0  0  0  0
    7.3120    2.5980    0.0000 C   0  0  0  0  0  0  0  0  0  0  0  0
    6.5620    1.2990    0.0000 C   0  0  0  0  0  0  0  0  0  0  0  0
    5.0620    1.2990    0.0000 N   0  0  0  0  0  0  0  0  0  0  0  0
    4.3120    2.5980    0.0000 C   0  0  0  0  0  0  0  0  0  0  0  0
    2.8120    2.5980    0.0000 C   0  0  0  0  0  0  0  0  0  0  0  0
    2.0620    1.2990    0.0000 C   0  0  0  0  0  0  0  0  0  0  0  0
    0.5620    1.2990    0.0000 N   0  0  0  0  0  0  0  0  0  0  0  0
    2.8120    0.0000    0.0000 C   0  0  0  0  0  0  0  0  0  0  0  0
    4.3120    0.0000    0.0000 C   0  0  0  0  0  0  0  0  0  0  0  0
    7.3120    0.0000    0.0000 C   0  0  0  0  0  0  0  0  0  0  0  0
    8.8120    0.0000    0.0000 C   0  0  0  0  0  0  0  0  0  0  0  0
  1  2  1  0  0  0  0
  2  3  1  0  0  0  0
  3  4  1  0  0  0  0
  4  5  1  0  0  0  0
  4 16  2  0  0  0  0
  5  6  2  0  0  0  0
  6  7  1  0  0  0  0
  7  8  1  0  0  0  0
  7 15  2  0  0  0  0
  8  9  1  0  0  0  0
  8 14  1  0  0  0  0
  9 10  1  0  0  0  0
 10 11  1  0  0  0  0
 11 12  1  0  0  0  0
 11 13  1  0  0  0  0
 13 14  1  0  0  0  0
 15 16  1  0  0  0  0
M  CHG  1   1   1
M  END
>  <name>
[N+]CCc1ccc(N2CCC([N;amide])CC2)cc1

>  <apo>
1

>  <freq>
2

>  <freq0>
0

>  <freq1>
2

>  <freqA>
1.9959997

>  <a_count>
38

$$$$

  MOE2015           2D

 18 18  0  0  1  0  0  0  0  0999 V2000
    0.4580   -1.6600    0.0000 O   0  0  0  0  0  0  0  0  0  0  0  0
    1.2080   -0.3610    0.0000 C   0  0  0  0  0  0  0  0  0  0  0  0
    2.7080   -0.3610    0.0000 O   0  0  0  0  0  0  0  0  0  0  0  0
    3.4580   -1.6600    0.0000 C   0  0  0  0  0  0  0  0  0  0  0  0
    4.9580   -1.6600    0.0000 C   0  0  0  0  0  0  0  0  0  0  0  0
    5.7080   -0.3610    0.0000 C   0  0  0  0  0  0  0  0  0  0  0  0
    7.2080   -0.3610    0.0000 C   0  0  0  0  0  0  0  0  0  0  0  0
    7.9580   -1.6600    0.0000 C   0  0  0  0  0  0  0  0  0  0  0  0
    7.2080   -2.9590    0.0000 C   0  0  0  0  0  0  0  0  0  0  0  0
    5.7080   -2.9590    0.0000 C   0  0  0  0  0  0  0  0  0  0  0  0
    0.4580    0.9380    0.0000 N   0  0  0  0  0  0  0  0  0  0  0  0
   -1.0420    0.9380    0.0000 C   0  0  1  0  0  0  0  0  0  0  0  0
   -1.7920    2.2370    0.0000 C   0  0  0  0  0  0  0  0  0  0  0  0
   -1.0420    3.5360    0.0000 O   0  0  0  0  0  0  0  0  0  0  0  0
   -1.7920   -0.3610    0.0000 C   0  0  0  0  0  0  0  0  0  0  0  0
   -3.2920   -0.3610    0.0000 C   0  0  0  0  0  0  0  0  0  0  0  0
   -4.0420   -1.6600    0.0000 C   0  0  0  0  0  0  0  0  0  0  0  0
   -4.0420    0.9380    0.0000 C   0  0  0  0  0  0  0  0  0  0  0  0
  1  2  2  0  0  0  0
  2  3  1  0  0  0  0
  2 11  1  0  0  0  0
  3  4  1  0  0  0  0
  4  5  1  0  0  0  0
  5  6  1  0  0  0  0
  5 10  2  0  0  0  0
  6  7  2  0  0  0  0
  7  8  1  0  0  0  0
  8  9  2  0  0  0  0
  9 10  1  0  0  0  0
 12 11  1  6  0  0  0
 12 13  1  0  0  0  0
 12 15  1  0  0  0  0
 13 14  2  0  0  0  0
 15 16  1  0  0  0  0
 16 17  1  0  0  0  0
 16 18  1  0  0  0  0
M  END
>  <name>
O=C(OCc1ccccc1)N[C@@H]([C;amide]=O)CC(C)C

>  <apo>
1

>  <freq>
2

>  <freq0>
0

>  <freq1>
2

>  <freqA>
1.9959997

>  <a_count>
37

$$$$

  MOE2015           2D

 16 16  0  0  1  0  0  0  0  0999 V2000
    0.6700    1.1810    0.0000 O   0  0  0  0  0  0  0  0  0  0  0  0
    1.4400   -0.1060    0.0000 C   0  0  0  0  0  0  0  0  0  0  0  0
    0.7100   -1.4160    0.0000 C   0  0  1  0  0  0  0  0  0  0  0  0
    1.4800   -2.7040    0.0000 N   0  0  0  0  0  0  0  0  0  0  0  0
   -0.7900   -1.4390    0.0000 C   0  0  0  0  0  0  0  0  0  0  0  0
   -0.7670   -2.9390    0.0000 C   0  0  0  0  0  0  0  0  0  0  0  0
   -2.2900   -1.4620    0.0000 C   0  0  0  0  0  0  0  0  0  0  0  0
   -0.8130    0.0600    0.0000 C   0  0  0  0  0  0  0  0  0  0  0  0
    2.9400   -0.0830    0.0000 C   0  0  3  0  0  0  0  0  0  0  0  0
    3.8030    1.1440    0.0000 C   0  0  2  0  0  0  0  0  0  0  0  0
    3.3170    2.5630    0.0000 O   0  0  0  0  0  0  0  0  0  0  0  0
    5.2360    0.7020    0.0000 C   0  0  0  0  0  0  0  0  0  0  0  0
    5.2590   -0.7980    0.0000 C   0  0  1  0  0  0  0  0  0  0  0  0
    6.4860   -1.6610    0.0000 C   0  0  0  0  0  0  0  0  0  0  0  0
    7.8470   -1.0300    0.0000 O   0  0  0  0  0  0  0  0  0  0  0  0
    3.8400   -1.2830    0.0000 N   0  3  0  0  0  0  0  0  0  0  0  0
  1  2  2  0  0  0  0
  2  3  1  0  0  0  0
  2  9  1  0  0  0  0
  3  4  1  1  0  0  0
  3  5  1  0  0  0  0
  5  6  1  0  0  0  0
  5  7  1  0  0  0  0
  5  8  1  0  0  0  0
  9 10  1  0  0  0  0
  9 16  1  0  0  0  0
 10 11  1  6  0  0  0
 10 12  1  0  0  0  0
 12 13  1  0  0  0  0
 13 14  1  1  0  0  0
 13 16  1  0  0  0  0
 14 15  2  0  0  0  0
M  CHG  1  16   1
M  END
>  <name>
O=C([C@@H]([N;amide])C(C)(C)C)C1[C@H](O)C[C@@H]([C;amide]=O)[N+]1

>  <apo>
2

>  <freq>
2

>  <freq0>
0

>  <freq1>
2

>  <freqA>
1.9959997

>  <a_count>
37

$$$$

  MOE2015           2D

 20 20  0  0  0  0  0  0  0  0999 V2000
   -2.9890    0.8010    0.0000 S   0  0  0  0  0  0  0  0  0  0  0  0
   -4.2880    1.5510    0.0000 O   0  0  0  0  0  0  0  0  0  0  0  0
   -1.6900    0.0510    0.0000 O   0  0  0  0  0  0  0  0  0  0  0  0
   -2.2390    2.1000    0.0000 N   0  0  0  0  0  0  0  0  0  0  0  0
   -2.9890    3.3990    0.0000 S   0  0  0  0  0  0  0  0  0  0  0  0
   -1.6900    4.1490    0.0000 O   0  0  0  0  0  0  0  0  0  0  0  0
   -4.2880    2.6490    0.0000 O   0  0  0  0  0  0  0  0  0  0  0  0
   -3.7390    4.6980    0.0000 C   0  0  0  0  0  0  0  0  0  0  0  0
   -5.2390    4.6980    0.0000 C   0  0  0  0  0  0  0  0  0  0  0  0
   -0.7390    2.1000    0.0000 C   0  0  0  0  0  0  0  0  0  0  0  0
    0.0110    3.3990    0.0000 C   0  0  0  0  0  0  0  0  0  0  0  0
    1.5110    3.3990    0.0000 C   0  0  0  0  0  0  0  0  0  0  0  0
    2.2610    2.1000    0.0000 C   0  0  0  0  0  0  0  0  0  0  0  0
    3.7610    2.1000    0.0000 C   0  0  0  0  0  0  0  0  0  0  0  0
    4.5110    3.3990    0.0000 O   0  0  0  0  0  0  0  0  0  0  0  0
    4.5110    0.8010    0.0000 C   0  0  0  0  0  0  0  0  0  0  0  0
    1.5110    0.8010    0.0000 C   0  0  0  0  0  0  0  0  0  0  0  0
    0.0110    0.8010    0.0000 C   0  0  0  0  0  0  0  0  0  0  0  0
   -3.7390   -0.4980    0.0000 C   0  0  0  0  0  0  0  0  0  0  0  0
   -5.2390   -0.4980    0.0000 C   0  0  0  0  0  0  0  0  0  0  0  0
  1  2  2  0  0  0  0
  1  3  2  0  0  0  0
  1  4  1  0  0  0  0
  1 19  1  0  0  0  0
  4  5  1  0  0  0  0
  4 10  1  0  0  0  0
  5  6  2  0  0  0  0
  5  7  2  0  0  0  0
  5  8  1  0  0  0  0
  8  9  1  0  0  0  0
 10 11  1  0  0  0  0
 10 18  2  0  0  0  0
 11 12  2  0  0  0  0
 12 13  1  0  0  0  0
 13 14  1  0  0  0  0
 13 17  2  0  0  0  0
 14 15  2  0  0  0  0
 14 16  1  0  0  0  0
 17 18  1  0  0  0  0
 19 20  1  0  0  0  0
M  END
>  <name>
S(=O)(=O)(N(S(=O)(=O)CC)c1ccc(C(=O)[C;olefin])cc1)CC

>  <apo>
1

>  <freq>
2

>  <freq0>
0

>  <freq1>
2

>  <freqA>
1.9959997

>  <a_count>
37

$$$$

  MOE2015           2D

 24 26  0  0  0  0  0  0  0  0999 V2000
   -5.8460    3.3750    0.0000 S   0  0  0  0  0  0  0  0  0  0  0  0
   -6.5960    4.6740    0.0000 O   0  0  0  0  0  0  0  0  0  0  0  0
   -5.0960    2.0760    0.0000 O   0  0  0  0  0  0  0  0  0  0  0  0
   -7.1450    2.6250    0.0000 O   0  5  0  0  0  0  0  0  0  0  0  0
   -4.5470    4.1250    0.0000 C   0  0  0  0  0  0  0  0  0  0  0  0
   -3.2480    3.3750    0.0000 C   0  0  0  0  0  0  0  0  0  0  0  0
   -1.9490    4.1250    0.0000 C   0  0  0  0  0  0  0  0  0  0  0  0
   -0.6500    3.3750    0.0000 O   0  0  0  0  0  0  0  0  0  0  0  0
   -1.9490    5.6250    0.0000 C   0  0  0  0  0  0  0  0  0  0  0  0
   -0.6500    6.3750    0.0000 C   0  0  0  0  0  0  0  0  0  0  0  0
    0.6500    5.6250    0.0000 N   0  0  0  0  0  0  0  0  0  0  0  0
    1.9490    6.3750    0.0000 N   0  0  0  0  0  0  0  0  0  0  0  0
    3.2480    5.6250    0.0000 C   0  0  0  0  0  0  0  0  0  0  0  0
    3.2480    4.1250    0.0000 C   0  0  0  0  0  0  0  0  0  0  0  0
    4.5470    3.3750    0.0000 C   0  0  0  0  0  0  0  0  0  0  0  0
    5.8460    4.1250    0.0000 C   0  0  0  0  0  0  0  0  0  0  0  0
    5.8460    5.6250    0.0000 C   0  0  0  0  0  0  0  0  0  0  0  0
    4.5470    6.3750    0.0000 C   0  0  0  0  0  0  0  0  0  0  0  0
   -0.6500    7.8750    0.0000 C   0  0  0  0  0  0  0  0  0  0  0  0
    0.6500    8.6250    0.0000 N   0  0  0  0  0  0  0  0  0  0  0  0
   -1.9490    8.6250    0.0000 C   0  0  0  0  0  0  0  0  0  0  0  0
   -3.2480    7.8750    0.0000 C   0  0  0  0  0  0  0  0  0  0  0  0
   -3.2480    6.3750    0.0000 C   0  0  0  0  0  0  0  0  0  0  0  0
   -4.5470    5.6250    0.0000 C   0  0  0  0  0  0  0  0  0  0  0  0
  1  2  2  0  0  0  0
  1  3  2  0  0  0  0
  1  4  1  0  0  0  0
  1  5  1  0  0  0  0
  5  6  1  0  0  0  0
  5 24  2  0  0  0  0
  6  7  2  0  0  0  0
  7  8  1  0  0  0  0
  7  9  1  0  0  0  0
  9 10  1  0  0  0  0
  9 23  2  0  0  0  0
 10 11  1  0  0  0  0
 10 19  2  0  0  0  0
 11 12  2  0  0  0  0
 12 13  1  0  0  0  0
 13 14  1  0  0  0  0
 13 18  2  0  0  0  0
 14 15  2  0  0  0  0
 15 16  1  0  0  0  0
 16 17  2  0  0  0  0
 17 18  1  0  0  0  0
 19 20  1  0  0  0  0
 19 21  1  0  0  0  0
 21 22  2  0  0  0  0
 22 23  1  0  0  0  0
 23 24  1  0  0  0  0
M  CHG  1   4  -1
M  END
>  <name>
S(=O)(=O)([O-])c1cc(O)c2c(N=Nc3cc[c;biphenyl]cc3)c(N)ccc2c1

>  <apo>
1

>  <freq>
2

>  <freq0>
0

>  <freq1>
2

>  <freqA>
1.9959997

>  <a_count>
36

$$$$

  MOE2015           2D

 16 17  0  0  0  0  0  0  0  0999 V2000
   -0.8440    7.4690    0.0000 O   0  0  0  0  0  0  0  0  0  0  0  0
   -1.5940    6.1700    0.0000 C   0  0  0  0  0  0  0  0  0  0  0  0
   -0.8440    4.8710    0.0000 C   0  0  0  0  0  0  0  0  0  0  0  0
   -1.5940    3.5720    0.0000 C   0  0  0  0  0  0  0  0  0  0  0  0
   -3.0940    3.5720    0.0000 C   0  0  0  0  0  0  0  0  0  0  0  0
   -0.8440    2.2730    0.0000 C   0  0  0  0  0  0  0  0  0  0  0  0
    0.6560    2.2730    0.0000 C   0  0  0  0  0  0  0  0  0  0  0  0
    1.4060    3.5720    0.0000 C   0  0  0  0  0  0  0  0  0  0  0  0
    2.9060    3.5720    0.0000 N   0  0  0  0  0  0  0  0  0  0  0  0
    3.6560    4.8710    0.0000 C   0  0  0  0  0  0  0  0  0  0  0  0
    5.1560    4.8710    0.0000 C   0  0  0  0  0  0  0  0  0  0  0  0
    5.9060    3.5720    0.0000 N   0  3  0  0  0  0  0  0  0  0  0  0
    7.4060    3.5720    0.0000 C   0  0  0  0  0  0  0  0  0  0  0  0
    5.1560    2.2730    0.0000 C   0  0  0  0  0  0  0  0  0  0  0  0
    3.6560    2.2730    0.0000 C   0  0  0  0  0  0  0  0  0  0  0  0
    0.6560    4.8710    0.0000 C   0  0  0  0  0  0  0  0  0  0  0  0
  1  2  2  0  0  0  0
  2  3  1  0  0  0  0
  3  4  1  0  0  0  0
  3 16  2  0  0  0  0
  4  5  1  0  0  0  0
  4  6  2  0  0  0  0
  6  7  1  0  0  0  0
  7  8  2  0  0  0  0
  8  9  1  0  0  0  0
  8 16  1  0  0  0  0
  9 10  1  0  0  0  0
  9 15  1  0  0  0  0
 10 11  1  0  0  0  0
 11 12  1  0  0  0  0
 12 13  1  0  0  0  0
 12 14  1  0  0  0  0
 14 15  1  0  0  0  0
M  CHG  1  12   1
M  END
>  <name>
O=[C;amide]c1c(C)ccc(N2CC[N+](C)CC2)c1

>  <apo>
1

>  <freq>
2

>  <freq0>
0

>  <freq1>
2

>  <freqA>
1.9959997

>  <a_count>
35

$$$$

  MOE2015           2D

 23 25  0  0  0  0  0  0  0  0999 V2000
   -4.2490   -1.1390    0.0000 S   0  0  0  0  0  0  0  0  0  0  0  0
   -5.5480   -1.8890    0.0000 O   0  0  0  0  0  0  0  0  0  0  0  0
   -2.9500   -0.3890    0.0000 O   0  0  0  0  0  0  0  0  0  0  0  0
   -4.9990    0.1610    0.0000 O   0  5  0  0  0  0  0  0  0  0  0  0
   -3.4990   -2.4380    0.0000 C   0  0  0  0  0  0  0  0  0  0  0  0
   -4.2490   -3.7370    0.0000 C   0  0  0  0  0  0  0  0  0  0  0  0
   -3.4990   -5.0360    0.0000 C   0  0  0  0  0  0  0  0  0  0  0  0
   -1.9990   -5.0360    0.0000 C   0  0  0  0  0  0  0  0  0  0  0  0
   -1.2490   -6.3350    0.0000 N   0  0  0  0  0  0  0  0  0  0  0  0
   -1.2490   -3.7370    0.0000 C   0  0  0  0  0  0  0  0  0  0  0  0
    0.2510   -3.7370    0.0000 N   0  0  0  0  0  0  0  0  0  0  0  0
    1.0010   -2.4380    0.0000 N   0  0  0  0  0  0  0  0  0  0  0  0
    2.5010   -2.4380    0.0000 C   0  0  0  0  0  0  0  0  0  0  0  0
    3.2510   -3.7370    0.0000 C   0  0  0  0  0  0  0  0  0  0  0  0
    4.7510   -3.7370    0.0000 C   0  0  0  0  0  0  0  0  0  0  0  0
    5.5010   -2.4380    0.0000 C   0  0  0  0  0  0  0  0  0  0  0  0
    4.7510   -1.1390    0.0000 C   0  0  0  0  0  0  0  0  0  0  0  0
    3.2510   -1.1390    0.0000 C   0  0  0  0  0  0  0  0  0  0  0  0
   -1.9990   -2.4380    0.0000 C   0  0  0  0  0  0  0  0  0  0  0  0
   -4.2490   -6.3350    0.0000 C   0  0  0  0  0  0  0  0  0  0  0  0
   -5.7490   -6.3350    0.0000 C   0  0  0  0  0  0  0  0  0  0  0  0
   -6.4990   -5.0360    0.0000 C   0  0  0  0  0  0  0  0  0  0  0  0
   -5.7490   -3.7370    0.0000 C   0  0  0  0  0  0  0  0  0  0  0  0
  1  2  2  0  0  0  0
  1  3  2  0  0  0  0
  1  4  1  0  0  0  0
  1  5  1  0  0  0  0
  5  6  1  0  0  0  0
  5 19  2  0  0  0  0
  6  7  1  0  0  0  0
  6 23  2  0  0  0  0
  7  8  1  0  0  0  0
  7 20  2  0  0  0  0
  8  9  1  0  0  0  0
  8 10  2  0  0  0  0
 10 11  1  0  0  0  0
 10 19  1  0  0  0  0
 11 12  2  0  0  0  0
 12 13  1  0  0  0  0
 13 14  1  0  0  0  0
 13 18  2  0  0  0  0
 14 15  2  0  0  0  0
 15 16  1  0  0  0  0
 16 17  2  0  0  0  0
 17 18  1  0  0  0  0
 20 21  1  0  0  0  0
 21 22  2  0  0  0  0
 22 23  1  0  0  0  0
M  CHG  1   4  -1
M  END
>  <name>
S(=O)(=O)([O-])c1c2c(c(N)c(N=Nc3cc[c;biphenyl]cc3)c1)cccc2

>  <apo>
1

>  <freq>
2

>  <freq0>
0

>  <freq1>
2

>  <freqA>
1.9959997

>  <a_count>
35

$$$$

  MOE2015           2D

 18 19  0  0  0  0  0  0  0  0999 V2000
    0.3650   -1.3620    0.0000 F   0  0  0  0  0  0  0  0  0  0  0  0
    1.6640   -0.6120    0.0000 C   0  0  0  0  0  0  0  0  0  0  0  0
    2.9630   -1.3620    0.0000 C   0  0  0  0  0  0  0  0  0  0  0  0
    4.2620   -0.6120    0.0000 C   0  0  0  0  0  0  0  0  0  0  0  0
    4.2620    0.8880    0.0000 C   0  0  0  0  0  0  0  0  0  0  0  0
    5.5610    1.6380    0.0000 C   0  0  0  0  0  0  0  0  0  0  0  0
    5.5610    3.1380    0.0000 C   0  0  0  0  0  0  0  0  0  0  0  0
    4.2620    3.8880    0.0000 C   0  0  0  0  0  0  0  0  0  0  0  0
    4.2620    5.3880    0.0000 C   0  0  0  0  0  0  0  0  0  0  0  0
    6.8600    0.8880    0.0000 C   0  0  0  0  0  0  0  0  0  0  0  0
    6.8600   -0.6120    0.0000 C   0  0  0  0  0  0  0  0  0  0  0  0
    8.1590   -1.3620    0.0000 C   0  0  0  0  0  0  0  0  0  0  0  0
    9.4580   -0.6120    0.0000 C   0  0  0  0  0  0  0  0  0  0  0  0
   10.7570   -1.3620    0.0000 F   0  0  0  0  0  0  0  0  0  0  0  0
    9.4580    0.8880    0.0000 C   0  0  0  0  0  0  0  0  0  0  0  0
    8.1590    1.6380    0.0000 C   0  0  0  0  0  0  0  0  0  0  0  0
    2.9630    1.6380    0.0000 C   0  0  0  0  0  0  0  0  0  0  0  0
    1.6640    0.8880    0.0000 C   0  0  0  0  0  0  0  0  0  0  0  0
  1  2  1  0  0  0  0
  2  3  1  0  0  0  0
  2 18  2  0  0  0  0
  3  4  2  0  0  0  0
  4  5  1  0  0  0  0
  5  6  1  0  0  0  0
  5 17  2  0  0  0  0
  6  7  1  0  0  0  0
  6 10  1  0  0  0  0
  7  8  1  0  0  0  0
  8  9  1  0  0  0  0
 10 11  1  0  0  0  0
 10 16  2  0  0  0  0
 11 12  2  0  0  0  0
 12 13  1  0  0  0  0
 13 14  1  0  0  0  0
 13 15  2  0  0  0  0
 15 16  1  0  0  0  0
 17 18  1  0  0  0  0
M  END
>  <name>
Fc1ccc(C(CC[C;amine])c2ccc(F)cc2)cc1

>  <apo>
1

>  <freq>
2

>  <freq0>
0

>  <freq1>
2

>  <freqA>
1.9959997

>  <a_count>
34

$$$$

  MOE2015           2D

 17 17  0  0  1  0  0  0  0  0999 V2000
    1.2980   -2.6730    0.0000 O   0  0  0  0  0  0  0  0  0  0  0  0
    1.2980   -1.1730    0.0000 C   0  0  0  0  0  0  0  0  0  0  0  0
    2.5970   -0.4230    0.0000 O   0  0  0  0  0  0  0  0  0  0  0  0
    3.8960   -1.1730    0.0000 C   0  0  0  0  0  0  0  0  0  0  0  0
    5.1950   -0.4230    0.0000 C   0  0  0  0  0  0  0  0  0  0  0  0
    5.1950    1.0770    0.0000 C   0  0  0  0  0  0  0  0  0  0  0  0
    6.4940    1.8270    0.0000 C   0  0  0  0  0  0  0  0  0  0  0  0
    7.7930    1.0770    0.0000 C   0  0  0  0  0  0  0  0  0  0  0  0
    7.7930   -0.4230    0.0000 C   0  0  0  0  0  0  0  0  0  0  0  0
    6.4940   -1.1730    0.0000 C   0  0  0  0  0  0  0  0  0  0  0  0
   -0.0010   -0.4230    0.0000 N   0  0  0  0  0  0  0  0  0  0  0  0
   -1.3010   -1.1730    0.0000 C   0  0  1  0  0  0  0  0  0  0  0  0
   -1.3010   -2.6730    0.0000 C   0  0  0  0  0  0  0  0  0  0  0  0
   -2.6000   -3.4230    0.0000 O   0  0  0  0  0  0  0  0  0  0  0  0
   -2.6000   -0.4230    0.0000 C   0  0  0  0  0  0  0  0  0  0  0  0
   -2.6000    1.0770    0.0000 C   0  0  0  0  0  0  0  0  0  0  0  0
   -3.8990   -1.1730    0.0000 C   0  0  0  0  0  0  0  0  0  0  0  0
  1  2  2  0  0  0  0
  2  3  1  0  0  0  0
  2 11  1  0  0  0  0
  3  4  1  0  0  0  0
  4  5  1  0  0  0  0
  5  6  1  0  0  0  0
  5 10  2  0  0  0  0
  6  7  2  0  0  0  0
  7  8  1  0  0  0  0
  8  9  2  0  0  0  0
  9 10  1  0  0  0  0
 12 11  1  1  0  0  0
 12 13  1  0  0  0  0
 12 15  1  0  0  0  0
 13 14  2  0  0  0  0
 15 16  1  0  0  0  0
 15 17  1  0  0  0  0
M  END
>  <name>
O=C(OCc1ccccc1)N[C@@H]([C;amide]=O)C(C)C

>  <apo>
1

>  <freq>
2

>  <freq0>
0

>  <freq1>
2

>  <freqA>
1.9959997

>  <a_count>
34

$$$$

  MOE2015           2D

 19 19  0  0  1  0  0  0  0  0999 V2000
    0.7110   -1.3670    0.0000 O   0  0  0  0  0  0  0  0  0  0  0  0
    1.4610   -0.0680    0.0000 C   0  0  0  0  0  0  0  0  0  0  0  0
    2.9610   -0.0680    0.0000 O   0  0  0  0  0  0  0  0  0  0  0  0
    3.7110   -1.3670    0.0000 C   0  0  0  0  0  0  0  0  0  0  0  0
    5.2110   -1.3670    0.0000 C   0  0  0  0  0  0  0  0  0  0  0  0
    5.9610   -0.0680    0.0000 C   0  0  0  0  0  0  0  0  0  0  0  0
    7.4610   -0.0680    0.0000 C   0  0  0  0  0  0  0  0  0  0  0  0
    8.2110   -1.3670    0.0000 C   0  0  0  0  0  0  0  0  0  0  0  0
    7.4610   -2.6660    0.0000 C   0  0  0  0  0  0  0  0  0  0  0  0
    5.9610   -2.6660    0.0000 C   0  0  0  0  0  0  0  0  0  0  0  0
    0.7110    1.2310    0.0000 N   0  0  0  0  0  0  0  0  0  0  0  0
   -0.7890    1.2310    0.0000 C   0  0  2  0  0  0  0  0  0  0  0  0
   -1.5390    2.5300    0.0000 C   0  0  0  0  0  0  0  0  0  0  0  0
   -0.7890    3.8290    0.0000 O   0  0  0  0  0  0  0  0  0  0  0  0
   -1.5390   -0.0680    0.0000 C   0  0  0  0  0  0  0  0  0  0  0  0
   -3.0390   -0.0680    0.0000 C   0  0  0  0  0  0  0  0  0  0  0  0
   -3.7890   -1.3670    0.0000 O   0  0  0  0  0  0  0  0  0  0  0  0
   -3.7890    1.2310    0.0000 O   0  0  0  0  0  0  0  0  0  0  0  0
   -5.2890    1.2310    0.0000 C   0  0  0  0  0  0  0  0  0  0  0  0
  1  2  2  0  0  0  0
  2  3  1  0  0  0  0
  2 11  1  0  0  0  0
  3  4  1  0  0  0  0
  4  5  1  0  0  0  0
  5  6  1  0  0  0  0
  5 10  2  0  0  0  0
  6  7  2  0  0  0  0
  7  8  1  0  0  0  0
  8  9  2  0  0  0  0
  9 10  1  0  0  0  0
 12 11  1  1  0  0  0
 12 13  1  0  0  0  0
 12 15  1  0  0  0  0
 13 14  2  0  0  0  0
 15 16  1  0  0  0  0
 16 17  2  0  0  0  0
 16 18  1  0  0  0  0
 18 19  1  0  0  0  0
M  END
>  <name>
O=C(OCc1ccccc1)N[C@H]([C;amide]=O)CC(=O)OC

>  <apo>
1

>  <freq>
2

>  <freq0>
0

>  <freq1>
2

>  <freqA>
1.9959997

>  <a_count>
34

$$$$

  MOE2015           2D

 12 13  0  0  1  0  0  0  0  0999 V2000
    8.0010   -3.2690    0.0000 O   0  0  0  0  0  0  0  0  0  0  0  0
    6.7020   -4.0190    0.0000 C   0  0  0  0  0  0  0  0  0  0  0  0
    5.4030   -3.2690    0.0000 C   0  0  1  0  0  0  0  0  0  0  0  0
    5.4030   -1.7690    0.0000 N   0  3  0  0  0  0  0  0  0  0  0  0
    4.1040   -1.0190    0.0000 C   0  0  0  0  0  0  0  0  0  0  0  0
    2.8050   -1.7690    0.0000 C   0  0  2  0  0  0  0  0  0  0  0  0
    2.8050   -3.2690    0.0000 C   0  0  2  0  0  0  0  0  0  0  0  0
    4.1040   -4.0190    0.0000 C   0  0  0  0  0  0  0  0  0  0  0  0
    1.5060   -4.0190    0.0000 C   0  0  0  0  0  0  0  0  0  0  0  0
    0.2070   -3.2690    0.0000 C   0  0  0  0  0  0  0  0  0  0  0  0
    0.2070   -1.7690    0.0000 C   0  0  0  0  0  0  0  0  0  0  0  0
    1.5060   -1.0190    0.0000 C   0  0  0  0  0  0  0  0  0  0  0  0
  1  2  2  0  0  0  0
  3  2  1  6  0  0  0
  3  4  1  0  0  0  0
  3  8  1  0  0  0  0
  4  5  1  0  0  0  0
  6  5  1  6  0  0  0
  6  7  1  0  0  0  0
  6 12  1  0  0  0  0
  7  8  1  0  0  0  0
  7  9  1  6  0  0  0
  9 10  1  0  0  0  0
 10 11  1  0  0  0  0
 11 12  1  0  0  0  0
M  CHG  1   4   1
M  END
>  <name>
O=[C;amide][C@H]1[N+;amine]C[C@@H]2[C@H](C1)CCCC2

>  <apo>
2

>  <freq>
2

>  <freq0>
0

>  <freq1>
2

>  <freqA>
1.9959997

>  <a_count>
30

$$$$

  MOE2015           2D

 19 21  0  0  0  0  0  0  0  0999 V2000
    1.6180    2.8030    0.0000 O   0  0  0  0  0  0  0  0  0  0  0  0
    2.3680    1.5040    0.0000 C   0  0  0  0  0  0  0  0  0  0  0  0
    1.6180    0.2050    0.0000 C   0  0  0  0  0  0  0  0  0  0  0  0
    0.1180    0.2050    0.0000 C   0  0  0  0  0  0  0  0  0  0  0  0
   -0.6320    1.5040    0.0000 O   0  0  0  0  0  0  0  0  0  0  0  0
   -0.6320   -1.0940    0.0000 C   0  0  0  0  0  0  0  0  0  0  0  0
    0.1180   -2.3930    0.0000 C   0  0  0  0  0  0  0  0  0  0  0  0
   -0.6320   -3.6920    0.0000 O   0  0  0  0  0  0  0  0  0  0  0  0
    1.6180   -2.3930    0.0000 C   0  0  0  0  0  0  0  0  0  0  0  0
    2.3680   -1.0940    0.0000 C   0  0  0  0  0  0  0  0  0  0  0  0
    3.8680   -1.0940    0.0000 O   0  0  0  0  0  0  0  0  0  0  0  0
    4.6180    0.2050    0.0000 C   0  0  0  0  0  0  0  0  0  0  0  0
    6.1180    0.2050    0.0000 C   0  0  0  0  0  0  0  0  0  0  0  0
    6.8680    1.5040    0.0000 C   0  0  0  0  0  0  0  0  0  0  0  0
    8.3680    1.5040    0.0000 C   0  0  0  0  0  0  0  0  0  0  0  0
    9.1180    0.2050    0.0000 C   0  0  0  0  0  0  0  0  0  0  0  0
    8.3680   -1.0940    0.0000 C   0  0  0  0  0  0  0  0  0  0  0  0
    6.8680   -1.0940    0.0000 C   0  0  0  0  0  0  0  0  0  0  0  0
    3.8680    1.5040    0.0000 C   0  0  0  0  0  0  0  0  0  0  0  0
  1  2  2  0  0  0  0
  2  3  1  0  0  0  0
  2 19  1  0  0  0  0
  3  4  1  0  0  0  0
  3 10  2  0  0  0  0
  4  5  1  0  0  0  0
  4  6  2  0  0  0  0
  6  7  1  0  0  0  0
  7  8  1  0  0  0  0
  7  9  2  0  0  0  0
  9 10  1  0  0  0  0
 10 11  1  0  0  0  0
 11 12  1  0  0  0  0
 12 13  1  0  0  0  0
 12 19  2  0  0  0  0
 13 14  1  0  0  0  0
 13 18  2  0  0  0  0
 14 15  2  0  0  0  0
 15 16  1  0  0  0  0
 16 17  2  0  0  0  0
 17 18  1  0  0  0  0
M  END
>  <name>
O=C1c2c(O)cc([O;ether])cc2OC(c2ccccc2)=C1

>  <apo>
1

>  <freq>
2

>  <freq0>
0

>  <freq1>
2

>  <freqA>
1.9959997

>  <a_count>
29

$$$$

  MOE2015           2D

 23 24  0  0  0  0  0  0  0  0999 V2000
   -3.6710    2.1200    0.0000 S   0  0  0  0  0  0  0  0  0  0  0  0
   -4.4210    3.4190    0.0000 O   0  0  0  0  0  0  0  0  0  0  0  0
   -2.9210    0.8210    0.0000 O   0  0  0  0  0  0  0  0  0  0  0  0
   -4.9700    1.3700    0.0000 O   0  5  0  0  0  0  0  0  0  0  0  0
   -2.3720    2.8700    0.0000 C   0  0  0  0  0  0  0  0  0  0  0  0
   -1.0730    2.1200    0.0000 C   0  0  0  0  0  0  0  0  0  0  0  0
   -1.0730    0.6200    0.0000 C   0  0  0  0  0  0  0  0  0  0  0  0
   -2.3720   -0.1300    0.0000 N   0  0  0  0  0  0  0  0  0  0  0  0
    0.2260   -0.1300    0.0000 C   0  0  0  0  0  0  0  0  0  0  0  0
    1.5250    0.6200    0.0000 C   0  0  0  0  0  0  0  0  0  0  0  0
    1.5250    2.1200    0.0000 C   0  0  0  0  0  0  0  0  0  0  0  0
    2.8240    2.8700    0.0000 S   0  0  0  0  0  0  0  0  0  0  0  0
    2.0740    4.1690    0.0000 O   0  0  0  0  0  0  0  0  0  0  0  0
    3.5740    1.5710    0.0000 O   0  0  0  0  0  0  0  0  0  0  0  0
    4.1230    3.6200    0.0000 O   0  5  0  0  0  0  0  0  0  0  0  0
    0.2260    2.8700    0.0000 C   0  0  0  0  0  0  0  0  0  0  0  0
    0.2260    4.3700    0.0000 C   0  0  0  0  0  0  0  0  0  0  0  0
   -1.0730    5.1200    0.0000 C   0  0  0  0  0  0  0  0  0  0  0  0
   -1.0730    6.6200    0.0000 S   0  0  0  0  0  0  0  0  0  0  0  0
    0.4270    6.6200    0.0000 O   0  0  0  0  0  0  0  0  0  0  0  0
   -2.5730    6.6200    0.0000 O   0  0  0  0  0  0  0  0  0  0  0  0
   -1.0730    8.1200    0.0000 O   0  5  0  0  0  0  0  0  0  0  0  0
   -2.3720    4.3700    0.0000 C   0  0  0  0  0  0  0  0  0  0  0  0
  1  2  2  0  0  0  0
  1  3  2  0  0  0  0
  1  4  1  0  0  0  0
  1  5  1  0  0  0  0
  5  6  1  0  0  0  0
  5 23  2  0  0  0  0
  6  7  1  0  0  0  0
  6 16  2  0  0  0  0
  7  8  1  0  0  0  0
  7  9  2  0  0  0  0
  9 10  1  0  0  0  0
 10 11  2  0  0  0  0
 11 12  1  0  0  0  0
 11 16  1  0  0  0  0
 12 13  2  0  0  0  0
 12 14  2  0  0  0  0
 12 15  1  0  0  0  0
 16 17  1  0  0  0  0
 17 18  2  0  0  0  0
 18 19  1  0  0  0  0
 18 23  1  0  0  0  0
 19 20  2  0  0  0  0
 19 21  2  0  0  0  0
 19 22  1  0  0  0  0
M  CHG  1   4  -1
M  CHG  1  15  -1
M  CHG  1  22  -1
M  END
>  <name>
S(=O)(=O)([O-])c1c2c([N;amide])ccc(S(=O)(=O)[O-])c2cc(S(=O)(=O)[O-])c1

>  <apo>
1

>  <freq>
2

>  <freq0>
0

>  <freq1>
2

>  <freqA>
1.9959997

>  <a_count>
29

$$$$

  MOE2015           2D

 14 14  0  0  1  0  0  0  0  0999 V2000
   10.3350   -2.9840    0.0000 O   0  0  0  0  0  0  0  0  0  0  0  0
    9.0360   -3.7340    0.0000 C   0  0  0  0  0  0  0  0  0  0  0  0
    7.7370   -2.9840    0.0000 C   0  0  1  0  0  0  0  0  0  0  0  0
    7.7370   -1.4840    0.0000 N   0  0  0  0  0  0  0  0  0  0  0  0
    6.4380   -3.7340    0.0000 C   0  0  0  0  0  0  0  0  0  0  0  0
    5.1390   -2.9840    0.0000 C   0  0  0  0  0  0  0  0  0  0  0  0
    3.8400   -3.7340    0.0000 C   0  0  0  0  0  0  0  0  0  0  0  0
    2.5410   -2.9840    0.0000 C   0  0  0  0  0  0  0  0  0  0  0  0
    1.2420   -3.7340    0.0000 C   0  0  0  0  0  0  0  0  0  0  0  0
   -0.0570   -2.9840    0.0000 N   0  3  0  0  0  0  0  0  0  0  0  0
    1.2420   -5.2340    0.0000 N   0  0  0  0  0  0  0  0  0  0  0  0
    2.5410   -1.4840    0.0000 C   0  0  0  0  0  0  0  0  0  0  0  0
    3.8400   -0.7340    0.0000 C   0  0  0  0  0  0  0  0  0  0  0  0
    5.1390   -1.4840    0.0000 C   0  0  0  0  0  0  0  0  0  0  0  0
  1  2  2  0  0  0  0
  2  3  1  0  0  0  0
  3  4  1  6  0  0  0
  3  5  1  0  0  0  0
  5  6  1  0  0  0  0
  6  7  2  0  0  0  0
  6 14  1  0  0  0  0
  7  8  1  0  0  0  0
  8  9  1  0  0  0  0
  8 12  2  0  0  0  0
  9 10  2  0  0  0  0
  9 11  1  0  0  0  0
 12 13  1  0  0  0  0
 13 14  2  0  0  0  0
M  CHG  1  10   1
M  END
>  <name>
O=[C;amide][C@@H]([N;so2amide])Cc1cc(C(=[N+])N)ccc1

>  <apo>
2

>  <freq>
2

>  <freq0>
0

>  <freq1>
2

>  <freqA>
1.9959997

>  <a_count>
28

$$$$

  MOE2015           2D

 11 11  0  0  1  0  0  0  0  0999 V2000
    8.1690   -3.0070    0.0000 O   0  0  0  0  0  0  0  0  0  0  0  0
    6.8700   -3.7570    0.0000 C   0  0  0  0  0  0  0  0  0  0  0  0
    5.5710   -3.0070    0.0000 C   0  0  2  0  0  0  0  0  0  0  0  0
    5.5710   -1.5070    0.0000 N   0  0  0  0  0  0  0  0  0  0  0  0
    4.2720   -3.7570    0.0000 C   0  0  0  0  0  0  0  0  0  0  0  0
    2.9730   -3.0070    0.0000 C   0  0  0  0  0  0  0  0  0  0  0  0
    1.6740   -3.7570    0.0000 C   0  0  0  0  0  0  0  0  0  0  0  0
    0.3750   -3.0070    0.0000 C   0  0  0  0  0  0  0  0  0  0  0  0
    0.3750   -1.5070    0.0000 C   0  0  0  0  0  0  0  0  0  0  0  0
    1.6740   -0.7570    0.0000 C   0  0  0  0  0  0  0  0  0  0  0  0
    2.9730   -1.5070    0.0000 C   0  0  0  0  0  0  0  0  0  0  0  0
  1  2  2  0  0  0  0
  2  3  1  0  0  0  0
  3  4  1  1  0  0  0
  3  5  1  0  0  0  0
  5  6  1  0  0  0  0
  6  7  1  0  0  0  0
  6 11  1  0  0  0  0
  7  8  1  0  0  0  0
  8  9  1  0  0  0  0
  9 10  1  0  0  0  0
 10 11  1  0  0  0  0
M  END
>  <name>
O=[C;amide][C@H]([N;amide])CC1CCCCC1

>  <apo>
2

>  <freq>
2

>  <freq0>
0

>  <freq1>
2

>  <freqA>
1.9959997

>  <a_count>
28

$$$$

  MOE2015           2D

 15 16  0  0  0  0  0  0  0  0999 V2000
    0.7460   -0.0140    0.0000 N   0  0  0  0  0  0  0  0  0  0  0  0
    2.0450    0.7360    0.0000 C   0  0  0  0  0  0  0  0  0  0  0  0
    2.0450    2.2360    0.0000 N   0  0  0  0  0  0  0  0  0  0  0  0
    3.3440    2.9860    0.0000 C   0  0  0  0  0  0  0  0  0  0  0  0
    4.6440    2.2360    0.0000 C   0  0  0  0  0  0  0  0  0  0  0  0
    4.6440    0.7360    0.0000 C   0  0  0  0  0  0  0  0  0  0  0  0
    3.3440   -0.0140    0.0000 N   0  0  0  0  0  0  0  0  0  0  0  0
   -0.5530    0.7360    0.0000 C   0  0  0  0  0  0  0  0  0  0  0  0
   -1.8520   -0.0140    0.0000 C   0  0  0  0  0  0  0  0  0  0  0  0
   -1.8520   -1.5140    0.0000 C   0  0  0  0  0  0  0  0  0  0  0  0
   -3.1510    0.7360    0.0000 C   0  0  0  0  0  0  0  0  0  0  0  0
   -3.1510    2.2360    0.0000 C   0  0  0  0  0  0  0  0  0  0  0  0
   -1.8520    2.9860    0.0000 C   0  0  0  0  0  0  0  0  0  0  0  0
   -1.8520    4.4860    0.0000 N   0  0  0  0  0  0  0  0  0  0  0  0
   -0.5530    2.2360    0.0000 C   0  0  0  0  0  0  0  0  0  0  0  0
  1  2  1  0  0  0  0
  1  8  1  0  0  0  0
  2  3  1  0  0  0  0
  2  7  2  0  0  0  0
  3  4  2  0  0  0  0
  4  5  1  0  0  0  0
  5  6  2  0  0  0  0
  6  7  1  0  0  0  0
  8  9  1  0  0  0  0
  8 15  2  0  0  0  0
  9 10  1  0  0  0  0
  9 11  2  0  0  0  0
 11 12  1  0  0  0  0
 12 13  2  0  0  0  0
 13 14  1  0  0  0  0
 13 15  1  0  0  0  0
M  END
>  <name>
N(c1n[c;biphenyl]ccn1)c1c(C)ccc([N;amide])c1

>  <apo>
2

>  <freq>
2

>  <freq0>
0

>  <freq1>
2

>  <freqA>
1.9959997

>  <a_count>
27

$$$$

  MOE2015           2D

 11 10  0  0  1  0  0  0  0  0999 V2000
   10.0870   -2.0210    0.0000 O   0  0  0  0  0  0  0  0  0  0  0  0
    8.7880   -2.7710    0.0000 C   0  0  0  0  0  0  0  0  0  0  0  0
    7.4890   -2.0210    0.0000 C   0  0  1  0  0  0  0  0  0  0  0  0
    7.4890   -0.5210    0.0000 N   0  3  0  0  0  0  0  0  0  0  0  0
    6.1900   -2.7710    0.0000 C   0  0  0  0  0  0  0  0  0  0  0  0
    4.8910   -2.0210    0.0000 C   0  0  0  0  0  0  0  0  0  0  0  0
    3.5920   -2.7710    0.0000 C   0  0  0  0  0  0  0  0  0  0  0  0
    2.2930   -2.0210    0.0000 N   0  0  0  0  0  0  0  0  0  0  0  0
    0.9940   -2.7710    0.0000 C   0  0  0  0  0  0  0  0  0  0  0  0
   -0.3050   -2.0210    0.0000 N   0  3  0  0  0  0  0  0  0  0  0  0
    0.9940   -4.2710    0.0000 N   0  0  0  0  0  0  0  0  0  0  0  0
  1  2  2  0  0  0  0
  2  3  1  0  0  0  0
  3  4  1  6  0  0  0
  3  5  1  0  0  0  0
  5  6  1  0  0  0  0
  6  7  1  0  0  0  0
  7  8  1  0  0  0  0
  8  9  1  0  0  0  0
  9 10  2  0  0  0  0
  9 11  1  0  0  0  0
M  CHG  1   4   1
M  CHG  1  10   1
M  END
>  <name>
O=[C;amide][C@@H]([N+])CCCNC(=[N+])N

>  <apo>
1

>  <freq>
2

>  <freq0>
0

>  <freq1>
2

>  <freqA>
1.9959997

>  <a_count>
27

$$$$

  MOE2015           2D

 18 20  0  0  0  0  0  0  0  0999 V2000
    4.2040    1.1270    0.0000 O   0  0  0  0  0  0  0  0  0  0  0  0
    2.9050    0.3770    0.0000 C   0  0  0  0  0  0  0  0  0  0  0  0
    2.7480   -1.1150    0.0000 N   0  0  0  0  0  0  0  0  0  0  0  0
    3.8630   -2.1190    0.0000 C   0  0  0  0  0  0  0  0  0  0  0  0
    5.2900   -1.6550    0.0000 C   0  0  0  0  0  0  0  0  0  0  0  0
    6.5030   -2.5370    0.0000 N   0  0  0  0  0  0  0  0  0  0  0  0
    7.7170   -1.6550    0.0000 N   0  0  0  0  0  0  0  0  0  0  0  0
    7.2530   -0.2290    0.0000 N   0  0  0  0  0  0  0  0  0  0  0  0
    5.7530   -0.2290    0.0000 C   0  0  0  0  0  0  0  0  0  0  0  0
    1.2810   -1.4270    0.0000 C   0  0  0  0  0  0  0  0  0  0  0  0
    0.5310   -0.1280    0.0000 C   0  0  0  0  0  0  0  0  0  0  0  0
    1.5350    0.9870    0.0000 C   0  0  0  0  0  0  0  0  0  0  0  0
    1.2230    2.4540    0.0000 O   0  0  0  0  0  0  0  0  0  0  0  0
   -0.9690   -0.1280    0.0000 C   0  0  0  0  0  0  0  0  0  0  0  0
   -1.7190   -1.4270    0.0000 C   0  0  0  0  0  0  0  0  0  0  0  0
   -3.2190   -1.4270    0.0000 O   0  0  0  0  0  0  0  0  0  0  0  0
   -0.9690   -2.7260    0.0000 C   0  0  0  0  0  0  0  0  0  0  0  0
    0.5310   -2.7260    0.0000 C   0  0  0  0  0  0  0  0  0  0  0  0
  1  2  2  0  0  0  0
  2  3  1  0  0  0  0
  2 12  1  0  0  0  0
  3  4  1  0  0  0  0
  3 10  1  0  0  0  0
  4  5  1  0  0  0  0
  5  6  1  0  0  0  0
  5  9  2  0  0  0  0
  6  7  2  0  0  0  0
  7  8  1  0  0  0  0
  8  9  1  0  0  0  0
 10 11  1  0  0  0  0
 10 18  2  0  0  0  0
 11 12  1  0  0  0  0
 11 14  2  0  0  0  0
 12 13  2  0  0  0  0
 14 15  1  0  0  0  0
 15 16  1  0  0  0  0
 15 17  2  0  0  0  0
 17 18  1  0  0  0  0
M  END
>  <name>
O=C1N(Cc2nn[nH;NaroC]c2)c2c(C1=O)cc([O;ether])cc2

>  <apo>
2

>  <freq>
2

>  <freq0>
0

>  <freq1>
2

>  <freqA>
1.9959997

>  <a_count>
26

$$$$

  MOE2015           2D

 14 15  0  0  1  0  0  0  0  0999 V2000
   10.1920    2.1660    0.0000 O   0  0  0  0  0  0  0  0  0  0  0  0
    8.8220    1.5560    0.0000 C   0  0  0  0  0  0  0  0  0  0  0  0
    7.6080    2.4380    0.0000 C   0  0  2  0  0  0  0  0  0  0  0  0
    7.7650    3.9300    0.0000 N   0  0  0  0  0  0  0  0  0  0  0  0
    6.2380    1.8280    0.0000 C   0  0  0  0  0  0  0  0  0  0  0  0
    5.0240    2.7090    0.0000 C   0  0  0  0  0  0  0  0  0  0  0  0
    3.5980    2.2460    0.0000 C   0  0  0  0  0  0  0  0  0  0  0  0
    2.7160    3.4590    0.0000 C   0  0  0  0  0  0  0  0  0  0  0  0
    3.5980    4.6730    0.0000 N   0  0  0  0  0  0  0  0  0  0  0  0
    5.0240    4.2090    0.0000 C   0  0  0  0  0  0  0  0  0  0  0  0
    1.2240    3.3030    0.0000 C   0  0  0  0  0  0  0  0  0  0  0  0
    0.6140    1.9320    0.0000 C   0  0  0  0  0  0  0  0  0  0  0  0
    1.4960    0.7190    0.0000 C   0  0  0  0  0  0  0  0  0  0  0  0
    2.9870    0.8760    0.0000 C   0  0  0  0  0  0  0  0  0  0  0  0
  1  2  2  0  0  0  0
  2  3  1  0  0  0  0
  3  4  1  1  0  0  0
  3  5  1  0  0  0  0
  5  6  1  0  0  0  0
  6  7  1  0  0  0  0
  6 10  2  0  0  0  0
  7  8  2  0  0  0  0
  7 14  1  0  0  0  0
  8  9  1  0  0  0  0
  8 11  1  0  0  0  0
  9 10  1  0  0  0  0
 11 12  2  0  0  0  0
 12 13  1  0  0  0  0
 13 14  2  0  0  0  0
M  END
>  <name>
O=[C;amide][C@H]([N;amide])Cc1c2c([nH]c1)cccc2

>  <apo>
2

>  <freq>
2

>  <freq0>
0

>  <freq1>
2

>  <freqA>
1.9959997

>  <a_count>
26

$$$$

  MOE2015           2D

 14 15  0  0  0  0  0  0  0  0999 V2000
    9.7540   -2.6130    0.0000 Cl  0  0  0  0  0  0  0  0  0  0  0  0
    8.4550   -1.8630    0.0000 C   0  0  0  0  0  0  0  0  0  0  0  0
    8.4550   -0.3630    0.0000 C   0  0  0  0  0  0  0  0  0  0  0  0
    7.1550    0.3870    0.0000 C   0  0  0  0  0  0  0  0  0  0  0  0
    5.8560   -0.3630    0.0000 C   0  0  0  0  0  0  0  0  0  0  0  0
    4.5570    0.3870    0.0000 C   0  0  0  0  0  0  0  0  0  0  0  0
    3.2580   -0.3630    0.0000 C   0  0  0  0  0  0  0  0  0  0  0  0
    3.2580   -1.8630    0.0000 C   0  0  0  0  0  0  0  0  0  0  0  0
    1.9590   -2.6130    0.0000 C   0  0  0  0  0  0  0  0  0  0  0  0
    0.6600   -1.8630    0.0000 C   0  0  0  0  0  0  0  0  0  0  0  0
    0.6600   -0.3630    0.0000 C   0  0  0  0  0  0  0  0  0  0  0  0
    1.9590    0.3870    0.0000 C   0  0  0  0  0  0  0  0  0  0  0  0
    5.8560   -1.8630    0.0000 C   0  0  0  0  0  0  0  0  0  0  0  0
    7.1550   -2.6130    0.0000 C   0  0  0  0  0  0  0  0  0  0  0  0
  1  2  1  0  0  0  0
  2  3  1  0  0  0  0
  2 14  2  0  0  0  0
  3  4  2  0  0  0  0
  4  5  1  0  0  0  0
  5  6  1  0  0  0  0
  5 13  2  0  0  0  0
  6  7  1  0  0  0  0
  7  8  1  0  0  0  0
  7 12  2  0  0  0  0
  8  9  2  0  0  0  0
  9 10  1  0  0  0  0
 10 11  2  0  0  0  0
 11 12  1  0  0  0  0
 13 14  1  0  0  0  0
M  END
>  <name>
Clc1ccc([C;amine]c2ccccc2)cc1

>  <apo>
1

>  <freq>
2

>  <freq0>
0

>  <freq1>
2

>  <freqA>
1.9959997

>  <a_count>
25

$$$$

  MOE2015           2D

 18 20  0  0  0  0  0  0  0  0999 V2000
    0.0000    0.0000    0.0000 F   0  0  0  0  0  0  0  0  0  0  0  0
    1.5000    0.0000    0.0000 C   0  0  0  0  0  0  0  0  0  0  0  0
    2.2500    1.2990    0.0000 C   0  0  0  0  0  0  0  0  0  0  0  0
    3.7500    1.2990    0.0000 C   0  0  0  0  0  0  0  0  0  0  0  0
    4.7540    2.4140    0.0000 C   0  0  0  0  0  0  0  0  0  0  0  0
    4.4420    3.8810    0.0000 O   0  0  0  0  0  0  0  0  0  0  0  0
    6.1240    1.8040    0.0000 C   0  0  0  0  0  0  0  0  0  0  0  0
    7.4230    2.5540    0.0000 O   0  0  0  0  0  0  0  0  0  0  0  0
    5.9670    0.3120    0.0000 N   0  0  0  0  0  0  0  0  0  0  0  0
    7.0820   -0.6920    0.0000 C   0  0  0  0  0  0  0  0  0  0  0  0
    8.5090   -0.2280    0.0000 C   0  0  0  0  0  0  0  0  0  0  0  0
    8.9720    1.1980    0.0000 N   0  0  0  0  0  0  0  0  0  0  0  0
   10.4720    1.1980    0.0000 N   0  0  0  0  0  0  0  0  0  0  0  0
   10.9360   -0.2280    0.0000 N   0  0  0  0  0  0  0  0  0  0  0  0
    9.7220   -1.1100    0.0000 C   0  0  0  0  0  0  0  0  0  0  0  0
    4.5000    0.0000    0.0000 C   0  0  0  0  0  0  0  0  0  0  0  0
    3.7500   -1.2990    0.0000 C   0  0  0  0  0  0  0  0  0  0  0  0
    2.2500   -1.2990    0.0000 C   0  0  0  0  0  0  0  0  0  0  0  0
  1  2  1  0  0  0  0
  2  3  1  0  0  0  0
  2 18  2  0  0  0  0
  3  4  2  0  0  0  0
  4  5  1  0  0  0  0
  4 16  1  0  0  0  0
  5  6  2  0  0  0  0
  5  7  1  0  0  0  0
  7  8  2  0  0  0  0
  7  9  1  0  0  0  0
  9 10  1  0  0  0  0
  9 16  1  0  0  0  0
 10 11  1  0  0  0  0
 11 12  1  0  0  0  0
 11 15  2  0  0  0  0
 12 13  2  0  0  0  0
 13 14  1  0  0  0  0
 14 15  1  0  0  0  0
 16 17  2  0  0  0  0
 17 18  1  0  0  0  0
M  END
>  <name>
Fc1cc2C(=O)C(=O)N(Cc3nn[nH;NaroC]c3)c2cc1

>  <apo>
1

>  <freq>
2

>  <freq0>
0

>  <freq1>
2

>  <freqA>
1.9959997

>  <a_count>
25

$$$$

  MOE2015           2D

 14 15  0  0  1  0  0  0  0  0999 V2000
   -0.4190    2.0560    0.0000 O   0  0  0  0  0  0  0  0  0  0  0  0
    0.9610    2.6430    0.0000 C   0  0  0  0  0  0  0  0  0  0  0  0
    1.1420    4.1320    0.0000 O   0  5  0  0  0  0  0  0  0  0  0  0
    2.1600    1.7420    0.0000 C   0  0  3  0  0  0  0  0  0  0  0  0
    2.1350    0.2420    0.0000 C   0  0  0  0  0  0  0  0  0  0  0  0
    0.6380    0.1490    0.0000 C   0  0  0  0  0  0  0  0  0  0  0  0
    1.5380   -1.1340    0.0000 C   0  0  0  0  0  0  0  0  0  0  0  0
    3.5540   -0.2450    0.0000 S   0  0  0  0  0  0  0  0  0  0  0  0
    4.4550    0.9540    0.0000 C   0  0  3  0  0  0  0  0  0  0  0  0
    5.6830    1.8160    0.0000 C   0  0  3  0  0  0  0  0  0  0  0  0
    7.1610    1.5570    0.0000 N   0  0  0  0  0  0  0  0  0  0  0  0
    4.8210    3.0440    0.0000 C   0  0  0  0  0  0  0  0  0  0  0  0
    5.0800    4.5210    0.0000 O   0  0  0  0  0  0  0  0  0  0  0  0
    3.5940    2.1820    0.0000 N   0  0  0  0  0  0  0  0  0  0  0  0
  1  2  2  0  0  0  0
  2  3  1  0  0  0  0
  2  4  1  0  0  0  0
  4  5  1  0  0  0  0
  4 14  1  0  0  0  0
  5  6  1  0  0  0  0
  5  7  1  0  0  0  0
  5  8  1  0  0  0  0
  8  9  1  0  0  0  0
  9 10  1  0  0  0  0
  9 14  1  0  0  0  0
 10 11  1  0  0  0  0
 10 12  1  0  0  0  0
 12 13  2  0  0  0  0
 12 14  1  0  0  0  0
M  CHG  1   3  -1
M  END
>  <name>
O=C([O-])C1C(C)(C)SC2C([N;amide])C(=O)N12

>  <apo>
1

>  <freq>
2

>  <freq0>
0

>  <freq1>
2

>  <freqA>
1.9959997

>  <a_count>
25

$$$$

  MOE2015           2D

 11 11  0  0  1  0  0  0  0  0999 V2000
    6.5450    0.4720    0.0000 O   0  0  0  0  0  0  0  0  0  0  0  0
    5.7950    1.7710    0.0000 C   0  0  0  0  0  0  0  0  0  0  0  0
    4.2950    1.7710    0.0000 C   0  0  2  0  0  0  0  0  0  0  0  0
    3.5450    3.0700    0.0000 C   0  0  1  0  0  0  0  0  0  0  0  0
    4.2950    4.3690    0.0000 O   0  0  0  0  0  0  0  0  0  0  0  0
    2.0450    3.0700    0.0000 C   0  0  2  0  0  0  0  0  0  0  0  0
    1.2950    4.3690    0.0000 O   0  0  0  0  0  0  0  0  0  0  0  0
    1.2950    1.7710    0.0000 C   0  0  1  0  0  0  0  0  0  0  0  0
   -0.2050    1.7710    0.0000 O   0  0  0  0  0  0  0  0  0  0  0  0
    2.0450    0.4720    0.0000 C   0  0  0  0  0  0  0  0  0  0  0  0
    3.5450    0.4720    0.0000 N   0  3  0  0  0  0  0  0  0  0  0  0
  1  2  1  0  0  0  0
  3  2  1  1  0  0  0
  3  4  1  0  0  0  0
  3 11  1  0  0  0  0
  4  5  1  6  0  0  0
  4  6  1  0  0  0  0
  6  7  1  1  0  0  0
  6  8  1  0  0  0  0
  8  9  1  6  0  0  0
  8 10  1  0  0  0  0
 10 11  1  0  0  0  0
M  CHG  1  11   1
M  END
>  <name>
OC[C@@H]1[C@@H](O)[C@H](O)[C@@H](O)C[N+;amine]1

>  <apo>
1

>  <freq>
2

>  <freq0>
0

>  <freq1>
2

>  <freqA>
1.9959997

>  <a_count>
25

$$$$

  MOE2015           2D

 13 14  0  0  1  0  0  0  0  0999 V2000
    6.9230    0.0000    0.0000 N   0  0  0  0  0  0  0  0  0  0  0  0
    5.4230    0.0000    0.0000 C   0  0  2  0  0  0  0  0  0  0  0  0
    4.6730   -1.2990    0.0000 C   0  0  0  0  0  0  0  0  0  0  0  0
    4.6730    1.2990    0.0000 C   0  0  0  0  0  0  0  0  0  0  0  0
    3.1730    1.2990    0.0000 C   0  0  0  0  0  0  0  0  0  0  0  0
    2.4230    2.5980    0.0000 C   0  0  0  0  0  0  0  0  0  0  0  0
    3.1730    3.8970    0.0000 N   0  0  0  0  0  0  0  0  0  0  0  0
    4.6730    3.8970    0.0000 C   0  0  0  0  0  0  0  0  0  0  0  0
    5.4230    2.5980    0.0000 C   0  0  0  0  0  0  0  0  0  0  0  0
    0.9230    2.5980    0.0000 C   0  0  0  0  0  0  0  0  0  0  0  0
    0.1730    1.2990    0.0000 C   0  0  0  0  0  0  0  0  0  0  0  0
    0.9230    0.0000    0.0000 C   0  0  0  0  0  0  0  0  0  0  0  0
    2.4230    0.0000    0.0000 C   0  0  0  0  0  0  0  0  0  0  0  0
  2  1  1  6  0  0  0
  2  3  1  0  0  0  0
  2  4  1  0  0  0  0
  4  5  2  0  0  0  0
  4  9  1  0  0  0  0
  5  6  1  0  0  0  0
  5 13  1  0  0  0  0
  6  7  2  0  0  0  0
  6 10  1  0  0  0  0
  7  8  1  0  0  0  0
  8  9  2  0  0  0  0
 10 11  2  0  0  0  0
 11 12  1  0  0  0  0
 12 13  2  0  0  0  0
M  END
>  <name>
[N;amide][C@H](C)c1c2c(n[c;biphenyl]c1)cccc2

>  <apo>
2

>  <freq>
2

>  <freq0>
0

>  <freq1>
2

>  <freqA>
1.9959997

>  <a_count>
25

$$$$

  MOE2015           2D

 11 11  0  0  1  0  0  0  0  0999 V2000
    6.5450    0.4720    0.0000 O   0  0  0  0  0  0  0  0  0  0  0  0
    5.7950    1.7710    0.0000 C   0  0  0  0  0  0  0  0  0  0  0  0
    4.2950    1.7710    0.0000 C   0  0  2  0  0  0  0  0  0  0  0  0
    3.5450    3.0700    0.0000 C   0  0  1  0  0  0  0  0  0  0  0  0
    4.2950    4.3690    0.0000 O   0  0  0  0  0  0  0  0  0  0  0  0
    2.0450    3.0700    0.0000 C   0  0  2  0  0  0  0  0  0  0  0  0
    1.2950    4.3690    0.0000 O   0  0  0  0  0  0  0  0  0  0  0  0
    1.2950    1.7710    0.0000 C   0  0  2  0  0  0  0  0  0  0  0  0
   -0.2050    1.7710    0.0000 N   0  0  0  0  0  0  0  0  0  0  0  0
    2.0450    0.4720    0.0000 C   0  0  0  0  0  0  0  0  0  0  0  0
    3.5450    0.4720    0.0000 O   0  0  0  0  0  0  0  0  0  0  0  0
  1  2  1  0  0  0  0
  3  2  1  1  0  0  0
  3  4  1  0  0  0  0
  3 11  1  0  0  0  0
  4  5  1  6  0  0  0
  4  6  1  0  0  0  0
  6  7  1  1  0  0  0
  6  8  1  0  0  0  0
  8  9  1  1  0  0  0
  8 10  1  0  0  0  0
 10 11  1  0  0  0  0
M  END
>  <name>
OC[C@@H]1[C@@H](O)[C@H](O)[C@H]([N;amide])[C;ether]O1

>  <apo>
2

>  <freq>
2

>  <freq0>
0

>  <freq1>
2

>  <freqA>
1.9959997

>  <a_count>
24

$$$$

  MOE2015           2D

 16 17  0  0  0  0  0  0  0  0999 V2000
   -3.6060    3.6060    0.0000 S   0  0  0  0  0  0  0  0  0  0  0  0
   -3.6060    5.1060    0.0000 O   0  0  0  0  0  0  0  0  0  0  0  0
   -3.6060    2.1060    0.0000 O   0  0  0  0  0  0  0  0  0  0  0  0
   -5.1060    3.6060    0.0000 O   0  5  0  0  0  0  0  0  0  0  0  0
   -2.1060    3.6060    0.0000 C   0  0  0  0  0  0  0  0  0  0  0  0
   -1.3560    4.9050    0.0000 C   0  0  0  0  0  0  0  0  0  0  0  0
    0.1440    4.9050    0.0000 C   0  0  0  0  0  0  0  0  0  0  0  0
    0.8940    6.2040    0.0000 O   0  0  0  0  0  0  0  0  0  0  0  0
    0.8940    3.6060    0.0000 C   0  0  0  0  0  0  0  0  0  0  0  0
    0.1440    2.3070    0.0000 C   0  0  0  0  0  0  0  0  0  0  0  0
   -1.3560    2.3070    0.0000 C   0  0  0  0  0  0  0  0  0  0  0  0
    0.8940    1.0080    0.0000 C   0  0  0  0  0  0  0  0  0  0  0  0
    2.3940    1.0080    0.0000 C   0  0  0  0  0  0  0  0  0  0  0  0
    3.1440    2.3070    0.0000 C   0  0  0  0  0  0  0  0  0  0  0  0
    4.6440    2.3070    0.0000 N   0  0  0  0  0  0  0  0  0  0  0  0
    2.3940    3.6060    0.0000 C   0  0  0  0  0  0  0  0  0  0  0  0
  1  2  2  0  0  0  0
  1  3  2  0  0  0  0
  1  4  1  0  0  0  0
  1  5  1  0  0  0  0
  5  6  1  0  0  0  0
  5 11  2  0  0  0  0
  6  7  2  0  0  0  0
  7  8  1  0  0  0  0
  7  9  1  0  0  0  0
  9 10  1  0  0  0  0
  9 16  2  0  0  0  0
 10 11  1  0  0  0  0
 10 12  2  0  0  0  0
 12 13  1  0  0  0  0
 13 14  2  0  0  0  0
 14 15  1  0  0  0  0
 14 16  1  0  0  0  0
M  CHG  1   4  -1
M  END
>  <name>
S(=O)(=O)([O-])c1cc(O)c2c(c1)ccc([N;amide])c2

>  <apo>
1

>  <freq>
2

>  <freq0>
0

>  <freq1>
2

>  <freqA>
1.9959997

>  <a_count>
24

$$$$

  MOE2015           2D

 14 15  0  0  0  0  0  0  0  0999 V2000
    0.4700   -0.5260    0.0000 N   0  0  0  0  0  0  0  0  0  0  0  0
    1.7690   -1.2760    0.0000 N   0  0  0  0  0  0  0  0  0  0  0  0
    3.0680   -0.5260    0.0000 C   0  0  0  0  0  0  0  0  0  0  0  0
    3.2250    0.9650    0.0000 S   0  0  0  0  0  0  0  0  0  0  0  0
    4.6930    1.2770    0.0000 C   0  0  0  0  0  0  0  0  0  0  0  0
    5.4430   -0.0220    0.0000 C   0  0  0  0  0  0  0  0  0  0  0  0
    4.4390   -1.1370    0.0000 N   0  0  0  0  0  0  0  0  0  0  0  0
   -0.8290   -1.2760    0.0000 C   0  0  0  0  0  0  0  0  0  0  0  0
   -2.1280   -0.5260    0.0000 C   0  0  0  0  0  0  0  0  0  0  0  0
   -3.4980   -1.1370    0.0000 C   0  0  0  0  0  0  0  0  0  0  0  0
   -3.8100   -2.6040    0.0000 C   0  0  0  0  0  0  0  0  0  0  0  0
   -4.5020   -0.0220    0.0000 C   0  0  0  0  0  0  0  0  0  0  0  0
   -3.7520    1.2770    0.0000 C   0  0  0  0  0  0  0  0  0  0  0  0
   -2.2840    0.9650    0.0000 S   0  0  0  0  0  0  0  0  0  0  0  0
  1  2  1  0  0  0  0
  1  8  2  0  0  0  0
  2  3  1  0  0  0  0
  3  4  1  0  0  0  0
  3  7  2  0  0  0  0
  4  5  1  0  0  0  0
  5  6  2  0  0  0  0
  6  7  1  0  0  0  0
  8  9  1  0  0  0  0
  9 10  2  0  0  0  0
  9 14  1  0  0  0  0
 10 11  1  0  0  0  0
 10 12  1  0  0  0  0
 12 13  2  0  0  0  0
 13 14  1  0  0  0  0
M  END
>  <name>
N(\Nc1sc[c;biphenyl]n1)=C/c1c(C)ccs1

>  <apo>
1

>  <freq>
2

>  <freq0>
0

>  <freq1>
2

>  <freqA>
1.9959997

>  <a_count>
23

$$$$

  MOE2015           2D

 14 15  0  0  0  0  0  0  0  0999 V2000
   -0.2450   -0.9320    0.0000 N   0  0  0  0  0  0  0  0  0  0  0  0
   -1.5360   -1.6960    0.0000 N   0  0  0  0  0  0  0  0  0  0  0  0
   -2.8430   -0.9600    0.0000 C   0  0  0  0  0  0  0  0  0  0  0  0
   -3.0150    0.5300    0.0000 S   0  0  0  0  0  0  0  0  0  0  0  0
   -4.4850    0.8270    0.0000 C   0  0  0  0  0  0  0  0  0  0  0  0
   -5.2220   -0.4800    0.0000 C   0  0  0  0  0  0  0  0  0  0  0  0
   -4.2060   -1.5840    0.0000 N   0  0  0  0  0  0  0  0  0  0  0  0
    1.0620   -1.6690    0.0000 C   0  0  0  0  0  0  0  0  0  0  0  0
    2.3530   -0.9050    0.0000 C   0  0  0  0  0  0  0  0  0  0  0  0
    3.7300   -1.5010    0.0000 S   0  0  0  0  0  0  0  0  0  0  0  0
    4.7220   -0.3760    0.0000 C   0  0  0  0  0  0  0  0  0  0  0  0
    6.2150   -0.5170    0.0000 C   0  0  0  0  0  0  0  0  0  0  0  0
    3.9580    0.9150    0.0000 C   0  0  0  0  0  0  0  0  0  0  0  0
    2.4940    0.5880    0.0000 C   0  0  0  0  0  0  0  0  0  0  0  0
  1  2  1  0  0  0  0
  1  8  2  0  0  0  0
  2  3  1  0  0  0  0
  3  4  1  0  0  0  0
  3  7  2  0  0  0  0
  4  5  1  0  0  0  0
  5  6  2  0  0  0  0
  6  7  1  0  0  0  0
  8  9  1  0  0  0  0
  9 10  1  0  0  0  0
  9 14  2  0  0  0  0
 10 11  1  0  0  0  0
 11 12  1  0  0  0  0
 11 13  2  0  0  0  0
 13 14  1  0  0  0  0
M  END
>  <name>
N(\Nc1sc[c;biphenyl]n1)=C/c1sc(C)cc1

>  <apo>
1

>  <freq>
2

>  <freq0>
0

>  <freq1>
2

>  <freqA>
1.9959997

>  <a_count>
23

$$$$

  MOE2015           2D

 11 10  0  0  1  0  0  0  0  0999 V2000
   10.0870   -2.0210    0.0000 O   0  0  0  0  0  0  0  0  0  0  0  0
    8.7880   -2.7710    0.0000 C   0  0  0  0  0  0  0  0  0  0  0  0
    7.4890   -2.0210    0.0000 C   0  0  1  0  0  0  0  0  0  0  0  0
    7.4890   -0.5210    0.0000 N   0  0  0  0  0  0  0  0  0  0  0  0
    6.1900   -2.7710    0.0000 C   0  0  0  0  0  0  0  0  0  0  0  0
    4.8910   -2.0210    0.0000 C   0  0  0  0  0  0  0  0  0  0  0  0
    3.5920   -2.7710    0.0000 O   0  0  0  0  0  0  0  0  0  0  0  0
    2.2930   -2.0210    0.0000 N   0  0  0  0  0  0  0  0  0  0  0  0
    0.9940   -2.7710    0.0000 C   0  0  0  0  0  0  0  0  0  0  0  0
    0.9940   -4.2710    0.0000 N   0  0  0  0  0  0  0  0  0  0  0  0
   -0.3050   -2.0210    0.0000 N   0  0  0  0  0  0  0  0  0  0  0  0
  1  2  2  0  0  0  0
  2  3  1  0  0  0  0
  3  4  1  6  0  0  0
  3  5  1  0  0  0  0
  5  6  1  0  0  0  0
  6  7  1  0  0  0  0
  7  8  1  0  0  0  0
  8  9  2  0  0  0  0
  9 10  1  0  0  0  0
  9 11  1  0  0  0  0
M  END
>  <name>
O=[C;amide][C@@H]([N;amide])CCO/N=C(\N)/N

>  <apo>
2

>  <freq>
2

>  <freq0>
0

>  <freq1>
2

>  <freqA>
1.9959997

>  <a_count>
23

$$$$

  MOE2015           2D

 10 10  0  0  0  0  0  0  0  0999 V2000
    8.4870    0.3240    0.0000 N   0  3  0  0  0  0  0  0  0  0  0  0
    7.1880    1.0740    0.0000 C   0  0  0  0  0  0  0  0  0  0  0  0
    5.8890    0.3240    0.0000 C   0  0  0  0  0  0  0  0  0  0  0  0
    4.5900    1.0740    0.0000 C   0  0  0  0  0  0  0  0  0  0  0  0
    3.2910    0.3240    0.0000 C   0  0  0  0  0  0  0  0  0  0  0  0
    1.9920    1.0740    0.0000 C   0  0  0  0  0  0  0  0  0  0  0  0
    0.6930    0.3240    0.0000 N   0  0  0  0  0  0  0  0  0  0  0  0
    1.9920    2.5740    0.0000 C   0  0  0  0  0  0  0  0  0  0  0  0
    3.2910    3.3240    0.0000 C   0  0  0  0  0  0  0  0  0  0  0  0
    4.5900    2.5740    0.0000 C   0  0  0  0  0  0  0  0  0  0  0  0
  1  2  1  0  0  0  0
  2  3  1  0  0  0  0
  3  4  1  0  0  0  0
  4  5  1  0  0  0  0
  4 10  2  0  0  0  0
  5  6  2  0  0  0  0
  6  7  1  0  0  0  0
  6  8  1  0  0  0  0
  8  9  2  0  0  0  0
  9 10  1  0  0  0  0
M  CHG  1   1   1
M  END
>  <name>
[N+]CCc1cc([N;amide])ccc1

>  <apo>
1

>  <freq>
2

>  <freq0>
0

>  <freq1>
2

>  <freqA>
1.9959997

>  <a_count>
23

$$$$

  MOE2015           2D

 10  9  0  0  1  0  0  0  0  0999 V2000
    7.8320   -1.7990    0.0000 O   0  0  0  0  0  0  0  0  0  0  0  0
    6.5330   -2.5490    0.0000 C   0  0  0  0  0  0  0  0  0  0  0  0
    5.2340   -1.7990    0.0000 C   0  0  1  0  0  0  0  0  0  0  0  0
    5.2340   -0.2990    0.0000 N   0  0  0  0  0  0  0  0  0  0  0  0
    3.9350   -2.5490    0.0000 C   0  0  0  0  0  0  0  0  0  0  0  0
    2.6360   -1.7990    0.0000 C   0  0  1  0  0  0  0  0  0  0  0  0
    2.6360   -0.2990    0.0000 O   0  0  0  0  0  0  0  0  0  0  0  0
    1.3370   -2.5490    0.0000 C   0  0  1  0  0  0  0  0  0  0  0  0
    1.3370   -4.0490    0.0000 O   0  0  0  0  0  0  0  0  0  0  0  0
    0.0380   -1.7990    0.0000 N   0  0  0  0  0  0  0  0  0  0  0  0
  1  2  2  0  0  0  0
  2  3  1  0  0  0  0
  3  4  1  6  0  0  0
  3  5  1  0  0  0  0
  5  6  1  0  0  0  0
  6  7  1  6  0  0  0
  6  8  1  0  0  0  0
  8  9  1  0  0  0  0
  8 10  1  1  0  0  0
M  END
>  <name>
O=[C;amide][C@@H]([N;amide])C[C@@H](O)[C@@H](O)[N;amide]

>  <apo>
3

>  <freq>
2

>  <freq0>
0

>  <freq1>
2

>  <freqA>
1.9959997

>  <a_count>
22

$$$$

  MOE2015           2D

 12 12  0  0  0  0  0  0  0  0999 V2000
    8.2800   -2.2190    0.0000 O   0  0  0  0  0  0  0  0  0  0  0  0
    6.9810   -1.4690    0.0000 C   0  0  0  0  0  0  0  0  0  0  0  0
    5.6820   -2.2190    0.0000 C   0  0  0  0  0  0  0  0  0  0  0  0
    4.3830   -1.4690    0.0000 C   0  0  0  0  0  0  0  0  0  0  0  0
    3.0840   -2.2190    0.0000 C   0  0  0  0  0  0  0  0  0  0  0  0
    3.0840   -3.7190    0.0000 C   0  0  0  0  0  0  0  0  0  0  0  0
    1.7850   -4.4690    0.0000 N   0  3  0  0  0  0  0  0  0  0  0  0
    0.4860   -3.7190    0.0000 C   0  0  0  0  0  0  0  0  0  0  0  0
    0.4860   -2.2190    0.0000 N   0  0  0  0  0  0  0  0  0  0  0  0
   -0.8130   -4.4690    0.0000 N   0  0  0  0  0  0  0  0  0  0  0  0
    4.3830   -4.4690    0.0000 C   0  0  0  0  0  0  0  0  0  0  0  0
    5.6820   -3.7190    0.0000 C   0  0  0  0  0  0  0  0  0  0  0  0
  1  2  2  0  0  0  0
  2  3  1  0  0  0  0
  3  4  1  0  0  0  0
  3 12  2  0  0  0  0
  4  5  2  0  0  0  0
  5  6  1  0  0  0  0
  6  7  1  0  0  0  0
  6 11  2  0  0  0  0
  7  8  2  0  0  0  0
  8  9  1  0  0  0  0
  8 10  1  0  0  0  0
 11 12  1  0  0  0  0
M  CHG  1   7   1
M  END
>  <name>
O=[C;ester]c1ccc(/[N+]=C(\N)/N)cc1

>  <apo>
1

>  <freq>
2

>  <freq0>
0

>  <freq1>
2

>  <freqA>
1.9959997

>  <a_count>
22

$$$$

  MOE2015           2D

  7  7  0  0  0  0  0  0  0  0999 V2000
    5.1430    0.0000    0.0000 C   0  0  0  0  0  0  0  0  0  0  0  0
    3.6430    0.0000    0.0000 N   0  3  0  0  0  0  0  0  0  0  0  0
    2.8930    1.2990    0.0000 C   0  0  0  0  0  0  0  0  0  0  0  0
    1.3930    1.2990    0.0000 C   0  0  0  0  0  0  0  0  0  0  0  0
    0.6430    0.0000    0.0000 N   0  3  0  0  0  0  0  0  0  0  0  0
    1.3930   -1.2990    0.0000 C   0  0  0  0  0  0  0  0  0  0  0  0
    2.8930   -1.2990    0.0000 C   0  0  0  0  0  0  0  0  0  0  0  0
  1  2  1  0  0  0  0
  2  3  1  0  0  0  0
  2  7  1  0  0  0  0
  3  4  1  0  0  0  0
  4  5  1  0  0  0  0
  5  6  1  0  0  0  0
  6  7  1  0  0  0  0
M  CHG  1   2   1
M  CHG  1   5   1
M  END
>  <name>
C[N+]1CC[N+;amine]CC1

>  <apo>
1

>  <freq>
2

>  <freq0>
0

>  <freq1>
2

>  <freqA>
1.9959997

>  <a_count>
21

$$$$

  MOE2015           2D

 10  9  0  0  1  0  0  0  0  0999 V2000
    3.8240   -0.0740    0.0000 O   0  0  0  0  0  0  0  0  0  0  0  0
    3.8240   -1.5740    0.0000 C   0  0  0  0  0  0  0  0  0  0  0  0
    5.1230   -2.3240    0.0000 O   0  0  0  0  0  0  0  0  0  0  0  0
    6.4220   -1.5740    0.0000 C   0  0  0  0  0  0  0  0  0  0  0  0
    2.5250   -2.3240    0.0000 C   0  0  0  0  0  0  0  0  0  0  0  0
    1.2250   -1.5740    0.0000 C   0  0  0  0  0  0  0  0  0  0  0  0
   -0.0740   -2.3240    0.0000 C   0  0  2  0  0  0  0  0  0  0  0  0
   -0.0740   -3.8240    0.0000 N   0  0  0  0  0  0  0  0  0  0  0  0
   -1.3730   -1.5740    0.0000 C   0  0  0  0  0  0  0  0  0  0  0  0
   -2.6720   -2.3240    0.0000 O   0  0  0  0  0  0  0  0  0  0  0  0
  1  2  2  0  0  0  0
  2  3  1  0  0  0  0
  2  5  1  0  0  0  0
  3  4  1  0  0  0  0
  5  6  1  0  0  0  0
  6  7  1  0  0  0  0
  7  8  1  6  0  0  0
  7  9  1  0  0  0  0
  9 10  2  0  0  0  0
M  END
>  <name>
O=C(OC)CC[C@H]([N;amide])[C;amide]=O

>  <apo>
2

>  <freq>
2

>  <freq0>
0

>  <freq1>
2

>  <freqA>
1.9959997

>  <a_count>
21

$$$$

  MOE2015           2D

  8  7  0  0  1  0  0  0  0  0999 V2000
   -0.4530   -1.6920    0.0000 O   0  0  0  0  0  0  0  0  0  0  0  0
    0.8460   -2.4420    0.0000 C   0  0  0  0  0  0  0  0  0  0  0  0
    2.1450   -1.6920    0.0000 C   0  0  1  0  0  0  0  0  0  0  0  0
    2.1450   -0.1920    0.0000 N   0  0  0  0  0  0  0  0  0  0  0  0
    3.4440   -2.4420    0.0000 C   0  0  0  0  0  0  0  0  0  0  0  0
    4.7430   -1.6920    0.0000 C   0  0  0  0  0  0  0  0  0  0  0  0
    6.0420   -2.4420    0.0000 C   0  0  0  0  0  0  0  0  0  0  0  0
    7.3410   -1.6920    0.0000 C   0  0  0  0  0  0  0  0  0  0  0  0
  1  2  2  0  0  0  0
  2  3  1  0  0  0  0
  3  4  1  1  0  0  0
  3  5  1  0  0  0  0
  5  6  1  0  0  0  0
  6  7  1  0  0  0  0
  7  8  1  0  0  0  0
M  END
>  <name>
O=C[C@@H]([N;amide])CCCC

>  <apo>
1

>  <freq>
2

>  <freq0>
0

>  <freq1>
2

>  <freqA>
1.9959997

>  <a_count>
21

$$$$

  MOE2015           2D

  8  7  0  0  1  0  0  0  0  0999 V2000
   -0.4530   -1.6920    0.0000 O   0  0  0  0  0  0  0  0  0  0  0  0
    0.8460   -2.4420    0.0000 C   0  0  0  0  0  0  0  0  0  0  0  0
    2.1450   -1.6920    0.0000 C   0  0  1  0  0  0  0  0  0  0  0  0
    2.1450   -0.1920    0.0000 N   0  0  0  0  0  0  0  0  0  0  0  0
    3.4440   -2.4420    0.0000 C   0  0  0  0  0  0  0  0  0  0  0  0
    4.7430   -1.6920    0.0000 C   0  0  0  0  0  0  0  0  0  0  0  0
    6.0420   -2.4420    0.0000 C   0  0  0  0  0  0  0  0  0  0  0  0
    7.3410   -1.6920    0.0000 C   0  0  0  0  0  0  0  0  0  0  0  0
  1  2  2  0  0  0  0
  2  3  1  0  0  0  0
  3  4  1  1  0  0  0
  3  5  1  0  0  0  0
  5  6  1  0  0  0  0
  6  7  1  0  0  0  0
  7  8  1  0  0  0  0
M  END
>  <name>
O=[C;amide][C@@H]([N;amide])CCC[C;amine]

>  <apo>
3

>  <freq>
2

>  <freq0>
0

>  <freq1>
2

>  <freqA>
1.9959997

>  <a_count>
21

$$$$

  MOE2015           2D

  8  7  0  0  1  0  0  0  0  0999 V2000
    5.6420    1.5120    0.0000 O   0  0  0  0  0  0  0  0  0  0  0  0
    4.3430    0.7620    0.0000 C   0  0  0  0  0  0  0  0  0  0  0  0
    3.0440    1.5120    0.0000 C   0  0  1  0  0  0  0  0  0  0  0  0
    3.0440    3.0120    0.0000 N   0  0  0  0  0  0  0  0  0  0  0  0
    1.7440    0.7620    0.0000 C   0  0  0  0  0  0  0  0  0  0  0  0
    0.9940    2.0610    0.0000 C   0  0  0  0  0  0  0  0  0  0  0  0
    0.4450    0.0120    0.0000 C   0  0  0  0  0  0  0  0  0  0  0  0
    2.4940   -0.5370    0.0000 C   0  0  0  0  0  0  0  0  0  0  0  0
  1  2  2  0  0  0  0
  2  3  1  0  0  0  0
  3  4  1  6  0  0  0
  3  5  1  0  0  0  0
  5  6  1  0  0  0  0
  5  7  1  0  0  0  0
  5  8  1  0  0  0  0
M  END
>  <name>
O=[C;amide][C@@H]([N;urea])C(C)(C)C

>  <apo>
2

>  <freq>
2

>  <freq0>
0

>  <freq1>
2

>  <freqA>
1.9959997

>  <a_count>
21

$$$$

  MOE2015           2D

  8  7  0  0  1  0  0  0  0  0999 V2000
   -0.4530   -1.6920    0.0000 O   0  0  0  0  0  0  0  0  0  0  0  0
    0.8460   -2.4420    0.0000 C   0  0  0  0  0  0  0  0  0  0  0  0
    2.1450   -1.6920    0.0000 C   0  0  2  0  0  0  0  0  0  0  0  0
    2.1450   -0.1920    0.0000 N   0  0  0  0  0  0  0  0  0  0  0  0
    3.4440   -2.4420    0.0000 C   0  0  0  0  0  0  0  0  0  0  0  0
    4.7430   -1.6920    0.0000 C   0  0  0  0  0  0  0  0  0  0  0  0
    6.0420   -2.4420    0.0000 C   0  0  0  0  0  0  0  0  0  0  0  0
    7.3410   -1.6920    0.0000 C   0  0  0  0  0  0  0  0  0  0  0  0
  1  2  2  0  0  0  0
  2  3  1  0  0  0  0
  3  4  1  6  0  0  0
  3  5  1  0  0  0  0
  5  6  1  0  0  0  0
  6  7  1  0  0  0  0
  7  8  1  0  0  0  0
M  END
>  <name>
O=[C;amide][C@H]([N;amide])CCC[C;amine]

>  <apo>
3

>  <freq>
2

>  <freq0>
0

>  <freq1>
2

>  <freqA>
1.9959997

>  <a_count>
21

$$$$

  MOE2015           2D

 11 11  0  0  0  0  0  0  0  0999 V2000
    0.4090    0.7090    0.0000 Se  0  0  0  0  0  0  0  0  0  0  0  0
    1.1590   -0.5900    0.0000 C   0  0  0  0  0  0  0  0  0  0  0  0
    1.1590    2.0080    0.0000 C   0  0  0  0  0  0  0  0  0  0  0  0
   -1.0910    0.7090    0.0000 C   0  0  0  0  0  0  0  0  0  0  0  0
   -1.8410    2.0080    0.0000 C   0  0  0  0  0  0  0  0  0  0  0  0
   -1.0910    3.3070    0.0000 C   0  0  0  0  0  0  0  0  0  0  0  0
   -1.8410    4.6060    0.0000 O   0  0  0  0  0  0  0  0  0  0  0  0
   -3.3410    2.0080    0.0000 C   0  0  0  0  0  0  0  0  0  0  0  0
   -4.0910    0.7090    0.0000 C   0  0  0  0  0  0  0  0  0  0  0  0
   -3.3410   -0.5900    0.0000 C   0  0  0  0  0  0  0  0  0  0  0  0
   -1.8410   -0.5900    0.0000 C   0  0  0  0  0  0  0  0  0  0  0  0
  1  2  2  0  0  0  0
  1  3  1  0  0  0  0
  1  4  1  0  0  0  0
  4  5  1  0  0  0  0
  4 11  2  0  0  0  0
  5  6  1  0  0  0  0
  5  8  2  0  0  0  0
  6  7  2  0  0  0  0
  8  9  1  0  0  0  0
  9 10  2  0  0  0  0
 10 11  1  0  0  0  0
M  END
>  <name>
[SeH0](=C)(C)c1c([C;amide]=O)cccc1

>  <apo>
1

>  <freq>
2

>  <freq0>
0

>  <freq1>
2

>  <freqA>
1.9959997

>  <a_count>
21

$$$$

  MOE2015           2D

 12 13  0  0  0  0  0  0  0  0999 V2000
   -3.3070    0.0000    0.0000 N   0  0  0  0  0  0  0  0  0  0  0  0
   -4.8070    0.0000    0.0000 C   0  0  0  0  0  0  0  0  0  0  0  0
   -2.5570    1.2990    0.0000 C   0  0  0  0  0  0  0  0  0  0  0  0
   -3.3070    2.5980    0.0000 N   0  0  0  0  0  0  0  0  0  0  0  0
   -2.5570    3.8970    0.0000 C   0  0  0  0  0  0  0  0  0  0  0  0
   -3.3070    5.1960    0.0000 N   0  0  0  0  0  0  0  0  0  0  0  0
   -1.0570    3.8970    0.0000 N   0  0  0  0  0  0  0  0  0  0  0  0
   -0.3070    2.5980    0.0000 C   0  0  0  0  0  0  0  0  0  0  0  0
    1.1600    2.2860    0.0000 N   0  0  0  0  0  0  0  0  0  0  0  0
    1.3170    0.7940    0.0000 C   0  0  0  0  0  0  0  0  0  0  0  0
   -0.0540    0.1840    0.0000 N   0  0  0  0  0  0  0  0  0  0  0  0
   -1.0570    1.2990    0.0000 C   0  0  0  0  0  0  0  0  0  0  0  0
  1  2  1  0  0  0  0
  1  3  1  0  0  0  0
  3  4  1  0  0  0  0
  3 12  2  0  0  0  0
  4  5  2  0  0  0  0
  5  6  1  0  0  0  0
  5  7  1  0  0  0  0
  7  8  2  0  0  0  0
  8  9  1  0  0  0  0
  8 12  1  0  0  0  0
  9 10  1  0  0  0  0
 10 11  2  0  0  0  0
 11 12  1  0  0  0  0
M  END
>  <name>
N(C)c1nc(N)nc2[nH;NaroC]cnc12

>  <apo>
1

>  <freq>
2

>  <freq0>
0

>  <freq1>
2

>  <freqA>
1.9959997

>  <a_count>
20

$$$$

  MOE2015           2D

 13 14  0  0  0  0  0  0  0  0999 V2000
   -0.1880   -0.7000    0.0000 N   0  0  0  0  0  0  0  0  0  0  0  0
   -1.4870   -1.4500    0.0000 N   0  0  0  0  0  0  0  0  0  0  0  0
   -2.7860   -0.7000    0.0000 C   0  0  0  0  0  0  0  0  0  0  0  0
   -2.9430    0.7910    0.0000 S   0  0  0  0  0  0  0  0  0  0  0  0
   -4.4100    1.1030    0.0000 C   0  0  0  0  0  0  0  0  0  0  0  0
   -5.1600   -0.1960    0.0000 C   0  0  0  0  0  0  0  0  0  0  0  0
   -4.1560   -1.3110    0.0000 N   0  0  0  0  0  0  0  0  0  0  0  0
    1.1110   -1.4500    0.0000 C   0  0  0  0  0  0  0  0  0  0  0  0
    2.4100   -0.7000    0.0000 C   0  0  0  0  0  0  0  0  0  0  0  0
    3.7810   -1.3110    0.0000 S   0  0  0  0  0  0  0  0  0  0  0  0
    4.7840   -0.1960    0.0000 C   0  0  0  0  0  0  0  0  0  0  0  0
    4.0340    1.1030    0.0000 C   0  0  0  0  0  0  0  0  0  0  0  0
    2.5670    0.7910    0.0000 C   0  0  0  0  0  0  0  0  0  0  0  0
  1  2  1  0  0  0  0
  1  8  2  0  0  0  0
  2  3  1  0  0  0  0
  3  4  1  0  0  0  0
  3  7  2  0  0  0  0
  4  5  1  0  0  0  0
  5  6  2  0  0  0  0
  6  7  1  0  0  0  0
  8  9  1  0  0  0  0
  9 10  1  0  0  0  0
  9 13  2  0  0  0  0
 10 11  1  0  0  0  0
 11 12  2  0  0  0  0
 12 13  1  0  0  0  0
M  END
>  <name>
N(\Nc1sc[c;biphenyl]n1)=C/c1sccc1

>  <apo>
1

>  <freq>
2

>  <freq0>
0

>  <freq1>
2

>  <freqA>
1.9959997

>  <a_count>
20

$$$$

  MOE2015           2D

  9  8  0  0  1  0  0  0  0  0999 V2000
    0.6790   -2.9880    0.0000 O   0  0  0  0  0  0  0  0  0  0  0  0
    0.6790   -1.4880    0.0000 C   0  0  0  0  0  0  0  0  0  0  0  0
    1.9780   -0.7380    0.0000 C   0  0  1  0  0  0  0  0  0  0  0  0
    1.9780    0.7620    0.0000 N   0  0  0  0  0  0  0  0  0  0  0  0
    3.2770   -1.4880    0.0000 C   0  0  0  0  0  0  0  0  0  0  0  0
    4.5760   -0.7380    0.0000 C   0  0  0  0  0  0  0  0  0  0  0  0
    5.8750   -1.4880    0.0000 C   0  0  0  0  0  0  0  0  0  0  0  0
   -0.6200   -0.7380    0.0000 C   0  0  0  0  0  0  0  0  0  0  0  0
   -1.9190   -1.4880    0.0000 O   0  0  0  0  0  0  0  0  0  0  0  0
  1  2  2  0  0  0  0
  2  3  1  0  0  0  0
  2  8  1  0  0  0  0
  3  4  1  1  0  0  0
  3  5  1  0  0  0  0
  5  6  1  0  0  0  0
  6  7  1  0  0  0  0
  8  9  2  0  0  0  0
M  END
>  <name>
O=C([C@@H]([N;amide])CCC)[C;amide]=O

>  <apo>
2

>  <freq>
2

>  <freq0>
0

>  <freq1>
2

>  <freqA>
1.9959997

>  <a_count>
20

$$$$

  MOE2015           2D

 10 10  0  0  0  0  0  0  0  0999 V2000
    8.5770   -2.8980    0.0000 O   0  0  0  0  0  0  0  0  0  0  0  0
    7.2770   -3.6480    0.0000 C   0  0  0  0  0  0  0  0  0  0  0  0
    5.9780   -2.8980    0.0000 C   0  0  0  0  0  0  0  0  0  0  0  0
    4.6790   -3.6480    0.0000 C   0  0  0  0  0  0  0  0  0  0  0  0
    3.3800   -2.8980    0.0000 C   0  0  0  0  0  0  0  0  0  0  0  0
    2.0810   -3.6480    0.0000 C   0  0  0  0  0  0  0  0  0  0  0  0
    0.7820   -2.8980    0.0000 C   0  0  0  0  0  0  0  0  0  0  0  0
    0.7820   -1.3980    0.0000 C   0  0  0  0  0  0  0  0  0  0  0  0
    2.0810   -0.6480    0.0000 C   0  0  0  0  0  0  0  0  0  0  0  0
    3.3800   -1.3980    0.0000 C   0  0  0  0  0  0  0  0  0  0  0  0
  1  2  2  0  0  0  0
  2  3  1  0  0  0  0
  3  4  1  0  0  0  0
  4  5  1  0  0  0  0
  5  6  1  0  0  0  0
  5 10  2  0  0  0  0
  6  7  2  0  0  0  0
  7  8  1  0  0  0  0
  8  9  2  0  0  0  0
  9 10  1  0  0  0  0
M  END
>  <name>
O=[C;amide]CCc1ccccc1

>  <apo>
1

>  <freq>
2

>  <freq0>
0

>  <freq1>
2

>  <freqA>
1.9959997

>  <a_count>
20

$$$$

  MOE2015           2D

  9  9  0  0  1  0  0  0  0  0999 V2000
    6.2940   -1.6200    0.0000 O   0  0  0  0  0  0  0  0  0  0  0  0
    4.9810   -0.8960    0.0000 C   0  0  0  0  0  0  0  0  0  0  0  0
    3.6970   -1.6710    0.0000 C   0  0  2  0  0  0  0  0  0  0  0  0
    2.3150   -1.0890    0.0000 C   0  0  1  0  0  0  0  0  0  0  0  0
    1.9740    0.3720    0.0000 O   0  0  0  0  0  0  0  0  0  0  0  0
    1.3330   -2.2230    0.0000 C   0  0  1  0  0  0  0  0  0  0  0  0
   -0.1610   -2.0960    0.0000 C   0  0  0  0  0  0  0  0  0  0  0  0
    2.1090   -3.5070    0.0000 C   0  0  0  0  0  0  0  0  0  0  0  0
    3.5690   -3.1660    0.0000 N   0  0  0  0  0  0  0  0  0  0  0  0
  1  2  2  0  0  0  0
  3  2  1  1  0  0  0
  3  4  1  0  0  0  0
  3  9  1  0  0  0  0
  4  5  1  6  0  0  0
  4  6  1  0  0  0  0
  6  7  1  6  0  0  0
  6  8  1  0  0  0  0
  8  9  1  0  0  0  0
M  END
>  <name>
O=[C;amide][C@@H]1[C@@H](O)[C@@H](C)C[N;amide]1

>  <apo>
2

>  <freq>
2

>  <freq0>
0

>  <freq1>
2

>  <freqA>
1.9959997

>  <a_count>
20

$$$$

  MOE2015           2D

 11 11  0  0  0  0  0  0  0  0999 V2000
    6.1360   -3.5430    0.0000 O   0  0  0  0  0  0  0  0  0  0  0  0
    5.3860   -2.2440    0.0000 N   0  3  0  0  0  0  0  0  0  0  0  0
    6.1360   -0.9450    0.0000 O   0  5  0  0  0  0  0  0  0  0  0  0
    3.8860   -2.2440    0.0000 C   0  0  0  0  0  0  0  0  0  0  0  0
    3.1360   -0.9450    0.0000 C   0  0  0  0  0  0  0  0  0  0  0  0
    1.6360   -0.9450    0.0000 C   0  0  0  0  0  0  0  0  0  0  0  0
    0.8860    0.3540    0.0000 C   0  0  0  0  0  0  0  0  0  0  0  0
    0.8860   -2.2440    0.0000 C   0  0  0  0  0  0  0  0  0  0  0  0
   -0.6140   -2.2440    0.0000 C   0  0  0  0  0  0  0  0  0  0  0  0
    1.6360   -3.5430    0.0000 C   0  0  0  0  0  0  0  0  0  0  0  0
    3.1360   -3.5430    0.0000 C   0  0  0  0  0  0  0  0  0  0  0  0
  1  2  2  0  0  0  0
  2  3  1  0  0  0  0
  2  4  1  0  0  0  0
  4  5  1  0  0  0  0
  4 11  2  0  0  0  0
  5  6  2  0  0  0  0
  6  7  1  0  0  0  0
  6  8  1  0  0  0  0
  8  9  1  0  0  0  0
  8 10  2  0  0  0  0
 10 11  1  0  0  0  0
M  CHG  1   2   1
M  CHG  1   3  -1
M  END
>  <name>
O=[N+]([O-])c1cc(C)c(C)c[c;biphenyl]1

>  <apo>
1

>  <freq>
2

>  <freq0>
0

>  <freq1>
2

>  <freqA>
1.9959997

>  <a_count>
20

$$$$

  MOE2015           2D

  8  8  0  0  1  0  0  0  0  0999 V2000
    0.4890   -1.1750    0.0000 O   0  0  0  0  0  0  0  0  0  0  0  0
    1.7880   -0.4250    0.0000 C   0  0  1  0  0  0  0  0  0  0  0  0
    1.7880    1.0750    0.0000 C   0  0  1  0  0  0  0  0  0  0  0  0
    0.4890    1.8250    0.0000 C   0  0  0  0  0  0  0  0  0  0  0  0
    3.0870    1.8250    0.0000 O   0  0  0  0  0  0  0  0  0  0  0  0
    4.3860    1.0750    0.0000 C   0  0  0  0  0  0  0  0  0  0  0  0
    4.3860   -0.4250    0.0000 C   0  0  0  0  0  0  0  0  0  0  0  0
    3.0870   -1.1750    0.0000 C   0  0  0  0  0  0  0  0  0  0  0  0
  2  1  1  1  0  0  0
  2  3  1  0  0  0  0
  2  8  1  0  0  0  0
  3  4  1  1  0  0  0
  3  5  1  0  0  0  0
  5  6  1  0  0  0  0
  6  7  1  0  0  0  0
  7  8  1  0  0  0  0
M  END
>  <name>
O[C@H]1[C@@H](C)O[C;ether]C[C;ether]1

>  <apo>
2

>  <freq>
2

>  <freq0>
0

>  <freq1>
2

>  <freqA>
1.9959997

>  <a_count>
20

$$$$

  MOE2015           2D

  9  9  0  0  1  0  0  0  0  0999 V2000
    5.0000    0.2890    0.0000 N   0  0  0  0  0  0  0  0  0  0  0  0
    4.2500    1.5880    0.0000 C   0  0  1  0  0  0  0  0  0  0  0  0
    5.0000    2.8870    0.0000 C   0  0  0  0  0  0  0  0  0  0  0  0
    2.7500    1.5880    0.0000 C   0  0  0  0  0  0  0  0  0  0  0  0
    2.0000    2.8870    0.0000 C   0  0  0  0  0  0  0  0  0  0  0  0
    0.5000    2.8870    0.0000 C   0  0  0  0  0  0  0  0  0  0  0  0
   -0.2500    1.5880    0.0000 C   0  0  0  0  0  0  0  0  0  0  0  0
    0.5000    0.2890    0.0000 C   0  0  0  0  0  0  0  0  0  0  0  0
    2.0000    0.2890    0.0000 C   0  0  0  0  0  0  0  0  0  0  0  0
  2  1  1  6  0  0  0
  2  3  1  0  0  0  0
  2  4  1  0  0  0  0
  4  5  1  0  0  0  0
  4  9  2  0  0  0  0
  5  6  2  0  0  0  0
  6  7  1  0  0  0  0
  7  8  2  0  0  0  0
  8  9  1  0  0  0  0
M  END
>  <name>
[N;amide][C@@H](C)c1cc[c;biphenyl]cc1

>  <apo>
2

>  <freq>
2

>  <freq0>
0

>  <freq1>
2

>  <freqA>
1.9959997

>  <a_count>
20

$$$$

  MOE2015           2D

 13 14  0  0  0  0  0  0  0  0999 V2000
    8.1160    2.1750    0.0000 F   0  0  0  0  0  0  0  0  0  0  0  0
    6.8170    1.4250    0.0000 C   0  0  0  0  0  0  0  0  0  0  0  0
    5.5180    2.1750    0.0000 C   0  0  0  0  0  0  0  0  0  0  0  0
    4.2190    1.4250    0.0000 C   0  0  0  0  0  0  0  0  0  0  0  0
    2.7930    1.8880    0.0000 C   0  0  0  0  0  0  0  0  0  0  0  0
    2.3290    3.3150    0.0000 O   0  0  0  0  0  0  0  0  0  0  0  0
    1.9110    0.6750    0.0000 C   0  0  0  0  0  0  0  0  0  0  0  0
    0.4110    0.6750    0.0000 O   0  0  0  0  0  0  0  0  0  0  0  0
    2.7930   -0.5390    0.0000 N   0  0  0  0  0  0  0  0  0  0  0  0
    2.3290   -1.9650    0.0000 C   0  0  0  0  0  0  0  0  0  0  0  0
    4.2190   -0.0750    0.0000 C   0  0  0  0  0  0  0  0  0  0  0  0
    5.5180   -0.8250    0.0000 C   0  0  0  0  0  0  0  0  0  0  0  0
    6.8170   -0.0750    0.0000 C   0  0  0  0  0  0  0  0  0  0  0  0
  1  2  1  0  0  0  0
  2  3  1  0  0  0  0
  2 13  2  0  0  0  0
  3  4  2  0  0  0  0
  4  5  1  0  0  0  0
  4 11  1  0  0  0  0
  5  6  2  0  0  0  0
  5  7  1  0  0  0  0
  7  8  2  0  0  0  0
  7  9  1  0  0  0  0
  9 10  1  0  0  0  0
  9 11  1  0  0  0  0
 11 12  2  0  0  0  0
 12 13  1  0  0  0  0
M  END
>  <name>
Fc1cc2C(=O)C(=O)N([C;amine])c2cc1

>  <apo>
1

>  <freq>
2

>  <freq0>
0

>  <freq1>
2

>  <freqA>
1.9959997

>  <a_count>
19

$$$$

  MOE2015           2D

 10 10  0  0  0  0  0  0  0  0999 V2000
   -0.3750    3.2480    0.0000 O   0  0  0  0  0  0  0  0  0  0  0  0
    0.3750    1.9490    0.0000 C   0  0  0  0  0  0  0  0  0  0  0  0
   -0.3750    0.6500    0.0000 C   0  0  0  0  0  0  0  0  0  0  0  0
    1.8750    1.9490    0.0000 C   0  0  0  0  0  0  0  0  0  0  0  0
    2.6250    0.6500    0.0000 C   0  0  0  0  0  0  0  0  0  0  0  0
    4.1250    0.6500    0.0000 C   0  0  0  0  0  0  0  0  0  0  0  0
    4.8750    1.9490    0.0000 C   0  0  0  0  0  0  0  0  0  0  0  0
    6.3750    1.9490    0.0000 N   0  0  0  0  0  0  0  0  0  0  0  0
    4.1250    3.2480    0.0000 C   0  0  0  0  0  0  0  0  0  0  0  0
    2.6250    3.2480    0.0000 C   0  0  0  0  0  0  0  0  0  0  0  0
  1  2  2  0  0  0  0
  2  3  1  0  0  0  0
  2  4  1  0  0  0  0
  4  5  1  0  0  0  0
  4 10  2  0  0  0  0
  5  6  2  0  0  0  0
  6  7  1  0  0  0  0
  7  8  1  0  0  0  0
  7  9  2  0  0  0  0
  9 10  1  0  0  0  0
M  END
>  <name>
O=C(C)c1ccc([N;amide])cc1

>  <apo>
1

>  <freq>
2

>  <freq0>
0

>  <freq1>
2

>  <freqA>
1.9959997

>  <a_count>
19

$$$$

  MOE2015           2D

  9  8  0  0  1  0  0  0  0  0999 V2000
   -0.3360   -1.2540    0.0000 O   0  0  0  0  0  0  0  0  0  0  0  0
    0.9630   -2.0040    0.0000 C   0  0  0  0  0  0  0  0  0  0  0  0
    0.9630   -3.5040    0.0000 N   0  0  0  0  0  0  0  0  0  0  0  0
    2.2620   -1.2540    0.0000 C   0  0  0  0  0  0  0  0  0  0  0  0
    3.5610   -2.0040    0.0000 C   0  0  0  0  0  0  0  0  0  0  0  0
    4.8600   -1.2540    0.0000 C   0  0  2  0  0  0  0  0  0  0  0  0
    4.8600    0.2460    0.0000 N   0  0  0  0  0  0  0  0  0  0  0  0
    6.1590   -2.0040    0.0000 C   0  0  0  0  0  0  0  0  0  0  0  0
    7.4580   -1.2540    0.0000 O   0  0  0  0  0  0  0  0  0  0  0  0
  1  2  2  0  0  0  0
  2  3  1  0  0  0  0
  2  4  1  0  0  0  0
  4  5  1  0  0  0  0
  5  6  1  0  0  0  0
  6  7  1  6  0  0  0
  6  8  1  0  0  0  0
  8  9  2  0  0  0  0
M  END
>  <name>
O=C(N)CC[C@H]([N;amide])[C;amide]=O

>  <apo>
2

>  <freq>
2

>  <freq0>
0

>  <freq1>
2

>  <freqA>
1.9959997

>  <a_count>
19

$$$$

  MOE2015           2D

  8  8  0  0  1  0  0  0  0  0999 V2000
    5.5980   -1.5700    0.0000 O   0  0  0  0  0  0  0  0  0  0  0  0
    4.3170   -0.7900    0.0000 C   0  0  0  0  0  0  0  0  0  0  0  0
    3.0000   -1.5100    0.0000 C   0  0  2  0  0  0  0  0  0  0  0  0
    1.6450   -0.8680    0.0000 C   0  0  1  0  0  0  0  0  0  0  0  0
    1.3670    0.6060    0.0000 N   0  0  0  0  0  0  0  0  0  0  0  0
    0.6150   -1.9590    0.0000 C   0  0  0  0  0  0  0  0  0  0  0  0
    1.3350   -3.2750    0.0000 C   0  0  0  0  0  0  0  0  0  0  0  0
    2.8090   -2.9970    0.0000 C   0  0  0  0  0  0  0  0  0  0  0  0
  1  2  2  0  0  0  0
  3  2  1  1  0  0  0
  3  4  1  0  0  0  0
  3  8  1  0  0  0  0
  4  5  1  6  0  0  0
  4  6  1  0  0  0  0
  6  7  1  0  0  0  0
  7  8  1  0  0  0  0
M  END
>  <name>
O=[C;amide][C@@H]1[C@@H]([N;amide])CCC1

>  <apo>
2

>  <freq>
2

>  <freq0>
0

>  <freq1>
2

>  <freqA>
1.9959997

>  <a_count>
19

$$$$

  MOE2015           2D

 10 10  0  0  0  0  0  0  0  0999 V2000
    6.7670   -1.8130    0.0000 O   0  0  0  0  0  0  0  0  0  0  0  0
    5.4680   -1.0630    0.0000 C   0  0  0  0  0  0  0  0  0  0  0  0
    4.1690   -1.8130    0.0000 C   0  0  0  0  0  0  0  0  0  0  0  0
    2.8700   -1.0630    0.0000 C   0  0  0  0  0  0  0  0  0  0  0  0
    1.5710   -1.8130    0.0000 C   0  0  0  0  0  0  0  0  0  0  0  0
    0.2720   -1.0630    0.0000 N   0  0  0  0  0  0  0  0  0  0  0  0
    1.5710   -3.3130    0.0000 C   0  0  0  0  0  0  0  0  0  0  0  0
    0.2720   -4.0630    0.0000 C   0  0  0  0  0  0  0  0  0  0  0  0
    2.8700   -4.0630    0.0000 C   0  0  0  0  0  0  0  0  0  0  0  0
    4.1690   -3.3130    0.0000 C   0  0  0  0  0  0  0  0  0  0  0  0
  1  2  2  0  0  0  0
  2  3  1  0  0  0  0
  3  4  1  0  0  0  0
  3 10  2  0  0  0  0
  4  5  2  0  0  0  0
  5  6  1  0  0  0  0
  5  7  1  0  0  0  0
  7  8  1  0  0  0  0
  7  9  2  0  0  0  0
  9 10  1  0  0  0  0
M  END
>  <name>
O=[C;amide]c1cc([N;amide])c(C)cc1

>  <apo>
2

>  <freq>
2

>  <freq0>
0

>  <freq1>
2

>  <freqA>
1.9959997

>  <a_count>
19

$$$$

  MOE2015           2D

  8  8  0  0  1  0  0  0  0  0999 V2000
    5.3440   -0.8120    0.0000 O   0  0  0  0  0  0  0  0  0  0  0  0
    4.5940   -2.1110    0.0000 C   0  0  0  0  0  0  0  0  0  0  0  0
    3.0940   -2.1110    0.0000 C   0  0  3  0  0  0  0  0  0  0  0  0
    2.3440   -3.4100    0.0000 N   0  0  0  0  0  0  0  0  0  0  0  0
    0.8440   -3.4100    0.0000 C   0  0  0  0  0  0  0  0  0  0  0  0
    0.0940   -2.1110    0.0000 C   0  0  0  0  0  0  0  0  0  0  0  0
    0.8440   -0.8120    0.0000 N   0  0  0  0  0  0  0  0  0  0  0  0
    2.3440   -0.8120    0.0000 C   0  0  0  0  0  0  0  0  0  0  0  0
  1  2  2  0  0  0  0
  2  3  1  0  0  0  0
  3  4  1  0  0  0  0
  3  8  1  0  0  0  0
  4  5  1  0  0  0  0
  5  6  1  0  0  0  0
  6  7  1  0  0  0  0
  7  8  1  0  0  0  0
M  END
>  <name>
O=[C;amide]C1[N;amide]CC[N;so2amide]C1

>  <apo>
3

>  <freq>
2

>  <freq0>
0

>  <freq1>
2

>  <freqA>
1.9959997

>  <a_count>
18

$$$$

  MOE2015           2D

 10 10  0  0  0  0  0  0  0  0999 V2000
    6.5070    1.7440    0.0000 O   0  0  0  0  0  0  0  0  0  0  0  0
    5.2080    0.9940    0.0000 C   0  0  0  0  0  0  0  0  0  0  0  0
    3.9090    1.7440    0.0000 C   0  0  0  0  0  0  0  0  0  0  0  0
    2.6100    0.9940    0.0000 C   0  0  0  0  0  0  0  0  0  0  0  0
    2.6100   -0.5060    0.0000 O   0  0  0  0  0  0  0  0  0  0  0  0
    1.3110    1.7440    0.0000 C   0  0  0  0  0  0  0  0  0  0  0  0
    0.0120    0.9940    0.0000 C   0  0  0  0  0  0  0  0  0  0  0  0
    1.3110    3.2440    0.0000 C   0  0  0  0  0  0  0  0  0  0  0  0
    2.6100    3.9940    0.0000 C   0  0  0  0  0  0  0  0  0  0  0  0
    3.9090    3.2440    0.0000 C   0  0  0  0  0  0  0  0  0  0  0  0
  1  2  2  0  0  0  0
  2  3  1  0  0  0  0
  3  4  1  0  0  0  0
  3 10  2  0  0  0  0
  4  5  1  0  0  0  0
  4  6  2  0  0  0  0
  6  7  1  0  0  0  0
  6  8  1  0  0  0  0
  8  9  2  0  0  0  0
  9 10  1  0  0  0  0
M  END
>  <name>
O=[C;ester]c1c(O)c(C)ccc1

>  <apo>
1

>  <freq>
2

>  <freq0>
0

>  <freq1>
2

>  <freqA>
1.9959997

>  <a_count>
18

$$$$

  MOE2015           2D

 10 10  0  0  0  0  0  0  0  0999 V2000
   -0.3750   -3.5070    0.0000 O   0  0  0  0  0  0  0  0  0  0  0  0
    0.3750   -2.2080    0.0000 C   0  0  0  0  0  0  0  0  0  0  0  0
    1.8750   -2.2080    0.0000 C   0  0  0  0  0  0  0  0  0  0  0  0
    2.6250   -0.9090    0.0000 C   0  0  0  0  0  0  0  0  0  0  0  0
    1.8750    0.3900    0.0000 O   0  0  0  0  0  0  0  0  0  0  0  0
    4.1250   -0.9090    0.0000 C   0  0  0  0  0  0  0  0  0  0  0  0
    4.8750   -2.2080    0.0000 C   0  0  0  0  0  0  0  0  0  0  0  0
    6.3750   -2.2080    0.0000 C   0  0  0  0  0  0  0  0  0  0  0  0
    4.1250   -3.5070    0.0000 C   0  0  0  0  0  0  0  0  0  0  0  0
    2.6250   -3.5070    0.0000 C   0  0  0  0  0  0  0  0  0  0  0  0
  1  2  2  0  0  0  0
  2  3  1  0  0  0  0
  3  4  1  0  0  0  0
  3 10  2  0  0  0  0
  4  5  1  0  0  0  0
  4  6  2  0  0  0  0
  6  7  1  0  0  0  0
  7  8  1  0  0  0  0
  7  9  2  0  0  0  0
  9 10  1  0  0  0  0
M  END
>  <name>
O=[C;ester]c1c(O)cc(C)cc1

>  <apo>
1

>  <freq>
2

>  <freq0>
0

>  <freq1>
2

>  <freqA>
1.9959997

>  <a_count>
18

$$$$

  MOE2015           2D

 10 10  0  0  0  0  0  0  0  0999 V2000
    5.3880   -1.4440    0.0000 O   0  0  0  0  0  0  0  0  0  0  0  0
    4.0890   -0.6940    0.0000 C   0  0  0  0  0  0  0  0  0  0  0  0
    2.7900   -1.4440    0.0000 C   0  0  0  0  0  0  0  0  0  0  0  0
    1.4910   -0.6940    0.0000 C   0  0  0  0  0  0  0  0  0  0  0  0
    1.4910    0.8060    0.0000 O   0  0  0  0  0  0  0  0  0  0  0  0
    0.1920   -1.4440    0.0000 C   0  0  0  0  0  0  0  0  0  0  0  0
    0.1920   -2.9440    0.0000 C   0  0  0  0  0  0  0  0  0  0  0  0
    1.4910   -3.6940    0.0000 C   0  0  0  0  0  0  0  0  0  0  0  0
    2.7900   -2.9440    0.0000 C   0  0  0  0  0  0  0  0  0  0  0  0
    4.0890   -3.6940    0.0000 C   0  0  0  0  0  0  0  0  0  0  0  0
  1  2  2  0  0  0  0
  2  3  1  0  0  0  0
  3  4  1  0  0  0  0
  3  9  2  0  0  0  0
  4  5  1  0  0  0  0
  4  6  2  0  0  0  0
  6  7  1  0  0  0  0
  7  8  2  0  0  0  0
  8  9  1  0  0  0  0
  9 10  1  0  0  0  0
M  END
>  <name>
O=[C;ester]c1c(O)cccc1C

>  <apo>
1

>  <freq>
2

>  <freq0>
0

>  <freq1>
2

>  <freqA>
1.9959997

>  <a_count>
18

$$$$

  MOE2015           2D

  6  6  0  0  0  0  0  0  0  0999 V2000
   -2.0490    2.0490    0.0000 N   0  3  0  0  0  0  0  0  0  0  0  0
   -2.0490    0.5490    0.0000 C   0  0  0  0  0  0  0  0  0  0  0  0
   -0.7500   -0.2010    0.0000 C   0  0  0  0  0  0  0  0  0  0  0  0
    0.5490    0.5490    0.0000 C   0  0  0  0  0  0  0  0  0  0  0  0
    0.5490    2.0490    0.0000 C   0  0  0  0  0  0  0  0  0  0  0  0
   -0.7500    2.7990    0.0000 C   0  0  0  0  0  0  0  0  0  0  0  0
  1  2  1  0  0  0  0
  1  6  1  0  0  0  0
  2  3  1  0  0  0  0
  3  4  1  0  0  0  0
  4  5  1  0  0  0  0
  5  6  1  0  0  0  0
M  CHG  1   1   1
M  END
>  <name>
[N+;amine]1CCCCC1

>  <apo>
1

>  <freq>
2

>  <freq0>
0

>  <freq1>
2

>  <freqA>
1.9959997

>  <a_count>
18

$$$$

  MOE2015           2D

  6  6  0  0  0  0  0  0  0  0999 V2000
   -2.0490    2.0490    0.0000 N   0  3  0  0  0  0  0  0  0  0  0  0
   -2.0490    0.5490    0.0000 C   0  0  0  0  0  0  0  0  0  0  0  0
   -0.7500   -0.2010    0.0000 C   0  0  0  0  0  0  0  0  0  0  0  0
    0.5490    0.5490    0.0000 N   0  3  0  0  0  0  0  0  0  0  0  0
    0.5490    2.0490    0.0000 C   0  0  0  0  0  0  0  0  0  0  0  0
   -0.7500    2.7990    0.0000 C   0  0  0  0  0  0  0  0  0  0  0  0
  1  2  1  0  0  0  0
  1  6  1  0  0  0  0
  2  3  1  0  0  0  0
  3  4  1  0  0  0  0
  4  5  1  0  0  0  0
  5  6  1  0  0  0  0
M  CHG  1   1   1
M  CHG  1   4   1
M  END
>  <name>
[N+;amine]1CC[N+;amine]CC1

>  <apo>
2

>  <freq>
2

>  <freq0>
0

>  <freq1>
2

>  <freqA>
1.9959997

>  <a_count>
18

$$$$

  MOE2015           2D

  9  9  0  0  0  0  0  0  0  0999 V2000
    0.0000    0.0000    0.0000 O   0  0  0  0  0  0  0  0  0  0  0  0
    1.5000    0.0000    0.0000 C   0  0  0  0  0  0  0  0  0  0  0  0
    2.2500    1.2990    0.0000 C   0  0  0  0  0  0  0  0  0  0  0  0
    3.7500    1.2990    0.0000 C   0  0  0  0  0  0  0  0  0  0  0  0
    4.5000    0.0000    0.0000 C   0  0  0  0  0  0  0  0  0  0  0  0
    6.0000    0.0000    0.0000 C   0  0  0  0  0  0  0  0  0  0  0  0
    6.7500   -1.2990    0.0000 N   0  0  0  0  0  0  0  0  0  0  0  0
    3.7500   -1.2990    0.0000 C   0  0  0  0  0  0  0  0  0  0  0  0
    2.2500   -1.2990    0.0000 C   0  0  0  0  0  0  0  0  0  0  0  0
  1  2  1  0  0  0  0
  2  3  1  0  0  0  0
  2  9  2  0  0  0  0
  3  4  2  0  0  0  0
  4  5  1  0  0  0  0
  5  6  1  0  0  0  0
  5  8  2  0  0  0  0
  6  7  1  0  0  0  0
  8  9  1  0  0  0  0
M  END
>  <name>
[O;ether]c1ccc(C[N;amide])cc1

>  <apo>
2

>  <freq>
2

>  <freq0>
0

>  <freq1>
2

>  <freqA>
1.9959997

>  <a_count>
18

$$$$

  MOE2015           2D

 11 12  0  0  0  0  0  0  0  0999 V2000
    7.6230    0.0000    0.0000 Br  0  0  0  0  0  0  0  0  0  0  0  0
    6.1230    0.0000    0.0000 C   0  0  0  0  0  0  0  0  0  0  0  0
    5.3730    1.2990    0.0000 C   0  0  0  0  0  0  0  0  0  0  0  0
    3.8730    1.2990    0.0000 C   0  0  0  0  0  0  0  0  0  0  0  0
    2.8690    2.4140    0.0000 N   0  0  0  0  0  0  0  0  0  0  0  0
    1.4990    1.8040    0.0000 C   0  0  0  0  0  0  0  0  0  0  0  0
    1.6560    0.3120    0.0000 C   0  0  0  0  0  0  0  0  0  0  0  0
    0.5410   -0.6920    0.0000 S   0  0  0  0  0  0  0  0  0  0  0  0
    3.1230    0.0000    0.0000 C   0  0  0  0  0  0  0  0  0  0  0  0
    3.8730   -1.2990    0.0000 C   0  0  0  0  0  0  0  0  0  0  0  0
    5.3730   -1.2990    0.0000 C   0  0  0  0  0  0  0  0  0  0  0  0
  1  2  1  0  0  0  0
  2  3  1  0  0  0  0
  2 11  2  0  0  0  0
  3  4  2  0  0  0  0
  4  5  1  0  0  0  0
  4  9  1  0  0  0  0
  5  6  1  0  0  0  0
  6  7  2  0  0  0  0
  7  8  1  0  0  0  0
  7  9  1  0  0  0  0
  9 10  2  0  0  0  0
 10 11  1  0  0  0  0
M  END
>  <name>
Brc1cc2[nH]cc([S;thioether])c2cc1

>  <apo>
1

>  <freq>
2

>  <freq0>
0

>  <freq1>
2

>  <freqA>
1.9959997

>  <a_count>
17

$$$$

  MOE2015           2D

 11 12  0  0  0  0  0  0  0  0999 V2000
    7.0470    1.8880    0.0000 Br  0  0  0  0  0  0  0  0  0  0  0  0
    5.7480    1.1380    0.0000 C   0  0  0  0  0  0  0  0  0  0  0  0
    4.4490    1.8880    0.0000 C   0  0  0  0  0  0  0  0  0  0  0  0
    3.1500    1.1380    0.0000 C   0  0  0  0  0  0  0  0  0  0  0  0
    1.7230    1.6020    0.0000 C   0  0  0  0  0  0  0  0  0  0  0  0
    1.2600    3.0280    0.0000 S   0  0  0  0  0  0  0  0  0  0  0  0
    0.8410    0.3880    0.0000 C   0  0  0  0  0  0  0  0  0  0  0  0
    1.7230   -0.8250    0.0000 N   0  0  0  0  0  0  0  0  0  0  0  0
    3.1500   -0.3620    0.0000 C   0  0  0  0  0  0  0  0  0  0  0  0
    4.4490   -1.1120    0.0000 C   0  0  0  0  0  0  0  0  0  0  0  0
    5.7480   -0.3620    0.0000 C   0  0  0  0  0  0  0  0  0  0  0  0
  1  2  1  0  0  0  0
  2  3  1  0  0  0  0
  2 11  2  0  0  0  0
  3  4  2  0  0  0  0
  4  5  1  0  0  0  0
  4  9  1  0  0  0  0
  5  6  1  0  0  0  0
  5  7  2  0  0  0  0
  7  8  1  0  0  0  0
  8  9  1  0  0  0  0
  9 10  2  0  0  0  0
 10 11  1  0  0  0  0
M  END
>  <name>
Brc1cc2c([S;thioether])c[nH]c2cc1

>  <apo>
1

>  <freq>
2

>  <freq0>
0

>  <freq1>
2

>  <freqA>
1.9959997

>  <a_count>
17

$$$$

  MOE2015           2D

  5  4  0  0  0  0  0  0  0  0999 V2000
    0.1500   -0.0400    0.0000 C   0  0  0  0  0  0  0  0  0  0  0  0
    1.4490    0.7100    0.0000 C   0  0  0  0  0  0  0  0  0  0  0  0
    2.7480   -0.0400    0.0000 C   0  0  0  0  0  0  0  0  0  0  0  0
   -1.1490    0.7100    0.0000 C   0  0  0  0  0  0  0  0  0  0  0  0
   -2.4480   -0.0400    0.0000 C   0  0  0  0  0  0  0  0  0  0  0  0
  1  2  1  0  0  0  0
  1  4  1  0  0  0  0
  2  3  1  0  0  0  0
  4  5  1  0  0  0  0
M  END
>  <name>
C(C[C;ether])CC

>  <apo>
1

>  <freq>
2

>  <freq0>
0

>  <freq1>
2

>  <freqA>
1.9959997

>  <a_count>
17

$$$$

  MOE2015           2D

 11 12  0  0  0  0  0  0  0  0999 V2000
    0.1930   -2.0080    0.0000 Cl  0  0  0  0  0  0  0  0  0  0  0  0
    1.4920   -1.2580    0.0000 C   0  0  0  0  0  0  0  0  0  0  0  0
    2.7910   -2.0080    0.0000 C   0  0  0  0  0  0  0  0  0  0  0  0
    4.0900   -1.2580    0.0000 C   0  0  0  0  0  0  0  0  0  0  0  0
    4.0900    0.2420    0.0000 C   0  0  0  0  0  0  0  0  0  0  0  0
    5.5170    0.7060    0.0000 N   0  0  0  0  0  0  0  0  0  0  0  0
    6.3980   -0.5080    0.0000 C   0  0  0  0  0  0  0  0  0  0  0  0
    7.8980   -0.5080    0.0000 O   0  0  0  0  0  0  0  0  0  0  0  0
    5.5170   -1.7210    0.0000 C   0  0  0  0  0  0  0  0  0  0  0  0
    2.7910    0.9920    0.0000 C   0  0  0  0  0  0  0  0  0  0  0  0
    1.4920    0.2420    0.0000 C   0  0  0  0  0  0  0  0  0  0  0  0
  1  2  1  0  0  0  0
  2  3  1  0  0  0  0
  2 11  2  0  0  0  0
  3  4  2  0  0  0  0
  4  5  1  0  0  0  0
  4  9  1  0  0  0  0
  5  6  1  0  0  0  0
  5 10  2  0  0  0  0
  6  7  1  0  0  0  0
  7  8  2  0  0  0  0
  7  9  1  0  0  0  0
 10 11  1  0  0  0  0
M  END
>  <name>
Clc1cc2c(NC(=O)[C;olefin]2)cc1

>  <apo>
1

>  <freq>
2

>  <freq0>
0

>  <freq1>
2

>  <freqA>
1.9959997

>  <a_count>
17

$$$$

  MOE2015           2D

 11 11  0  0  0  0  0  0  0  0999 V2000
   -0.5450   -3.5450    0.0000 F   0  0  0  0  0  0  0  0  0  0  0  0
   -0.5450   -2.0450    0.0000 C   0  0  0  0  0  0  0  0  0  0  0  0
   -2.0450   -2.0450    0.0000 F   0  0  0  0  0  0  0  0  0  0  0  0
   -0.5450   -0.5450    0.0000 F   0  0  0  0  0  0  0  0  0  0  0  0
    0.9550   -2.0450    0.0000 C   0  0  0  0  0  0  0  0  0  0  0  0
    1.7050   -0.7460    0.0000 C   0  0  0  0  0  0  0  0  0  0  0  0
    3.2050   -0.7460    0.0000 C   0  0  0  0  0  0  0  0  0  0  0  0
    3.9550   -2.0450    0.0000 C   0  0  0  0  0  0  0  0  0  0  0  0
    5.4550   -2.0450    0.0000 N   0  0  0  0  0  0  0  0  0  0  0  0
    3.2050   -3.3440    0.0000 C   0  0  0  0  0  0  0  0  0  0  0  0
    1.7050   -3.3440    0.0000 C   0  0  0  0  0  0  0  0  0  0  0  0
  1  2  1  0  0  0  0
  2  3  1  0  0  0  0
  2  4  1  0  0  0  0
  2  5  1  0  0  0  0
  5  6  1  0  0  0  0
  5 11  2  0  0  0  0
  6  7  2  0  0  0  0
  7  8  1  0  0  0  0
  8  9  1  0  0  0  0
  8 10  2  0  0  0  0
 10 11  1  0  0  0  0
M  END
>  <name>
FC(F)(F)c1ccc([N;amide])cc1

>  <apo>
1

>  <freq>
2

>  <freq0>
0

>  <freq1>
2

>  <freqA>
1.9959997

>  <a_count>
17

$$$$

  MOE2015           2D

 10 10  0  0  1  0  0  0  0  0999 V2000
    4.2950   -1.5500    0.0000 O   0  0  0  0  0  0  0  0  0  0  0  0
    3.1410   -0.5920    0.0000 C   0  0  0  0  0  0  0  0  0  0  0  0
    3.2380    0.9050    0.0000 N   0  0  0  0  0  0  0  0  0  0  0  0
    4.5050    1.7060    0.0000 C   0  0  0  0  0  0  0  0  0  0  0  0
    5.8340    1.0090    0.0000 O   0  0  0  0  0  0  0  0  0  0  0  0
    1.8440    1.4590    0.0000 C   0  0  1  0  0  0  0  0  0  0  0  0
    1.4730    2.9120    0.0000 N   0  0  0  0  0  0  0  0  0  0  0  0
    0.8860    0.3050    0.0000 C   0  0  0  0  0  0  0  0  0  0  0  0
   -0.6110    0.4010    0.0000 O   0  0  0  0  0  0  0  0  0  0  0  0
    1.6880   -0.9630    0.0000 N   0  0  0  0  0  0  0  0  0  0  0  0
  1  2  2  0  0  0  0
  2  3  1  0  0  0  0
  2 10  1  0  0  0  0
  3  4  1  0  0  0  0
  3  6  1  0  0  0  0
  4  5  1  0  0  0  0
  6  7  1  6  0  0  0
  6  8  1  0  0  0  0
  8  9  2  0  0  0  0
  8 10  1  0  0  0  0
M  END
>  <name>
O=C1N(CO)[C@@H]([N;urea])C(=O)N1

>  <apo>
1

>  <freq>
2

>  <freq0>
0

>  <freq1>
2

>  <freqA>
1.9959997

>  <a_count>
17

$$$$

  MOE2015           2D

  7  6  0  0  1  0  0  0  0  0999 V2000
   -0.3690   -1.3770    0.0000 O   0  0  0  0  0  0  0  0  0  0  0  0
    0.9300   -2.1270    0.0000 C   0  0  0  0  0  0  0  0  0  0  0  0
    2.2290   -1.3770    0.0000 C   0  0  1  0  0  0  0  0  0  0  0  0
    2.2290    0.1230    0.0000 N   0  0  0  0  0  0  0  0  0  0  0  0
    3.5280   -2.1270    0.0000 C   0  0  0  0  0  0  0  0  0  0  0  0
    4.8270   -1.3770    0.0000 C   0  0  0  0  0  0  0  0  0  0  0  0
    6.1260   -2.1270    0.0000 N   0  0  0  0  0  0  0  0  0  0  0  0
  1  2  2  0  0  0  0
  2  3  1  0  0  0  0
  3  4  1  1  0  0  0
  3  5  1  0  0  0  0
  5  6  1  0  0  0  0
  6  7  1  0  0  0  0
M  END
>  <name>
O=[C;amide][C@@H]([N;amide])CC[N;amide]

>  <apo>
3

>  <freq>
2

>  <freq0>
0

>  <freq1>
2

>  <freqA>
1.9959997

>  <a_count>
17

$$$$

  MOE2015           2D

  8  8  0  0  1  0  0  0  0  0999 V2000
    5.9390    1.4640    0.0000 O   0  0  0  0  0  0  0  0  0  0  0  0
    4.6100    0.7670    0.0000 C   0  0  0  0  0  0  0  0  0  0  0  0
    3.3430    1.5680    0.0000 C   0  0  1  0  0  0  0  0  0  0  0  0
    3.2460    3.0650    0.0000 N   0  0  0  0  0  0  0  0  0  0  0  0
    1.7930    3.4360    0.0000 C   0  0  0  0  0  0  0  0  0  0  0  0
    0.9910    2.1680    0.0000 C   0  0  2  0  0  0  0  0  0  0  0  0
   -0.5060    2.0720    0.0000 O   0  0  0  0  0  0  0  0  0  0  0  0
    1.9490    1.0140    0.0000 C   0  0  0  0  0  0  0  0  0  0  0  0
  1  2  2  0  0  0  0
  3  2  1  6  0  0  0
  3  4  1  0  0  0  0
  3  8  1  0  0  0  0
  4  5  1  0  0  0  0
  5  6  1  0  0  0  0
  6  7  1  1  0  0  0
  6  8  1  0  0  0  0
M  END
>  <name>
O=[C;amide][C@H]1[N;amide]C[C@H](O)C1

>  <apo>
2

>  <freq>
2

>  <freq0>
0

>  <freq1>
2

>  <freqA>
1.9959997

>  <a_count>
17

$$$$

  MOE2015           2D

 11 11  0  0  0  0  0  0  0  0999 V2000
    6.5450   -1.4170    0.0000 O   0  0  0  0  0  0  0  0  0  0  0  0
    5.7950   -2.7160    0.0000 C   0  0  0  0  0  0  0  0  0  0  0  0
    4.2950   -2.7160    0.0000 C   0  0  0  0  0  0  0  0  0  0  0  0
    3.5450   -4.0150    0.0000 C   0  0  0  0  0  0  0  0  0  0  0  0
    2.0450   -4.0150    0.0000 C   0  0  0  0  0  0  0  0  0  0  0  0
    1.2950   -5.3140    0.0000 O   0  0  0  0  0  0  0  0  0  0  0  0
    1.2950   -2.7160    0.0000 C   0  0  0  0  0  0  0  0  0  0  0  0
   -0.2050   -2.7160    0.0000 O   0  0  0  0  0  0  0  0  0  0  0  0
    2.0450   -1.4170    0.0000 C   0  0  0  0  0  0  0  0  0  0  0  0
    1.2950   -0.1180    0.0000 O   0  0  0  0  0  0  0  0  0  0  0  0
    3.5450   -1.4170    0.0000 C   0  0  0  0  0  0  0  0  0  0  0  0
  1  2  2  0  0  0  0
  2  3  1  0  0  0  0
  3  4  1  0  0  0  0
  3 11  2  0  0  0  0
  4  5  2  0  0  0  0
  5  6  1  0  0  0  0
  5  7  1  0  0  0  0
  7  8  1  0  0  0  0
  7  9  2  0  0  0  0
  9 10  1  0  0  0  0
  9 11  1  0  0  0  0
M  END
>  <name>
O=[C;amide]c1cc(O)c(O)c(O)c1

>  <apo>
1

>  <freq>
2

>  <freq0>
0

>  <freq1>
2

>  <freqA>
1.9959997

>  <a_count>
17

$$$$

  MOE2015           2D

  9  9  0  0  0  0  0  0  0  0999 V2000
    6.0000   -3.4640    0.0000 O   0  0  0  0  0  0  0  0  0  0  0  0
    5.2500   -2.1650    0.0000 C   0  0  0  0  0  0  0  0  0  0  0  0
    3.7500   -2.1650    0.0000 C   0  0  0  0  0  0  0  0  0  0  0  0
    3.0000   -0.8660    0.0000 C   0  0  0  0  0  0  0  0  0  0  0  0
    1.5000   -0.8660    0.0000 C   0  0  0  0  0  0  0  0  0  0  0  0
    0.7500   -2.1650    0.0000 C   0  0  0  0  0  0  0  0  0  0  0  0
   -0.7500   -2.1650    0.0000 C   0  0  0  0  0  0  0  0  0  0  0  0
    1.5000   -3.4640    0.0000 C   0  0  0  0  0  0  0  0  0  0  0  0
    3.0000   -3.4640    0.0000 C   0  0  0  0  0  0  0  0  0  0  0  0
  1  2  2  0  0  0  0
  2  3  1  0  0  0  0
  3  4  1  0  0  0  0
  3  9  2  0  0  0  0
  4  5  2  0  0  0  0
  5  6  1  0  0  0  0
  6  7  1  0  0  0  0
  6  8  2  0  0  0  0
  8  9  1  0  0  0  0
M  END
>  <name>
O=[C;amide]c1ccc(C)cc1

>  <apo>
1

>  <freq>
2

>  <freq0>
0

>  <freq1>
2

>  <freqA>
1.9959997

>  <a_count>
17

$$$$

  MOE2015           2D

  9  9  0  0  0  0  0  0  0  0999 V2000
    6.0000   -3.4640    0.0000 O   0  0  0  0  0  0  0  0  0  0  0  0
    5.2500   -2.1650    0.0000 C   0  0  0  0  0  0  0  0  0  0  0  0
    3.7500   -2.1650    0.0000 C   0  0  0  0  0  0  0  0  0  0  0  0
    3.0000   -0.8660    0.0000 C   0  0  0  0  0  0  0  0  0  0  0  0
    1.5000   -0.8660    0.0000 C   0  0  0  0  0  0  0  0  0  0  0  0
    0.7500   -2.1650    0.0000 C   0  0  0  0  0  0  0  0  0  0  0  0
   -0.7500   -2.1650    0.0000 C   0  0  0  0  0  0  0  0  0  0  0  0
    1.5000   -3.4640    0.0000 C   0  0  0  0  0  0  0  0  0  0  0  0
    3.0000   -3.4640    0.0000 C   0  0  0  0  0  0  0  0  0  0  0  0
  1  2  2  0  0  0  0
  2  3  1  0  0  0  0
  3  4  1  0  0  0  0
  3  9  2  0  0  0  0
  4  5  2  0  0  0  0
  5  6  1  0  0  0  0
  6  7  1  0  0  0  0
  6  8  2  0  0  0  0
  8  9  1  0  0  0  0
M  END
>  <name>
O=[C;amide]c1ccc([C;amine])cc1

>  <apo>
2

>  <freq>
2

>  <freq0>
0

>  <freq1>
2

>  <freqA>
1.9959997

>  <a_count>
17

$$$$

  MOE2015           2D

 11 11  0  0  0  0  0  0  0  0999 V2000
    9.3560    0.5630    0.0000 S   0  0  0  0  0  0  0  0  0  0  0  0
    8.0570    1.3130    0.0000 C   0  0  0  0  0  0  0  0  0  0  0  0
    8.0570    2.8130    0.0000 N   0  0  0  0  0  0  0  0  0  0  0  0
    6.7580    0.5630    0.0000 N   0  5  0  0  0  0  0  0  0  0  0  0
    5.4590    1.3130    0.0000 N   0  0  0  0  0  0  0  0  0  0  0  0
    4.1600    0.5630    0.0000 C   0  0  0  0  0  0  0  0  0  0  0  0
    2.8610    1.3130    0.0000 C   0  0  0  0  0  0  0  0  0  0  0  0
    1.4910    0.7030    0.0000 O   0  0  0  0  0  0  0  0  0  0  0  0
    0.4870    1.8180    0.0000 C   0  0  0  0  0  0  0  0  0  0  0  0
    1.2370    3.1170    0.0000 C   0  0  0  0  0  0  0  0  0  0  0  0
    2.7040    2.8050    0.0000 C   0  0  0  0  0  0  0  0  0  0  0  0
  1  2  2  0  0  0  0
  2  3  1  0  0  0  0
  2  4  1  0  0  0  0
  4  5  1  0  0  0  0
  5  6  2  0  0  0  0
  6  7  1  0  0  0  0
  7  8  1  0  0  0  0
  7 11  2  0  0  0  0
  8  9  1  0  0  0  0
  9 10  2  0  0  0  0
 10 11  1  0  0  0  0
M  CHG  1   4  -1
M  END
>  <name>
S=C(N)[N-]/N=C/c1o[c;biphenyl]cc1

>  <apo>
1

>  <freq>
2

>  <freq0>
0

>  <freq1>
2

>  <freqA>
1.9959997

>  <a_count>
17

$$$$

  MOE2015           2D

  8  8  0  0  0  0  0  0  0  0999 V2000
    5.3440   -0.8120    0.0000 N   0  0  0  0  0  0  0  0  0  0  0  0
    4.5940   -2.1110    0.0000 C   0  0  0  0  0  0  0  0  0  0  0  0
    3.0940   -2.1110    0.0000 C   0  0  0  0  0  0  0  0  0  0  0  0
    2.3440   -3.4100    0.0000 C   0  0  0  0  0  0  0  0  0  0  0  0
    0.8440   -3.4100    0.0000 C   0  0  0  0  0  0  0  0  0  0  0  0
    0.0940   -2.1110    0.0000 C   0  0  0  0  0  0  0  0  0  0  0  0
    0.8440   -0.8120    0.0000 C   0  0  0  0  0  0  0  0  0  0  0  0
    2.3440   -0.8120    0.0000 C   0  0  0  0  0  0  0  0  0  0  0  0
  1  2  1  0  0  0  0
  2  3  1  0  0  0  0
  3  4  1  0  0  0  0
  3  8  2  0  0  0  0
  4  5  2  0  0  0  0
  5  6  1  0  0  0  0
  6  7  2  0  0  0  0
  7  8  1  0  0  0  0
M  END
>  <name>
[N;amide]Cc1cc[c;biphenyl]cc1

>  <apo>
2

>  <freq>
2

>  <freq0>
0

>  <freq1>
2

>  <freqA>
1.9959997

>  <a_count>
17

$$$$

  MOE2015           2D

 10 11  0  0  0  0  0  0  0  0999 V2000
   -0.0220   -2.2100    0.0000 N   0  0  0  0  0  0  0  0  0  0  0  0
    1.0920   -1.2060    0.0000 C   0  0  0  0  0  0  0  0  0  0  0  0
    2.5600   -1.5180    0.0000 C   0  0  0  0  0  0  0  0  0  0  0  0
    3.3100   -0.2190    0.0000 C   0  0  0  0  0  0  0  0  0  0  0  0
    2.3060    0.8960    0.0000 N   0  0  0  0  0  0  0  0  0  0  0  0
    0.9360    0.2860    0.0000 C   0  0  0  0  0  0  0  0  0  0  0  0
    4.8100   -0.2190    0.0000 N   0  0  0  0  0  0  0  0  0  0  0  0
    5.5600   -1.5180    0.0000 C   0  0  0  0  0  0  0  0  0  0  0  0
    4.8100   -2.8170    0.0000 C   0  0  0  0  0  0  0  0  0  0  0  0
    3.3100   -2.8170    0.0000 C   0  0  0  0  0  0  0  0  0  0  0  0
  1  2  1  0  0  0  0
  2  3  1  0  0  0  0
  2  6  2  0  0  0  0
  3  4  1  0  0  0  0
  3 10  2  0  0  0  0
  4  5  1  0  0  0  0
  4  7  2  0  0  0  0
  5  6  1  0  0  0  0
  7  8  1  0  0  0  0
  8  9  2  0  0  0  0
  9 10  1  0  0  0  0
M  END
>  <name>
[N;amide]c1c2c([nH]c1)nc[c;biphenyl]c2

>  <apo>
2

>  <freq>
2

>  <freq0>
0

>  <freq1>
2

>  <freqA>
1.9959997

>  <a_count>
17

$$$$

  MOE2015           2D

  8  8  0  0  0  0  0  0  0  0999 V2000
    5.4110   -0.8000    0.0000 N   0  0  0  0  0  0  0  0  0  0  0  0
    4.1120   -0.0500    0.0000 C   0  0  0  0  0  0  0  0  0  0  0  0
    2.8120   -0.8000    0.0000 C   0  0  0  0  0  0  0  0  0  0  0  0
    1.5130   -0.0500    0.0000 C   0  0  0  0  0  0  0  0  0  0  0  0
    0.2140   -0.8000    0.0000 C   0  0  0  0  0  0  0  0  0  0  0  0
    1.5130    1.4500    0.0000 C   0  0  0  0  0  0  0  0  0  0  0  0
    2.8120    2.2000    0.0000 C   0  0  0  0  0  0  0  0  0  0  0  0
    4.1120    1.4500    0.0000 C   0  0  0  0  0  0  0  0  0  0  0  0
  1  2  1  0  0  0  0
  2  3  1  0  0  0  0
  2  8  2  0  0  0  0
  3  4  2  0  0  0  0
  4  5  1  0  0  0  0
  4  6  1  0  0  0  0
  6  7  2  0  0  0  0
  7  8  1  0  0  0  0
M  END
>  <name>
[N;amide]c1cc(C)ccc1

>  <apo>
1

>  <freq>
2

>  <freq0>
0

>  <freq1>
2

>  <freqA>
1.9959997

>  <a_count>
17

$$$$

  MOE2015           2D

 10 11  0  0  0  0  0  0  0  0999 V2000
   -0.0220   -2.2100    0.0000 S   0  0  0  0  0  0  0  0  0  0  0  0
    1.0920   -1.2060    0.0000 C   0  0  0  0  0  0  0  0  0  0  0  0
    2.5600   -1.5180    0.0000 C   0  0  0  0  0  0  0  0  0  0  0  0
    3.3100   -0.2190    0.0000 C   0  0  0  0  0  0  0  0  0  0  0  0
    2.3060    0.8960    0.0000 N   0  0  0  0  0  0  0  0  0  0  0  0
    0.9360    0.2860    0.0000 C   0  0  0  0  0  0  0  0  0  0  0  0
    4.8100   -0.2190    0.0000 C   0  0  0  0  0  0  0  0  0  0  0  0
    5.5600   -1.5180    0.0000 C   0  0  0  0  0  0  0  0  0  0  0  0
    4.8100   -2.8170    0.0000 C   0  0  0  0  0  0  0  0  0  0  0  0
    3.3100   -2.8170    0.0000 C   0  0  0  0  0  0  0  0  0  0  0  0
  1  2  1  0  0  0  0
  2  3  1  0  0  0  0
  2  6  2  0  0  0  0
  3  4  1  0  0  0  0
  3 10  2  0  0  0  0
  4  5  1  0  0  0  0
  4  7  2  0  0  0  0
  5  6  1  0  0  0  0
  7  8  1  0  0  0  0
  8  9  2  0  0  0  0
  9 10  1  0  0  0  0
M  END
>  <name>
[S;thioether]c1c2c([nH]c1)[c;biphenyl]ccc2

>  <apo>
2

>  <freq>
2

>  <freq0>
0

>  <freq1>
2

>  <freqA>
1.9959997

>  <a_count>
17

$$$$

  MOE2015           2D

  7  7  0  0  1  0  0  0  0  0999 V2000
    4.9030   -0.6040    0.0000 O   0  0  0  0  0  0  0  0  0  0  0  0
    4.1530   -1.9030    0.0000 C   0  0  0  0  0  0  0  0  0  0  0  0
    2.6530   -1.9030    0.0000 C   0  0  1  0  0  0  0  0  0  0  0  0
    1.7710   -3.1160    0.0000 N   0  0  0  0  0  0  0  0  0  0  0  0
    0.3450   -2.6530    0.0000 C   0  0  0  0  0  0  0  0  0  0  0  0
    0.3450   -1.1530    0.0000 C   0  0  0  0  0  0  0  0  0  0  0  0
    1.7710   -0.6890    0.0000 C   0  0  0  0  0  0  0  0  0  0  0  0
  1  2  2  0  0  0  0
  3  2  1  1  0  0  0
  3  4  1  0  0  0  0
  3  7  1  0  0  0  0
  4  5  1  0  0  0  0
  5  6  1  0  0  0  0
  6  7  1  0  0  0  0
M  END
>  <name>
O=[C;amide][C@H]1[N;amide]CCC1

>  <apo>
2

>  <freq>
2

>  <freq0>
0

>  <freq1>
2

>  <freqA>
1.9959997

>  <a_count>
16

$$$$

  MOE2015           2D

  9  9  0  0  0  0  0  0  0  0999 V2000
    6.2970   -2.3540    0.0000 O   0  0  0  0  0  0  0  0  0  0  0  0
    4.9980   -3.1040    0.0000 C   0  0  0  0  0  0  0  0  0  0  0  0
    3.6990   -2.3540    0.0000 C   0  0  0  0  0  0  0  0  0  0  0  0
    2.4000   -3.1040    0.0000 C   0  0  0  0  0  0  0  0  0  0  0  0
    1.1010   -2.3540    0.0000 C   0  0  0  0  0  0  0  0  0  0  0  0
   -0.1980   -3.1040    0.0000 N   0  0  0  0  0  0  0  0  0  0  0  0
    1.1010   -0.8540    0.0000 C   0  0  0  0  0  0  0  0  0  0  0  0
    2.4000   -0.1040    0.0000 C   0  0  0  0  0  0  0  0  0  0  0  0
    3.6990   -0.8540    0.0000 C   0  0  0  0  0  0  0  0  0  0  0  0
  1  2  2  0  0  0  0
  2  3  1  0  0  0  0
  3  4  1  0  0  0  0
  3  9  2  0  0  0  0
  4  5  2  0  0  0  0
  5  6  1  0  0  0  0
  5  7  1  0  0  0  0
  7  8  2  0  0  0  0
  8  9  1  0  0  0  0
M  END
>  <name>
O=[C;amide]c1cc([N;urea])ccc1

>  <apo>
2

>  <freq>
2

>  <freq0>
0

>  <freq1>
2

>  <freqA>
1.9959997

>  <a_count>
16

$$$$

  MOE2015           2D

  5  4  0  0  0  0  0  0  0  0999 V2000
    3.0000    0.0000    0.0000 N   0  0  0  0  0  0  0  0  0  0  0  0
    1.5000    0.0000    0.0000 C   0  0  0  0  0  0  0  0  0  0  0  0
    1.5000    1.5000    0.0000 C   0  0  0  0  0  0  0  0  0  0  0  0
    0.0000    0.0000    0.0000 C   0  0  0  0  0  0  0  0  0  0  0  0
    1.5000   -1.5000    0.0000 C   0  0  0  0  0  0  0  0  0  0  0  0
  1  2  1  0  0  0  0
  2  3  1  0  0  0  0
  2  4  1  0  0  0  0
  2  5  1  0  0  0  0
M  END
>  <name>
[N;urea]C(C)(C)C

>  <apo>
1

>  <freq>
2

>  <freq0>
0

>  <freq1>
2

>  <freqA>
1.9959997

>  <a_count>
16

$$$$

  MOE2015           2D

  8  8  0  0  0  0  0  0  0  0999 V2000
    0.0000    0.0000    0.0000 Br  0  0  0  0  0  0  0  0  0  0  0  0
    1.5000    0.0000    0.0000 C   0  0  0  0  0  0  0  0  0  0  0  0
    2.2500   -1.2990    0.0000 C   0  0  0  0  0  0  0  0  0  0  0  0
    3.7500   -1.2990    0.0000 C   0  0  0  0  0  0  0  0  0  0  0  0
    4.5000    0.0000    0.0000 C   0  0  0  0  0  0  0  0  0  0  0  0
    6.0000    0.0000    0.0000 C   0  0  0  0  0  0  0  0  0  0  0  0
    3.7500    1.2990    0.0000 C   0  0  0  0  0  0  0  0  0  0  0  0
    2.2500    1.2990    0.0000 C   0  0  0  0  0  0  0  0  0  0  0  0
  1  2  1  0  0  0  0
  2  3  1  0  0  0  0
  2  8  2  0  0  0  0
  3  4  2  0  0  0  0
  4  5  1  0  0  0  0
  5  6  1  0  0  0  0
  5  7  2  0  0  0  0
  7  8  1  0  0  0  0
M  END
>  <name>
Brc1ccc([C;olefin])cc1

>  <apo>
1

>  <freq>
2

>  <freq0>
0

>  <freq1>
2

>  <freqA>
1.9959997

>  <a_count>
15

$$$$

  MOE2015           2D

  7  7  0  0  0  0  0  0  0  0999 V2000
    6.1690    2.5550    0.0000 N   0  0  0  0  0  0  0  0  0  0  0  0
    5.1080    1.4950    0.0000 C   0  0  0  0  0  0  0  0  0  0  0  0
    4.0480    0.4340    0.0000 C   0  0  0  0  0  0  0  0  0  0  0  0
    2.5990    0.8220    0.0000 C   0  0  0  0  0  0  0  0  0  0  0  0
    1.3000    0.0720    0.0000 C   0  0  0  0  0  0  0  0  0  0  0  0
    0.5500    1.3710    0.0000 N   0  0  0  0  0  0  0  0  0  0  0  0
    1.8490    2.1210    0.0000 C   0  0  0  0  0  0  0  0  0  0  0  0
  1  2  3  0  0  0  0
  2  3  1  0  0  0  0
  3  4  1  0  0  0  0
  4  5  1  0  0  0  0
  4  7  1  0  0  0  0
  5  6  1  0  0  0  0
  6  7  1  0  0  0  0
M  END
>  <name>
N#CC[C;NaroC]1C[N;so2amide]C1

>  <apo>
2

>  <freq>
2

>  <freq0>
0

>  <freq1>
2

>  <freqA>
1.9959997

>  <a_count>
15

$$$$

  MOE2015           2D

  6  5  0  0  1  0  0  0  0  0999 V2000
   -0.3480   -1.2990    0.0000 O   0  0  0  0  0  0  0  0  0  0  0  0
    0.9510   -2.0490    0.0000 C   0  0  0  0  0  0  0  0  0  0  0  0
    2.2500   -1.2990    0.0000 C   0  0  1  0  0  0  0  0  0  0  0  0
    2.2500    0.2010    0.0000 N   0  0  0  0  0  0  0  0  0  0  0  0
    3.5490   -2.0490    0.0000 C   0  0  0  0  0  0  0  0  0  0  0  0
    4.8480   -1.2990    0.0000 N   0  3  0  0  0  0  0  0  0  0  0  0
  1  2  2  0  0  0  0
  2  3  1  0  0  0  0
  3  4  1  1  0  0  0
  3  5  1  0  0  0  0
  5  6  1  0  0  0  0
M  CHG  1   6   1
M  END
>  <name>
O=[C;amide][C@@H]([N;amide])C[N+]

>  <apo>
2

>  <freq>
2

>  <freq0>
0

>  <freq1>
2

>  <freqA>
1.9959997

>  <a_count>
15

$$$$

  MOE2015           2D

  9  9  0  0  0  0  0  0  0  0999 V2000
    5.5000   -3.1750    0.0000 O   0  0  0  0  0  0  0  0  0  0  0  0
    4.7500   -1.8760    0.0000 C   0  0  0  0  0  0  0  0  0  0  0  0
    3.2500   -1.8760    0.0000 C   0  0  0  0  0  0  0  0  0  0  0  0
    2.5000   -0.5770    0.0000 C   0  0  0  0  0  0  0  0  0  0  0  0
    3.2500    0.7220    0.0000 O   0  0  0  0  0  0  0  0  0  0  0  0
    1.0000   -0.5770    0.0000 C   0  0  0  0  0  0  0  0  0  0  0  0
    0.2500   -1.8760    0.0000 C   0  0  0  0  0  0  0  0  0  0  0  0
    1.0000   -3.1750    0.0000 C   0  0  0  0  0  0  0  0  0  0  0  0
    2.5000   -3.1750    0.0000 C   0  0  0  0  0  0  0  0  0  0  0  0
  1  2  2  0  0  0  0
  2  3  1  0  0  0  0
  3  4  1  0  0  0  0
  3  9  2  0  0  0  0
  4  5  1  0  0  0  0
  4  6  2  0  0  0  0
  6  7  1  0  0  0  0
  7  8  2  0  0  0  0
  8  9  1  0  0  0  0
M  END
>  <name>
O=[C;ester]c1c(O)cccc1

>  <apo>
1

>  <freq>
2

>  <freq0>
0

>  <freq1>
2

>  <freqA>
1.9959997

>  <a_count>
15

$$$$

  MOE2015           2D

  9  9  0  0  0  0  0  0  0  0999 V2000
    5.5000   -3.1750    0.0000 O   0  0  0  0  0  0  0  0  0  0  0  0
    4.7500   -1.8760    0.0000 C   0  0  0  0  0  0  0  0  0  0  0  0
    3.2500   -1.8760    0.0000 C   0  0  0  0  0  0  0  0  0  0  0  0
    2.5000   -0.5770    0.0000 C   0  0  0  0  0  0  0  0  0  0  0  0
    3.2500    0.7220    0.0000 O   0  0  0  0  0  0  0  0  0  0  0  0
    1.0000   -0.5770    0.0000 C   0  0  0  0  0  0  0  0  0  0  0  0
    0.2500   -1.8760    0.0000 C   0  0  0  0  0  0  0  0  0  0  0  0
    1.0000   -3.1750    0.0000 C   0  0  0  0  0  0  0  0  0  0  0  0
    2.5000   -3.1750    0.0000 C   0  0  0  0  0  0  0  0  0  0  0  0
  1  2  2  0  0  0  0
  2  3  1  0  0  0  0
  3  4  1  0  0  0  0
  3  9  2  0  0  0  0
  4  5  1  0  0  0  0
  4  6  2  0  0  0  0
  6  7  1  0  0  0  0
  7  8  2  0  0  0  0
  8  9  1  0  0  0  0
M  END
>  <name>
O=[C;ester]c1c([O;ester])cccc1

>  <apo>
2

>  <freq>
2

>  <freq0>
0

>  <freq1>
2

>  <freqA>
1.9959997

>  <a_count>
15

$$$$

  MOE2015           2D

  6  6  0  0  1  0  0  0  0  0999 V2000
    4.6270    0.0000    0.0000 O   0  0  0  0  0  0  0  0  0  0  0  0
    3.1270    0.0000    0.0000 C   0  0  3  0  0  0  0  0  0  0  0  0
    2.2450   -1.2140    0.0000 C   0  0  0  0  0  0  0  0  0  0  0  0
    0.8180   -0.7500    0.0000 N   0  0  0  0  0  0  0  0  0  0  0  0
    0.8180    0.7500    0.0000 C   0  0  0  0  0  0  0  0  0  0  0  0
    2.2450    1.2140    0.0000 C   0  0  0  0  0  0  0  0  0  0  0  0
  1  2  1  0  0  0  0
  2  3  1  0  0  0  0
  2  6  1  0  0  0  0
  3  4  1  0  0  0  0
  4  5  1  0  0  0  0
  5  6  1  0  0  0  0
M  END
>  <name>
OC1C[N;amide]C[C;NaroC]1

>  <apo>
2

>  <freq>
2

>  <freq0>
0

>  <freq1>
2

>  <freqA>
1.9959997

>  <a_count>
15

$$$$

  MOE2015           2D

  7  7  0  0  0  0  0  0  0  0999 V2000
    5.1430    0.0000    0.0000 C   0  0  0  0  0  0  0  0  0  0  0  0
    3.6430    0.0000    0.0000 C   0  0  0  0  0  0  0  0  0  0  0  0
    2.8930    1.2990    0.0000 C   0  0  0  0  0  0  0  0  0  0  0  0
    1.3930    1.2990    0.0000 C   0  0  0  0  0  0  0  0  0  0  0  0
    0.6430    0.0000    0.0000 C   0  0  0  0  0  0  0  0  0  0  0  0
    1.3930   -1.2990    0.0000 C   0  0  0  0  0  0  0  0  0  0  0  0
    2.8930   -1.2990    0.0000 C   0  0  0  0  0  0  0  0  0  0  0  0
  1  2  1  0  0  0  0
  2  3  1  0  0  0  0
  2  7  2  0  0  0  0
  3  4  2  0  0  0  0
  4  5  1  0  0  0  0
  5  6  2  0  0  0  0
  6  7  1  0  0  0  0
M  END
>  <name>
[C;amine]c1ccccc1

>  <apo>
1

>  <freq>
2

>  <freq0>
0

>  <freq1>
2

>  <freqA>
1.9959997

>  <a_count>
15

$$$$

  MOE2015           2D

  5  5  0  0  0  0  0  0  0  0999 V2000
    0.7970    1.6710    0.0000 N   0  3  0  0  0  0  0  0  0  0  0  0
    0.4090    0.2220    0.0000 C   0  0  0  0  0  0  0  0  0  0  0  0
   -1.0890    0.1430    0.0000 C   0  0  0  0  0  0  0  0  0  0  0  0
   -1.6270    1.5440    0.0000 C   0  0  0  0  0  0  0  0  0  0  0  0
   -0.4610    2.4880    0.0000 C   0  0  0  0  0  0  0  0  0  0  0  0
  1  2  1  0  0  0  0
  1  5  1  0  0  0  0
  2  3  1  0  0  0  0
  3  4  1  0  0  0  0
  4  5  1  0  0  0  0
M  CHG  1   1   1
M  END
>  <name>
[N+;quatN]1CCCC1

>  <apo>
1

>  <freq>
2

>  <freq0>
0

>  <freq1>
2

>  <freqA>
1.9959997

>  <a_count>
15

$$$$

  MOE2015           2D

  5  4  0  0  0  0  0  0  0  0999 V2000
    3.0000    0.0000    0.0000 O   0  0  0  0  0  0  0  0  0  0  0  0
    1.5000    0.0000    0.0000 C   0  0  0  0  0  0  0  0  0  0  0  0
    1.5000    1.5000    0.0000 C   0  0  0  0  0  0  0  0  0  0  0  0
    0.0000    0.0000    0.0000 C   0  0  0  0  0  0  0  0  0  0  0  0
    1.5000   -1.5000    0.0000 C   0  0  0  0  0  0  0  0  0  0  0  0
  1  2  1  0  0  0  0
  2  3  1  0  0  0  0
  2  4  1  0  0  0  0
  2  5  1  0  0  0  0
M  END
>  <name>
[O;ester]C(C)(C)C

>  <apo>
1

>  <freq>
2

>  <freq0>
0

>  <freq1>
2

>  <freqA>
1.9959997

>  <a_count>
15

$$$$

  MOE2015           2D

  8  8  0  0  0  0  0  0  0  0999 V2000
    5.4110   -0.8000    0.0000 O   0  0  0  0  0  0  0  0  0  0  0  0
    4.1120   -0.0500    0.0000 C   0  0  0  0  0  0  0  0  0  0  0  0
    2.8120   -0.8000    0.0000 C   0  0  0  0  0  0  0  0  0  0  0  0
    1.5130   -0.0500    0.0000 C   0  0  0  0  0  0  0  0  0  0  0  0
    0.2140   -0.8000    0.0000 N   0  0  0  0  0  0  0  0  0  0  0  0
    1.5130    1.4500    0.0000 C   0  0  0  0  0  0  0  0  0  0  0  0
    2.8120    2.2000    0.0000 C   0  0  0  0  0  0  0  0  0  0  0  0
    4.1120    1.4500    0.0000 C   0  0  0  0  0  0  0  0  0  0  0  0
  1  2  1  0  0  0  0
  2  3  1  0  0  0  0
  2  8  2  0  0  0  0
  3  4  2  0  0  0  0
  4  5  1  0  0  0  0
  4  6  1  0  0  0  0
  6  7  2  0  0  0  0
  7  8  1  0  0  0  0
M  END
>  <name>
[O;ether]c1cc([N;amide])ccc1

>  <apo>
2

>  <freq>
2

>  <freq0>
0

>  <freq1>
2

>  <freqA>
1.9959997

>  <a_count>
15

$$$$

  MOE2015           2D

 10 11  0  0  0  0  0  0  0  0999 V2000
    7.3810    0.0000    0.0000 S   0  0  0  0  0  0  0  0  0  0  0  0
    5.8810    0.0000    0.0000 C   0  0  0  0  0  0  0  0  0  0  0  0
    5.0000   -1.2140    0.0000 S   0  0  0  0  0  0  0  0  0  0  0  0
    3.5730   -0.7500    0.0000 C   0  0  0  0  0  0  0  0  0  0  0  0
    3.5730    0.7500    0.0000 C   0  0  0  0  0  0  0  0  0  0  0  0
    5.0000    1.2140    0.0000 N   0  0  0  0  0  0  0  0  0  0  0  0
    2.2740    1.5000    0.0000 C   0  0  0  0  0  0  0  0  0  0  0  0
    0.9750    0.7500    0.0000 C   0  0  0  0  0  0  0  0  0  0  0  0
    0.9750   -0.7500    0.0000 C   0  0  0  0  0  0  0  0  0  0  0  0
    2.2740   -1.5000    0.0000 C   0  0  0  0  0  0  0  0  0  0  0  0
  1  2  1  0  0  0  0
  2  3  1  0  0  0  0
  2  6  2  0  0  0  0
  3  4  1  0  0  0  0
  4  5  1  0  0  0  0
  4 10  2  0  0  0  0
  5  6  1  0  0  0  0
  5  7  2  0  0  0  0
  7  8  1  0  0  0  0
  8  9  2  0  0  0  0
  9 10  1  0  0  0  0
M  END
>  <name>
[S;disulfide]c1sc2c(n1)cccc2

>  <apo>
1

>  <freq>
2

>  <freq0>
0

>  <freq1>
2

>  <freqA>
1.9959997

>  <a_count>
15

$$$$

  MOE2015           2D

  9  9  0  0  0  0  0  0  0  0999 V2000
    0.9170    1.5880    0.0000 S   0  0  0  0  0  0  0  0  0  0  0  0
    1.6670    2.8870    0.0000 O   0  0  0  0  0  0  0  0  0  0  0  0
    1.6670    0.2890    0.0000 O   0  0  0  0  0  0  0  0  0  0  0  0
   -0.5830    1.5880    0.0000 C   0  0  0  0  0  0  0  0  0  0  0  0
   -1.3330    0.2890    0.0000 C   0  0  0  0  0  0  0  0  0  0  0  0
   -2.8330    0.2890    0.0000 C   0  0  0  0  0  0  0  0  0  0  0  0
   -3.5830    1.5880    0.0000 C   0  0  0  0  0  0  0  0  0  0  0  0
   -2.8330    2.8870    0.0000 C   0  0  0  0  0  0  0  0  0  0  0  0
   -1.3330    2.8870    0.0000 C   0  0  0  0  0  0  0  0  0  0  0  0
  1  2  2  0  0  0  0
  1  3  2  0  0  0  0
  1  4  1  0  0  0  0
  4  5  1  0  0  0  0
  4  9  2  0  0  0  0
  5  6  2  0  0  0  0
  6  7  1  0  0  0  0
  7  8  2  0  0  0  0
  8  9  1  0  0  0  0
M  END
>  <name>
[SH;so2amide](=O)(=O)c1c[c;biphenyl]ccc1

>  <apo>
2

>  <freq>
2

>  <freq0>
0

>  <freq1>
2

>  <freqA>
1.9959997

>  <a_count>
15

$$$$

  MOE2015           2D

 10 11  0  0  0  0  0  0  0  0999 V2000
    0.5660    0.9790    0.0000 O   0  0  0  0  0  0  0  0  0  0  0  0
    1.3160   -0.3200    0.0000 C   0  0  0  0  0  0  0  0  0  0  0  0
    0.5660   -1.6190    0.0000 N   0  0  0  0  0  0  0  0  0  0  0  0
    1.3160   -2.9180    0.0000 C   0  0  0  0  0  0  0  0  0  0  0  0
    2.8160   -2.9180    0.0000 N   0  0  0  0  0  0  0  0  0  0  0  0
    3.5660   -1.6190    0.0000 C   0  0  0  0  0  0  0  0  0  0  0  0
    5.0330   -1.3070    0.0000 N   0  0  0  0  0  0  0  0  0  0  0  0
    5.1900    0.1850    0.0000 C   0  0  0  0  0  0  0  0  0  0  0  0
    3.8190    0.7950    0.0000 N   0  0  0  0  0  0  0  0  0  0  0  0
    2.8160   -0.3200    0.0000 C   0  0  0  0  0  0  0  0  0  0  0  0
  1  2  2  0  0  0  0
  2  3  1  0  0  0  0
  2 10  1  0  0  0  0
  3  4  1  0  0  0  0
  4  5  2  0  0  0  0
  5  6  1  0  0  0  0
  6  7  1  0  0  0  0
  6 10  2  0  0  0  0
  7  8  1  0  0  0  0
  8  9  2  0  0  0  0
  9 10  1  0  0  0  0
M  END
>  <name>
O=C1NC=Nc2[nH;NaroC]cnc12

>  <apo>
1

>  <freq>
2

>  <freq0>
0

>  <freq1>
2

>  <freqA>
1.9959997

>  <a_count>
14

$$$$

  MOE2015           2D

  8  8  0  0  0  0  0  0  0  0999 V2000
    5.9390    1.4640    0.0000 O   0  0  0  0  0  0  0  0  0  0  0  0
    4.6100    0.7670    0.0000 C   0  0  0  0  0  0  0  0  0  0  0  0
    3.3430    1.5680    0.0000 C   0  0  0  0  0  0  0  0  0  0  0  0
    3.2460    3.0650    0.0000 N   0  0  0  0  0  0  0  0  0  0  0  0
    1.7930    3.4360    0.0000 N   0  0  0  0  0  0  0  0  0  0  0  0
    0.9910    2.1680    0.0000 C   0  0  0  0  0  0  0  0  0  0  0  0
   -0.5060    2.0720    0.0000 C   0  0  0  0  0  0  0  0  0  0  0  0
    1.9490    1.0140    0.0000 C   0  0  0  0  0  0  0  0  0  0  0  0
  1  2  2  0  0  0  0
  2  3  1  0  0  0  0
  3  4  1  0  0  0  0
  3  8  2  0  0  0  0
  4  5  1  0  0  0  0
  5  6  2  0  0  0  0
  6  7  1  0  0  0  0
  6  8  1  0  0  0  0
M  END
>  <name>
O=[C;amide]c1[nH;NaroC]nc(C)c1

>  <apo>
2

>  <freq>
2

>  <freq0>
0

>  <freq1>
2

>  <freqA>
1.9959997

>  <a_count>
14

$$$$

  MOE2015           2D

  9  9  0  0  0  0  0  0  0  0999 V2000
    5.0000    0.2890    0.0000 O   0  0  0  0  0  0  0  0  0  0  0  0
    4.2500    1.5880    0.0000 N   0  3  0  0  0  0  0  0  0  0  0  0
    5.0000    2.8870    0.0000 O   0  5  0  0  0  0  0  0  0  0  0  0
    2.7500    1.5880    0.0000 C   0  0  0  0  0  0  0  0  0  0  0  0
    2.0000    2.8870    0.0000 C   0  0  0  0  0  0  0  0  0  0  0  0
    0.5000    2.8870    0.0000 C   0  0  0  0  0  0  0  0  0  0  0  0
   -0.2500    1.5880    0.0000 C   0  0  0  0  0  0  0  0  0  0  0  0
    0.5000    0.2890    0.0000 C   0  0  0  0  0  0  0  0  0  0  0  0
    2.0000    0.2890    0.0000 C   0  0  0  0  0  0  0  0  0  0  0  0
  1  2  2  0  0  0  0
  2  3  1  0  0  0  0
  2  4  1  0  0  0  0
  4  5  1  0  0  0  0
  4  9  2  0  0  0  0
  5  6  2  0  0  0  0
  6  7  1  0  0  0  0
  7  8  2  0  0  0  0
  8  9  1  0  0  0  0
M  CHG  1   2   1
M  CHG  1   3  -1
M  END
>  <name>
O=[N+]([O-])c1cc[c;biphenyl]cc1

>  <apo>
1

>  <freq>
2

>  <freq0>
0

>  <freq1>
2

>  <freqA>
1.9959997

>  <a_count>
14

$$$$

  MOE2015           2D

  4  3  0  0  0  0  0  0  0  0999 V2000
    0.0000    0.0000    0.0000 C   0  0  0  0  0  0  0  0  0  0  0  0
   -1.2990   -0.7500    0.0000 C   0  0  0  0  0  0  0  0  0  0  0  0
    0.0000    1.5000    0.0000 C   0  0  0  0  0  0  0  0  0  0  0  0
    1.2990   -0.7500    0.0000 C   0  0  0  0  0  0  0  0  0  0  0  0
  1  2  1  0  0  0  0
  1  3  1  0  0  0  0
  1  4  1  0  0  0  0
M  END
>  <name>
[C;ether](C)(C)C

>  <apo>
1

>  <freq>
2

>  <freq0>
0

>  <freq1>
2

>  <freqA>
1.9959997

>  <a_count>
14

$$$$

  MOE2015           2D

  7  7  0  0  0  0  0  0  0  0999 V2000
    5.1430    0.0000    0.0000 N   0  0  0  0  0  0  0  0  0  0  0  0
    3.6430    0.0000    0.0000 C   0  0  0  0  0  0  0  0  0  0  0  0
    2.8930    1.2990    0.0000 C   0  0  0  0  0  0  0  0  0  0  0  0
    1.3930    1.2990    0.0000 C   0  0  0  0  0  0  0  0  0  0  0  0
    0.6430    0.0000    0.0000 C   0  0  0  0  0  0  0  0  0  0  0  0
    1.3930   -1.2990    0.0000 C   0  0  0  0  0  0  0  0  0  0  0  0
    2.8930   -1.2990    0.0000 C   0  0  0  0  0  0  0  0  0  0  0  0
  1  2  1  0  0  0  0
  2  3  1  0  0  0  0
  2  7  2  0  0  0  0
  3  4  2  0  0  0  0
  4  5  1  0  0  0  0
  5  6  2  0  0  0  0
  6  7  1  0  0  0  0
M  END
>  <name>
[N;amide]c1cc[c;biphenyl]cc1

>  <apo>
2

>  <freq>
2

>  <freq0>
0

>  <freq1>
2

>  <freqA>
1.9959997

>  <a_count>
14

$$$$

  MOE2015           2D

  7  7  0  0  0  0  0  0  0  0999 V2000
    5.1430    0.0000    0.0000 N   0  0  0  0  0  0  0  0  0  0  0  0
    3.6430    0.0000    0.0000 C   0  0  0  0  0  0  0  0  0  0  0  0
    2.8930    1.2990    0.0000 C   0  0  0  0  0  0  0  0  0  0  0  0
    1.3930    1.2990    0.0000 C   0  0  0  0  0  0  0  0  0  0  0  0
    0.6430    0.0000    0.0000 C   0  0  0  0  0  0  0  0  0  0  0  0
    1.3930   -1.2990    0.0000 C   0  0  0  0  0  0  0  0  0  0  0  0
    2.8930   -1.2990    0.0000 C   0  0  0  0  0  0  0  0  0  0  0  0
  1  2  1  0  0  0  0
  2  3  1  0  0  0  0
  2  7  2  0  0  0  0
  3  4  2  0  0  0  0
  4  5  1  0  0  0  0
  5  6  2  0  0  0  0
  6  7  1  0  0  0  0
M  END
>  <name>
[N;amide]c1ccccc1

>  <apo>
1

>  <freq>
2

>  <freq0>
0

>  <freq1>
2

>  <freqA>
1.9959997

>  <a_count>
14

$$$$

  MOE2015           2D

  7  7  0  0  0  0  0  0  0  0999 V2000
    5.1430    0.0000    0.0000 N   0  0  0  0  0  0  0  0  0  0  0  0
    3.6430    0.0000    0.0000 C   0  0  0  0  0  0  0  0  0  0  0  0
    2.8930    1.2990    0.0000 C   0  0  0  0  0  0  0  0  0  0  0  0
    1.3930    1.2990    0.0000 C   0  0  0  0  0  0  0  0  0  0  0  0
    0.6430    0.0000    0.0000 C   0  0  0  0  0  0  0  0  0  0  0  0
    1.3930   -1.2990    0.0000 C   0  0  0  0  0  0  0  0  0  0  0  0
    2.8930   -1.2990    0.0000 C   0  0  0  0  0  0  0  0  0  0  0  0
  1  2  1  0  0  0  0
  2  3  1  0  0  0  0
  2  7  2  0  0  0  0
  3  4  2  0  0  0  0
  4  5  1  0  0  0  0
  5  6  2  0  0  0  0
  6  7  1  0  0  0  0
M  END
>  <name>
[N;amine]c1ccccc1

>  <apo>
1

>  <freq>
2

>  <freq0>
0

>  <freq1>
2

>  <freqA>
1.9959997

>  <a_count>
14

$$$$

  MOE2015           2D

  8  8  0  0  0  0  0  0  0  0999 V2000
    0.0000    0.0000    0.0000 Br  0  0  0  0  0  0  0  0  0  0  0  0
    1.5000    0.0000    0.0000 C   0  0  0  0  0  0  0  0  0  0  0  0
    2.2500   -1.2990    0.0000 C   0  0  0  0  0  0  0  0  0  0  0  0
    3.7500   -1.2990    0.0000 C   0  0  0  0  0  0  0  0  0  0  0  0
    4.5000    0.0000    0.0000 C   0  0  0  0  0  0  0  0  0  0  0  0
    6.0000    0.0000    0.0000 O   0  0  0  0  0  0  0  0  0  0  0  0
    3.7500    1.2990    0.0000 C   0  0  0  0  0  0  0  0  0  0  0  0
    2.2500    1.2990    0.0000 C   0  0  0  0  0  0  0  0  0  0  0  0
  1  2  1  0  0  0  0
  2  3  1  0  0  0  0
  2  8  2  0  0  0  0
  3  4  2  0  0  0  0
  4  5  1  0  0  0  0
  5  6  1  0  0  0  0
  5  7  2  0  0  0  0
  7  8  1  0  0  0  0
M  END
>  <name>
Brc1ccc([O;ether])cc1

>  <apo>
1

>  <freq>
2

>  <freq0>
0

>  <freq1>
2

>  <freqA>
1.9959997

>  <a_count>
13

$$$$

  MOE2015           2D

  8  8  0  0  0  0  0  0  0  0999 V2000
    5.3440   -0.8120    0.0000 O   0  0  0  0  0  0  0  0  0  0  0  0
    4.5940   -2.1110    0.0000 C   0  0  0  0  0  0  0  0  0  0  0  0
    3.0940   -2.1110    0.0000 C   0  0  0  0  0  0  0  0  0  0  0  0
    2.3440   -3.4100    0.0000 C   0  0  0  0  0  0  0  0  0  0  0  0
    0.8440   -3.4100    0.0000 N   0  0  0  0  0  0  0  0  0  0  0  0
    0.0940   -2.1110    0.0000 C   0  0  0  0  0  0  0  0  0  0  0  0
    0.8440   -0.8120    0.0000 C   0  0  0  0  0  0  0  0  0  0  0  0
    2.3440   -0.8120    0.0000 C   0  0  0  0  0  0  0  0  0  0  0  0
  1  2  2  0  0  0  0
  2  3  1  0  0  0  0
  3  4  1  0  0  0  0
  3  8  2  0  0  0  0
  4  5  2  0  0  0  0
  5  6  1  0  0  0  0
  6  7  2  0  0  0  0
  7  8  1  0  0  0  0
M  END
>  <name>
O=[C;amide]c1cnccc1

>  <apo>
1

>  <freq>
2

>  <freq0>
0

>  <freq1>
2

>  <freqA>
1.9959997

>  <a_count>
13

$$$$

  MOE2015           2D

  7  7  0  0  0  0  0  0  0  0999 V2000
    5.1430    0.0000    0.0000 O   0  0  0  0  0  0  0  0  0  0  0  0
    3.6430    0.0000    0.0000 C   0  0  0  0  0  0  0  0  0  0  0  0
    2.8930    1.2990    0.0000 C   0  0  0  0  0  0  0  0  0  0  0  0
    1.3930    1.2990    0.0000 C   0  0  0  0  0  0  0  0  0  0  0  0
    0.6430    0.0000    0.0000 C   0  0  0  0  0  0  0  0  0  0  0  0
    1.3930   -1.2990    0.0000 C   0  0  0  0  0  0  0  0  0  0  0  0
    2.8930   -1.2990    0.0000 C   0  0  0  0  0  0  0  0  0  0  0  0
  1  2  1  0  0  0  0
  2  3  1  0  0  0  0
  2  7  2  0  0  0  0
  3  4  2  0  0  0  0
  4  5  1  0  0  0  0
  5  6  2  0  0  0  0
  6  7  1  0  0  0  0
M  END
>  <name>
[O;ether]c1cc[c;biphenyl]cc1

>  <apo>
2

>  <freq>
2

>  <freq0>
0

>  <freq1>
2

>  <freqA>
1.9959997

>  <a_count>
13

$$$$

  MOE2015           2D

  8  8  0  0  0  0  0  0  0  0999 V2000
    0.4890   -1.1750    0.0000 S   0  0  0  0  0  0  0  0  0  0  0  0
    1.7880   -0.4250    0.0000 C   0  0  0  0  0  0  0  0  0  0  0  0
    1.7880    1.0750    0.0000 N   0  3  0  0  0  0  0  0  0  0  0  0
    0.4890    1.8250    0.0000 O   0  5  0  0  0  0  0  0  0  0  0  0
    3.0870    1.8250    0.0000 C   0  0  0  0  0  0  0  0  0  0  0  0
    4.3860    1.0750    0.0000 C   0  0  0  0  0  0  0  0  0  0  0  0
    4.3860   -0.4250    0.0000 C   0  0  0  0  0  0  0  0  0  0  0  0
    3.0870   -1.1750    0.0000 C   0  0  0  0  0  0  0  0  0  0  0  0
  1  2  1  0  0  0  0
  2  3  1  0  0  0  0
  2  8  2  0  0  0  0
  3  4  1  0  0  0  0
  3  5  2  0  0  0  0
  5  6  1  0  0  0  0
  6  7  2  0  0  0  0
  7  8  1  0  0  0  0
M  CHG  1   3   1
M  CHG  1   4  -1
M  END
>  <name>
[S;disulfide]c1[n+]([O-])cccc1

>  <apo>
1

>  <freq>
2

>  <freq0>
0

>  <freq1>
2

>  <freqA>
1.9959997

>  <a_count>
13

$$$$

  MOE2015           2D

  7  7  0  0  0  0  0  0  0  0999 V2000
    5.1430    0.0000    0.0000 S   0  0  0  0  0  0  0  0  0  0  0  0
    3.6430    0.0000    0.0000 C   0  0  0  0  0  0  0  0  0  0  0  0
    2.8930    1.2990    0.0000 C   0  0  0  0  0  0  0  0  0  0  0  0
    1.3930    1.2990    0.0000 C   0  0  0  0  0  0  0  0  0  0  0  0
    0.6430    0.0000    0.0000 C   0  0  0  0  0  0  0  0  0  0  0  0
    1.3930   -1.2990    0.0000 C   0  0  0  0  0  0  0  0  0  0  0  0
    2.8930   -1.2990    0.0000 C   0  0  0  0  0  0  0  0  0  0  0  0
  1  2  1  0  0  0  0
  2  3  1  0  0  0  0
  2  7  2  0  0  0  0
  3  4  2  0  0  0  0
  4  5  1  0  0  0  0
  5  6  2  0  0  0  0
  6  7  1  0  0  0  0
M  END
>  <name>
[S;thioether]c1ccccc1

>  <apo>
1

>  <freq>
2

>  <freq0>
0

>  <freq1>
2

>  <freqA>
1.9959997

>  <a_count>
13

$$$$

  MOE2015           2D

  8  8  0  0  0  0  0  0  0  0999 V2000
    5.3440   -0.8120    0.0000 O   0  0  0  0  0  0  0  0  0  0  0  0
    4.5940   -2.1110    0.0000 C   0  0  0  0  0  0  0  0  0  0  0  0
    3.0940   -2.1110    0.0000 C   0  0  0  0  0  0  0  0  0  0  0  0
    2.3440   -3.4100    0.0000 N   0  0  0  0  0  0  0  0  0  0  0  0
    0.8440   -3.4100    0.0000 C   0  0  0  0  0  0  0  0  0  0  0  0
    0.0940   -2.1110    0.0000 C   0  0  0  0  0  0  0  0  0  0  0  0
    0.8440   -0.8120    0.0000 N   0  0  0  0  0  0  0  0  0  0  0  0
    2.3440   -0.8120    0.0000 C   0  0  0  0  0  0  0  0  0  0  0  0
  1  2  2  0  0  0  0
  2  3  1  0  0  0  0
  3  4  1  0  0  0  0
  3  8  2  0  0  0  0
  4  5  2  0  0  0  0
  5  6  1  0  0  0  0
  6  7  2  0  0  0  0
  7  8  1  0  0  0  0
M  END
>  <name>
O=[C;amide]c1nccnc1

>  <apo>
1

>  <freq>
2

>  <freq0>
0

>  <freq1>
2

>  <freqA>
1.9959997

>  <a_count>
12

$$$$

  MOE2015           2D

  8  8  0  0  0  0  0  0  0  0999 V2000
    5.4110   -0.8000    0.0000 S   0  0  0  0  0  0  0  0  0  0  0  0
    4.1120   -0.0500    0.0000 C   0  0  0  0  0  0  0  0  0  0  0  0
    2.8120   -0.8000    0.0000 N   0  0  0  0  0  0  0  0  0  0  0  0
    1.5130   -0.0500    0.0000 C   0  0  0  0  0  0  0  0  0  0  0  0
    0.2140   -0.8000    0.0000 O   0  0  0  0  0  0  0  0  0  0  0  0
    1.5130    1.4500    0.0000 C   0  0  0  0  0  0  0  0  0  0  0  0
    2.8120    2.2000    0.0000 C   0  0  0  0  0  0  0  0  0  0  0  0
    4.1120    1.4500    0.0000 N   0  0  0  0  0  0  0  0  0  0  0  0
  1  2  1  0  0  0  0
  2  3  1  0  0  0  0
  2  8  2  0  0  0  0
  3  4  2  0  0  0  0
  4  5  1  0  0  0  0
  4  6  1  0  0  0  0
  6  7  2  0  0  0  0
  7  8  1  0  0  0  0
M  END
>  <name>
[S;thioether]c1nc([O;ether])ccn1

>  <apo>
2

>  <freq>
2

>  <freq0>
0

>  <freq1>
2

>  <freqA>
1.9959997

>  <a_count>
12

$$$$

  MOE2015           2D

  3  2  0  0  0  0  0  0  0  0999 V2000
    0.2500    0.0670    0.0000 C   0  0  0  0  0  0  0  0  0  0  0  0
    1.5490   -0.6830    0.0000 C   0  0  0  0  0  0  0  0  0  0  0  0
   -1.0490   -0.6830    0.0000 C   0  0  0  0  0  0  0  0  0  0  0  0
  1  2  1  0  0  0  0
  1  3  1  0  0  0  0
M  END
>  <name>
C([C;ether])[C;amine]

>  <apo>
2

>  <freq>
2

>  <freq0>
0

>  <freq1>
2

>  <freqA>
1.9959997

>  <a_count>
11

$$$$

  MOE2015           2D

  6  6  0  0  0  0  0  0  0  0999 V2000
    4.6270    0.0000    0.0000 C   0  0  0  0  0  0  0  0  0  0  0  0
    3.1270    0.0000    0.0000 C   0  0  0  0  0  0  0  0  0  0  0  0
    2.2450   -1.2140    0.0000 N   0  0  0  0  0  0  0  0  0  0  0  0
    0.8180   -0.7500    0.0000 C   0  0  0  0  0  0  0  0  0  0  0  0
    0.8180    0.7500    0.0000 S   0  0  0  0  0  0  0  0  0  0  0  0
    2.2450    1.2140    0.0000 C   0  0  0  0  0  0  0  0  0  0  0  0
  1  2  1  0  0  0  0
  2  3  1  0  0  0  0
  2  6  2  0  0  0  0
  3  4  2  0  0  0  0
  4  5  1  0  0  0  0
  5  6  1  0  0  0  0
M  END
>  <name>
Cc1ncs[c;biphenyl]1

>  <apo>
1

>  <freq>
2

>  <freq0>
0

>  <freq1>
2

>  <freqA>
1.9959997

>  <a_count>
11

$$$$

  MOE2015           2D

  5  4  0  0  0  0  0  0  0  0999 V2000
    0.1310   -1.0100    0.0000 O   0  0  0  0  0  0  0  0  0  0  0  0
    1.4300   -0.2600    0.0000 C   0  0  0  0  0  0  0  0  0  0  0  0
    1.4300    1.2400    0.0000 N   0  0  0  0  0  0  0  0  0  0  0  0
    2.7290   -1.0100    0.0000 C   0  0  0  0  0  0  0  0  0  0  0  0
    4.0280   -0.2600    0.0000 N   0  0  0  0  0  0  0  0  0  0  0  0
  1  2  2  0  0  0  0
  2  3  1  0  0  0  0
  2  4  1  0  0  0  0
  4  5  1  0  0  0  0
M  END
>  <name>
O=C(N)C[N;amide]

>  <apo>
1

>  <freq>
2

>  <freq0>
0

>  <freq1>
2

>  <freqA>
1.9959997

>  <a_count>
11

$$$$

  MOE2015           2D

  7  7  0  0  0  0  0  0  0  0999 V2000
    4.9030   -0.6040    0.0000 O   0  0  0  0  0  0  0  0  0  0  0  0
    4.1530   -1.9030    0.0000 C   0  0  0  0  0  0  0  0  0  0  0  0
    2.6530   -1.9030    0.0000 C   0  0  0  0  0  0  0  0  0  0  0  0
    1.7710   -3.1160    0.0000 O   0  0  0  0  0  0  0  0  0  0  0  0
    0.3450   -2.6530    0.0000 C   0  0  0  0  0  0  0  0  0  0  0  0
    0.3450   -1.1530    0.0000 C   0  0  0  0  0  0  0  0  0  0  0  0
    1.7710   -0.6890    0.0000 C   0  0  0  0  0  0  0  0  0  0  0  0
  1  2  2  0  0  0  0
  2  3  1  0  0  0  0
  3  4  1  0  0  0  0
  3  7  2  0  0  0  0
  4  5  1  0  0  0  0
  5  6  2  0  0  0  0
  6  7  1  0  0  0  0
M  END
>  <name>
O=[C;amide]c1occc1

>  <apo>
1

>  <freq>
2

>  <freq0>
0

>  <freq1>
2

>  <freqA>
1.9959997

>  <a_count>
11

$$$$

  MOE2015           2D

  4  4  0  0  0  0  0  0  0  0999 V2000
    3.5490    0.0000    0.0000 N   0  0  0  0  0  0  0  0  0  0  0  0
    2.0490    0.0000    0.0000 C   0  0  0  0  0  0  0  0  0  0  0  0
    0.7500   -0.7500    0.0000 C   0  0  0  0  0  0  0  0  0  0  0  0
    0.7500    0.7500    0.0000 C   0  0  0  0  0  0  0  0  0  0  0  0
  1  2  1  0  0  0  0
  2  3  1  0  0  0  0
  2  4  1  0  0  0  0
  3  4  1  0  0  0  0
M  END
>  <name>
[N;amide]C1CC1

>  <apo>
1

>  <freq>
2

>  <freq0>
0

>  <freq1>
2

>  <freqA>
1.9959997

>  <a_count>
11

$$$$

  MOE2015           2D

  6  6  0  0  0  0  0  0  0  0999 V2000
   -2.0490    2.0490    0.0000 N   0  0  0  0  0  0  0  0  0  0  0  0
   -2.0490    0.5490    0.0000 C   0  0  0  0  0  0  0  0  0  0  0  0
   -0.7500   -0.2010    0.0000 C   0  0  0  0  0  0  0  0  0  0  0  0
    0.5490    0.5490    0.0000 C   0  0  0  0  0  0  0  0  0  0  0  0
    0.5490    2.0490    0.0000 C   0  0  0  0  0  0  0  0  0  0  0  0
   -0.7500    2.7990    0.0000 C   0  0  0  0  0  0  0  0  0  0  0  0
  1  2  1  0  0  0  0
  1  6  2  0  0  0  0
  2  3  2  0  0  0  0
  3  4  1  0  0  0  0
  4  5  2  0  0  0  0
  5  6  1  0  0  0  0
M  END
>  <name>
n1c[c;biphenyl]ccc1

>  <apo>
1

>  <freq>
2

>  <freq0>
0

>  <freq1>
2

>  <freqA>
1.9959997

>  <a_count>
11

$$$$

  MOE2015           2D

 62 66  0  0  1  0  0  0  0  0999 V2000
    2.8050   -0.4330    0.0000 O   0  0  0  0  0  0  0  0  0  0  0  0
    1.3750    0.0190    0.0000 C   0  0  0  0  0  0  0  0  0  0  0  0
    0.2680   -0.9930    0.0000 N   0  0  0  0  0  0  0  0  0  0  0  0
    1.0520    1.4840    0.0000 C   0  0  0  0  0  0  0  0  0  0  0  0
    2.1580    2.4960    0.0000 C   0  0  0  0  0  0  0  0  0  0  0  0
    1.8350    3.9610    0.0000 C   0  0  1  0  0  0  0  0  0  0  0  0
    0.4530    4.5150    0.0000 C   0  0  1  0  0  0  0  0  0  0  0  0
   -0.1490    3.1410    0.0000 C   0  0  0  0  0  0  0  0  0  0  0  0
   -1.6390    2.9750    0.0000 C   0  0  0  0  0  0  0  0  0  0  0  0
   -2.5290    4.1830    0.0000 O   0  0  0  0  0  0  0  0  0  0  0  0
   -2.2410    1.6010    0.0000 N   0  0  0  0  0  0  0  0  0  0  0  0
   -1.0410    4.3800    0.0000 C   0  0  0  0  0  0  0  0  0  0  0  0
    0.4570    6.0320    0.0000 C   0  0  1  0  0  0  0  0  0  0  0  0
   -0.9870    5.6240    0.0000 C   0  0  0  0  0  0  0  0  0  0  0  0
    2.0040    6.3370    0.0000 N   0  0  0  0  0  0  0  0  0  0  0  0
    2.8850    5.0780    0.0000 C   0  0  0  0  0  0  0  0  0  0  0  0
    4.5300    5.2140    0.0000 C   0  0  0  0  0  0  0  0  0  0  0  0
    5.2770    3.9140    0.0000 C   0  0  0  0  0  0  0  0  0  0  0  0
    5.4310    6.4980    0.0000 C   0  0  0  0  0  0  0  0  0  0  0  0
    6.9230    6.2520    0.0000 C   0  0  2  0  0  0  0  0  0  0  0  0
    6.7860    4.7590    0.0000 C   0  0  0  0  0  0  0  0  0  0  0  0
    8.0110    3.8930    0.0000 C   0  0  0  0  0  0  0  0  0  0  0  0
    9.3730    4.5210    0.0000 O   0  0  0  0  0  0  0  0  0  0  0  0
    7.8740    2.3990    0.0000 N   0  0  0  0  0  0  0  0  0  0  0  0
    8.1780    5.4300    0.0000 C   0  0  0  0  0  0  0  0  0  0  0  0
    7.6720    7.5370    0.0000 C   0  0  2  0  0  0  0  0  0  0  0  0
    9.1680    7.6550    0.0000 C   0  0  0  0  0  0  0  0  0  0  0  0
    9.8130    9.0090    0.0000 C   0  0  0  0  0  0  0  0  0  0  0  0
   11.3090    9.1270    0.0000 C   0  0  0  0  0  0  0  0  0  0  0  0
   12.1590    7.8900    0.0000 O   0  0  0  0  0  0  0  0  0  0  0  0
   11.9540   10.4800    0.0000 N   0  0  0  0  0  0  0  0  0  0  0  0
    6.7220    8.7000    0.0000 C   0  0  0  0  0  0  0  0  0  0  0  0
    5.3320    8.0470    0.0000 N   0  0  0  0  0  0  0  0  0  0  0  0
    6.2890   10.2690    0.0000 C   0  0  0  0  0  0  0  0  0  0  0  0
    5.0060    9.4900    0.0000 C   0  0  0  0  0  0  0  0  0  0  0  0
    4.9310   11.1030    0.0000 C   0  0  0  0  0  0  0  0  0  0  0  0
    5.9620   12.1920    0.0000 C   0  0  0  0  0  0  0  0  0  0  0  0
    6.4250   10.9710    0.0000 C   0  0  0  0  0  0  0  0  0  0  0  0
    4.0360   12.4320    0.0000 C   0  0  2  0  0  0  0  0  0  0  0  0
    4.3510   13.8980    0.0000 C   0  0  0  0  0  0  0  0  0  0  0  0
    3.2390   14.9050    0.0000 C   0  0  0  0  0  0  0  0  0  0  0  0
    3.5550   16.3710    0.0000 C   0  0  0  0  0  0  0  0  0  0  0  0
    4.9830   16.8310    0.0000 O   0  0  0  0  0  0  0  0  0  0  0  0
    2.4430   17.3780    0.0000 N   0  0  0  0  0  0  0  0  0  0  0  0
    2.6740   11.5890    0.0000 C   0  0  0  0  0  0  0  0  0  0  0  0
    1.0340   11.5360    0.0000 C   0  0  0  0  0  0  0  0  0  0  0  0
    0.3030   12.8460    0.0000 C   0  0  0  0  0  0  0  0  0  0  0  0
    0.1180   10.1540    0.0000 C   0  0  0  0  0  0  0  0  0  0  0  0
   -1.3840    9.8360    0.0000 C   0  0  1  0  0  0  0  0  0  0  0  0
   -2.8440   10.1810    0.0000 C   0  0  0  0  0  0  0  0  0  0  0  0
   -3.2750   11.6180    0.0000 C   0  0  0  0  0  0  0  0  0  0  0  0
   -4.7350   11.9630    0.0000 C   0  0  0  0  0  0  0  0  0  0  0  0
   -5.1660   13.3990    0.0000 O   0  0  0  0  0  0  0  0  0  0  0  0
   -1.7670   11.2860    0.0000 C   0  0  0  0  0  0  0  0  0  0  0  0
   -1.6410    8.3620    0.0000 C   0  0  1  0  0  0  0  0  0  0  0  0
   -3.0080    7.7440    0.0000 C   0  0  0  0  0  0  0  0  0  0  0  0
   -4.2270    8.6180    0.0000 C   0  0  0  0  0  0  0  0  0  0  0  0
   -4.0790   10.1110    0.0000 O   0  0  0  0  0  0  0  0  0  0  0  0
   -5.5930    7.9990    0.0000 N   0  0  0  0  0  0  0  0  0  0  0  0
   -0.3460    7.5700    0.0000 C   0  0  1  0  0  0  0  0  0  0  0  0
    0.7380    8.7310    0.0000 N   0  5  0  0  0  0  0  0  0  0  0  0
    3.6280   10.3260    0.0000 N   0  0  0  0  0  0  0  0  0  0  0  0
  1  2  2  0  0  0  0
  2  3  1  0  0  0  0
  2  4  1  0  0  0  0
  4  5  1  0  0  0  0
  6  5  1  1  0  0  0
  6  7  1  0  0  0  0
  6 16  1  0  0  0  0
  7  8  1  6  0  0  0
  7 12  1  1  0  0  0
  7 13  1  0  0  0  0
  8  9  1  0  0  0  0
  9 10  2  0  0  0  0
  9 11  1  0  0  0  0
 13 14  1  1  0  0  0
 13 15  1  0  0  0  0
 13 60  1  0  0  0  0
 15 16  2  0  0  0  0
 16 17  1  0  0  0  0
 17 18  1  0  0  0  0
 17 19  2  0  0  0  0
 19 20  1  0  0  0  0
 19 33  1  0  0  0  0
 20 21  1  6  0  0  0
 20 25  1  1  0  0  0
 20 26  1  0  0  0  0
 21 22  1  0  0  0  0
 22 23  2  0  0  0  0
 22 24  1  0  0  0  0
 26 27  1  1  0  0  0
 26 32  1  0  0  0  0
 27 28  1  0  0  0  0
 28 29  1  0  0  0  0
 29 30  2  0  0  0  0
 29 31  1  0  0  0  0
 32 33  2  0  0  0  0
 32 34  1  0  0  0  0
 34 35  2  0  0  0  0
 35 36  1  0  0  0  0
 35 62  1  0  0  0  0
 36 37  1  0  0  0  0
 36 38  1  0  0  0  0
 36 39  1  0  0  0  0
 39 40  1  1  0  0  0
 39 45  1  0  0  0  0
 40 41  1  0  0  0  0
 41 42  1  0  0  0  0
 42 43  2  0  0  0  0
 42 44  1  0  0  0  0
 45 46  1  0  0  0  0
 45 62  2  0  0  0  0
 46 47  1  0  0  0  0
 46 48  2  0  0  0  0
 48 49  1  0  0  0  0
 48 61  1  0  0  0  0
 49 50  1  1  0  0  0
 49 54  1  6  0  0  0
 49 55  1  0  0  0  0
 50 51  1  0  0  0  0
 51 52  1  0  0  0  0
 52 53  2  0  0  0  0
 55 56  1  6  0  0  0
 55 60  1  0  0  0  0
 56 57  1  0  0  0  0
 57 58  2  0  0  0  0
 57 59  1  0  0  0  0
 60 61  1  1  0  0  0
M  CHG  1  61  -1
M  END
>  <name>
O=C(N)CC[C@H]1[C@@](CC(=O)N)(C)[C@@]2(C)N=C1/C(/C)=C\1/[C@](CC(=O)N)(C)[C@H](CCC(=O)N)C(=N/1)/C=C/1\C(C)(C)[C@H](CCC(=O)N)C(/C(/C)=C\3/[C@@](CC[C;amide]=O)(C)[C@@H](CC(=O)N)[C@H]2[N-]/3)=N\1

>  <apo>
1

>  <freq>
1

>  <freq0>
0

>  <freq1>
1

>  <freqA>
0.99700278

>  <a_count>
127

$$$$

  MOE2015           2D

 42 47  0  0  1  0  0  0  0  0999 V2000
    0.1860    0.3220    0.0000 S   0  0  0  0  0  0  0  0  0  0  0  0
    0.9360   -0.9770    0.0000 C   0  0  0  0  0  0  0  0  0  0  0  0
    2.4360   -0.9770    0.0000 S   0  0  0  0  0  0  0  0  0  0  0  0
    3.1860    0.3220    0.0000 C   0  0  3  0  0  0  0  0  0  0  0  0
    4.6860    0.3220    0.0000 C   0  0  0  0  0  0  0  0  0  0  0  0
    5.4360   -0.9770    0.0000 C   0  0  2  0  0  0  0  0  0  0  0  0
    4.6860   -2.2760    0.0000 C   0  0  0  0  0  0  0  0  0  0  0  0
    3.1860   -2.2760    0.0000 C   0  0  0  0  0  0  0  0  0  0  0  0
    5.4360   -3.5750    0.0000 C   0  0  0  0  0  0  0  0  0  0  0  0
    6.9360   -3.5750    0.0000 C   0  0  0  0  0  0  0  0  0  0  0  0
    7.6860   -2.2760    0.0000 C   0  0  2  0  0  0  0  0  0  0  0  0
    9.1860   -2.2760    0.0000 C   0  0  1  0  0  0  0  0  0  0  0  0
   10.4850   -3.0260    0.0000 C   0  0  0  0  0  0  0  0  0  0  0  0
   11.7840   -2.2760    0.0000 O   0  0  0  0  0  0  0  0  0  0  0  0
    9.1860   -3.7760    0.0000 C   0  0  0  0  0  0  0  0  0  0  0  0
    9.9360   -0.9770    0.0000 C   0  0  0  0  0  0  0  0  0  0  0  0
    9.1860    0.3220    0.0000 C   0  0  0  0  0  0  0  0  0  0  0  0
    7.6860    0.3220    0.0000 C   0  0  0  0  0  0  0  0  0  0  0  0
    6.9360   -0.9770    0.0000 C   0  0  1  0  0  0  0  0  0  0  0  0
    6.1860    0.3220    0.0000 C   0  0  0  0  0  0  0  0  0  0  0  0
    2.4360    1.6210    0.0000 C   0  0  0  0  0  0  0  0  0  0  0  0
    3.0460    2.9920    0.0000 C   0  0  0  0  0  0  0  0  0  0  0  0
    4.5130    3.3030    0.0000 O   0  0  0  0  0  0  0  0  0  0  0  0
    1.9310    3.9950    0.0000 O   0  0  0  0  0  0  0  0  0  0  0  0
    0.6320    3.2450    0.0000 C   0  0  0  0  0  0  0  0  0  0  0  0
    0.9440    1.7780    0.0000 C   0  0  0  0  0  0  0  0  0  0  0  0
    0.1860   -2.2760    0.0000 N   0  0  0  0  0  0  0  0  0  0  0  0
   -1.3140   -2.2760    0.0000 C   0  0  1  0  0  0  0  0  0  0  0  0
   -2.0640   -0.9770    0.0000 C   0  0  0  0  0  0  0  0  0  0  0  0
   -1.3140    0.3220    0.0000 C   0  0  0  0  0  0  0  0  0  0  0  0
   -2.0640    1.6210    0.0000 C   0  0  0  0  0  0  0  0  0  0  0  0
   -3.5640    1.6210    0.0000 C   0  0  0  0  0  0  0  0  0  0  0  0
   -4.3140    0.3220    0.0000 C   0  0  0  0  0  0  0  0  0  0  0  0
   -3.5640   -0.9770    0.0000 C   0  0  0  0  0  0  0  0  0  0  0  0
   -2.0640   -3.5750    0.0000 C   0  0  0  0  0  0  0  0  0  0  0  0
   -1.3140   -4.8740    0.0000 C   0  0  0  0  0  0  0  0  0  0  0  0
   -2.0640   -6.1730    0.0000 C   0  0  0  0  0  0  0  0  0  0  0  0
   -3.5640   -6.1730    0.0000 C   0  0  0  0  0  0  0  0  0  0  0  0
   -4.3140   -4.8740    0.0000 C   0  0  0  0  0  0  0  0  0  0  0  0
   -3.5640   -3.5750    0.0000 C   0  0  0  0  0  0  0  0  0  0  0  0
    0.1860   -4.8740    0.0000 C   0  0  0  0  0  0  0  0  0  0  0  0
    0.9360   -3.5750    0.0000 C   0  0  0  0  0  0  0  0  0  0  0  0
  1  2  2  0  0  0  0
  2  3  1  0  0  0  0
  2 27  1  0  0  0  0
  3  4  1  0  0  0  0
  4  5  1  0  0  0  0
  4 21  1  0  0  0  0
  6  5  1  1  0  0  0
  6  7  1  0  0  0  0
  6 19  1  0  0  0  0
  7  8  2  0  0  0  0
  7  9  1  0  0  0  0
  9 10  1  0  0  0  0
 11 10  1  1  0  0  0
 11 12  1  0  0  0  0
 11 19  1  0  0  0  0
 12 13  1  1  0  0  0
 12 15  1  6  0  0  0
 12 16  1  0  0  0  0
 13 14  1  0  0  0  0
 16 17  1  0  0  0  0
 17 18  1  0  0  0  0
 18 19  1  0  0  0  0
 19 20  1  1  0  0  0
 21 22  1  0  0  0  0
 21 26  2  0  0  0  0
 22 23  2  0  0  0  0
 22 24  1  0  0  0  0
 24 25  1  0  0  0  0
 25 26  1  0  0  0  0
 27 28  1  0  0  0  0
 27 42  1  0  0  0  0
 28 29  1  6  0  0  0
 28 35  1  0  0  0  0
 29 30  1  0  0  0  0
 29 34  2  0  0  0  0
 30 31  2  0  0  0  0
 31 32  1  0  0  0  0
 32 33  2  0  0  0  0
 33 34  1  0  0  0  0
 35 36  2  0  0  0  0
 35 40  1  0  0  0  0
 36 37  1  0  0  0  0
 36 41  1  0  0  0  0
 37 38  2  0  0  0  0
 38 39  1  0  0  0  0
 39 40  2  0  0  0  0
 41 42  1  0  0  0  0
M  END
>  <name>
S=C(SC(C[C@@H]1C(=C)CC[C@@H]2[C@@](C[O;ester])(C)[C;ether]CC[C@@]12C)C=1C(=O)OCC=1)N1[C@@H](c2ccccc2)c2c(cccc2)CC1

>  <apo>
2

>  <freq>
1

>  <freq0>
0

>  <freq1>
1

>  <freqA>
0.99700278

>  <a_count>
85

$$$$

  MOE2015           2D

 42 47  0  0  1  0  0  0  0  0999 V2000
    0.1860    0.3220    0.0000 S   0  0  0  0  0  0  0  0  0  0  0  0
    0.9360   -0.9770    0.0000 C   0  0  0  0  0  0  0  0  0  0  0  0
    2.4360   -0.9770    0.0000 S   0  0  0  0  0  0  0  0  0  0  0  0
    3.1860    0.3220    0.0000 C   0  0  3  0  0  0  0  0  0  0  0  0
    4.6860    0.3220    0.0000 C   0  0  0  0  0  0  0  0  0  0  0  0
    5.4360   -0.9770    0.0000 C   0  0  2  0  0  0  0  0  0  0  0  0
    4.6860   -2.2760    0.0000 C   0  0  0  0  0  0  0  0  0  0  0  0
    3.1860   -2.2760    0.0000 C   0  0  0  0  0  0  0  0  0  0  0  0
    5.4360   -3.5750    0.0000 C   0  0  0  0  0  0  0  0  0  0  0  0
    6.9360   -3.5750    0.0000 C   0  0  0  0  0  0  0  0  0  0  0  0
    7.6860   -2.2760    0.0000 C   0  0  2  0  0  0  0  0  0  0  0  0
    9.1860   -2.2760    0.0000 C   0  0  1  0  0  0  0  0  0  0  0  0
   10.4850   -3.0260    0.0000 C   0  0  0  0  0  0  0  0  0  0  0  0
   11.7840   -2.2760    0.0000 O   0  0  0  0  0  0  0  0  0  0  0  0
    9.1860   -3.7760    0.0000 C   0  0  0  0  0  0  0  0  0  0  0  0
    9.9360   -0.9770    0.0000 C   0  0  0  0  0  0  0  0  0  0  0  0
    9.1860    0.3220    0.0000 C   0  0  0  0  0  0  0  0  0  0  0  0
    7.6860    0.3220    0.0000 C   0  0  0  0  0  0  0  0  0  0  0  0
    6.9360   -0.9770    0.0000 C   0  0  1  0  0  0  0  0  0  0  0  0
    6.1860    0.3220    0.0000 C   0  0  0  0  0  0  0  0  0  0  0  0
    2.4360    1.6210    0.0000 C   0  0  0  0  0  0  0  0  0  0  0  0
    3.0460    2.9920    0.0000 C   0  0  0  0  0  0  0  0  0  0  0  0
    4.5130    3.3030    0.0000 O   0  0  0  0  0  0  0  0  0  0  0  0
    1.9310    3.9950    0.0000 O   0  0  0  0  0  0  0  0  0  0  0  0
    0.6320    3.2450    0.0000 C   0  0  0  0  0  0  0  0  0  0  0  0
    0.9440    1.7780    0.0000 C   0  0  0  0  0  0  0  0  0  0  0  0
    0.1860   -2.2760    0.0000 N   0  0  0  0  0  0  0  0  0  0  0  0
   -1.3140   -2.2760    0.0000 C   0  0  2  0  0  0  0  0  0  0  0  0
   -2.0640   -0.9770    0.0000 C   0  0  0  0  0  0  0  0  0  0  0  0
   -1.3140    0.3220    0.0000 C   0  0  0  0  0  0  0  0  0  0  0  0
   -2.0640    1.6210    0.0000 C   0  0  0  0  0  0  0  0  0  0  0  0
   -3.5640    1.6210    0.0000 C   0  0  0  0  0  0  0  0  0  0  0  0
   -4.3140    0.3220    0.0000 C   0  0  0  0  0  0  0  0  0  0  0  0
   -3.5640   -0.9770    0.0000 C   0  0  0  0  0  0  0  0  0  0  0  0
   -2.0640   -3.5750    0.0000 C   0  0  0  0  0  0  0  0  0  0  0  0
   -1.3140   -4.8740    0.0000 C   0  0  0  0  0  0  0  0  0  0  0  0
   -2.0640   -6.1730    0.0000 C   0  0  0  0  0  0  0  0  0  0  0  0
   -3.5640   -6.1730    0.0000 C   0  0  0  0  0  0  0  0  0  0  0  0
   -4.3140   -4.8740    0.0000 C   0  0  0  0  0  0  0  0  0  0  0  0
   -3.5640   -3.5750    0.0000 C   0  0  0  0  0  0  0  0  0  0  0  0
    0.1860   -4.8740    0.0000 C   0  0  0  0  0  0  0  0  0  0  0  0
    0.9360   -3.5750    0.0000 C   0  0  0  0  0  0  0  0  0  0  0  0
  1  2  2  0  0  0  0
  2  3  1  0  0  0  0
  2 27  1  0  0  0  0
  3  4  1  0  0  0  0
  4  5  1  0  0  0  0
  4 21  1  0  0  0  0
  6  5  1  1  0  0  0
  6  7  1  0  0  0  0
  6 19  1  0  0  0  0
  7  8  2  0  0  0  0
  7  9  1  0  0  0  0
  9 10  1  0  0  0  0
 11 10  1  1  0  0  0
 11 12  1  0  0  0  0
 11 19  1  0  0  0  0
 12 13  1  1  0  0  0
 12 15  1  6  0  0  0
 12 16  1  0  0  0  0
 13 14  1  0  0  0  0
 16 17  1  0  0  0  0
 17 18  1  0  0  0  0
 18 19  1  0  0  0  0
 19 20  1  1  0  0  0
 21 22  1  0  0  0  0
 21 26  2  0  0  0  0
 22 23  2  0  0  0  0
 22 24  1  0  0  0  0
 24 25  1  0  0  0  0
 25 26  1  0  0  0  0
 27 28  1  0  0  0  0
 27 42  1  0  0  0  0
 28 29  1  1  0  0  0
 28 35  1  0  0  0  0
 29 30  1  0  0  0  0
 29 34  2  0  0  0  0
 30 31  2  0  0  0  0
 31 32  1  0  0  0  0
 32 33  2  0  0  0  0
 33 34  1  0  0  0  0
 35 36  2  0  0  0  0
 35 40  1  0  0  0  0
 36 37  1  0  0  0  0
 36 41  1  0  0  0  0
 37 38  2  0  0  0  0
 38 39  1  0  0  0  0
 39 40  2  0  0  0  0
 41 42  1  0  0  0  0
M  END
>  <name>
S=C(SC(C[C@@H]1C(=C)CC[C@@H]2[C@@](C[O;ester])(C)[C;ether]CC[C@@]12C)C=1C(=O)OCC=1)N1[C@H](c2ccccc2)c2c(cccc2)CC1

>  <apo>
2

>  <freq>
1

>  <freq0>
0

>  <freq1>
1

>  <freqA>
0.99700278

>  <a_count>
85

$$$$

  MOE2015           2D

 43 46  0  0  1  0  0  0  0  0999 V2000
    3.1970   -5.5250    0.0000 P   0  0  0  0  0  0  0  0  0  0  0  0
    3.9450   -4.2250    0.0000 O   0  0  0  0  0  0  0  0  0  0  0  0
    4.4980   -6.2730    0.0000 O   0  0  0  0  0  0  0  0  0  0  0  0
    5.7950   -5.5200    0.0000 P   0  0  0  0  0  0  0  0  0  0  0  0
    5.0430   -4.2230    0.0000 O   0  0  0  0  0  0  0  0  0  0  0  0
    7.0930   -4.7680    0.0000 O   0  0  0  0  0  0  0  0  0  0  0  0
    8.3930   -5.5150    0.0000 C   0  0  0  0  0  0  0  0  0  0  0  0
    9.6910   -4.7630    0.0000 C   0  0  2  0  0  0  0  0  0  0  0  0
   11.0620   -5.3700    0.0000 C   0  0  1  0  0  0  0  0  0  0  0  0
   11.3770   -6.8370    0.0000 O   0  0  0  0  0  0  0  0  0  0  0  0
   12.0640   -4.2540    0.0000 C   0  0  2  0  0  0  0  0  0  0  0  0
   13.5560   -4.4080    0.0000 O   0  0  0  0  0  0  0  0  0  0  0  0
   11.3120   -2.9560    0.0000 C   0  0  0  0  0  0  0  0  0  0  0  0
    9.8450   -3.2710    0.0000 O   0  0  0  0  0  0  0  0  0  0  0  0
    6.5480   -6.8180    0.0000 O   0  5  0  0  0  0  0  0  0  0  0  0
    1.8970   -4.7780    0.0000 O   0  0  0  0  0  0  0  0  0  0  0  0
    0.5990   -5.5310    0.0000 C   0  0  0  0  0  0  0  0  0  0  0  0
   -0.7010   -4.7830    0.0000 C   0  0  1  0  0  0  0  0  0  0  0  0
   -0.7040   -3.2830    0.0000 O   0  0  0  0  0  0  0  0  0  0  0  0
   -1.9990   -5.5360    0.0000 C   0  0  1  0  0  0  0  0  0  0  0  0
   -1.9960   -7.0360    0.0000 O   0  0  0  0  0  0  0  0  0  0  0  0
   -3.2990   -4.7880    0.0000 C   0  0  1  0  0  0  0  0  0  0  0  0
   -4.5970   -5.5410    0.0000 O   0  0  0  0  0  0  0  0  0  0  0  0
   -3.3020   -3.2880    0.0000 C   0  0  0  0  0  0  0  0  0  0  0  0
   -4.6030   -2.5410    0.0000 N   0  0  0  0  0  0  0  0  0  0  0  0
   -4.6060   -1.0410    0.0000 C   0  0  0  0  0  0  0  0  0  0  0  0
   -5.9060   -0.2930    0.0000 C   0  0  0  0  0  0  0  0  0  0  0  0
   -7.2040   -1.0460    0.0000 N   0  0  0  0  0  0  0  0  0  0  0  0
   -7.2010   -2.5460    0.0000 C   0  0  0  0  0  0  0  0  0  0  0  0
   -8.4980   -3.2980    0.0000 C   0  0  0  0  0  0  0  0  0  0  0  0
   -9.7990   -2.5510    0.0000 O   0  0  0  0  0  0  0  0  0  0  0  0
   -8.4950   -4.7980    0.0000 N   0  0  0  0  0  0  0  0  0  0  0  0
   -7.1950   -5.5460    0.0000 C   0  0  0  0  0  0  0  0  0  0  0  0
   -7.1920   -7.0460    0.0000 O   0  0  0  0  0  0  0  0  0  0  0  0
   -5.8970   -4.7930    0.0000 N   0  0  0  0  0  0  0  0  0  0  0  0
   -5.9000   -3.2930    0.0000 C   0  0  0  0  0  0  0  0  0  0  0  0
   -5.9090    1.2070    0.0000 C   0  0  0  0  0  0  0  0  0  0  0  0
   -4.6110    1.9590    0.0000 C   0  0  0  0  0  0  0  0  0  0  0  0
   -4.6140    3.4590    0.0000 C   0  0  0  0  0  0  0  0  0  0  0  0
   -3.3110    1.2120    0.0000 C   0  0  0  0  0  0  0  0  0  0  0  0
   -2.0130    1.9640    0.0000 C   0  0  0  0  0  0  0  0  0  0  0  0
   -3.3080   -0.2880    0.0000 C   0  0  0  0  0  0  0  0  0  0  0  0
    2.4500   -6.8260    0.0000 O   0  5  0  0  0  0  0  0  0  0  0  0
  1  2  2  0  0  0  0
  1  3  1  0  0  0  0
  1 16  1  0  0  0  0
  1 43  1  0  0  0  0
  3  4  1  0  0  0  0
  4  5  2  0  0  0  0
  4  6  1  0  0  0  0
  4 15  1  0  0  0  0
  6  7  1  0  0  0  0
  8  7  1  1  0  0  0
  8  9  1  0  0  0  0
  8 14  1  0  0  0  0
  9 10  1  6  0  0  0
  9 11  1  0  0  0  0
 11 12  1  1  0  0  0
 11 13  1  0  0  0  0
 13 14  1  0  0  0  0
 16 17  1  0  0  0  0
 17 18  1  0  0  0  0
 18 19  1  6  0  0  0
 18 20  1  0  0  0  0
 20 21  1  1  0  0  0
 20 22  1  0  0  0  0
 22 23  1  1  0  0  0
 22 24  1  0  0  0  0
 24 25  1  0  0  0  0
 25 26  1  0  0  0  0
 25 36  1  0  0  0  0
 26 27  1  0  0  0  0
 26 42  2  0  0  0  0
 27 28  1  0  0  0  0
 27 37  2  0  0  0  0
 28 29  2  0  0  0  0
 29 30  1  0  0  0  0
 29 36  1  0  0  0  0
 30 31  2  0  0  0  0
 30 32  1  0  0  0  0
 32 33  1  0  0  0  0
 33 34  2  0  0  0  0
 33 35  1  0  0  0  0
 35 36  2  0  0  0  0
 37 38  1  0  0  0  0
 38 39  1  0  0  0  0
 38 40  2  0  0  0  0
 40 41  1  0  0  0  0
 40 42  1  0  0  0  0
M  CHG  1  15  -1
M  CHG  1  43  -1
M  END
>  <name>
P(=O)(OP(=O)(OC[C@@H]1[C@@H](O)[C@H](O)[C;NaroC]O1)[O-])(OC[C@@H](O)[C@@H](O)[C@@H](O)CN1c2c(N=C3C(=O)NC(=O)N=C13)cc(C)c(C)c2)[O-]

>  <apo>
1

>  <freq>
1

>  <freq0>
0

>  <freq1>
1

>  <freqA>
0.99700278

>  <a_count>
71

$$$$

  MOE2015           2D

 33 34  0  0  1  0  0  0  0  0999 V2000
    0.0000    0.0000    0.0000 O   0  0  0  0  0  0  0  0  0  0  0  0
    1.5000    0.0000    0.0000 C   0  0  0  0  0  0  0  0  0  0  0  0
    2.2500   -1.2990    0.0000 O   0  0  0  0  0  0  0  0  0  0  0  0
    1.5000   -2.5980    0.0000 C   0  0  0  0  0  0  0  0  0  0  0  0
    2.2500    1.2990    0.0000 N   0  0  0  0  0  0  0  0  0  0  0  0
    1.5000    2.5980    0.0000 C   0  0  2  0  0  0  0  0  0  0  0  0
    2.2500    3.8970    0.0000 C   0  0  0  0  0  0  0  0  0  0  0  0
    1.5000    5.1960    0.0000 O   0  0  0  0  0  0  0  0  0  0  0  0
    3.7500    3.8970    0.0000 N   0  0  0  0  0  0  0  0  0  0  0  0
    4.5000    5.1960    0.0000 N   0  0  0  0  0  0  0  0  0  0  0  0
    6.0000    5.1960    0.0000 C   0  0  0  0  0  0  0  0  0  0  0  0
    6.7500    3.8970    0.0000 C   0  0  2  0  0  0  0  0  0  0  0  0
    6.0000    2.5980    0.0000 O   0  0  0  0  0  0  0  0  0  0  0  0
    8.2500    3.8970    0.0000 C   0  0  1  0  0  0  0  0  0  0  0  0
    9.0000    5.1960    0.0000 N   0  0  0  0  0  0  0  0  0  0  0  0
    9.0000    2.5980    0.0000 C   0  0  0  0  0  0  0  0  0  0  0  0
   10.5000    2.5980    0.0000 C   0  0  0  0  0  0  0  0  0  0  0  0
   11.2500    1.2990    0.0000 C   0  0  0  0  0  0  0  0  0  0  0  0
   12.7500    1.2990    0.0000 C   0  0  0  0  0  0  0  0  0  0  0  0
   13.5000    2.5980    0.0000 C   0  0  0  0  0  0  0  0  0  0  0  0
   12.7500    3.8970    0.0000 C   0  0  0  0  0  0  0  0  0  0  0  0
   11.2500    3.8970    0.0000 C   0  0  0  0  0  0  0  0  0  0  0  0
    3.7500    6.4950    0.0000 C   0  0  0  0  0  0  0  0  0  0  0  0
    4.5000    7.7940    0.0000 C   0  0  0  0  0  0  0  0  0  0  0  0
    3.7500    9.0930    0.0000 C   0  0  0  0  0  0  0  0  0  0  0  0
    4.5000   10.3920    0.0000 C   0  0  0  0  0  0  0  0  0  0  0  0
    6.0000   10.3920    0.0000 C   0  0  0  0  0  0  0  0  0  0  0  0
    6.7500    9.0930    0.0000 C   0  0  0  0  0  0  0  0  0  0  0  0
    6.0000    7.7940    0.0000 C   0  0  0  0  0  0  0  0  0  0  0  0
    0.0000    2.5980    0.0000 C   0  0  0  0  0  0  0  0  0  0  0  0
    0.0000    1.0980    0.0000 C   0  0  0  0  0  0  0  0  0  0  0  0
    0.0000    4.0980    0.0000 C   0  0  0  0  0  0  0  0  0  0  0  0
   -1.5000    2.5980    0.0000 C   0  0  0  0  0  0  0  0  0  0  0  0
  1  2  2  0  0  0  0
  2  3  1  0  0  0  0
  2  5  1  0  0  0  0
  3  4  1  0  0  0  0
  6  5  1  1  0  0  0
  6  7  1  0  0  0  0
  6 30  1  0  0  0  0
  7  8  2  0  0  0  0
  7  9  1  0  0  0  0
  9 10  1  0  0  0  0
 10 11  1  0  0  0  0
 10 23  1  0  0  0  0
 11 12  1  0  0  0  0
 12 13  1  1  0  0  0
 12 14  1  0  0  0  0
 14 15  1  1  0  0  0
 14 16  1  0  0  0  0
 16 17  1  0  0  0  0
 17 18  1  0  0  0  0
 17 22  2  0  0  0  0
 18 19  2  0  0  0  0
 19 20  1  0  0  0  0
 20 21  2  0  0  0  0
 21 22  1  0  0  0  0
 23 24  1  0  0  0  0
 24 25  1  0  0  0  0
 24 29  2  0  0  0  0
 25 26  2  0  0  0  0
 26 27  1  0  0  0  0
 27 28  2  0  0  0  0
 28 29  1  0  0  0  0
 30 31  1  0  0  0  0
 30 32  1  0  0  0  0
 30 33  1  0  0  0  0
M  END
>  <name>
O=C(OC)N[C@H](C(=O)NN(C[C@H](O)[C@@H]([N;amide])Cc1ccccc1)Cc1cc[c;biphenyl]cc1)C(C)(C)C

>  <apo>
2

>  <freq>
1

>  <freq0>
0

>  <freq1>
1

>  <freqA>
0.99700278

>  <a_count>
69

$$$$

  MOE2015           2D

 35 40  0  0  1  0  0  0  0  0999 V2000
    3.0640    5.0850    0.0000 O   0  0  0  0  0  0  0  0  0  0  0  0
    3.8570    3.8300    0.0000 C   0  0  0  0  0  0  0  0  0  0  0  0
    1.5640    5.0770    0.0000 C   0  0  0  0  0  0  0  0  0  0  0  0
    0.8150    6.3840    0.0000 C   0  0  0  0  0  0  0  0  0  0  0  0
    1.5720    7.6780    0.0000 O   0  0  0  0  0  0  0  0  0  0  0  0
   -0.6870    6.3880    0.0000 C   0  0  0  0  0  0  0  0  0  0  0  0
   -2.0370    7.5340    0.0000 C   0  0  1  0  0  0  0  0  0  0  0  0
   -2.8860    8.7240    0.0000 N   0  3  3  0  0  0  0  0  0  0  0  0
   -3.2320   10.1830    0.0000 C   0  0  0  0  0  0  0  0  0  0  0  0
   -2.9960    7.4630    0.0000 C   0  0  2  0  0  0  0  0  0  0  0  0
   -4.1600    6.2920    0.0000 C   0  0  2  0  0  0  0  0  0  0  0  0
   -5.5680    5.8520    0.0000 C   0  0  0  0  0  0  0  0  0  0  0  0
   -7.1330    5.8570    0.0000 N   0  0  0  0  0  0  0  0  0  0  0  0
   -3.3300    5.1100    0.0000 N   0  3  3  0  0  0  0  0  0  0  0  0
   -4.6110    4.3420    0.0000 C   0  0  1  0  0  0  0  0  0  0  0  0
   -4.5470    2.8230    0.0000 C   0  0  0  0  0  0  0  0  0  0  0  0
   -3.2660    2.0960    0.0000 O   0  0  0  0  0  0  0  0  0  0  0  0
   -5.9170    5.0330    0.0000 C   0  0  0  0  0  0  0  0  0  0  0  0
   -7.2200    4.3380    0.0000 C   0  0  0  0  0  0  0  0  0  0  0  0
   -7.5550    2.8550    0.0000 O   0  0  0  0  0  0  0  0  0  0  0  0
   -9.0360    2.7160    0.0000 C   0  0  0  0  0  0  0  0  0  0  0  0
   -9.6420    4.0850    0.0000 O   0  0  0  0  0  0  0  0  0  0  0  0
   -8.5250    5.0860    0.0000 C   0  0  0  0  0  0  0  0  0  0  0  0
   -8.5290    6.5870    0.0000 C   0  0  0  0  0  0  0  0  0  0  0  0
   -9.8200    7.3450    0.0000 C   0  0  0  0  0  0  0  0  0  0  0  0
   -7.2150    7.3350    0.0000 C   0  0  0  0  0  0  0  0  0  0  0  0
   -7.2840    8.8640    0.0000 O   0  0  0  0  0  0  0  0  0  0  0  0
   -5.9190    6.6460    0.0000 C   0  0  0  0  0  0  0  0  0  0  0  0
   -4.6070    7.3010    0.0000 C   0  0  0  0  0  0  0  0  0  0  0  0
   -3.2300    6.2980    0.0000 C   0  0  2  0  0  0  0  0  0  0  0  0
   -1.7070    6.3530    0.0000 C   0  0  0  0  0  0  0  0  0  0  0  0
   -1.4440    5.0980    0.0000 C   0  0  0  0  0  0  0  0  0  0  0  0
   -0.6960    3.7930    0.0000 C   0  0  0  0  0  0  0  0  0  0  0  0
    0.8050    3.7870    0.0000 C   0  0  0  0  0  0  0  0  0  0  0  0
    1.5430    2.4740    0.0000 C   0  0  0  0  0  0  0  0  0  0  0  0
  1  2  1  0  0  0  0
  1  3  1  0  0  0  0
  3  4  2  0  0  0  0
  3 34  1  0  0  0  0
  4  5  1  0  0  0  0
  4  6  1  0  0  0  0
  7  6  1  6  0  0  0
  6 32  2  0  0  0  0
  7  8  1  0  0  0  0
  7 30  1  0  0  0  0
  8  9  1  0  0  0  0
  8 10  1  0  0  0  0
 10 11  1  0  0  0  0
 10 31  1  1  0  0  0
 11 12  1  1  0  0  0
 11 14  1  0  0  0  0
 12 13  3  0  0  0  0
 14 15  1  0  0  0  0
 14 30  1  0  0  0  0
 15 16  1  1  0  0  0
 15 18  1  0  0  0  0
 16 17  1  0  0  0  0
 18 19  1  0  0  0  0
 18 28  2  0  0  0  0
 19 20  1  0  0  0  0
 19 23  2  0  0  0  0
 20 21  1  0  0  0  0
 21 22  1  0  0  0  0
 22 23  1  0  0  0  0
 23 24  1  0  0  0  0
 24 25  1  0  0  0  0
 24 26  2  0  0  0  0
 26 27  1  0  0  0  0
 26 28  1  0  0  0  0
 28 29  1  0  0  0  0
 30 29  1  6  0  0  0
 31 32  1  0  0  0  0
 32 33  1  0  0  0  0
 33 34  2  0  0  0  0
 34 35  1  0  0  0  0
M  CHG  1   8   1
M  CHG  1  14   1
M  END
>  <name>
O(C)c1c(O)c2[C@H]3[N+](C)[C@H]([C@H](C#N)[N+]4[C@@H](C[O;ester])c5c6OCOc6c(C)c([O;ester])c5[C;thioether][C@H]34)Cc2cc1C

>  <apo>
3

>  <freq>
1

>  <freq0>
0

>  <freq1>
1

>  <freqA>
0.99700278

>  <a_count>
66

$$$$

  MOE2015           2D

 35 39  0  0  1  0  0  0  0  0999 V2000
   12.8050    1.1920    0.0000 Br  0  0  0  0  0  0  0  0  0  0  0  0
   11.6140    0.2880    0.0000 C   0  0  0  0  0  0  0  0  0  0  0  0
   10.2210    0.8780    0.0000 C   0  0  0  0  0  0  0  0  0  0  0  0
    9.0480   -0.0910    0.0000 C   0  0  0  0  0  0  0  0  0  0  0  0
    9.1500   -1.5010    0.0000 C   0  0  0  0  0  0  0  0  0  0  0  0
    8.0820   -2.6010    0.0000 C   0  0  2  0  0  0  0  0  0  0  0  0
    6.5970   -2.7700    0.0000 C   0  0  1  0  0  0  0  0  0  0  0  0
    6.1980   -4.2260    0.0000 C   0  0  2  0  0  0  0  0  0  0  0  0
    7.5180   -4.9910    0.0000 N   0  3  3  0  0  0  0  0  0  0  0  0
    7.9140   -6.4530    0.0000 C   0  0  0  0  0  0  0  0  0  0  0  0
    8.6360   -4.0560    0.0000 C   0  0  0  0  0  0  0  0  0  0  0  0
    6.1970   -5.7410    0.0000 C   0  0  0  0  0  0  0  0  0  0  0  0
    6.9920   -7.0160    0.0000 O   0  0  0  0  0  0  0  0  0  0  0  0
    4.7830   -6.2070    0.0000 N   0  0  0  0  0  0  0  0  0  0  0  0
    3.8970   -5.0260    0.0000 C   0  0  0  0  0  0  0  0  0  0  0  0
    4.7830   -3.7710    0.0000 C   0  0  0  0  0  0  0  0  0  0  0  0
    4.0750   -2.4520    0.0000 C   0  0  0  0  0  0  0  0  0  0  0  0
    2.5920   -2.3440    0.0000 C   0  0  0  0  0  0  0  0  0  0  0  0
    1.8720   -1.0230    0.0000 Cl  0  0  0  0  0  0  0  0  0  0  0  0
    1.7340   -3.6000    0.0000 C   0  0  0  0  0  0  0  0  0  0  0  0
    2.4070   -4.9110    0.0000 C   0  0  0  0  0  0  0  0  0  0  0  0
    7.8870   -2.0280    0.0000 C   0  0  0  0  0  0  0  0  0  0  0  0
    9.2340   -2.8000    0.0000 O   0  0  0  0  0  0  0  0  0  0  0  0
    7.8860   -0.5420    0.0000 C   0  0  0  0  0  0  0  0  0  0  0  0
    6.6140    0.2060    0.0000 C   0  0  0  0  0  0  0  0  0  0  0  0
    5.2920   -0.5240    0.0000 N   0  0  0  0  0  0  0  0  0  0  0  0
    4.0400    0.3220    0.0000 P   0  0  0  0  0  0  0  0  0  0  0  0
    3.2120   -0.9200    0.0000 O   0  0  0  0  0  0  0  0  0  0  0  0
    2.7980    1.1480    0.0000 O   0  0  0  0  0  0  0  0  0  0  0  0
    2.7160    2.5890    0.0000 C   0  0  0  0  0  0  0  0  0  0  0  0
    4.8930    1.5600    0.0000 O   0  0  0  0  0  0  0  0  0  0  0  0
    4.3800    2.9220    0.0000 C   0  0  0  0  0  0  0  0  0  0  0  0
    5.2680   -2.0320    0.0000 C   0  0  0  0  0  0  0  0  0  0  0  0
   10.6390   -2.1260    0.0000 C   0  0  0  0  0  0  0  0  0  0  0  0
   11.7700   -1.1960    0.0000 C   0  0  0  0  0  0  0  0  0  0  0  0
  1  2  1  0  0  0  0
  2  3  1  0  0  0  0
  2 35  2  0  0  0  0
  3  4  2  0  0  0  0
  4  5  1  0  0  0  0
  6  5  1  1  0  0  0
  5 34  2  0  0  0  0
  6  7  1  0  0  0  0
  6 11  1  0  0  0  0
  7  8  1  0  0  0  0
  7 22  1  1  0  0  0
  7 33  1  6  0  0  0
  8  9  1  1  0  0  0
  8 12  1  0  0  0  0
  8 16  1  0  0  0  0
  9 10  1  0  0  0  0
  9 11  1  0  0  0  0
 12 13  2  0  0  0  0
 12 14  1  0  0  0  0
 14 15  1  0  0  0  0
 15 16  1  0  0  0  0
 15 21  2  0  0  0  0
 16 17  2  0  0  0  0
 17 18  1  0  0  0  0
 18 19  1  0  0  0  0
 18 20  2  0  0  0  0
 20 21  1  0  0  0  0
 22 23  2  0  0  0  0
 22 24  1  0  0  0  0
 24 25  1  0  0  0  0
 25 26  1  0  0  0  0
 26 27  1  0  0  0  0
 26 33  1  0  0  0  0
 27 28  2  0  0  0  0
 27 29  1  0  0  0  0
 27 31  1  0  0  0  0
 29 30  1  0  0  0  0
 31 32  1  0  0  0  0
 34 35  1  0  0  0  0
M  CHG  1   9   1
M  END
>  <name>
Brc1ccc([C@@H]2[C@@]3([C@]4([N+](C)C2)C(=O)Nc2c4cc(Cl)cc2)C(=O)[C;olefin]CN(P(=O)(OC)OC)C3)cc1

>  <apo>
1

>  <freq>
1

>  <freq0>
0

>  <freq1>
1

>  <freqA>
0.99700278

>  <a_count>
62

$$$$

  MOE2015           2D

 37 39  0  0  1  0  0  0  0  0999 V2000
    8.5350   -8.5350    0.0000 Cl  0  0  0  0  0  0  0  0  0  0  0  0
    8.5350   -7.0350    0.0000 C   0  0  0  0  0  0  0  0  0  0  0  0
    7.2360   -6.2850    0.0000 C   0  0  0  0  0  0  0  0  0  0  0  0
    5.9370   -7.0350    0.0000 O   0  0  0  0  0  0  0  0  0  0  0  0
    4.6380   -6.2850    0.0000 C   0  0  0  0  0  0  0  0  0  0  0  0
    3.3390   -7.0350    0.0000 C   0  0  0  0  0  0  0  0  0  0  0  0
    3.3390   -8.5350    0.0000 O   0  0  0  0  0  0  0  0  0  0  0  0
    2.0400   -6.2850    0.0000 C   0  0  0  0  0  0  0  0  0  0  0  0
    0.7410   -7.0350    0.0000 O   0  0  0  0  0  0  0  0  0  0  0  0
   -0.5580   -6.2850    0.0000 C   0  0  0  0  0  0  0  0  0  0  0  0
   -1.8570   -7.0350    0.0000 C   0  0  0  0  0  0  0  0  0  0  0  0
   -1.8570   -8.5350    0.0000 Cl  0  0  0  0  0  0  0  0  0  0  0  0
   -3.1560   -6.2850    0.0000 C   0  0  0  0  0  0  0  0  0  0  0  0
   -3.1560   -4.7850    0.0000 C   0  0  0  0  0  0  0  0  0  0  0  0
   -4.4550   -4.0350    0.0000 C   0  0  0  0  0  0  0  0  0  0  0  0
   -5.7540   -4.7850    0.0000 C   0  0  2  0  0  0  0  0  0  0  0  0
   -5.7540   -6.2850    0.0000 N   0  0  0  0  0  0  0  0  0  0  0  0
   -7.0530   -4.0350    0.0000 C   0  0  0  0  0  0  0  0  0  0  0  0
   -8.3520   -4.7850    0.0000 O   0  0  0  0  0  0  0  0  0  0  0  0
   -1.8570   -4.0350    0.0000 C   0  0  0  0  0  0  0  0  0  0  0  0
   -0.5580   -4.7850    0.0000 C   0  0  0  0  0  0  0  0  0  0  0  0
    2.0400   -4.7850    0.0000 C   0  0  0  0  0  0  0  0  0  0  0  0
    3.3390   -4.0350    0.0000 C   0  0  0  0  0  0  0  0  0  0  0  0
    3.3390   -2.5350    0.0000 C   0  0  1  0  0  0  0  0  0  0  0  0
    4.6380   -1.7850    0.0000 N   0  0  0  0  0  0  0  0  0  0  0  0
    2.0400   -1.7850    0.0000 C   0  0  0  0  0  0  0  0  0  0  0  0
    2.0400   -0.2850    0.0000 O   0  0  0  0  0  0  0  0  0  0  0  0
    4.6380   -4.7850    0.0000 C   0  0  0  0  0  0  0  0  0  0  0  0
    7.2360   -4.7850    0.0000 C   0  0  0  0  0  0  0  0  0  0  0  0
    8.5350   -4.0350    0.0000 C   0  0  0  0  0  0  0  0  0  0  0  0
    9.8340   -4.7850    0.0000 C   0  0  0  0  0  0  0  0  0  0  0  0
   11.1330   -4.0350    0.0000 C   0  0  0  0  0  0  0  0  0  0  0  0
   12.4320   -4.7850    0.0000 C   0  0  1  0  0  0  0  0  0  0  0  0
   12.4320   -6.2850    0.0000 N   0  0  0  0  0  0  0  0  0  0  0  0
   13.7310   -4.0350    0.0000 C   0  0  0  0  0  0  0  0  0  0  0  0
   15.0310   -4.7850    0.0000 O   0  0  0  0  0  0  0  0  0  0  0  0
    9.8340   -6.2850    0.0000 C   0  0  0  0  0  0  0  0  0  0  0  0
  1  2  1  0  0  0  0
  2  3  1  0  0  0  0
  2 37  2  0  0  0  0
  3  4  1  0  0  0  0
  3 29  2  0  0  0  0
  4  5  1  0  0  0  0
  5  6  2  0  0  0  0
  5 28  1  0  0  0  0
  6  7  1  0  0  0  0
  6  8  1  0  0  0  0
  8  9  1  0  0  0  0
  8 22  2  0  0  0  0
  9 10  1  0  0  0  0
 10 11  2  0  0  0  0
 10 21  1  0  0  0  0
 11 12  1  0  0  0  0
 11 13  1  0  0  0  0
 13 14  2  0  0  0  0
 14 15  1  0  0  0  0
 14 20  1  0  0  0  0
 15 16  1  0  0  0  0
 16 17  1  6  0  0  0
 16 18  1  0  0  0  0
 18 19  2  0  0  0  0
 20 21  2  0  0  0  0
 22 23  1  0  0  0  0
 23 24  1  0  0  0  0
 23 28  2  0  0  0  0
 24 25  1  6  0  0  0
 24 26  1  0  0  0  0
 26 27  2  0  0  0  0
 29 30  1  0  0  0  0
 30 31  2  0  0  0  0
 31 32  1  0  0  0  0
 31 37  1  0  0  0  0
 32 33  1  0  0  0  0
 33 34  1  6  0  0  0
 33 35  1  0  0  0  0
 35 36  2  0  0  0  0
M  END
>  <name>
Clc1c(Oc2c([O;ether])c(Oc3c(Cl)cc([C;ether][C@H]([N;amide])[C;amide]=O)cc3)cc([C@@H]([N;amide])[C;amide]=O)c2)ccc(C[C@@H]([N;amide])[C;amide]=O)c1

>  <apo>
8

>  <freq>
1

>  <freq0>
0

>  <freq1>
1

>  <freqA>
0.99700278

>  <a_count>
62

$$$$

  MOE2015           2D

 35 39  0  0  1  0  0  0  0  0999 V2000
    7.5670    1.8340    0.0000 Cl  0  0  0  0  0  0  0  0  0  0  0  0
    6.2510    1.1000    0.0000 C   0  0  0  0  0  0  0  0  0  0  0  0
    6.2360   -0.4120    0.0000 C   0  0  0  0  0  0  0  0  0  0  0  0
    4.8860   -1.1230    0.0000 C   0  0  0  0  0  0  0  0  0  0  0  0
    4.5360   -2.5830    0.0000 C   0  0  2  0  0  0  0  0  0  0  0  0
    5.7710   -1.6380    0.0000 N   0  3  3  0  0  0  0  0  0  0  0  0
    5.0780   -0.1710    0.0000 C   0  0  0  0  0  0  0  0  0  0  0  0
    6.9060   -2.3940    0.0000 C   0  0  0  0  0  0  0  0  0  0  0  0
    6.5390   -3.9550    0.0000 C   0  0  2  0  0  0  0  0  0  0  0  0
    7.8350   -4.7000    0.0000 C   0  0  0  0  0  0  0  0  0  0  0  0
    9.1230   -3.8230    0.0000 C   0  0  0  0  0  0  0  0  0  0  0  0
   10.4420   -4.4760    0.0000 C   0  0  0  0  0  0  0  0  0  0  0  0
   10.5950   -5.9670    0.0000 C   0  0  0  0  0  0  0  0  0  0  0  0
   11.9460   -6.6020    0.0000 F   0  0  0  0  0  0  0  0  0  0  0  0
    9.3520   -6.8240    0.0000 C   0  0  0  0  0  0  0  0  0  0  0  0
    8.0070   -6.1580    0.0000 C   0  0  0  0  0  0  0  0  0  0  0  0
    5.0630   -4.0090    0.0000 C   0  0  2  0  0  0  0  0  0  0  0  0
    5.6610   -5.3690    0.0000 C   0  0  0  0  0  0  0  0  0  0  0  0
    7.1200   -5.5990    0.0000 O   0  0  0  0  0  0  0  0  0  0  0  0
    4.7620   -6.6050    0.0000 C   0  0  0  0  0  0  0  0  0  0  0  0
    3.3220   -6.4980    0.0000 C   0  0  0  0  0  0  0  0  0  0  0  0
    2.6620   -5.0920    0.0000 N   0  0  0  0  0  0  0  0  0  0  0  0
    1.1590   -5.1030    0.0000 P   0  0  0  0  0  0  0  0  0  0  0  0
    1.0460   -3.6450    0.0000 O   0  0  0  0  0  0  0  0  0  0  0  0
   -0.3460   -5.2340    0.0000 O   0  0  0  0  0  0  0  0  0  0  0  0
   -1.2300   -4.0440    0.0000 C   0  0  0  0  0  0  0  0  0  0  0  0
    1.2190   -6.6430    0.0000 O   0  0  0  0  0  0  0  0  0  0  0  0
   -0.0670   -7.4060    0.0000 C   0  0  0  0  0  0  0  0  0  0  0  0
    3.5300   -3.9080    0.0000 C   0  0  0  0  0  0  0  0  0  0  0  0
    3.1110   -2.7520    0.0000 C   0  0  0  0  0  0  0  0  0  0  0  0
    2.2290   -3.9540    0.0000 O   0  0  0  0  0  0  0  0  0  0  0  0
    2.4760   -1.3130    0.0000 N   0  0  0  0  0  0  0  0  0  0  0  0
    3.6100   -0.3530    0.0000 C   0  0  0  0  0  0  0  0  0  0  0  0
    3.6490    1.1610    0.0000 C   0  0  0  0  0  0  0  0  0  0  0  0
    4.9670    1.8660    0.0000 C   0  0  0  0  0  0  0  0  0  0  0  0
  1  2  1  0  0  0  0
  2  3  1  0  0  0  0
  2 35  2  0  0  0  0
  3  4  2  0  0  0  0
  4  5  1  0  0  0  0
  4 33  1  0  0  0  0
  5  6  1  1  0  0  0
  5 17  1  0  0  0  0
  5 30  1  0  0  0  0
  6  7  1  0  0  0  0
  6  8  1  0  0  0  0
  8  9  1  0  0  0  0
  9 10  1  6  0  0  0
  9 17  1  0  0  0  0
 10 11  1  0  0  0  0
 10 16  2  0  0  0  0
 11 12  2  0  0  0  0
 12 13  1  0  0  0  0
 13 14  1  0  0  0  0
 13 15  2  0  0  0  0
 15 16  1  0  0  0  0
 17 18  1  6  0  0  0
 17 29  1  1  0  0  0
 18 19  2  0  0  0  0
 18 20  1  0  0  0  0
 20 21  1  0  0  0  0
 21 22  1  0  0  0  0
 22 23  1  0  0  0  0
 22 29  1  0  0  0  0
 23 24  2  0  0  0  0
 23 25  1  0  0  0  0
 23 27  1  0  0  0  0
 25 26  1  0  0  0  0
 27 28  1  0  0  0  0
 30 31  2  0  0  0  0
 30 32  1  0  0  0  0
 32 33  1  0  0  0  0
 33 34  2  0  0  0  0
 34 35  1  0  0  0  0
M  CHG  1   6   1
M  END
>  <name>
Clc1cc2[C@@]3([N+](C)C[C@H](c4ccc(F)cc4)[C@@]43C(=O)[C;olefin]CN(P(=O)(OC)OC)C4)C(=O)Nc2cc1

>  <apo>
1

>  <freq>
1

>  <freq0>
0

>  <freq1>
1

>  <freqA>
0.99700278

>  <a_count>
62

$$$$

  MOE2015           2D

 34 38  0  0  1  0  0  0  0  0999 V2000
    2.3490    1.9650    0.0000 Cl  0  0  0  0  0  0  0  0  0  0  0  0
    3.6610    1.2270    0.0000 C   0  0  0  0  0  0  0  0  0  0  0  0
    3.6700   -0.2850    0.0000 C   0  0  0  0  0  0  0  0  0  0  0  0
    5.0180   -1.0010    0.0000 C   0  0  0  0  0  0  0  0  0  0  0  0
    5.3620   -2.4620    0.0000 C   0  0  2  0  0  0  0  0  0  0  0  0
    4.1310   -1.5120    0.0000 N   0  3  3  0  0  0  0  0  0  0  0  0
    4.8300   -0.0490    0.0000 C   0  0  0  0  0  0  0  0  0  0  0  0
    2.9930   -2.2640    0.0000 C   0  0  0  0  0  0  0  0  0  0  0  0
    3.3530   -3.8250    0.0000 C   0  0  2  0  0  0  0  0  0  0  0  0
    2.0560   -4.5670    0.0000 C   0  0  0  0  0  0  0  0  0  0  0  0
    0.7680   -3.6920    0.0000 C   0  0  0  0  0  0  0  0  0  0  0  0
   -0.5490   -4.3420    0.0000 C   0  0  0  0  0  0  0  0  0  0  0  0
   -0.7060   -5.8360    0.0000 C   0  0  0  0  0  0  0  0  0  0  0  0
    0.5420   -6.6910    0.0000 C   0  0  0  0  0  0  0  0  0  0  0  0
    1.8830   -6.0260    0.0000 C   0  0  0  0  0  0  0  0  0  0  0  0
    4.8290   -3.8860    0.0000 C   0  0  2  0  0  0  0  0  0  0  0  0
    4.2240   -5.2430    0.0000 C   0  0  0  0  0  0  0  0  0  0  0  0
    2.7640   -5.4650    0.0000 O   0  0  0  0  0  0  0  0  0  0  0  0
    5.1170   -6.4830    0.0000 C   0  0  0  0  0  0  0  0  0  0  0  0
    6.5570   -6.3830    0.0000 C   0  0  0  0  0  0  0  0  0  0  0  0
    7.2240   -4.9820    0.0000 N   0  0  0  0  0  0  0  0  0  0  0  0
    8.7270   -4.9990    0.0000 P   0  0  0  0  0  0  0  0  0  0  0  0
    8.8460   -3.5420    0.0000 O   0  0  0  0  0  0  0  0  0  0  0  0
   10.2320   -5.1360    0.0000 O   0  0  0  0  0  0  0  0  0  0  0  0
   11.1190   -3.9490    0.0000 C   0  0  0  0  0  0  0  0  0  0  0  0
    8.6620   -6.5390    0.0000 O   0  0  0  0  0  0  0  0  0  0  0  0
    9.9450   -7.3070    0.0000 C   0  0  0  0  0  0  0  0  0  0  0  0
    6.3630   -3.7930    0.0000 C   0  0  0  0  0  0  0  0  0  0  0  0
    6.7860   -2.6380    0.0000 C   0  0  0  0  0  0  0  0  0  0  0  0
    7.6630   -3.8420    0.0000 O   0  0  0  0  0  0  0  0  0  0  0  0
    7.4280   -1.2010    0.0000 N   0  0  0  0  0  0  0  0  0  0  0  0
    6.2970   -0.2370    0.0000 C   0  0  0  0  0  0  0  0  0  0  0  0
    6.2640    1.2780    0.0000 C   0  0  0  0  0  0  0  0  0  0  0  0
    4.9480    1.9880    0.0000 C   0  0  0  0  0  0  0  0  0  0  0  0
  1  2  1  0  0  0  0
  2  3  1  0  0  0  0
  2 34  2  0  0  0  0
  3  4  2  0  0  0  0
  4  5  1  0  0  0  0
  4 32  1  0  0  0  0
  5  6  1  6  0  0  0
  5 16  1  0  0  0  0
  5 29  1  0  0  0  0
  6  7  1  0  0  0  0
  6  8  1  0  0  0  0
  8  9  1  0  0  0  0
  9 10  1  1  0  0  0
  9 16  1  0  0  0  0
 10 11  1  0  0  0  0
 10 15  2  0  0  0  0
 11 12  2  0  0  0  0
 12 13  1  0  0  0  0
 13 14  2  0  0  0  0
 14 15  1  0  0  0  0
 16 17  1  1  0  0  0
 16 28  1  6  0  0  0
 17 18  2  0  0  0  0
 17 19  1  0  0  0  0
 19 20  1  0  0  0  0
 20 21  1  0  0  0  0
 21 22  1  0  0  0  0
 21 28  1  0  0  0  0
 22 23  2  0  0  0  0
 22 24  1  0  0  0  0
 22 26  1  0  0  0  0
 24 25  1  0  0  0  0
 26 27  1  0  0  0  0
 29 30  2  0  0  0  0
 29 31  1  0  0  0  0
 31 32  1  0  0  0  0
 32 33  2  0  0  0  0
 33 34  1  0  0  0  0
M  CHG  1   6   1
M  END
>  <name>
Clc1cc2[C@@]3([N+](C)C[C@H](c4ccccc4)[C@@]43C(=O)[C;olefin]CN(P(=O)(OC)OC)C4)C(=O)Nc2cc1

>  <apo>
1

>  <freq>
1

>  <freq0>
0

>  <freq1>
1

>  <freqA>
0.99700278

>  <a_count>
62

$$$$

  MOE2015           2D

 33 37  0  0  1  0  0  0  0  0999 V2000
   -2.3010   -4.0090    0.0000 S   0  0  3  0  0  0  0  0  0  0  0  0
   -2.7830   -2.7840    0.0000 O   0  0  0  0  0  0  0  0  0  0  0  0
   -3.8230   -4.5480    0.0000 C   0  0  0  0  0  0  0  0  0  0  0  0
   -2.0730   -5.6770    0.0000 C   0  0  0  0  0  0  0  0  0  0  0  0
   -3.3690   -6.4060    0.0000 C   0  0  0  0  0  0  0  0  0  0  0  0
   -0.8480   -3.9240    0.0000 N   0  0  0  0  0  0  0  0  0  0  0  0
    0.1670   -2.8210    0.0000 C   0  0  0  0  0  0  0  0  0  0  0  0
    1.6240   -2.9400    0.0000 C   0  0  1  0  0  0  0  0  0  0  0  0
    0.7440   -1.8280    0.0000 C   0  0  2  0  0  0  0  0  0  0  0  0
   -0.7110   -1.3460    0.0000 C   0  0  0  0  0  0  0  0  0  0  0  0
   -0.6400    0.3150    0.0000 C   0  0  0  0  0  0  0  0  0  0  0  0
   -1.9000    1.0030    0.0000 C   0  0  0  0  0  0  0  0  0  0  0  0
   -3.2440    0.3680    0.0000 C   0  0  0  0  0  0  0  0  0  0  0  0
   -4.4960    1.1880    0.0000 F   0  0  0  0  0  0  0  0  0  0  0  0
   -3.3210   -1.1410    0.0000 C   0  0  0  0  0  0  0  0  0  0  0  0
   -1.9300   -1.8800    0.0000 C   0  0  0  0  0  0  0  0  0  0  0  0
    1.6980   -0.5050    0.0000 C   0  0  0  0  0  0  0  0  0  0  0  0
    3.0300   -0.9520    0.0000 N   0  3  3  0  0  0  0  0  0  0  0  0
    4.2960   -0.0800    0.0000 C   0  0  0  0  0  0  0  0  0  0  0  0
    3.0740   -2.4950    0.0000 C   0  0  1  0  0  0  0  0  0  0  0  0
    2.9880   -3.9350    0.0000 C   0  0  0  0  0  0  0  0  0  0  0  0
    2.3500   -5.3820    0.0000 O   0  0  0  0  0  0  0  0  0  0  0  0
    4.4940   -4.4950    0.0000 N   0  0  0  0  0  0  0  0  0  0  0  0
    5.3770   -3.3350    0.0000 C   0  0  0  0  0  0  0  0  0  0  0  0
    4.5390   -2.0980    0.0000 C   0  0  0  0  0  0  0  0  0  0  0  0
    5.2150   -0.7610    0.0000 C   0  0  0  0  0  0  0  0  0  0  0  0
    6.6990   -0.6360    0.0000 C   0  0  0  0  0  0  0  0  0  0  0  0
    7.5470   -1.8880    0.0000 C   0  0  0  0  0  0  0  0  0  0  0  0
    6.8960   -3.2180    0.0000 C   0  0  0  0  0  0  0  0  0  0  0  0
    2.1660   -4.3940    0.0000 C   0  0  0  0  0  0  0  0  0  0  0  0
    3.5280   -5.0080    0.0000 O   0  0  0  0  0  0  0  0  0  0  0  0
    1.1750   -5.5220    0.0000 C   0  0  0  0  0  0  0  0  0  0  0  0
   -0.2150   -5.4010    0.0000 C   0  0  0  0  0  0  0  0  0  0  0  0
  1  2  2  0  0  0  0
  1  3  2  0  0  0  0
  1  4  1  0  0  0  0
  1  6  1  0  0  0  0
  4  5  1  0  0  0  0
  6  7  1  0  0  0  0
  6 33  1  0  0  0  0
  8  7  1  1  0  0  0
  8  9  1  0  0  0  0
  8 20  1  0  0  0  0
  8 30  1  6  0  0  0
  9 10  1  6  0  0  0
  9 17  1  0  0  0  0
 10 11  1  0  0  0  0
 10 16  2  0  0  0  0
 11 12  2  0  0  0  0
 12 13  1  0  0  0  0
 13 14  1  0  0  0  0
 13 15  2  0  0  0  0
 15 16  1  0  0  0  0
 17 18  1  0  0  0  0
 18 19  1  0  0  0  0
 18 20  1  0  0  0  0
 20 21  1  1  0  0  0
 20 25  1  6  0  0  0
 21 22  2  0  0  0  0
 21 23  1  0  0  0  0
 23 24  1  0  0  0  0
 24 25  2  0  0  0  0
 24 29  1  0  0  0  0
 25 26  1  0  0  0  0
 26 27  2  0  0  0  0
 27 28  1  0  0  0  0
 28 29  2  0  0  0  0
 30 31  2  0  0  0  0
 30 32  1  0  0  0  0
 32 33  1  0  0  0  0
M  CHG  1  18   1
M  END
>  <name>
S(=O)(=C)(CC)N1C[C@]2([C@H](c3ccc(F)cc3)C[N+](C)[C@]32C(=O)Nc2c3cccc2)C(=O)[C;olefin]C1

>  <apo>
1

>  <freq>
1

>  <freq0>
0

>  <freq1>
1

>  <freqA>
0.99700278

>  <a_count>
62

$$$$

  MOE2015           2D

 34 38  0  0  1  0  0  0  0  0999 V2000
   12.4590   -7.1930    0.0000 Br  0  0  0  0  0  0  0  0  0  0  0  0
   11.7090   -5.8940    0.0000 C   0  0  0  0  0  0  0  0  0  0  0  0
   10.2090   -5.8940    0.0000 C   0  0  0  0  0  0  0  0  0  0  0  0
    9.4590   -4.5950    0.0000 C   0  0  0  0  0  0  0  0  0  0  0  0
   10.2090   -3.2960    0.0000 C   0  0  0  0  0  0  0  0  0  0  0  0
    9.4590   -1.9970    0.0000 N   0  0  0  0  0  0  0  0  0  0  0  0
    7.9590   -1.9970    0.0000 C   0  0  0  0  0  0  0  0  0  0  0  0
    7.2090   -0.6980    0.0000 O   0  0  0  0  0  0  0  0  0  0  0  0
    7.9590    0.6010    0.0000 C   0  0  0  0  0  0  0  0  0  0  0  0
    7.2090   -3.2960    0.0000 C   0  0  0  0  0  0  0  0  0  0  0  0
    5.7090   -3.2960    0.0000 C   0  0  2  0  0  0  0  0  0  0  0  0
    4.9590   -4.5950    0.0000 C   0  0  1  0  0  0  0  0  0  0  0  0
    3.6600   -3.8450    0.0000 O   0  0  0  0  0  0  0  0  0  0  0  0
    6.2580   -5.3450    0.0000 C   0  0  0  0  0  0  0  0  0  0  0  0
    6.2580   -6.8450    0.0000 C   0  0  0  0  0  0  0  0  0  0  0  0
    4.2090   -5.8940    0.0000 C   0  0  0  0  0  0  0  0  0  0  0  0
    2.7090   -5.8940    0.0000 C   0  0  0  0  0  0  0  0  0  0  0  0
    1.9590   -7.1930    0.0000 C   0  0  0  0  0  0  0  0  0  0  0  0
    2.7090   -8.4920    0.0000 C   0  0  0  0  0  0  0  0  0  0  0  0
    4.2090   -8.4920    0.0000 C   0  0  0  0  0  0  0  0  0  0  0  0
    4.9590   -7.1930    0.0000 C   0  0  0  0  0  0  0  0  0  0  0  0
    0.4590   -7.1930    0.0000 C   0  0  0  0  0  0  0  0  0  0  0  0
   -0.2910   -5.8940    0.0000 C   0  0  0  0  0  0  0  0  0  0  0  0
    0.4590   -4.5950    0.0000 C   0  0  0  0  0  0  0  0  0  0  0  0
    1.9590   -4.5950    0.0000 C   0  0  0  0  0  0  0  0  0  0  0  0
    4.9590   -1.9970    0.0000 C   0  0  0  0  0  0  0  0  0  0  0  0
    3.4590   -1.9970    0.0000 C   0  0  0  0  0  0  0  0  0  0  0  0
    2.7090   -0.6980    0.0000 C   0  0  0  0  0  0  0  0  0  0  0  0
    3.4590    0.6010    0.0000 C   0  0  0  0  0  0  0  0  0  0  0  0
    4.9590    0.6010    0.0000 C   0  0  0  0  0  0  0  0  0  0  0  0
    5.7090   -0.6980    0.0000 C   0  0  0  0  0  0  0  0  0  0  0  0
    7.9590   -4.5950    0.0000 C   0  0  0  0  0  0  0  0  0  0  0  0
   11.7090   -3.2960    0.0000 C   0  0  0  0  0  0  0  0  0  0  0  0
   12.4590   -4.5950    0.0000 C   0  0  0  0  0  0  0  0  0  0  0  0
  1  2  1  0  0  0  0
  2  3  1  0  0  0  0
  2 34  2  0  0  0  0
  3  4  2  0  0  0  0
  4  5  1  0  0  0  0
  4 32  1  0  0  0  0
  5  6  1  0  0  0  0
  5 33  2  0  0  0  0
  6  7  2  0  0  0  0
  7  8  1  0  0  0  0
  7 10  1  0  0  0  0
  8  9  1  0  0  0  0
 11 10  1  6  0  0  0
 10 32  2  0  0  0  0
 11 12  1  0  0  0  0
 11 26  1  0  0  0  0
 12 13  1  6  0  0  0
 12 14  1  0  0  0  0
 12 16  1  1  0  0  0
 14 15  1  0  0  0  0
 16 17  1  0  0  0  0
 16 21  2  0  0  0  0
 17 18  1  0  0  0  0
 17 25  2  0  0  0  0
 18 19  1  0  0  0  0
 18 22  2  0  0  0  0
 19 20  2  0  0  0  0
 20 21  1  0  0  0  0
 22 23  1  0  0  0  0
 23 24  2  0  0  0  0
 24 25  1  0  0  0  0
 26 27  1  0  0  0  0
 26 31  2  0  0  0  0
 27 28  2  0  0  0  0
 28 29  1  0  0  0  0
 29 30  2  0  0  0  0
 30 31  1  0  0  0  0
 33 34  1  0  0  0  0
M  END
>  <name>
Brc1cc2c(nc(OC)c([C@H]([C@@](O)(C[C;amine])c3c4c(ccc3)cccc4)c3ccccc3)c2)cc1

>  <apo>
1

>  <freq>
1

>  <freq0>
0

>  <freq1>
1

>  <freqA>
0.99700278

>  <a_count>
60

$$$$

  MOE2015           2D

 29 30  0  0  1  0  0  0  0  0999 V2000
    0.3620   -0.6270    0.0000 O   0  0  0  0  0  0  0  0  0  0  0  0
    1.1120    0.6720    0.0000 C   0  0  0  0  0  0  0  0  0  0  0  0
    0.3620    1.9710    0.0000 O   0  0  0  0  0  0  0  0  0  0  0  0
   -1.1380    1.9710    0.0000 C   0  0  0  0  0  0  0  0  0  0  0  0
   -1.1380    3.4710    0.0000 C   0  0  0  0  0  0  0  0  0  0  0  0
   -2.6380    1.9710    0.0000 C   0  0  0  0  0  0  0  0  0  0  0  0
   -1.1380    0.4710    0.0000 C   0  0  0  0  0  0  0  0  0  0  0  0
    2.6120    0.6720    0.0000 N   0  0  0  0  0  0  0  0  0  0  0  0
    3.3620    1.9710    0.0000 C   0  0  2  0  0  0  0  0  0  0  0  0
    4.8620    1.9710    0.0000 C   0  0  2  0  0  0  0  0  0  0  0  0
    5.6120    3.2700    0.0000 O   0  0  0  0  0  0  0  0  0  0  0  0
    5.6120    0.6720    0.0000 C   0  0  0  0  0  0  0  0  0  0  0  0
    7.1120    0.6720    0.0000 C   0  0  2  0  0  0  0  0  0  0  0  0
    7.8620   -0.6270    0.0000 C   0  0  0  0  0  0  0  0  0  0  0  0
    7.1120   -1.9260    0.0000 O   0  0  0  0  0  0  0  0  0  0  0  0
    7.8620    1.9710    0.0000 C   0  0  0  0  0  0  0  0  0  0  0  0
    9.3620    1.9710    0.0000 C   0  0  0  0  0  0  0  0  0  0  0  0
   10.1120    3.2700    0.0000 C   0  0  0  0  0  0  0  0  0  0  0  0
   11.6120    3.2700    0.0000 C   0  0  0  0  0  0  0  0  0  0  0  0
   12.3620    1.9710    0.0000 C   0  0  0  0  0  0  0  0  0  0  0  0
   11.6120    0.6720    0.0000 C   0  0  0  0  0  0  0  0  0  0  0  0
   10.1120    0.6720    0.0000 C   0  0  0  0  0  0  0  0  0  0  0  0
    2.6120    3.2700    0.0000 C   0  0  0  0  0  0  0  0  0  0  0  0
    3.3620    4.5690    0.0000 C   0  0  0  0  0  0  0  0  0  0  0  0
    2.6120    5.8680    0.0000 C   0  0  0  0  0  0  0  0  0  0  0  0
    3.3620    7.1670    0.0000 C   0  0  0  0  0  0  0  0  0  0  0  0
    4.8620    7.1670    0.0000 C   0  0  0  0  0  0  0  0  0  0  0  0
    5.6120    5.8680    0.0000 C   0  0  0  0  0  0  0  0  0  0  0  0
    4.8620    4.5690    0.0000 C   0  0  0  0  0  0  0  0  0  0  0  0
  1  2  2  0  0  0  0
  2  3  1  0  0  0  0
  2  8  1  0  0  0  0
  3  4  1  0  0  0  0
  4  5  1  0  0  0  0
  4  6  1  0  0  0  0
  4  7  1  0  0  0  0
  9  8  1  1  0  0  0
  9 10  1  0  0  0  0
  9 23  1  0  0  0  0
 10 11  1  6  0  0  0
 10 12  1  0  0  0  0
 12 13  1  0  0  0  0
 13 14  1  1  0  0  0
 13 16  1  0  0  0  0
 14 15  2  0  0  0  0
 16 17  1  0  0  0  0
 17 18  1  0  0  0  0
 17 22  2  0  0  0  0
 18 19  2  0  0  0  0
 19 20  1  0  0  0  0
 20 21  2  0  0  0  0
 21 22  1  0  0  0  0
 23 24  1  0  0  0  0
 24 25  1  0  0  0  0
 24 29  2  0  0  0  0
 25 26  2  0  0  0  0
 26 27  1  0  0  0  0
 27 28  2  0  0  0  0
 28 29  1  0  0  0  0
M  END
>  <name>
O=C(OC(C)(C)C)N[C@H]([C@H](O)C[C@H]([C;amide]=O)Cc1ccccc1)Cc1ccccc1

>  <apo>
1

>  <freq>
1

>  <freq0>
0

>  <freq1>
1

>  <freqA>
0.99700278

>  <a_count>
60

$$$$

  MOE2015           2D

 28 30  0  0  1  0  0  0  0  0999 V2000
    3.3820   -0.1840    0.0000 O   0  0  0  0  0  0  0  0  0  0  0  0
    3.3820    1.3160    0.0000 C   0  0  0  0  0  0  0  0  0  0  0  0
    4.6810    2.0660    0.0000 O   0  0  0  0  0  0  0  0  0  0  0  0
    5.9800    1.3160    0.0000 C   0  0  2  0  0  0  0  0  0  0  0  0
    7.3510    1.9260    0.0000 C   0  0  1  0  0  0  0  0  0  0  0  0
    8.3540    0.8120    0.0000 C   0  0  1  0  0  0  0  0  0  0  0  0
    7.6040   -0.4870    0.0000 O   0  0  0  0  0  0  0  0  0  0  0  0
    6.1370   -0.1750    0.0000 C   0  0  0  0  0  0  0  0  0  0  0  0
    9.7250    1.4220    0.0000 O   0  0  0  0  0  0  0  0  0  0  0  0
    9.5680    2.9140    0.0000 C   0  0  0  0  0  0  0  0  0  0  0  0
    8.1010    3.2250    0.0000 C   0  0  0  0  0  0  0  0  0  0  0  0
    2.0830    2.0660    0.0000 N   0  0  0  0  0  0  0  0  0  0  0  0
    0.7840    1.3160    0.0000 C   0  0  2  0  0  0  0  0  0  0  0  0
   -0.5150    2.0660    0.0000 C   0  0  2  0  0  0  0  0  0  0  0  0
   -1.8140    1.3160    0.0000 O   0  0  0  0  0  0  0  0  0  0  0  0
   -0.5150    3.5660    0.0000 C   0  0  0  0  0  0  0  0  0  0  0  0
   -1.8140    4.3160    0.0000 N   0  0  0  0  0  0  0  0  0  0  0  0
   -1.8140    5.8160    0.0000 C   0  0  0  0  0  0  0  0  0  0  0  0
   -3.1130    6.5660    0.0000 C   0  0  0  0  0  0  0  0  0  0  0  0
   -4.4120    5.8160    0.0000 C   0  0  0  0  0  0  0  0  0  0  0  0
   -3.1130    8.0660    0.0000 C   0  0  0  0  0  0  0  0  0  0  0  0
    0.7840   -0.1840    0.0000 C   0  0  0  0  0  0  0  0  0  0  0  0
   -0.5150   -0.9340    0.0000 C   0  0  0  0  0  0  0  0  0  0  0  0
   -1.8140   -0.1840    0.0000 C   0  0  0  0  0  0  0  0  0  0  0  0
   -3.1130   -0.9340    0.0000 C   0  0  0  0  0  0  0  0  0  0  0  0
   -3.1130   -2.4340    0.0000 C   0  0  0  0  0  0  0  0  0  0  0  0
   -1.8140   -3.1840    0.0000 C   0  0  0  0  0  0  0  0  0  0  0  0
   -0.5150   -2.4340    0.0000 C   0  0  0  0  0  0  0  0  0  0  0  0
  1  2  2  0  0  0  0
  2  3  1  0  0  0  0
  2 12  1  0  0  0  0
  4  3  1  6  0  0  0
  4  5  1  0  0  0  0
  4  8  1  0  0  0  0
  5  6  1  0  0  0  0
  5 11  1  6  0  0  0
  6  7  1  6  0  0  0
  6  9  1  0  0  0  0
  7  8  1  0  0  0  0
  9 10  1  0  0  0  0
 10 11  1  0  0  0  0
 13 12  1  1  0  0  0
 13 14  1  0  0  0  0
 13 22  1  0  0  0  0
 14 15  1  6  0  0  0
 14 16  1  0  0  0  0
 16 17  1  0  0  0  0
 17 18  1  0  0  0  0
 18 19  1  0  0  0  0
 19 20  1  0  0  0  0
 19 21  1  0  0  0  0
 22 23  1  0  0  0  0
 23 24  1  0  0  0  0
 23 28  2  0  0  0  0
 24 25  2  0  0  0  0
 25 26  1  0  0  0  0
 26 27  2  0  0  0  0
 27 28  1  0  0  0  0
M  END
>  <name>
O=C(O[C@@H]1[C@H]2[C@@H](OC1)OCC2)N[C@H]([C@H](O)C[N;so2amide]CC(C)C)Cc1ccccc1

>  <apo>
1

>  <freq>
1

>  <freq0>
0

>  <freq1>
1

>  <freqA>
0.99700278

>  <a_count>
60

$$$$

  MOE2015           2D

 31 35  0  0  1  0  0  0  0  0999 V2000
    4.0270   -2.5720    0.0000 O   0  0  0  0  0  0  0  0  0  0  0  0
    3.3360   -1.2560    0.0000 C   0  0  0  0  0  0  0  0  0  0  0  0
    3.2320   -3.8620    0.0000 C   0  0  0  0  0  0  0  0  0  0  0  0
    3.9930   -5.1670    0.0000 C   0  0  0  0  0  0  0  0  0  0  0  0
    5.4900   -5.1570    0.0000 O   0  0  0  0  0  0  0  0  0  0  0  0
    6.2730   -6.4290    0.0000 C   0  0  0  0  0  0  0  0  0  0  0  0
    3.2370   -6.4610    0.0000 C   0  0  0  0  0  0  0  0  0  0  0  0
    1.7160   -6.4170    0.0000 C   0  0  0  0  0  0  0  0  0  0  0  0
    0.9630   -5.2070    0.0000 C   0  0  0  0  0  0  0  0  0  0  0  0
   -0.5820   -5.0330    0.0000 C   0  0  1  0  0  0  0  0  0  0  0  0
   -1.7600   -5.8730    0.0000 C   0  0  2  0  0  0  0  0  0  0  0  0
   -3.0360   -5.0280    0.0000 C   0  0  1  0  0  0  0  0  0  0  0  0
   -2.6120   -3.6100    0.0000 N   0  3  3  0  0  0  0  0  0  0  0  0
   -3.0450   -2.1500    0.0000 C   0  0  0  0  0  0  0  0  0  0  0  0
   -1.1130   -3.5480    0.0000 C   0  0  0  0  0  0  0  0  0  0  0  0
   -4.1550   -4.0690    0.0000 C   0  0  0  0  0  0  0  0  0  0  0  0
   -4.6320   -2.6300    0.0000 O   0  0  0  0  0  0  0  0  0  0  0  0
   -5.4590   -4.8650    0.0000 N   0  0  0  0  0  0  0  0  0  0  0  0
   -5.1020   -6.3110    0.0000 C   0  0  0  0  0  0  0  0  0  0  0  0
   -3.6110   -6.4300    0.0000 C   0  0  0  0  0  0  0  0  0  0  0  0
   -2.9570   -7.7730    0.0000 C   0  0  0  0  0  0  0  0  0  0  0  0
   -3.8020   -9.0200    0.0000 C   0  0  0  0  0  0  0  0  0  0  0  0
   -5.2960   -8.9030    0.0000 C   0  0  0  0  0  0  0  0  0  0  0  0
   -5.9510   -7.5590    0.0000 C   0  0  0  0  0  0  0  0  0  0  0  0
   -0.3280   -5.7850    0.0000 C   0  0  0  0  0  0  0  0  0  0  0  0
    0.3450   -4.3590    0.0000 O   0  0  0  0  0  0  0  0  0  0  0  0
    0.5330   -7.0160    0.0000 C   0  0  0  0  0  0  0  0  0  0  0  0
   -0.1290   -8.3760    0.0000 C   0  0  0  0  0  0  0  0  0  0  0  0
   -1.6210   -8.4710    0.0000 N   0  0  0  0  0  0  0  0  0  0  0  0
   -2.4690   -7.2450    0.0000 C   0  0  0  0  0  0  0  0  0  0  0  0
    1.7520   -3.8340    0.0000 C   0  0  0  0  0  0  0  0  0  0  0  0
  1  2  1  0  0  0  0
  1  3  1  0  0  0  0
  3  4  1  0  0  0  0
  3 31  2  0  0  0  0
  4  5  1  0  0  0  0
  4  7  2  0  0  0  0
  5  6  1  0  0  0  0
  7  8  1  0  0  0  0
  8  9  2  0  0  0  0
 10  9  1  1  0  0  0
  9 31  1  0  0  0  0
 10 11  1  0  0  0  0
 10 15  1  0  0  0  0
 11 12  1  0  0  0  0
 11 25  1  1  0  0  0
 11 30  1  6  0  0  0
 12 13  1  1  0  0  0
 12 16  1  0  0  0  0
 12 20  1  0  0  0  0
 13 14  1  0  0  0  0
 13 15  1  0  0  0  0
 16 17  2  0  0  0  0
 16 18  1  0  0  0  0
 18 19  1  0  0  0  0
 19 20  2  0  0  0  0
 19 24  1  0  0  0  0
 20 21  1  0  0  0  0
 21 22  2  0  0  0  0
 22 23  1  0  0  0  0
 23 24  2  0  0  0  0
 25 26  2  0  0  0  0
 25 27  1  0  0  0  0
 27 28  1  0  0  0  0
 28 29  1  0  0  0  0
 29 30  1  0  0  0  0
M  CHG  1  13   1
M  END
>  <name>
O(C)c1c(OC)ccc([C@H]2[C@]3([C@@]4([N+](C)C2)C(=O)Nc2c4cccc2)C(=O)[C;olefin]C[N;so2amide]C3)c1

>  <apo>
2

>  <freq>
1

>  <freq0>
0

>  <freq1>
1

>  <freqA>
0.99700278

>  <a_count>
59

$$$$

  MOE2015           2D

 35 38  0  0  1  0  0  0  0  0999 V2000
    1.3220   -2.9170    0.0000 P   0  0  1  0  0  0  0  0  0  0  0  0
    2.0670   -4.2190    0.0000 O   0  0  0  0  0  0  0  0  0  0  0  0
    0.0200   -3.6620    0.0000 O   0  0  0  0  0  0  0  0  0  0  0  0
   -1.2760   -2.9070    0.0000 C   0  0  0  0  0  0  0  0  0  0  0  0
   -2.5780   -3.6520    0.0000 C   0  0  2  0  0  0  0  0  0  0  0  0
   -2.7400   -5.1430    0.0000 C   0  0  1  0  0  0  0  0  0  0  0  0
   -1.6290   -6.1510    0.0000 O   0  0  0  0  0  0  0  0  0  0  0  0
   -4.2090   -5.4490    0.0000 C   0  0  1  0  0  0  0  0  0  0  0  0
   -4.8240   -6.8170    0.0000 O   0  0  0  0  0  0  0  0  0  0  0  0
   -4.9540   -4.1470    0.0000 C   0  0  2  0  0  0  0  0  0  0  0  0
   -6.3370   -4.7280    0.0000 C   0  0  0  0  0  0  0  0  0  0  0  0
   -7.7200   -5.3090    0.0000 N   0  0  0  0  0  0  0  0  0  0  0  0
   -6.1160   -3.1990    0.0000 C   0  0  0  0  0  0  0  0  0  0  0  0
   -6.0310   -1.7010    0.0000 N   0  0  0  0  0  0  0  0  0  0  0  0
   -4.8620   -0.7620    0.0000 N   0  0  0  0  0  0  0  0  0  0  0  0
   -5.0910    0.7210    0.0000 C   0  0  0  0  0  0  0  0  0  0  0  0
   -6.4890    1.2630    0.0000 N   0  3  0  0  0  0  0  0  0  0  0  0
   -7.6590    0.3240    0.0000 C   0  0  0  0  0  0  0  0  0  0  0  0
   -9.0570    0.8670    0.0000 N   0  0  0  0  0  0  0  0  0  0  0  0
   -7.4300   -1.1580    0.0000 C   0  0  0  0  0  0  0  0  0  0  0  0
   -8.3780   -2.3210    0.0000 C   0  0  0  0  0  0  0  0  0  0  0  0
   -7.5660   -3.5820    0.0000 C   0  0  0  0  0  0  0  0  0  0  0  0
   -3.9460   -3.0370    0.0000 O   0  0  0  0  0  0  0  0  0  0  0  0
    2.6240   -2.1720    0.0000 O   0  0  0  0  0  0  0  0  0  0  0  0
    3.9200   -2.9270    0.0000 C   0  0  0  0  0  0  0  0  0  0  0  0
    5.2220   -2.1820    0.0000 C   0  0  0  0  0  0  0  0  0  0  0  0
    6.5180   -2.9370    0.0000 C   0  0  0  0  0  0  0  0  0  0  0  0
    6.5130   -4.4370    0.0000 C   0  0  0  0  0  0  0  0  0  0  0  0
    5.2110   -5.1820    0.0000 C   0  0  0  0  0  0  0  0  0  0  0  0
    3.9150   -4.4270    0.0000 C   0  0  0  0  0  0  0  0  0  0  0  0
    0.5770   -1.6150    0.0000 N   0  0  0  0  0  0  0  0  0  0  0  0
    1.3320   -0.3190    0.0000 C   0  0  2  0  0  0  0  0  0  0  0  0
    0.5870    0.9830    0.0000 C   0  0  0  0  0  0  0  0  0  0  0  0
    1.3420    2.2790    0.0000 O   0  0  0  0  0  0  0  0  0  0  0  0
    2.8320   -0.3250    0.0000 C   0  0  0  0  0  0  0  0  0  0  0  0
  1  2  2  0  0  0  0
  1  3  1  0  0  0  0
  1 24  1  1  0  0  0
  1 31  1  6  0  0  0
  3  4  1  0  0  0  0
  5  4  1  6  0  0  0
  5  6  1  0  0  0  0
  5 23  1  0  0  0  0
  6  7  1  1  0  0  0
  6  8  1  0  0  0  0
  8  9  1  1  0  0  0
  8 10  1  0  0  0  0
 10 11  1  1  0  0  0
 10 13  1  6  0  0  0
 10 23  1  0  0  0  0
 11 12  3  0  0  0  0
 13 14  1  0  0  0  0
 13 22  2  0  0  0  0
 14 15  1  0  0  0  0
 14 20  1  0  0  0  0
 15 16  2  0  0  0  0
 16 17  1  0  0  0  0
 17 18  2  0  0  0  0
 18 19  1  0  0  0  0
 18 20  1  0  0  0  0
 20 21  2  0  0  0  0
 21 22  1  0  0  0  0
 24 25  1  0  0  0  0
 25 26  1  0  0  0  0
 25 30  2  0  0  0  0
 26 27  2  0  0  0  0
 27 28  1  0  0  0  0
 28 29  2  0  0  0  0
 29 30  1  0  0  0  0
 31 32  1  0  0  0  0
 32 33  1  0  0  0  0
 32 35  1  6  0  0  0
 33 34  2  0  0  0  0
M  CHG  1  17   1
M  END
>  <name>
[P@@](=O)(OC[C@@H]1[C@@H](O)[C@@H](O)[C@](C#N)(c2n3N=C[N+]=C(N)c3cc2)O1)(Oc1ccccc1)N[C@H]([C;ester]=O)C

>  <apo>
1

>  <freq>
1

>  <freq0>
0

>  <freq1>
1

>  <freqA>
0.99700278

>  <a_count>
59

$$$$

  MOE2015           2D

 33 37  0  0  1  0  0  0  0  0999 V2000
   -0.0110    0.0410    0.0000 O   0  0  0  0  0  0  0  0  0  0  0  0
    1.4890    0.0540    0.0000 C   0  0  0  0  0  0  0  0  0  0  0  0
   -0.7490   -1.2640    0.0000 C   0  0  0  0  0  0  0  0  0  0  0  0
    0.0120   -2.5570    0.0000 N   0  0  0  0  0  0  0  0  0  0  0  0
   -0.7270   -3.8620    0.0000 C   0  0  0  0  0  0  0  0  0  0  0  0
    0.0340   -5.1550    0.0000 O   0  0  0  0  0  0  0  0  0  0  0  0
    1.5340   -5.1420    0.0000 C   0  0  0  0  0  0  0  0  0  0  0  0
   -2.2270   -3.8750    0.0000 C   0  0  0  0  0  0  0  0  0  0  0  0
   -2.9880   -2.5820    0.0000 C   0  0  0  0  0  0  0  0  0  0  0  0
   -4.4580   -2.2830    0.0000 O   0  0  0  0  0  0  0  0  0  0  0  0
   -4.6280   -0.7930    0.0000 C   0  0  1  0  0  0  0  0  0  0  0  0
   -5.6410    0.3130    0.0000 C   0  0  1  0  0  0  0  0  0  0  0  0
   -4.9020    1.6190    0.0000 C   0  0  2  0  0  0  0  0  0  0  0  0
   -5.5240    2.9840    0.0000 C   0  0  0  0  0  0  0  0  0  0  0  0
   -3.4320    1.3190    0.0000 C   0  0  1  0  0  0  0  0  0  0  0  0
   -2.3260    2.3330    0.0000 O   0  0  0  0  0  0  0  0  0  0  0  0
   -3.2630   -0.1710    0.0000 C   0  0  2  0  0  0  0  0  0  0  0  0
   -1.9090    0.4750    0.0000 O   0  0  0  0  0  0  0  0  0  0  0  0
   -2.2490   -1.2770    0.0000 C   0  0  0  0  0  0  0  0  0  0  0  0
   -7.1310    0.1440    0.0000 C   0  0  0  0  0  0  0  0  0  0  0  0
   -8.0230    1.3500    0.0000 C   0  0  0  0  0  0  0  0  0  0  0  0
   -9.5140    1.1800    0.0000 C   0  0  0  0  0  0  0  0  0  0  0  0
  -10.1120   -0.1950    0.0000 C   0  0  0  0  0  0  0  0  0  0  0  0
   -9.2200   -1.4010    0.0000 C   0  0  0  0  0  0  0  0  0  0  0  0
   -7.7300   -1.2320    0.0000 C   0  0  0  0  0  0  0  0  0  0  0  0
   -5.9820   -1.4380    0.0000 C   0  0  0  0  0  0  0  0  0  0  0  0
   -6.0990   -2.9340    0.0000 C   0  0  0  0  0  0  0  0  0  0  0  0
   -7.4530   -3.5790    0.0000 C   0  0  0  0  0  0  0  0  0  0  0  0
   -8.6900   -2.7290    0.0000 C   0  0  0  0  0  0  0  0  0  0  0  0
  -10.0430   -3.3750    0.0000 C   0  0  0  0  0  0  0  0  0  0  0  0
  -11.3970   -4.0210    0.0000 N   0  0  0  0  0  0  0  0  0  0  0  0
   -8.5720   -1.2340    0.0000 C   0  0  0  0  0  0  0  0  0  0  0  0
   -7.2180   -0.5880    0.0000 C   0  0  0  0  0  0  0  0  0  0  0  0
  1  2  1  0  0  0  0
  1  3  1  0  0  0  0
  3  4  2  0  0  0  0
  3 19  1  0  0  0  0
  4  5  1  0  0  0  0
  5  6  1  0  0  0  0
  5  8  2  0  0  0  0
  6  7  1  0  0  0  0
  8  9  1  0  0  0  0
  9 10  1  0  0  0  0
  9 19  2  0  0  0  0
 10 11  1  0  0  0  0
 11 12  1  0  0  0  0
 11 17  1  0  0  0  0
 11 26  1  6  0  0  0
 12 13  1  0  0  0  0
 12 20  1  6  0  0  0
 13 14  1  6  0  0  0
 13 15  1  0  0  0  0
 15 16  1  1  0  0  0
 15 17  1  0  0  0  0
 17 18  1  6  0  0  0
 17 19  1  0  0  0  0
 20 21  1  0  0  0  0
 20 25  2  0  0  0  0
 21 22  2  0  0  0  0
 22 23  1  0  0  0  0
 23 24  2  0  0  0  0
 24 25  1  0  0  0  0
 26 27  1  0  0  0  0
 26 33  2  0  0  0  0
 27 28  2  0  0  0  0
 28 29  1  0  0  0  0
 29 30  1  0  0  0  0
 29 32  2  0  0  0  0
 30 31  3  0  0  0  0
 32 33  1  0  0  0  0
M  END
>  <name>
O(C)c1nc(OC)cc2O[C@]3([C@@H]([C@H]([C;amine])[C@@H](O)[C@@]3(O)c12)c1ccccc1)c1ccc(C#N)cc1

>  <apo>
1

>  <freq>
1

>  <freq0>
0

>  <freq1>
1

>  <freqA>
0.99700278

>  <a_count>
57

$$$$

  MOE2015           2D

 30 32  0  0  1  0  0  0  0  0999 V2000
   -0.1710    0.0460    0.0000 O   0  0  0  0  0  0  0  0  0  0  0  0
   -1.4700    0.7960    0.0000 C   0  0  0  0  0  0  0  0  0  0  0  0
   -2.7690    0.0460    0.0000 O   0  0  0  0  0  0  0  0  0  0  0  0
   -2.7690   -1.4540    0.0000 C   0  0  0  0  0  0  0  0  0  0  0  0
   -4.0680   -2.2040    0.0000 C   0  0  0  0  0  0  0  0  0  0  0  0
   -5.4380   -1.5940    0.0000 S   0  0  0  0  0  0  0  0  0  0  0  0
   -6.4420   -2.7090    0.0000 C   0  0  0  0  0  0  0  0  0  0  0  0
   -5.6920   -4.0080    0.0000 N   0  0  0  0  0  0  0  0  0  0  0  0
   -4.2250   -3.6960    0.0000 C   0  0  0  0  0  0  0  0  0  0  0  0
   -1.4700    2.2960    0.0000 N   0  0  0  0  0  0  0  0  0  0  0  0
   -0.1710    3.0460    0.0000 C   0  0  3  0  0  0  0  0  0  0  0  0
    1.1280    2.2960    0.0000 C   0  0  3  0  0  0  0  0  0  0  0  0
    1.1280    0.7960    0.0000 O   0  0  0  0  0  0  0  0  0  0  0  0
    2.4270    3.0460    0.0000 C   0  0  0  0  0  0  0  0  0  0  0  0
    3.7260    2.2960    0.0000 C   0  0  3  0  0  0  0  0  0  0  0  0
    3.7260    0.7960    0.0000 N   0  0  0  0  0  0  0  0  0  0  0  0
    5.0260    3.0460    0.0000 C   0  0  0  0  0  0  0  0  0  0  0  0
    6.3250    2.2960    0.0000 C   0  0  0  0  0  0  0  0  0  0  0  0
    6.3250    0.7960    0.0000 C   0  0  0  0  0  0  0  0  0  0  0  0
    7.6240    0.0460    0.0000 C   0  0  0  0  0  0  0  0  0  0  0  0
    8.9230    0.7960    0.0000 C   0  0  0  0  0  0  0  0  0  0  0  0
    8.9230    2.2960    0.0000 C   0  0  0  0  0  0  0  0  0  0  0  0
    7.6240    3.0460    0.0000 C   0  0  0  0  0  0  0  0  0  0  0  0
   -0.1710    4.5460    0.0000 C   0  0  0  0  0  0  0  0  0  0  0  0
   -1.4700    5.2960    0.0000 C   0  0  0  0  0  0  0  0  0  0  0  0
   -1.4700    6.7960    0.0000 C   0  0  0  0  0  0  0  0  0  0  0  0
   -2.7690    7.5460    0.0000 C   0  0  0  0  0  0  0  0  0  0  0  0
   -4.0680    6.7960    0.0000 C   0  0  0  0  0  0  0  0  0  0  0  0
   -4.0680    5.2960    0.0000 C   0  0  0  0  0  0  0  0  0  0  0  0
   -2.7690    4.5460    0.0000 C   0  0  0  0  0  0  0  0  0  0  0  0
  1  2  2  0  0  0  0
  2  3  1  0  0  0  0
  2 10  1  0  0  0  0
  3  4  1  0  0  0  0
  4  5  1  0  0  0  0
  5  6  1  0  0  0  0
  5  9  2  0  0  0  0
  6  7  1  0  0  0  0
  7  8  2  0  0  0  0
  8  9  1  0  0  0  0
 10 11  1  0  0  0  0
 11 12  1  0  0  0  0
 11 24  1  0  0  0  0
 12 13  1  0  0  0  0
 12 14  1  0  0  0  0
 14 15  1  0  0  0  0
 15 16  1  0  0  0  0
 15 17  1  0  0  0  0
 17 18  1  0  0  0  0
 18 19  1  0  0  0  0
 18 23  2  0  0  0  0
 19 20  2  0  0  0  0
 20 21  1  0  0  0  0
 21 22  2  0  0  0  0
 22 23  1  0  0  0  0
 24 25  1  0  0  0  0
 25 26  1  0  0  0  0
 25 30  2  0  0  0  0
 26 27  2  0  0  0  0
 27 28  1  0  0  0  0
 28 29  2  0  0  0  0
 29 30  1  0  0  0  0
M  END
>  <name>
O=C(OCc1scnc1)NC(C(O)CC([N;amide])Cc1ccccc1)Cc1ccccc1

>  <apo>
1

>  <freq>
1

>  <freq0>
0

>  <freq1>
1

>  <freqA>
0.99700278

>  <a_count>
57

$$$$

  MOE2015           2D

 30 32  0  0  1  0  0  0  0  0999 V2000
   -0.1710    0.0460    0.0000 O   0  0  0  0  0  0  0  0  0  0  0  0
   -1.4700    0.7960    0.0000 C   0  0  0  0  0  0  0  0  0  0  0  0
   -2.7690    0.0460    0.0000 O   0  0  0  0  0  0  0  0  0  0  0  0
   -2.7690   -1.4540    0.0000 C   0  0  0  0  0  0  0  0  0  0  0  0
   -4.0680   -2.2040    0.0000 C   0  0  0  0  0  0  0  0  0  0  0  0
   -5.4380   -1.5940    0.0000 S   0  0  0  0  0  0  0  0  0  0  0  0
   -6.4420   -2.7090    0.0000 C   0  0  0  0  0  0  0  0  0  0  0  0
   -5.6920   -4.0080    0.0000 N   0  0  0  0  0  0  0  0  0  0  0  0
   -4.2250   -3.6960    0.0000 C   0  0  0  0  0  0  0  0  0  0  0  0
   -1.4700    2.2960    0.0000 N   0  0  0  0  0  0  0  0  0  0  0  0
   -0.1710    3.0460    0.0000 C   0  0  2  0  0  0  0  0  0  0  0  0
    1.1280    2.2960    0.0000 C   0  0  1  0  0  0  0  0  0  0  0  0
    1.1280    0.7960    0.0000 O   0  0  0  0  0  0  0  0  0  0  0  0
    2.4270    3.0460    0.0000 C   0  0  0  0  0  0  0  0  0  0  0  0
    3.7260    2.2960    0.0000 C   0  0  1  0  0  0  0  0  0  0  0  0
    3.7260    0.7960    0.0000 N   0  0  0  0  0  0  0  0  0  0  0  0
    5.0260    3.0460    0.0000 C   0  0  0  0  0  0  0  0  0  0  0  0
    6.3250    2.2960    0.0000 C   0  0  0  0  0  0  0  0  0  0  0  0
    6.3250    0.7960    0.0000 C   0  0  0  0  0  0  0  0  0  0  0  0
    7.6240    0.0460    0.0000 C   0  0  0  0  0  0  0  0  0  0  0  0
    8.9230    0.7960    0.0000 C   0  0  0  0  0  0  0  0  0  0  0  0
    8.9230    2.2960    0.0000 C   0  0  0  0  0  0  0  0  0  0  0  0
    7.6240    3.0460    0.0000 C   0  0  0  0  0  0  0  0  0  0  0  0
   -0.1710    4.5460    0.0000 C   0  0  0  0  0  0  0  0  0  0  0  0
   -1.4700    5.2960    0.0000 C   0  0  0  0  0  0  0  0  0  0  0  0
   -1.4700    6.7960    0.0000 C   0  0  0  0  0  0  0  0  0  0  0  0
   -2.7690    7.5460    0.0000 C   0  0  0  0  0  0  0  0  0  0  0  0
   -4.0680    6.7960    0.0000 C   0  0  0  0  0  0  0  0  0  0  0  0
   -4.0680    5.2960    0.0000 C   0  0  0  0  0  0  0  0  0  0  0  0
   -2.7690    4.5460    0.0000 C   0  0  0  0  0  0  0  0  0  0  0  0
  1  2  2  0  0  0  0
  2  3  1  0  0  0  0
  2 10  1  0  0  0  0
  3  4  1  0  0  0  0
  4  5  1  0  0  0  0
  5  6  1  0  0  0  0
  5  9  2  0  0  0  0
  6  7  1  0  0  0  0
  7  8  2  0  0  0  0
  8  9  1  0  0  0  0
 11 10  1  1  0  0  0
 11 12  1  0  0  0  0
 11 24  1  0  0  0  0
 12 13  1  6  0  0  0
 12 14  1  0  0  0  0
 14 15  1  0  0  0  0
 15 16  1  6  0  0  0
 15 17  1  0  0  0  0
 17 18  1  0  0  0  0
 18 19  1  0  0  0  0
 18 23  2  0  0  0  0
 19 20  2  0  0  0  0
 20 21  1  0  0  0  0
 21 22  2  0  0  0  0
 22 23  1  0  0  0  0
 24 25  1  0  0  0  0
 25 26  1  0  0  0  0
 25 30  2  0  0  0  0
 26 27  2  0  0  0  0
 27 28  1  0  0  0  0
 28 29  2  0  0  0  0
 29 30  1  0  0  0  0
M  END
>  <name>
O=C(OCc1scnc1)N[C@H]([C@@H](O)C[C@@H]([N;amide])Cc1ccccc1)Cc1ccccc1

>  <apo>
1

>  <freq>
1

>  <freq0>
0

>  <freq1>
1

>  <freqA>
0.99700278

>  <a_count>
57

$$$$

  MOE2015           2D

 26 26  0  0  1  0  0  0  0  0999 V2000
   -1.0830   -3.3510    0.0000 O   0  0  0  0  0  0  0  0  0  0  0  0
    0.2160   -2.6010    0.0000 C   0  0  0  0  0  0  0  0  0  0  0  0
    0.2160   -1.1010    0.0000 O   0  0  0  0  0  0  0  0  0  0  0  0
   -1.0830   -0.3510    0.0000 C   0  0  0  0  0  0  0  0  0  0  0  0
   -0.3330    0.9480    0.0000 C   0  0  0  0  0  0  0  0  0  0  0  0
   -1.8330   -1.6500    0.0000 C   0  0  0  0  0  0  0  0  0  0  0  0
   -2.3820    0.3990    0.0000 C   0  0  0  0  0  0  0  0  0  0  0  0
    1.5150   -3.3510    0.0000 N   0  0  0  0  0  0  0  0  0  0  0  0
    1.5150   -4.8510    0.0000 C   0  0  2  0  0  0  0  0  0  0  0  0
    0.2160   -5.6010    0.0000 C   0  0  0  0  0  0  0  0  0  0  0  0
    0.2160   -7.1010    0.0000 O   0  0  0  0  0  0  0  0  0  0  0  0
    2.8140   -5.6010    0.0000 C   0  0  0  0  0  0  0  0  0  0  0  0
    4.1130   -4.8510    0.0000 C   0  0  0  0  0  0  0  0  0  0  0  0
    5.4120   -5.6010    0.0000 C   0  0  0  0  0  0  0  0  0  0  0  0
    6.7110   -4.8510    0.0000 C   0  0  0  0  0  0  0  0  0  0  0  0
    8.0100   -5.6010    0.0000 N   0  0  0  0  0  0  0  0  0  0  0  0
    9.3090   -4.8510    0.0000 C   0  0  0  0  0  0  0  0  0  0  0  0
    9.3090   -3.3510    0.0000 O   0  0  0  0  0  0  0  0  0  0  0  0
   10.6080   -5.6010    0.0000 O   0  0  0  0  0  0  0  0  0  0  0  0
   11.9070   -4.8510    0.0000 C   0  0  0  0  0  0  0  0  0  0  0  0
   11.9070   -3.3510    0.0000 C   0  0  0  0  0  0  0  0  0  0  0  0
   13.2060   -2.6010    0.0000 C   0  0  0  0  0  0  0  0  0  0  0  0
   14.5050   -3.3510    0.0000 C   0  0  0  0  0  0  0  0  0  0  0  0
   15.8040   -2.6010    0.0000 O   0  0  0  0  0  0  0  0  0  0  0  0
   14.5050   -4.8510    0.0000 C   0  0  0  0  0  0  0  0  0  0  0  0
   13.2060   -5.6010    0.0000 C   0  0  0  0  0  0  0  0  0  0  0  0
  1  2  2  0  0  0  0
  2  3  1  0  0  0  0
  2  8  1  0  0  0  0
  3  4  1  0  0  0  0
  4  5  1  0  0  0  0
  4  6  1  0  0  0  0
  4  7  1  0  0  0  0
  9  8  1  1  0  0  0
  9 10  1  0  0  0  0
  9 12  1  0  0  0  0
 10 11  2  0  0  0  0
 12 13  1  0  0  0  0
 13 14  1  0  0  0  0
 14 15  1  0  0  0  0
 15 16  1  0  0  0  0
 16 17  1  0  0  0  0
 17 18  2  0  0  0  0
 17 19  1  0  0  0  0
 19 20  1  0  0  0  0
 20 21  1  0  0  0  0
 20 26  1  0  0  0  0
 21 22  1  0  0  0  0
 22 23  1  0  0  0  0
 23 24  2  0  0  0  0
 23 25  1  0  0  0  0
 25 26  1  0  0  0  0
M  END
>  <name>
O=C(OC(C)(C)C)N[C@H]([C;amide]=O)CCCCNC(=O)OC1C[C;olefin]C(=O)[C;olefin]C1

>  <apo>
3

>  <freq>
1

>  <freq0>
0

>  <freq1>
1

>  <freqA>
0.99700278

>  <a_count>
56

$$$$

  MOE2015           2D

 29 32  0  0  1  0  0  0  0  0999 V2000
   -4.0600   -7.4370    0.0000 O   0  0  0  0  0  0  0  0  0  0  0  0
   -4.5060   -6.0050    0.0000 C   0  0  0  0  0  0  0  0  0  0  0  0
   -5.9260   -5.5240    0.0000 N   0  0  0  0  0  0  0  0  0  0  0  0
   -7.1510   -6.3900    0.0000 C   0  0  3  0  0  0  0  0  0  0  0  0
   -8.5130   -5.7620    0.0000 C   0  0  0  0  0  0  0  0  0  0  0  0
   -9.7380   -6.6290    0.0000 C   0  0  0  0  0  0  0  0  0  0  0  0
   -7.0130   -7.8830    0.0000 C   0  0  0  0  0  0  0  0  0  0  0  0
   -5.9070   -4.0240    0.0000 N   0  0  0  0  0  0  0  0  0  0  0  0
   -4.4750   -3.5780    0.0000 C   0  0  0  0  0  0  0  0  0  0  0  0
   -3.6090   -4.8030    0.0000 N   0  0  0  0  0  0  0  0  0  0  0  0
   -2.1090   -4.8220    0.0000 C   0  0  0  0  0  0  0  0  0  0  0  0
   -1.3420   -3.5320    0.0000 C   0  0  0  0  0  0  0  0  0  0  0  0
    0.1580   -3.5510    0.0000 C   0  0  0  0  0  0  0  0  0  0  0  0
    0.8910   -4.8600    0.0000 C   0  0  0  0  0  0  0  0  0  0  0  0
    2.3910   -4.8790    0.0000 N   0  0  0  0  0  0  0  0  0  0  0  0
    3.1240   -6.1870    0.0000 C   0  0  0  0  0  0  0  0  0  0  0  0
    4.6240   -6.2060    0.0000 C   0  0  0  0  0  0  0  0  0  0  0  0
    5.3910   -4.9170    0.0000 N   0  0  0  0  0  0  0  0  0  0  0  0
    6.8910   -4.9360    0.0000 C   0  0  0  0  0  0  0  0  0  0  0  0
    7.6240   -6.2440    0.0000 C   0  0  0  0  0  0  0  0  0  0  0  0
    9.1240   -6.2630    0.0000 C   0  0  0  0  0  0  0  0  0  0  0  0
    9.8900   -4.9740    0.0000 C   0  0  0  0  0  0  0  0  0  0  0  0
   11.3900   -4.9930    0.0000 O   0  0  0  0  0  0  0  0  0  0  0  0
    9.1570   -3.6650    0.0000 C   0  0  0  0  0  0  0  0  0  0  0  0
    7.6570   -3.6460    0.0000 C   0  0  0  0  0  0  0  0  0  0  0  0
    4.6570   -3.6080    0.0000 C   0  0  0  0  0  0  0  0  0  0  0  0
    3.1570   -3.5890    0.0000 C   0  0  0  0  0  0  0  0  0  0  0  0
    0.1250   -6.1490    0.0000 C   0  0  0  0  0  0  0  0  0  0  0  0
   -1.3750   -6.1300    0.0000 C   0  0  0  0  0  0  0  0  0  0  0  0
  1  2  2  0  0  0  0
  2  3  1  0  0  0  0
  2 10  1  0  0  0  0
  3  4  1  0  0  0  0
  3  8  1  0  0  0  0
  4  5  1  0  0  0  0
  4  7  1  0  0  0  0
  5  6  1  0  0  0  0
  8  9  2  0  0  0  0
  9 10  1  0  0  0  0
 10 11  1  0  0  0  0
 11 12  1  0  0  0  0
 11 29  2  0  0  0  0
 12 13  2  0  0  0  0
 13 14  1  0  0  0  0
 14 15  1  0  0  0  0
 14 28  2  0  0  0  0
 15 16  1  0  0  0  0
 15 27  1  0  0  0  0
 16 17  1  0  0  0  0
 17 18  1  0  0  0  0
 18 19  1  0  0  0  0
 18 26  1  0  0  0  0
 19 20  1  0  0  0  0
 19 25  2  0  0  0  0
 20 21  2  0  0  0  0
 21 22  1  0  0  0  0
 22 23  1  0  0  0  0
 22 24  2  0  0  0  0
 24 25  1  0  0  0  0
 26 27  1  0  0  0  0
 28 29  1  0  0  0  0
M  END
>  <name>
O=C1N(C(CC)C)N=CN1c1ccc(N2CCN(c3ccc([O;ether])cc3)CC2)cc1

>  <apo>
1

>  <freq>
1

>  <freq0>
0

>  <freq1>
1

>  <freqA>
0.99700278

>  <a_count>
56

$$$$

  MOE2015           2D

 31 35  0  0  1  0  0  0  0  0999 V2000
    0.4760    1.7750    0.0000 O   0  0  0  0  0  0  0  0  0  0  0  0
    1.7750    1.0250    0.0000 C   0  0  0  0  0  0  0  0  0  0  0  0
    1.7750   -0.4750    0.0000 N   0  0  0  0  0  0  0  0  0  0  0  0
    0.4760   -1.2250    0.0000 C   0  0  0  0  0  0  0  0  0  0  0  0
   -0.8230   -0.4750    0.0000 C   0  0  0  0  0  0  0  0  0  0  0  0
   -0.8230    1.0250    0.0000 N   0  0  0  0  0  0  0  0  0  0  0  0
   -2.1230    1.7750    0.0000 C   0  0  0  0  0  0  0  0  0  0  0  0
   -2.1230    3.2750    0.0000 C   0  0  0  0  0  0  0  0  0  0  0  0
   -3.4220    1.0250    0.0000 C   0  0  0  0  0  0  0  0  0  0  0  0
   -3.4220   -0.4750    0.0000 C   0  0  0  0  0  0  0  0  0  0  0  0
   -2.1230   -1.2250    0.0000 N   0  0  0  0  0  0  0  0  0  0  0  0
   -4.7210   -1.2250    0.0000 C   0  0  0  0  0  0  0  0  0  0  0  0
   -6.0200   -0.4750    0.0000 C   0  0  0  0  0  0  0  0  0  0  0  0
   -6.0200    1.0250    0.0000 C   0  0  0  0  0  0  0  0  0  0  0  0
   -4.7210    1.7750    0.0000 C   0  0  0  0  0  0  0  0  0  0  0  0
    3.0740   -1.2250    0.0000 C   0  0  0  0  0  0  0  0  0  0  0  0
    3.0740   -2.7250    0.0000 O   0  0  0  0  0  0  0  0  0  0  0  0
    4.3730   -0.4750    0.0000 C   0  0  0  0  0  0  0  0  0  0  0  0
    5.7990   -0.9390    0.0000 N   0  0  0  0  0  0  0  0  0  0  0  0
    6.6810    0.2750    0.0000 C   0  0  0  0  0  0  0  0  0  0  0  0
    8.1810    0.2750    0.0000 N   0  0  0  0  0  0  0  0  0  0  0  0
    8.9310   -1.0240    0.0000 C   0  0  0  0  0  0  0  0  0  0  0  0
   10.4310   -1.0240    0.0000 C   0  0  2  0  0  0  0  0  0  0  0  0
   11.1810   -2.3230    0.0000 N   0  3  0  0  0  0  0  0  0  0  0  0
   11.1810    0.2750    0.0000 C   0  0  0  0  0  0  0  0  0  0  0  0
   10.4310    1.5740    0.0000 C   0  0  0  0  0  0  0  0  0  0  0  0
    8.9310    1.5740    0.0000 C   0  0  0  0  0  0  0  0  0  0  0  0
    5.7990    1.4880    0.0000 N   0  0  0  0  0  0  0  0  0  0  0  0
    4.3730    1.0250    0.0000 C   0  0  0  0  0  0  0  0  0  0  0  0
    3.0740    1.7750    0.0000 N   0  0  0  0  0  0  0  0  0  0  0  0
    3.0740    3.2750    0.0000 C   0  0  0  0  0  0  0  0  0  0  0  0
  1  2  2  0  0  0  0
  2  3  1  0  0  0  0
  2 30  1  0  0  0  0
  3  4  1  0  0  0  0
  3 16  1  0  0  0  0
  4  5  1  0  0  0  0
  5  6  1  0  0  0  0
  5 11  2  0  0  0  0
  6  7  2  0  0  0  0
  7  8  1  0  0  0  0
  7  9  1  0  0  0  0
  9 10  1  0  0  0  0
  9 15  2  0  0  0  0
 10 11  1  0  0  0  0
 10 12  2  0  0  0  0
 12 13  1  0  0  0  0
 13 14  2  0  0  0  0
 14 15  1  0  0  0  0
 16 17  2  0  0  0  0
 16 18  1  0  0  0  0
 18 19  1  0  0  0  0
 18 29  2  0  0  0  0
 19 20  1  0  0  0  0
 20 21  1  0  0  0  0
 20 28  2  0  0  0  0
 21 22  1  0  0  0  0
 21 27  1  0  0  0  0
 22 23  1  0  0  0  0
 23 24  1  1  0  0  0
 23 25  1  0  0  0  0
 25 26  1  0  0  0  0
 26 27  1  0  0  0  0
 28 29  1  0  0  0  0
 29 30  1  0  0  0  0
 30 31  1  0  0  0  0
M  CHG  1  24   1
M  END
>  <name>
O=C1N(Cc2nc(C)c3c(n2)cccc3)C(=O)c2[nH;NaroC]c(N3C[C@H]([N+])CCC3)nc2N1C

>  <apo>
1

>  <freq>
1

>  <freq0>
0

>  <freq1>
1

>  <freqA>
0.99700278

>  <a_count>
56

$$$$

  MOE2015           2D

 25 26  0  0  1  0  0  0  0  0999 V2000
   -0.0900    0.0520    0.0000 O   0  0  0  0  0  0  0  0  0  0  0  0
   -0.8400    1.3510    0.0000 C   0  0  0  0  0  0  0  0  0  0  0  0
   -2.3400    1.3510    0.0000 O   0  0  0  0  0  0  0  0  0  0  0  0
   -3.0900    0.0520    0.0000 C   0  0  2  0  0  0  0  0  0  0  0  0
   -2.4800   -1.3180    0.0000 C   0  0  0  0  0  0  0  0  0  0  0  0
   -3.5950   -2.3220    0.0000 O   0  0  0  0  0  0  0  0  0  0  0  0
   -4.8940   -1.5720    0.0000 C   0  0  0  0  0  0  0  0  0  0  0  0
   -4.5820   -0.1050    0.0000 C   0  0  0  0  0  0  0  0  0  0  0  0
   -0.0900    2.6500    0.0000 N   0  0  0  0  0  0  0  0  0  0  0  0
    1.4100    2.6500    0.0000 C   0  0  2  0  0  0  0  0  0  0  0  0
    2.1600    1.3510    0.0000 C   0  0  2  0  0  0  0  0  0  0  0  0
    1.4100    0.0520    0.0000 O   0  0  0  0  0  0  0  0  0  0  0  0
    3.6600    1.3510    0.0000 C   0  0  0  0  0  0  0  0  0  0  0  0
    4.4100    0.0520    0.0000 N   0  0  0  0  0  0  0  0  0  0  0  0
    5.9100    0.0520    0.0000 C   0  0  0  0  0  0  0  0  0  0  0  0
    6.6600   -1.2470    0.0000 C   0  0  0  0  0  0  0  0  0  0  0  0
    5.9100   -2.5460    0.0000 C   0  0  0  0  0  0  0  0  0  0  0  0
    8.1600   -1.2470    0.0000 C   0  0  0  0  0  0  0  0  0  0  0  0
    2.1600    3.9490    0.0000 C   0  0  0  0  0  0  0  0  0  0  0  0
    1.4100    5.2480    0.0000 C   0  0  0  0  0  0  0  0  0  0  0  0
   -0.0900    5.2480    0.0000 C   0  0  0  0  0  0  0  0  0  0  0  0
   -0.8400    6.5470    0.0000 C   0  0  0  0  0  0  0  0  0  0  0  0
   -0.0900    7.8460    0.0000 C   0  0  0  0  0  0  0  0  0  0  0  0
    1.4100    7.8460    0.0000 C   0  0  0  0  0  0  0  0  0  0  0  0
    2.1600    6.5470    0.0000 C   0  0  0  0  0  0  0  0  0  0  0  0
  1  2  2  0  0  0  0
  2  3  1  0  0  0  0
  2  9  1  0  0  0  0
  4  3  1  6  0  0  0
  4  5  1  0  0  0  0
  4  8  1  0  0  0  0
  5  6  1  0  0  0  0
  6  7  1  0  0  0  0
  7  8  1  0  0  0  0
 10  9  1  1  0  0  0
 10 11  1  0  0  0  0
 10 19  1  0  0  0  0
 11 12  1  1  0  0  0
 11 13  1  0  0  0  0
 13 14  1  0  0  0  0
 14 15  1  0  0  0  0
 15 16  1  0  0  0  0
 16 17  1  0  0  0  0
 16 18  1  0  0  0  0
 19 20  1  0  0  0  0
 20 21  1  0  0  0  0
 20 25  2  0  0  0  0
 21 22  2  0  0  0  0
 22 23  1  0  0  0  0
 23 24  2  0  0  0  0
 24 25  1  0  0  0  0
M  END
>  <name>
O=C(O[C@@H]1COCC1)N[C@H]([C@H](O)C[N;so2amide]CC(C)C)Cc1ccccc1

>  <apo>
1

>  <freq>
1

>  <freq0>
0

>  <freq1>
1

>  <freqA>
0.99700278

>  <a_count>
55

$$$$

  MOE2015           2D

 32 39  0  0  1  0  0  0  0  0999 V2000
    6.6190   -7.1960    0.0000 O   0  0  0  0  0  0  0  0  0  0  0  0
    5.1890   -6.7430    0.0000 C   0  0  0  0  0  0  0  0  0  0  0  0
    3.9820   -7.6330    0.0000 N   0  0  0  0  0  0  0  0  0  0  0  0
    2.7620   -6.7600    0.0000 C   0  0  2  0  0  0  0  0  0  0  0  0
    1.3380   -7.2320    0.0000 O   0  0  0  0  0  0  0  0  0  0  0  0
    3.2180   -5.3300    0.0000 C   0  0  0  0  0  0  0  0  0  0  0  0
    2.4670   -4.0450    0.0000 C   0  0  0  0  0  0  0  0  0  0  0  0
    3.1940   -2.7230    0.0000 C   0  0  0  0  0  0  0  0  0  0  0  0
    2.0460   -1.6820    0.0000 N   0  0  0  0  0  0  0  0  0  0  0  0
    2.6240   -0.1260    0.0000 C   0  0  1  0  0  0  0  0  0  0  0  0
    1.1520    0.1600    0.0000 C   0  0  0  0  0  0  0  0  0  0  0  0
    3.9400   -0.8250    0.0000 O   0  0  0  0  0  0  0  0  0  0  0  0
    5.2460   -0.1130    0.0000 C   0  0  1  0  0  0  0  0  0  0  0  0
    5.8440   -1.6620    0.0000 N   0  0  0  0  0  0  0  0  0  0  0  0
    4.7070   -2.7150    0.0000 C   0  0  0  0  0  0  0  0  0  0  0  0
    5.4510   -4.0250    0.0000 C   0  0  0  0  0  0  0  0  0  0  0  0
    6.9160   -3.8160    0.0000 C   0  0  0  0  0  0  0  0  0  0  0  0
    7.1560   -2.3390    0.0000 C   0  0  0  0  0  0  0  0  0  0  0  0
    8.5570   -1.8040    0.0000 C   0  0  0  0  0  0  0  0  0  0  0  0
    9.7220   -2.7520    0.0000 C   0  0  0  0  0  0  0  0  0  0  0  0
    9.4820   -4.2330    0.0000 C   0  0  0  0  0  0  0  0  0  0  0  0
    8.0800   -4.7660    0.0000 C   0  0  0  0  0  0  0  0  0  0  0  0
    4.7150   -5.3200    0.0000 C   0  0  0  0  0  0  0  0  0  0  0  0
    5.2220    1.4000    0.0000 C   0  0  0  0  0  0  0  0  0  0  0  0
    3.9220    2.1490    0.0000 C   0  0  0  0  0  0  0  0  0  0  0  0
    2.6300    1.3870    0.0000 C   0  0  0  0  0  0  0  0  0  0  0  0
    0.7410   -2.3730    0.0000 C   0  0  0  0  0  0  0  0  0  0  0  0
    0.9990   -3.8510    0.0000 C   0  0  0  0  0  0  0  0  0  0  0  0
   -0.1510   -4.8130    0.0000 C   0  0  0  0  0  0  0  0  0  0  0  0
   -1.5600   -4.2980    0.0000 C   0  0  0  0  0  0  0  0  0  0  0  0
   -1.8190   -2.8170    0.0000 C   0  0  0  0  0  0  0  0  0  0  0  0
   -0.6680   -1.8540    0.0000 C   0  0  0  0  0  0  0  0  0  0  0  0
  1  2  2  0  0  0  0
  2  3  1  0  0  0  0
  2 23  1  0  0  0  0
  3  4  1  0  0  0  0
  4  5  1  6  0  0  0
  4  6  1  0  0  0  0
  6  7  1  0  0  0  0
  6 23  2  0  0  0  0
  7  8  2  0  0  0  0
  7 28  1  0  0  0  0
  8  9  1  0  0  0  0
  8 15  1  0  0  0  0
  9 10  1  0  0  0  0
  9 27  1  0  0  0  0
 10 11  1  1  0  0  0
 10 12  1  0  0  0  0
 10 26  1  0  0  0  0
 12 13  1  0  0  0  0
 13 14  1  6  0  0  0
 13 24  1  0  0  0  0
 14 15  1  0  0  0  0
 14 18  1  0  0  0  0
 15 16  2  0  0  0  0
 16 17  1  0  0  0  0
 16 23  1  0  0  0  0
 17 18  1  0  0  0  0
 17 22  2  0  0  0  0
 18 19  2  0  0  0  0
 19 20  1  0  0  0  0
 20 21  2  0  0  0  0
 21 22  1  0  0  0  0
 24 25  1  0  0  0  0
 25 26  1  0  0  0  0
 27 28  2  0  0  0  0
 27 32  1  0  0  0  0
 28 29  1  0  0  0  0
 29 30  2  0  0  0  0
 30 31  1  0  0  0  0
 31 32  2  0  0  0  0
M  END
>  <name>
O=C1N[C@H](O)c2c3c4n([C@@]5(C)O[C@@H](n6c4c(c4c6cccc4)c12)C[C;amine][C;ether]5)c1c3cccc1

>  <apo>
2

>  <freq>
1

>  <freq0>
0

>  <freq1>
1

>  <freqA>
0.99700278

>  <a_count>
53

$$$$

  MOE2015           2D

 21 24  0  0  1  0  0  0  0  0999 V2000
   -0.7040   -3.8680    0.0000 O   0  0  0  0  0  0  0  0  0  0  0  0
    0.4070   -2.8600    0.0000 C   0  0  1  0  0  0  0  0  0  0  0  0
    1.8750   -3.1660    0.0000 C   0  0  2  0  0  0  0  0  0  0  0  0
    1.0190   -4.3980    0.0000 C   0  0  0  0  0  0  0  0  0  0  0  0
    2.6200   -1.8650    0.0000 C   0  0  2  0  0  0  0  0  0  0  0  0
    4.1200   -1.8590    0.0000 C   0  0  1  0  0  0  0  0  0  0  0  0
    4.8750   -3.1550    0.0000 C   0  0  1  0  0  0  0  0  0  0  0  0
    6.3750   -3.1490    0.0000 C   0  0  2  0  0  0  0  0  0  0  0  0
    5.6300   -4.4510    0.0000 C   0  0  0  0  0  0  0  0  0  0  0  0
    7.1200   -1.8480    0.0000 C   0  0  2  0  0  0  0  0  0  0  0  0
    8.6200   -1.8420    0.0000 C   0  0  0  0  0  0  0  0  0  0  0  0
    9.3750   -3.1380    0.0000 C   0  0  1  0  0  0  0  0  0  0  0  0
   10.8750   -3.1320    0.0000 O   0  0  0  0  0  0  0  0  0  0  0  0
    8.6300   -4.4400    0.0000 C   0  0  0  0  0  0  0  0  0  0  0  0
    7.1300   -4.4460    0.0000 C   0  0  0  0  0  0  0  0  0  0  0  0
    6.3650   -0.5510    0.0000 C   0  0  0  0  0  0  0  0  0  0  0  0
    4.8650   -0.5570    0.0000 C   0  0  0  0  0  0  0  0  0  0  0  0
    4.1300   -4.4570    0.0000 C   0  0  0  0  0  0  0  0  0  0  0  0
    2.6300   -4.4630    0.0000 C   0  0  0  0  0  0  0  0  0  0  0  0
    1.6120   -0.7540    0.0000 C   0  0  0  0  0  0  0  0  0  0  0  0
    0.2440   -1.3690    0.0000 C   0  0  0  0  0  0  0  0  0  0  0  0
  2  1  1  6  0  0  0
  2  3  1  0  0  0  0
  2 21  1  0  0  0  0
  3  4  1  1  0  0  0
  3  5  1  0  0  0  0
  3 19  1  0  0  0  0
  5  6  1  0  0  0  0
  5 20  1  1  0  0  0
  6  7  1  0  0  0  0
  6 17  1  6  0  0  0
  7  8  1  0  0  0  0
  7 18  1  1  0  0  0
  8  9  1  1  0  0  0
  8 10  1  0  0  0  0
  8 15  1  0  0  0  0
 10 11  1  0  0  0  0
 10 16  1  1  0  0  0
 11 12  1  0  0  0  0
 12 13  1  1  0  0  0
 12 14  1  0  0  0  0
 14 15  1  0  0  0  0
 16 17  1  0  0  0  0
 18 19  1  0  0  0  0
 20 21  1  0  0  0  0
M  END
>  <name>
[O;ester][C@H]1[C@]2(C)[C@H]([C@H]3[C@@H]([C@]4(C)[C@H](C[C@@H](O)[C;amine]C4)CC3)CC2)C[C;quatN]1

>  <apo>
3

>  <freq>
1

>  <freq0>
0

>  <freq1>
1

>  <freqA>
0.99700278

>  <a_count>
53

$$$$

  MOE2015           2D

 29 30  0  0  1  0  0  0  0  0999 V2000
    0.4280    6.3620    0.0000 O   0  0  0  0  0  0  0  0  0  0  0  0
   -0.8710    5.6120    0.0000 C   0  0  0  0  0  0  0  0  0  0  0  0
   -2.1700    6.3620    0.0000 O   0  0  0  0  0  0  0  0  0  0  0  0
   -2.1700    7.8620    0.0000 C   0  0  0  0  0  0  0  0  0  0  0  0
   -3.6700    7.8620    0.0000 C   0  0  0  0  0  0  0  0  0  0  0  0
   -2.1700    9.3620    0.0000 C   0  0  0  0  0  0  0  0  0  0  0  0
   -0.6700    7.8620    0.0000 C   0  0  0  0  0  0  0  0  0  0  0  0
   -0.8710    4.1120    0.0000 N   0  0  0  0  0  0  0  0  0  0  0  0
    0.4280    3.3620    0.0000 C   0  0  2  0  0  0  0  0  0  0  0  0
    1.7270    4.1120    0.0000 C   0  0  0  0  0  0  0  0  0  0  0  0
    1.7270    5.6120    0.0000 O   0  0  0  0  0  0  0  0  0  0  0  0
    3.0260    3.3620    0.0000 N   0  0  0  0  0  0  0  0  0  0  0  0
    4.3250    4.1120    0.0000 N   0  5  0  0  0  0  0  0  0  0  0  0
    5.6240    3.3620    0.0000 C   0  0  0  0  0  0  0  0  0  0  0  0
    5.6240    1.8620    0.0000 O   0  0  0  0  0  0  0  0  0  0  0  0
    6.9230    4.1120    0.0000 O   0  0  0  0  0  0  0  0  0  0  0  0
    8.2220    3.3620    0.0000 C   0  0  0  0  0  0  0  0  0  0  0  0
    9.5210    4.1120    0.0000 C   0  0  0  0  0  0  0  0  0  0  0  0
   10.8200    3.3620    0.0000 O   0  0  0  0  0  0  0  0  0  0  0  0
    0.4280    1.8620    0.0000 C   0  0  0  0  0  0  0  0  0  0  0  0
   -0.8710    1.1120    0.0000 C   0  0  0  0  0  0  0  0  0  0  0  0
   -1.0280   -0.3800    0.0000 C   0  0  0  0  0  0  0  0  0  0  0  0
   -2.4950   -0.6920    0.0000 C   0  0  0  0  0  0  0  0  0  0  0  0
   -3.2450    0.6070    0.0000 N   0  0  0  0  0  0  0  0  0  0  0  0
   -2.2420    1.7220    0.0000 C   0  0  0  0  0  0  0  0  0  0  0  0
   -2.9590   -2.1190    0.0000 C   0  0  0  0  0  0  0  0  0  0  0  0
   -1.9550   -3.2330    0.0000 C   0  0  0  0  0  0  0  0  0  0  0  0
   -0.4880   -2.9220    0.0000 C   0  0  0  0  0  0  0  0  0  0  0  0
   -0.0240   -1.4950    0.0000 C   0  0  0  0  0  0  0  0  0  0  0  0
  1  2  2  0  0  0  0
  2  3  1  0  0  0  0
  2  8  1  0  0  0  0
  3  4  1  0  0  0  0
  4  5  1  0  0  0  0
  4  6  1  0  0  0  0
  4  7  1  0  0  0  0
  9  8  1  6  0  0  0
  9 10  1  0  0  0  0
  9 20  1  0  0  0  0
 10 11  2  0  0  0  0
 10 12  1  0  0  0  0
 12 13  1  0  0  0  0
 13 14  1  0  0  0  0
 14 15  2  0  0  0  0
 14 16  1  0  0  0  0
 16 17  1  0  0  0  0
 17 18  1  0  0  0  0
 18 19  2  0  0  0  0
 20 21  1  0  0  0  0
 21 22  1  0  0  0  0
 21 25  2  0  0  0  0
 22 23  2  0  0  0  0
 22 29  1  0  0  0  0
 23 24  1  0  0  0  0
 23 26  1  0  0  0  0
 24 25  1  0  0  0  0
 26 27  2  0  0  0  0
 27 28  1  0  0  0  0
 28 29  2  0  0  0  0
M  CHG  1  13  -1
M  END
>  <name>
O=C(OC(C)(C)C)N[C@H](C(=O)N[N-]C(=O)OC[C;amide]=O)Cc1c2c([nH]c1)cccc2

>  <apo>
1

>  <freq>
1

>  <freq0>
0

>  <freq1>
1

>  <freqA>
0.99700278

>  <a_count>
52

$$$$

  MOE2015           2D

 28 32  0  0  1  0  0  0  0  0999 V2000
   13.2650   -0.5100    0.0000 Br  0  0  0  0  0  0  0  0  0  0  0  0
   11.7650   -0.5140    0.0000 C   0  0  0  0  0  0  0  0  0  0  0  0
   10.9970    0.7650    0.0000 C   0  0  0  0  0  0  0  0  0  0  0  0
    9.5210    0.8090    0.0000 C   0  0  0  0  0  0  0  0  0  0  0  0
    8.7400   -0.5790    0.0000 C   0  0  0  0  0  0  0  0  0  0  0  0
    7.1970   -0.3930    0.0000 C   0  0  1  0  0  0  0  0  0  0  0  0
    6.0150   -1.2250    0.0000 C   0  0  2  0  0  0  0  0  0  0  0  0
    4.7450   -0.3730    0.0000 C   0  0  1  0  0  0  0  0  0  0  0  0
    5.1780    1.0430    0.0000 N   0  3  3  0  0  0  0  0  0  0  0  0
    4.7540    2.5050    0.0000 C   0  0  0  0  0  0  0  0  0  0  0  0
    6.6770    1.0960    0.0000 C   0  0  0  0  0  0  0  0  0  0  0  0
    3.6310    0.5930    0.0000 C   0  0  0  0  0  0  0  0  0  0  0  0
    3.1630    2.0350    0.0000 O   0  0  0  0  0  0  0  0  0  0  0  0
    2.3230   -0.1950    0.0000 N   0  0  0  0  0  0  0  0  0  0  0  0
    2.6720   -1.6440    0.0000 C   0  0  0  0  0  0  0  0  0  0  0  0
    4.1620   -1.7710    0.0000 C   0  0  0  0  0  0  0  0  0  0  0  0
    4.8090   -3.1180    0.0000 C   0  0  0  0  0  0  0  0  0  0  0  0
    3.9570   -4.3600    0.0000 C   0  0  0  0  0  0  0  0  0  0  0  0
    2.4630   -4.2350    0.0000 C   0  0  0  0  0  0  0  0  0  0  0  0
    1.8160   -2.8860    0.0000 C   0  0  0  0  0  0  0  0  0  0  0  0
    7.4490   -1.1430    0.0000 C   0  0  0  0  0  0  0  0  0  0  0  0
    8.1310    0.2790    0.0000 O   0  0  0  0  0  0  0  0  0  0  0  0
    8.3050   -2.3780    0.0000 C   0  0  0  0  0  0  0  0  0  0  0  0
    7.6360   -3.7340    0.0000 C   0  0  0  0  0  0  0  0  0  0  0  0
    6.1440   -3.8240    0.0000 N   0  0  0  0  0  0  0  0  0  0  0  0
    5.3000   -2.5940    0.0000 C   0  0  0  0  0  0  0  0  0  0  0  0
    9.4970   -1.7750    0.0000 C   0  0  0  0  0  0  0  0  0  0  0  0
   11.0210   -1.8280    0.0000 C   0  0  0  0  0  0  0  0  0  0  0  0
  1  2  1  0  0  0  0
  2  3  1  0  0  0  0
  2 28  2  0  0  0  0
  3  4  2  0  0  0  0
  4  5  1  0  0  0  0
  6  5  1  1  0  0  0
  5 27  2  0  0  0  0
  6  7  1  0  0  0  0
  6 11  1  0  0  0  0
  7  8  1  0  0  0  0
  7 21  1  1  0  0  0
  7 26  1  6  0  0  0
  8  9  1  1  0  0  0
  8 12  1  0  0  0  0
  8 16  1  0  0  0  0
  9 10  1  0  0  0  0
  9 11  1  0  0  0  0
 12 13  2  0  0  0  0
 12 14  1  0  0  0  0
 14 15  1  0  0  0  0
 15 16  2  0  0  0  0
 15 20  1  0  0  0  0
 16 17  1  0  0  0  0
 17 18  2  0  0  0  0
 18 19  1  0  0  0  0
 19 20  2  0  0  0  0
 21 22  2  0  0  0  0
 21 23  1  0  0  0  0
 23 24  1  0  0  0  0
 24 25  1  0  0  0  0
 25 26  1  0  0  0  0
 27 28  1  0  0  0  0
M  CHG  1   9   1
M  END
>  <name>
Brc1ccc([C@H]2[C@]3([C@@]4([N+](C)C2)C(=O)Nc2c4cccc2)C(=O)[C;olefin]C[N;so2amide]C3)cc1

>  <apo>
2

>  <freq>
1

>  <freq0>
0

>  <freq1>
1

>  <freqA>
0.99700278

>  <a_count>
51

$$$$

  MOE2015           2D

 29 33  0  0  1  0  0  0  0  0999 V2000
    2.3710   -1.1880    0.0000 Cl  0  0  0  0  0  0  0  0  0  0  0  0
    1.7510    0.1840    0.0000 C   0  0  0  0  0  0  0  0  0  0  0  0
    2.6390    1.4080    0.0000 C   0  0  0  0  0  0  0  0  0  0  0  0
    1.9700    2.7840    0.0000 C   0  0  0  0  0  0  0  0  0  0  0  0
    2.5620    4.1630    0.0000 C   0  0  1  0  0  0  0  0  0  0  0  0
    2.9900    2.6660    0.0000 N   0  3  3  0  0  0  0  0  0  0  0  0
    1.5860    1.8960    0.0000 C   0  0  0  0  0  0  0  0  0  0  0  0
    4.3820    2.6030    0.0000 C   0  0  0  0  0  0  0  0  0  0  0  0
    4.9960    4.0440    0.0000 C   0  0  1  0  0  0  0  0  0  0  0  0
    6.4880    3.9750    0.0000 C   0  0  0  0  0  0  0  0  0  0  0  0
    6.6520    2.4500    0.0000 C   0  0  0  0  0  0  0  0  0  0  0  0
    8.0030    1.8440    0.0000 C   0  0  0  0  0  0  0  0  0  0  0  0
    9.2400    2.6920    0.0000 C   0  0  0  0  0  0  0  0  0  0  0  0
   10.5960    2.0700    0.0000 F   0  0  0  0  0  0  0  0  0  0  0  0
    9.0910    4.1930    0.0000 C   0  0  0  0  0  0  0  0  0  0  0  0
    7.7300    4.8020    0.0000 C   0  0  0  0  0  0  0  0  0  0  0  0
    3.8410    4.9830    0.0000 C   0  0  1  0  0  0  0  0  0  0  0  0
    5.1290    5.7210    0.0000 C   0  0  0  0  0  0  0  0  0  0  0  0
    6.6170    5.5360    0.0000 O   0  0  0  0  0  0  0  0  0  0  0  0
    5.1380    7.2490    0.0000 C   0  0  0  0  0  0  0  0  0  0  0  0
    3.8620    7.9980    0.0000 C   0  0  0  0  0  0  0  0  0  0  0  0
    2.5610    7.2580    0.0000 N   0  0  0  0  0  0  0  0  0  0  0  0
    2.5420    5.7610    0.0000 C   0  0  0  0  0  0  0  0  0  0  0  0
    1.5200    5.1520    0.0000 C   0  0  0  0  0  0  0  0  0  0  0  0
    1.4670    6.6510    0.0000 O   0  0  0  0  0  0  0  0  0  0  0  0
    0.1460    4.3650    0.0000 N   0  0  0  0  0  0  0  0  0  0  0  0
    0.4910    2.9250    0.0000 C   0  0  0  0  0  0  0  0  0  0  0  0
   -0.3810    1.6790    0.0000 C   0  0  0  0  0  0  0  0  0  0  0  0
    0.2630    0.3330    0.0000 C   0  0  0  0  0  0  0  0  0  0  0  0
  1  2  1  0  0  0  0
  2  3  1  0  0  0  0
  2 29  2  0  0  0  0
  3  4  2  0  0  0  0
  4  5  1  0  0  0  0
  4 27  1  0  0  0  0
  5  6  1  1  0  0  0
  5 17  1  0  0  0  0
  5 24  1  0  0  0  0
  6  7  1  0  0  0  0
  6  8  1  0  0  0  0
  8  9  1  0  0  0  0
  9 10  1  6  0  0  0
  9 17  1  0  0  0  0
 10 11  1  0  0  0  0
 10 16  2  0  0  0  0
 11 12  2  0  0  0  0
 12 13  1  0  0  0  0
 13 14  1  0  0  0  0
 13 15  2  0  0  0  0
 15 16  1  0  0  0  0
 17 18  1  6  0  0  0
 17 23  1  1  0  0  0
 18 19  2  0  0  0  0
 18 20  1  0  0  0  0
 20 21  1  0  0  0  0
 21 22  1  0  0  0  0
 22 23  1  0  0  0  0
 24 25  2  0  0  0  0
 24 26  1  0  0  0  0
 26 27  1  0  0  0  0
 27 28  2  0  0  0  0
 28 29  1  0  0  0  0
M  CHG  1   6   1
M  END
>  <name>
Clc1cc2[C@]3([N+](C)C[C@@H](c4ccc(F)cc4)[C@]43C(=O)[C;olefin]C[N;so2amide]C4)C(=O)Nc2cc1

>  <apo>
2

>  <freq>
1

>  <freq0>
0

>  <freq1>
1

>  <freqA>
0.99700278

>  <a_count>
51

$$$$

  MOE2015           2D

 28 32  0  0  1  0  0  0  0  0999 V2000
    0.5150   -0.1540    0.0000 Cl  0  0  0  0  0  0  0  0  0  0  0  0
    0.6410    1.3460    0.0000 C   0  0  0  0  0  0  0  0  0  0  0  0
    2.0130    1.9830    0.0000 C   0  0  0  0  0  0  0  0  0  0  0  0
    2.0980    3.5100    0.0000 C   0  0  0  0  0  0  0  0  0  0  0  0
    3.2870    4.4260    0.0000 C   0  0  1  0  0  0  0  0  0  0  0  0
    2.9300    2.9100    0.0000 N   0  3  3  0  0  0  0  0  0  0  0  0
    1.3280    2.9230    0.0000 C   0  0  0  0  0  0  0  0  0  0  0  0
    4.1130    2.1760    0.0000 C   0  0  0  0  0  0  0  0  0  0  0  0
    5.3530    3.1340    0.0000 C   0  0  1  0  0  0  0  0  0  0  0  0
    6.6210    2.3450    0.0000 C   0  0  0  0  0  0  0  0  0  0  0  0
    6.0160    0.9340    0.0000 C   0  0  0  0  0  0  0  0  0  0  0  0
    6.8940   -0.2530    0.0000 C   0  0  0  0  0  0  0  0  0  0  0  0
    8.3920   -0.1250    0.0000 C   0  0  0  0  0  0  0  0  0  0  0  0
    8.9950    1.2610    0.0000 C   0  0  0  0  0  0  0  0  0  0  0  0
    8.1090    2.4550    0.0000 C   0  0  0  0  0  0  0  0  0  0  0  0
    4.8040    4.5170    0.0000 C   0  0  1  0  0  0  0  0  0  0  0  0
    6.2880    4.5330    0.0000 C   0  0  0  0  0  0  0  0  0  0  0  0
    7.4960    3.6440    0.0000 O   0  0  0  0  0  0  0  0  0  0  0  0
    7.0420    5.8620    0.0000 C   0  0  0  0  0  0  0  0  0  0  0  0
    6.2930    7.1390    0.0000 C   0  0  0  0  0  0  0  0  0  0  0  0
    4.7960    7.1280    0.0000 N   0  0  0  0  0  0  0  0  0  0  0  0
    4.0500    5.8310    0.0000 C   0  0  0  0  0  0  0  0  0  0  0  0
    2.8600    5.7970    0.0000 C   0  0  0  0  0  0  0  0  0  0  0  0
    3.5440    7.1320    0.0000 O   0  0  0  0  0  0  0  0  0  0  0  0
    1.2760    5.7790    0.0000 N   0  0  0  0  0  0  0  0  0  0  0  0
    0.8760    4.3530    0.0000 C   0  0  0  0  0  0  0  0  0  0  0  0
   -0.4920    3.6900    0.0000 C   0  0  0  0  0  0  0  0  0  0  0  0
   -0.5850    2.2010    0.0000 C   0  0  0  0  0  0  0  0  0  0  0  0
  1  2  1  0  0  0  0
  2  3  1  0  0  0  0
  2 28  2  0  0  0  0
  3  4  2  0  0  0  0
  4  5  1  0  0  0  0
  4 26  1  0  0  0  0
  5  6  1  1  0  0  0
  5 16  1  0  0  0  0
  5 23  1  0  0  0  0
  6  7  1  0  0  0  0
  6  8  1  0  0  0  0
  8  9  1  0  0  0  0
  9 10  1  6  0  0  0
  9 16  1  0  0  0  0
 10 11  1  0  0  0  0
 10 15  2  0  0  0  0
 11 12  2  0  0  0  0
 12 13  1  0  0  0  0
 13 14  2  0  0  0  0
 14 15  1  0  0  0  0
 16 17  1  6  0  0  0
 16 22  1  1  0  0  0
 17 18  2  0  0  0  0
 17 19  1  0  0  0  0
 19 20  1  0  0  0  0
 20 21  1  0  0  0  0
 21 22  1  0  0  0  0
 23 24  2  0  0  0  0
 23 25  1  0  0  0  0
 25 26  1  0  0  0  0
 26 27  2  0  0  0  0
 27 28  1  0  0  0  0
M  CHG  1   6   1
M  END
>  <name>
Clc1cc2[C@]3([N+](C)C[C@@H](c4ccccc4)[C@]43C(=O)[C;olefin]C[N;so2amide]C4)C(=O)Nc2cc1

>  <apo>
2

>  <freq>
1

>  <freq0>
0

>  <freq1>
1

>  <freqA>
0.99700278

>  <a_count>
51

$$$$

  MOE2015           2D

 28 32  0  0  1  0  0  0  0  0999 V2000
   13.2650   -0.5100    0.0000 Cl  0  0  0  0  0  0  0  0  0  0  0  0
   11.7650   -0.5140    0.0000 C   0  0  0  0  0  0  0  0  0  0  0  0
   10.9970    0.7650    0.0000 C   0  0  0  0  0  0  0  0  0  0  0  0
    9.5210    0.8090    0.0000 C   0  0  0  0  0  0  0  0  0  0  0  0
    8.7400   -0.5790    0.0000 C   0  0  0  0  0  0  0  0  0  0  0  0
    7.1970   -0.3930    0.0000 C   0  0  1  0  0  0  0  0  0  0  0  0
    6.0150   -1.2250    0.0000 C   0  0  2  0  0  0  0  0  0  0  0  0
    4.7450   -0.3730    0.0000 C   0  0  1  0  0  0  0  0  0  0  0  0
    5.1780    1.0430    0.0000 N   0  3  3  0  0  0  0  0  0  0  0  0
    4.7540    2.5050    0.0000 C   0  0  0  0  0  0  0  0  0  0  0  0
    6.6770    1.0960    0.0000 C   0  0  0  0  0  0  0  0  0  0  0  0
    3.6310    0.5930    0.0000 C   0  0  0  0  0  0  0  0  0  0  0  0
    3.1630    2.0350    0.0000 O   0  0  0  0  0  0  0  0  0  0  0  0
    2.3230   -0.1950    0.0000 N   0  0  0  0  0  0  0  0  0  0  0  0
    2.6720   -1.6440    0.0000 C   0  0  0  0  0  0  0  0  0  0  0  0
    4.1620   -1.7710    0.0000 C   0  0  0  0  0  0  0  0  0  0  0  0
    4.8090   -3.1180    0.0000 C   0  0  0  0  0  0  0  0  0  0  0  0
    3.9570   -4.3600    0.0000 C   0  0  0  0  0  0  0  0  0  0  0  0
    2.4630   -4.2350    0.0000 C   0  0  0  0  0  0  0  0  0  0  0  0
    1.8160   -2.8860    0.0000 C   0  0  0  0  0  0  0  0  0  0  0  0
    7.4490   -1.1430    0.0000 C   0  0  0  0  0  0  0  0  0  0  0  0
    8.1310    0.2790    0.0000 O   0  0  0  0  0  0  0  0  0  0  0  0
    8.3050   -2.3780    0.0000 C   0  0  0  0  0  0  0  0  0  0  0  0
    7.6360   -3.7340    0.0000 C   0  0  0  0  0  0  0  0  0  0  0  0
    6.1440   -3.8240    0.0000 N   0  0  0  0  0  0  0  0  0  0  0  0
    5.3000   -2.5940    0.0000 C   0  0  0  0  0  0  0  0  0  0  0  0
    9.4970   -1.7750    0.0000 C   0  0  0  0  0  0  0  0  0  0  0  0
   11.0210   -1.8280    0.0000 C   0  0  0  0  0  0  0  0  0  0  0  0
  1  2  1  0  0  0  0
  2  3  1  0  0  0  0
  2 28  2  0  0  0  0
  3  4  2  0  0  0  0
  4  5  1  0  0  0  0
  6  5  1  1  0  0  0
  5 27  2  0  0  0  0
  6  7  1  0  0  0  0
  6 11  1  0  0  0  0
  7  8  1  0  0  0  0
  7 21  1  1  0  0  0
  7 26  1  6  0  0  0
  8  9  1  1  0  0  0
  8 12  1  0  0  0  0
  8 16  1  0  0  0  0
  9 10  1  0  0  0  0
  9 11  1  0  0  0  0
 12 13  2  0  0  0  0
 12 14  1  0  0  0  0
 14 15  1  0  0  0  0
 15 16  2  0  0  0  0
 15 20  1  0  0  0  0
 16 17  1  0  0  0  0
 17 18  2  0  0  0  0
 18 19  1  0  0  0  0
 19 20  2  0  0  0  0
 21 22  2  0  0  0  0
 21 23  1  0  0  0  0
 23 24  1  0  0  0  0
 24 25  1  0  0  0  0
 25 26  1  0  0  0  0
 27 28  1  0  0  0  0
M  CHG  1   9   1
M  END
>  <name>
Clc1ccc([C@H]2[C@]3([C@@]4([N+](C)C2)C(=O)Nc2c4cccc2)C(=O)[C;olefin]C[N;so2amide]C3)cc1

>  <apo>
2

>  <freq>
1

>  <freq0>
0

>  <freq1>
1

>  <freqA>
0.99700278

>  <a_count>
51

$$$$

  MOE2015           2D

 28 32  0  0  1  0  0  0  0  0999 V2000
   13.2650   -0.5100    0.0000 F   0  0  0  0  0  0  0  0  0  0  0  0
   11.7650   -0.5140    0.0000 C   0  0  0  0  0  0  0  0  0  0  0  0
   10.9970    0.7650    0.0000 C   0  0  0  0  0  0  0  0  0  0  0  0
    9.5210    0.8090    0.0000 C   0  0  0  0  0  0  0  0  0  0  0  0
    8.7400   -0.5790    0.0000 C   0  0  0  0  0  0  0  0  0  0  0  0
    7.1970   -0.3930    0.0000 C   0  0  1  0  0  0  0  0  0  0  0  0
    6.0150   -1.2250    0.0000 C   0  0  2  0  0  0  0  0  0  0  0  0
    4.7450   -0.3730    0.0000 C   0  0  1  0  0  0  0  0  0  0  0  0
    5.1780    1.0430    0.0000 N   0  3  3  0  0  0  0  0  0  0  0  0
    4.7540    2.5050    0.0000 C   0  0  0  0  0  0  0  0  0  0  0  0
    6.6770    1.0960    0.0000 C   0  0  0  0  0  0  0  0  0  0  0  0
    3.6310    0.5930    0.0000 C   0  0  0  0  0  0  0  0  0  0  0  0
    3.1630    2.0350    0.0000 O   0  0  0  0  0  0  0  0  0  0  0  0
    2.3230   -0.1950    0.0000 N   0  0  0  0  0  0  0  0  0  0  0  0
    2.6720   -1.6440    0.0000 C   0  0  0  0  0  0  0  0  0  0  0  0
    4.1620   -1.7710    0.0000 C   0  0  0  0  0  0  0  0  0  0  0  0
    4.8090   -3.1180    0.0000 C   0  0  0  0  0  0  0  0  0  0  0  0
    3.9570   -4.3600    0.0000 C   0  0  0  0  0  0  0  0  0  0  0  0
    2.4630   -4.2350    0.0000 C   0  0  0  0  0  0  0  0  0  0  0  0
    1.8160   -2.8860    0.0000 C   0  0  0  0  0  0  0  0  0  0  0  0
    7.4490   -1.1430    0.0000 C   0  0  0  0  0  0  0  0  0  0  0  0
    8.1310    0.2790    0.0000 O   0  0  0  0  0  0  0  0  0  0  0  0
    8.3050   -2.3780    0.0000 C   0  0  0  0  0  0  0  0  0  0  0  0
    7.6360   -3.7340    0.0000 C   0  0  0  0  0  0  0  0  0  0  0  0
    6.1440   -3.8240    0.0000 N   0  0  0  0  0  0  0  0  0  0  0  0
    5.3000   -2.5940    0.0000 C   0  0  0  0  0  0  0  0  0  0  0  0
    9.4970   -1.7750    0.0000 C   0  0  0  0  0  0  0  0  0  0  0  0
   11.0210   -1.8280    0.0000 C   0  0  0  0  0  0  0  0  0  0  0  0
  1  2  1  0  0  0  0
  2  3  1  0  0  0  0
  2 28  2  0  0  0  0
  3  4  2  0  0  0  0
  4  5  1  0  0  0  0
  6  5  1  1  0  0  0
  5 27  2  0  0  0  0
  6  7  1  0  0  0  0
  6 11  1  0  0  0  0
  7  8  1  0  0  0  0
  7 21  1  1  0  0  0
  7 26  1  6  0  0  0
  8  9  1  1  0  0  0
  8 12  1  0  0  0  0
  8 16  1  0  0  0  0
  9 10  1  0  0  0  0
  9 11  1  0  0  0  0
 12 13  2  0  0  0  0
 12 14  1  0  0  0  0
 14 15  1  0  0  0  0
 15 16  2  0  0  0  0
 15 20  1  0  0  0  0
 16 17  1  0  0  0  0
 17 18  2  0  0  0  0
 18 19  1  0  0  0  0
 19 20  2  0  0  0  0
 21 22  2  0  0  0  0
 21 23  1  0  0  0  0
 23 24  1  0  0  0  0
 24 25  1  0  0  0  0
 25 26  1  0  0  0  0
 27 28  1  0  0  0  0
M  CHG  1   9   1
M  END
>  <name>
Fc1ccc([C@H]2[C@]3([C@@]4([N+](C)C2)C(=O)Nc2c4cccc2)C(=O)[C;olefin]C[N;so2amide]C3)cc1

>  <apo>
2

>  <freq>
1

>  <freq0>
0

>  <freq1>
1

>  <freqA>
0.99700278

>  <a_count>
51

$$$$

  MOE2015           2D

 27 31  0  0  1  0  0  0  0  0999 V2000
   -0.1690    0.2740    0.0000 O   0  0  0  0  0  0  0  0  0  0  0  0
   -0.1110   -1.2250    0.0000 C   0  0  0  0  0  0  0  0  0  0  0  0
    0.9320   -2.2100    0.0000 C   0  0  2  0  0  0  0  0  0  0  0  0
    1.3600   -3.7110    0.0000 N   0  3  3  0  0  0  0  0  0  0  0  0
   -0.0430   -4.4840    0.0000 C   0  0  0  0  0  0  0  0  0  0  0  0
    2.7500   -3.7740    0.0000 C   0  0  0  0  0  0  0  0  0  0  0  0
    3.3650   -2.3330    0.0000 C   0  0  1  0  0  0  0  0  0  0  0  0
    4.8570   -2.4050    0.0000 C   0  0  0  0  0  0  0  0  0  0  0  0
    5.0120   -3.9340    0.0000 C   0  0  0  0  0  0  0  0  0  0  0  0
    6.3540   -4.5460    0.0000 C   0  0  0  0  0  0  0  0  0  0  0  0
    7.6030   -3.7080    0.0000 C   0  0  0  0  0  0  0  0  0  0  0  0
    7.4590   -2.2040    0.0000 C   0  0  0  0  0  0  0  0  0  0  0  0
    6.1040   -1.5880    0.0000 C   0  0  0  0  0  0  0  0  0  0  0  0
    2.2110   -1.3930    0.0000 C   0  0  1  0  0  0  0  0  0  0  0  0
    3.5000   -0.6560    0.0000 C   0  0  0  0  0  0  0  0  0  0  0  0
    4.9880   -0.8440    0.0000 O   0  0  0  0  0  0  0  0  0  0  0  0
    3.5110    0.8720    0.0000 C   0  0  0  0  0  0  0  0  0  0  0  0
    2.2350    1.6230    0.0000 C   0  0  0  0  0  0  0  0  0  0  0  0
    0.9340    0.8830    0.0000 N   0  0  0  0  0  0  0  0  0  0  0  0
    0.9130   -0.6130    0.0000 C   0  0  0  0  0  0  0  0  0  0  0  0
    0.3450   -3.5920    0.0000 C   0  0  0  0  0  0  0  0  0  0  0  0
   -1.1340   -3.4560    0.0000 C   0  0  0  0  0  0  0  0  0  0  0  0
   -1.4840   -2.0170    0.0000 N   0  0  0  0  0  0  0  0  0  0  0  0
   -1.9990   -4.7060    0.0000 C   0  0  0  0  0  0  0  0  0  0  0  0
   -1.3450   -6.0490    0.0000 C   0  0  0  0  0  0  0  0  0  0  0  0
    0.1410   -6.1880    0.0000 C   0  0  0  0  0  0  0  0  0  0  0  0
    1.0230   -4.9580    0.0000 C   0  0  0  0  0  0  0  0  0  0  0  0
  1  2  2  0  0  0  0
  2  3  1  0  0  0  0
  2 23  1  0  0  0  0
  3  4  1  1  0  0  0
  3 14  1  0  0  0  0
  3 21  1  0  0  0  0
  4  5  1  0  0  0  0
  4  6  1  0  0  0  0
  6  7  1  0  0  0  0
  7  8  1  6  0  0  0
  7 14  1  0  0  0  0
  8  9  1  0  0  0  0
  8 13  2  0  0  0  0
  9 10  2  0  0  0  0
 10 11  1  0  0  0  0
 11 12  2  0  0  0  0
 12 13  1  0  0  0  0
 14 15  1  6  0  0  0
 14 20  1  1  0  0  0
 15 16  2  0  0  0  0
 15 17  1  0  0  0  0
 17 18  1  0  0  0  0
 18 19  1  0  0  0  0
 19 20  1  0  0  0  0
 21 22  2  0  0  0  0
 21 27  1  0  0  0  0
 22 23  1  0  0  0  0
 22 24  1  0  0  0  0
 24 25  2  0  0  0  0
 25 26  1  0  0  0  0
 26 27  2  0  0  0  0
M  CHG  1   4   1
M  END
>  <name>
O=C1[C@@]2([N+](C)C[C@@H](c3ccccc3)[C@]32C(=O)[C;olefin]C[N;so2amide]C3)c2c(N1)cccc2

>  <apo>
2

>  <freq>
1

>  <freq0>
0

>  <freq1>
1

>  <freqA>
0.99700278

>  <a_count>
51

$$$$

  MOE2015           2D

 28 30  0  0  1  0  0  0  0  0999 V2000
   -0.3030   -6.3920    0.0000 O   0  0  0  0  0  0  0  0  0  0  0  0
    0.4470   -5.0930    0.0000 N   0  3  0  0  0  0  0  0  0  0  0  0
   -0.3030   -3.7940    0.0000 O   0  5  0  0  0  0  0  0  0  0  0  0
    1.9470   -5.0930    0.0000 C   0  0  0  0  0  0  0  0  0  0  0  0
    2.6970   -3.7940    0.0000 C   0  0  0  0  0  0  0  0  0  0  0  0
    4.1970   -3.7940    0.0000 C   0  0  0  0  0  0  0  0  0  0  0  0
    4.9470   -2.4950    0.0000 C   0  0  3  0  0  0  0  0  0  0  0  0
    4.1970   -1.1960    0.0000 C   0  0  0  0  0  0  0  0  0  0  0  0
    2.6970   -1.1960    0.0000 C   0  0  0  0  0  0  0  0  0  0  0  0
    1.9470    0.1030    0.0000 O   0  0  0  0  0  0  0  0  0  0  0  0
    4.9470    0.1030    0.0000 C   0  0  0  0  0  0  0  0  0  0  0  0
    4.1970    1.4020    0.0000 C   0  0  0  0  0  0  0  0  0  0  0  0
    6.4470    0.1030    0.0000 N   0  0  0  0  0  0  0  0  0  0  0  0
    7.1970   -1.1960    0.0000 C   0  0  0  0  0  0  0  0  0  0  0  0
    8.6970   -1.1960    0.0000 C   0  0  0  0  0  0  0  0  0  0  0  0
    6.4470   -2.4950    0.0000 C   0  0  0  0  0  0  0  0  0  0  0  0
    7.1970   -3.7940    0.0000 P   0  0  0  0  0  0  0  0  0  0  0  0
    5.6970   -3.7940    0.0000 O   0  0  0  0  0  0  0  0  0  0  0  0
    8.4960   -3.0440    0.0000 O   0  0  0  0  0  0  0  0  0  0  0  0
    9.7950   -3.7940    0.0000 C   0  0  0  0  0  0  0  0  0  0  0  0
    9.7950   -5.2940    0.0000 C   0  0  0  0  0  0  0  0  0  0  0  0
   11.2950   -5.2940    0.0000 C   0  0  0  0  0  0  0  0  0  0  0  0
   10.5450   -6.5930    0.0000 C   0  0  0  0  0  0  0  0  0  0  0  0
    8.4960   -6.0440    0.0000 C   0  0  0  0  0  0  0  0  0  0  0  0
    7.1970   -5.2940    0.0000 O   0  0  0  0  0  0  0  0  0  0  0  0
    4.9470   -5.0930    0.0000 C   0  0  0  0  0  0  0  0  0  0  0  0
    4.1970   -6.3920    0.0000 C   0  0  0  0  0  0  0  0  0  0  0  0
    2.6970   -6.3920    0.0000 C   0  0  0  0  0  0  0  0  0  0  0  0
  1  2  2  0  0  0  0
  2  3  1  0  0  0  0
  2  4  1  0  0  0  0
  4  5  1  0  0  0  0
  4 28  2  0  0  0  0
  5  6  2  0  0  0  0
  6  7  1  0  0  0  0
  6 26  1  0  0  0  0
  7  8  1  0  0  0  0
  7 16  1  0  0  0  0
  8  9  1  0  0  0  0
  8 11  2  0  0  0  0
  9 10  2  0  0  0  0
 11 12  1  0  0  0  0
 11 13  1  0  0  0  0
 13 14  1  0  0  0  0
 14 15  1  0  0  0  0
 14 16  2  0  0  0  0
 16 17  1  0  0  0  0
 17 18  2  0  0  0  0
 17 19  1  0  0  0  0
 17 25  1  0  0  0  0
 19 20  1  0  0  0  0
 20 21  1  0  0  0  0
 21 22  1  0  0  0  0
 21 23  1  0  0  0  0
 21 24  1  0  0  0  0
 24 25  1  0  0  0  0
 26 27  2  0  0  0  0
 27 28  1  0  0  0  0
M  CHG  1   2   1
M  CHG  1   3  -1
M  END
>  <name>
O=[N+]([O-])c1cc(C2C([C;ester]=O)=C(C)NC(C)=C2P2(=O)OCC(C)(C)CO2)ccc1

>  <apo>
1

>  <freq>
1

>  <freq0>
0

>  <freq1>
1

>  <freqA>
0.99700278

>  <a_count>
51

$$$$

  MOE2015           2D

 28 31  0  0  1  0  0  0  0  0999 V2000
    5.2870    3.6810    0.0000 O   0  0  0  0  0  0  0  0  0  0  0  0
    5.2870    2.1810    0.0000 C   0  0  0  0  0  0  0  0  0  0  0  0
    3.9880    1.4310    0.0000 C   0  0  0  0  0  0  0  0  0  0  0  0
    2.6890    2.1810    0.0000 C   0  0  0  0  0  0  0  0  0  0  0  0
    2.6890    3.6810    0.0000 O   0  0  0  0  0  0  0  0  0  0  0  0
    1.3900    1.4310    0.0000 C   0  0  0  0  0  0  0  0  0  0  0  0
    1.3900   -0.0690    0.0000 C   0  0  0  0  0  0  0  0  0  0  0  0
    0.0910   -0.8190    0.0000 O   0  0  0  0  0  0  0  0  0  0  0  0
    0.0910   -2.3190    0.0000 C   0  0  1  0  0  0  0  0  0  0  0  0
   -0.6590   -3.6180    0.0000 C   0  0  0  0  0  0  0  0  0  0  0  0
    0.0910   -4.9170    0.0000 C   0  0  0  0  0  0  0  0  0  0  0  0
   -0.6590   -6.2160    0.0000 C   0  0  0  0  0  0  0  0  0  0  0  0
   -1.4090   -2.3190    0.0000 C   0  0  0  0  0  0  0  0  0  0  0  0
    1.3900   -3.0690    0.0000 C   0  0  0  0  0  0  0  0  0  0  0  0
    2.6890   -2.3190    0.0000 C   0  0  0  0  0  0  0  0  0  0  0  0
    2.6890   -0.8190    0.0000 C   0  0  0  0  0  0  0  0  0  0  0  0
    3.9880   -0.0690    0.0000 C   0  0  0  0  0  0  0  0  0  0  0  0
    5.2870   -0.8190    0.0000 O   0  0  0  0  0  0  0  0  0  0  0  0
    6.5860   -0.0690    0.0000 C   0  0  1  0  0  0  0  0  0  0  0  0
    7.8850   -0.8190    0.0000 C   0  0  0  0  0  0  0  0  0  0  0  0
    9.1840   -0.0690    0.0000 C   0  0  0  0  0  0  0  0  0  0  0  0
    9.1840    1.4310    0.0000 O   0  0  0  0  0  0  0  0  0  0  0  0
   10.4830   -0.8190    0.0000 C   0  0  0  0  0  0  0  0  0  0  0  0
   10.4830   -2.3190    0.0000 C   0  0  0  0  0  0  0  0  0  0  0  0
   11.7820   -3.0690    0.0000 O   0  0  0  0  0  0  0  0  0  0  0  0
    9.1840   -3.0690    0.0000 C   0  0  0  0  0  0  0  0  0  0  0  0
    7.8850   -2.3190    0.0000 C   0  0  0  0  0  0  0  0  0  0  0  0
    6.5860    1.4310    0.0000 C   0  0  0  0  0  0  0  0  0  0  0  0
  1  2  2  0  0  0  0
  2  3  1  0  0  0  0
  2 28  1  0  0  0  0
  3  4  1  0  0  0  0
  3 17  2  0  0  0  0
  4  5  1  0  0  0  0
  4  6  2  0  0  0  0
  6  7  1  0  0  0  0
  7  8  1  0  0  0  0
  7 16  2  0  0  0  0
  8  9  1  0  0  0  0
  9 10  1  1  0  0  0
  9 13  1  6  0  0  0
  9 14  1  0  0  0  0
 10 11  1  0  0  0  0
 11 12  1  0  0  0  0
 14 15  2  0  0  0  0
 15 16  1  0  0  0  0
 16 17  1  0  0  0  0
 17 18  1  0  0  0  0
 18 19  1  0  0  0  0
 19 20  1  6  0  0  0
 19 28  1  0  0  0  0
 20 21  2  0  0  0  0
 20 27  1  0  0  0  0
 21 22  1  0  0  0  0
 21 23  1  0  0  0  0
 23 24  2  0  0  0  0
 24 25  1  0  0  0  0
 24 26  1  0  0  0  0
 26 27  2  0  0  0  0
M  END
>  <name>
O=C1c2c(O)cc3O[C@@](CC[C;olefin])(C)C=Cc3c2O[C@@H](c2c(O)cc(O)cc2)C1

>  <apo>
1

>  <freq>
1

>  <freq0>
0

>  <freq1>
1

>  <freqA>
0.99700278

>  <a_count>
50

$$$$

  MOE2015           2D

 27 29  0  0  1  0  0  0  0  0999 V2000
    5.2650    5.2650    0.0000 O   0  0  0  0  0  0  0  0  0  0  0  0
    5.2650    3.7650    0.0000 C   0  0  0  0  0  0  0  0  0  0  0  0
    6.5640    3.0150    0.0000 C   0  0  1  0  0  0  0  0  0  0  0  0
    6.5640    1.5150    0.0000 O   0  0  0  0  0  0  0  0  0  0  0  0
    7.8630    3.7650    0.0000 C   0  0  2  0  0  0  0  0  0  0  0  0
    9.1620    3.0150    0.0000 O   0  0  0  0  0  0  0  0  0  0  0  0
    7.8630    5.2650    0.0000 C   0  0  0  0  0  0  0  0  0  0  0  0
    3.9660    3.0150    0.0000 C   0  0  0  0  0  0  0  0  0  0  0  0
    2.6670    3.7650    0.0000 C   0  0  2  0  0  0  0  0  0  0  0  0
    2.6670    5.2650    0.0000 C   0  0  0  0  0  0  0  0  0  0  0  0
    1.3680    6.0150    0.0000 C   0  0  0  0  0  0  0  0  0  0  0  0
    1.3680    7.5150    0.0000 O   0  0  0  0  0  0  0  0  0  0  0  0
    0.0690    5.2650    0.0000 C   0  0  0  0  0  0  0  0  0  0  0  0
   -1.2300    6.0150    0.0000 C   0  0  0  0  0  0  0  0  0  0  0  0
   -1.2300    7.5150    0.0000 O   0  0  0  0  0  0  0  0  0  0  0  0
   -2.5290    5.2650    0.0000 C   0  0  0  0  0  0  0  0  0  0  0  0
   -3.8280    6.0150    0.0000 C   0  0  0  0  0  0  0  0  0  0  0  0
   -3.8280    7.5150    0.0000 O   0  0  0  0  0  0  0  0  0  0  0  0
   -5.1270    5.2650    0.0000 C   0  0  0  0  0  0  0  0  0  0  0  0
   -6.4260    6.0150    0.0000 C   0  0  0  0  0  0  0  0  0  0  0  0
   -5.1270    3.7650    0.0000 C   0  0  0  0  0  0  0  0  0  0  0  0
   -6.4260    3.0150    0.0000 O   0  0  0  0  0  0  0  0  0  0  0  0
   -3.8280    3.0150    0.0000 C   0  0  0  0  0  0  0  0  0  0  0  0
   -2.5290    3.7650    0.0000 C   0  0  0  0  0  0  0  0  0  0  0  0
   -1.2300    3.0150    0.0000 C   0  0  0  0  0  0  0  0  0  0  0  0
    0.0690    3.7650    0.0000 C   0  0  0  0  0  0  0  0  0  0  0  0
    1.3680    3.0150    0.0000 C   0  0  0  0  0  0  0  0  0  0  0  0
  1  2  2  0  0  0  0
  2  3  1  0  0  0  0
  2  8  1  0  0  0  0
  3  4  1  6  0  0  0
  3  5  1  0  0  0  0
  5  6  1  1  0  0  0
  5  7  1  0  0  0  0
  9  8  1  1  0  0  0
  9 10  1  0  0  0  0
  9 27  1  0  0  0  0
 10 11  1  0  0  0  0
 11 12  2  0  0  0  0
 11 13  1  0  0  0  0
 13 14  2  0  0  0  0
 13 26  1  0  0  0  0
 14 15  1  0  0  0  0
 14 16  1  0  0  0  0
 16 17  2  0  0  0  0
 16 24  1  0  0  0  0
 17 18  1  0  0  0  0
 17 19  1  0  0  0  0
 19 20  1  0  0  0  0
 19 21  2  0  0  0  0
 21 22  1  0  0  0  0
 21 23  1  0  0  0  0
 23 24  2  0  0  0  0
 24 25  1  0  0  0  0
 25 26  2  0  0  0  0
 26 27  1  0  0  0  0
M  END
>  <name>
O=C([C@@H](O)[C@H](O)C)[C;ether][C@@H]1[C;ether]C(=O)c2c(O)c3c(O)c(C)c([O;ether])cc3cc2C1

>  <apo>
3

>  <freq>
1

>  <freq0>
0

>  <freq1>
1

>  <freqA>
0.99700278

>  <a_count>
49

$$$$

  MOE2015           2D

 27 30  0  0  0  0  0  0  0  0999 V2000
    2.5180    2.5180    0.0000 O   0  0  0  0  0  0  0  0  0  0  0  0
    2.5180    1.0180    0.0000 C   0  0  0  0  0  0  0  0  0  0  0  0
    3.8170    0.2680    0.0000 N   0  0  0  0  0  0  0  0  0  0  0  0
    5.1160    1.0180    0.0000 C   0  0  0  0  0  0  0  0  0  0  0  0
    6.4150    0.2680    0.0000 C   0  0  0  0  0  0  0  0  0  0  0  0
    7.7140    1.0180    0.0000 C   0  0  0  0  0  0  0  0  0  0  0  0
    9.0130    0.2680    0.0000 C   0  0  0  0  0  0  0  0  0  0  0  0
   10.3120    1.0180    0.0000 C   0  0  0  0  0  0  0  0  0  0  0  0
    3.8170   -1.2320    0.0000 C   0  0  0  0  0  0  0  0  0  0  0  0
    5.1160   -1.9820    0.0000 O   0  0  0  0  0  0  0  0  0  0  0  0
    2.5180   -1.9820    0.0000 C   0  0  0  0  0  0  0  0  0  0  0  0
    1.2190   -1.2320    0.0000 C   0  0  0  0  0  0  0  0  0  0  0  0
    1.2190    0.2680    0.0000 N   0  0  0  0  0  0  0  0  0  0  0  0
   -0.0800    1.0180    0.0000 C   0  0  0  0  0  0  0  0  0  0  0  0
   -0.0800    2.5180    0.0000 C   0  0  0  0  0  0  0  0  0  0  0  0
   -1.3790    3.2680    0.0000 C   0  0  0  0  0  0  0  0  0  0  0  0
   -2.6780    2.5180    0.0000 C   0  0  0  0  0  0  0  0  0  0  0  0
   -2.6780    1.0180    0.0000 C   0  0  0  0  0  0  0  0  0  0  0  0
   -1.3790    0.2680    0.0000 C   0  0  0  0  0  0  0  0  0  0  0  0
   -1.3790   -1.2320    0.0000 C   0  0  0  0  0  0  0  0  0  0  0  0
   -2.6780   -1.9820    0.0000 C   0  0  0  0  0  0  0  0  0  0  0  0
   -3.9770   -1.2320    0.0000 C   0  0  0  0  0  0  0  0  0  0  0  0
   -3.9770    0.2680    0.0000 C   0  0  0  0  0  0  0  0  0  0  0  0
   -1.3790    4.7680    0.0000 C   0  0  0  0  0  0  0  0  0  0  0  0
   -0.0800    5.5180    0.0000 C   0  0  0  0  0  0  0  0  0  0  0  0
    1.2190    4.7680    0.0000 C   0  0  0  0  0  0  0  0  0  0  0  0
    1.2190    3.2680    0.0000 C   0  0  0  0  0  0  0  0  0  0  0  0
  1  2  2  0  0  0  0
  2  3  1  0  0  0  0
  2 13  1  0  0  0  0
  3  4  1  0  0  0  0
  3  9  1  0  0  0  0
  4  5  1  0  0  0  0
  5  6  1  0  0  0  0
  6  7  1  0  0  0  0
  7  8  1  0  0  0  0
  9 10  2  0  0  0  0
  9 11  1  0  0  0  0
 11 12  2  0  0  0  0
 12 13  1  0  0  0  0
 13 14  1  0  0  0  0
 14 15  2  0  0  0  0
 14 19  1  0  0  0  0
 15 16  1  0  0  0  0
 15 27  1  0  0  0  0
 16 17  2  0  0  0  0
 16 24  1  0  0  0  0
 17 18  1  0  0  0  0
 18 19  1  0  0  0  0
 18 23  2  0  0  0  0
 19 20  2  0  0  0  0
 20 21  1  0  0  0  0
 21 22  2  0  0  0  0
 22 23  1  0  0  0  0
 24 25  2  0  0  0  0
 25 26  1  0  0  0  0
 26 27  2  0  0  0  0
M  END
>  <name>
O=C1N(CCCC[C;ether])C(=O)C=CN1c1c2c(cc3c1cccc3)cccc2

>  <apo>
1

>  <freq>
1

>  <freq0>
0

>  <freq1>
1

>  <freqA>
0.99700278

>  <a_count>
49

$$$$

  MOE2015           2D

 17 16  0  0  0  0  0  0  0  0999 V2000
   -1.2160   -5.2430    0.0000 O   0  0  0  0  0  0  0  0  0  0  0  0
    0.0830   -4.4930    0.0000 C   0  0  0  0  0  0  0  0  0  0  0  0
    1.3820   -5.2430    0.0000 C   0  0  0  0  0  0  0  0  0  0  0  0
    2.6810   -4.4930    0.0000 C   0  0  0  0  0  0  0  0  0  0  0  0
    3.9800   -5.2430    0.0000 C   0  0  0  0  0  0  0  0  0  0  0  0
    5.2790   -4.4930    0.0000 C   0  0  0  0  0  0  0  0  0  0  0  0
    6.5780   -5.2430    0.0000 C   0  0  0  0  0  0  0  0  0  0  0  0
    7.8770   -4.4930    0.0000 C   0  0  0  0  0  0  0  0  0  0  0  0
    9.1760   -5.2430    0.0000 C   0  0  0  0  0  0  0  0  0  0  0  0
   10.4760   -4.4930    0.0000 C   0  0  0  0  0  0  0  0  0  0  0  0
   11.7750   -5.2430    0.0000 C   0  0  0  0  0  0  0  0  0  0  0  0
   13.0740   -4.4930    0.0000 C   0  0  0  0  0  0  0  0  0  0  0  0
   14.3730   -5.2430    0.0000 C   0  0  0  0  0  0  0  0  0  0  0  0
   15.6720   -4.4930    0.0000 C   0  0  0  0  0  0  0  0  0  0  0  0
   16.9710   -5.2430    0.0000 C   0  0  0  0  0  0  0  0  0  0  0  0
   18.2700   -4.4930    0.0000 C   0  0  0  0  0  0  0  0  0  0  0  0
   19.5690   -5.2430    0.0000 C   0  0  0  0  0  0  0  0  0  0  0  0
  1  2  2  0  0  0  0
  2  3  1  0  0  0  0
  3  4  1  0  0  0  0
  4  5  1  0  0  0  0
  5  6  1  0  0  0  0
  6  7  1  0  0  0  0
  7  8  1  0  0  0  0
  8  9  1  0  0  0  0
  9 10  1  0  0  0  0
 10 11  1  0  0  0  0
 11 12  1  0  0  0  0
 12 13  1  0  0  0  0
 13 14  1  0  0  0  0
 14 15  1  0  0  0  0
 15 16  1  0  0  0  0
 16 17  1  0  0  0  0
M  END
>  <name>
O=[C;ester]CCCCCCCCCCCCCCC

>  <apo>
1

>  <freq>
1

>  <freq0>
0

>  <freq1>
1

>  <freqA>
0.99700278

>  <a_count>
49

$$$$

  MOE2015           2D

 24 27  0  0  0  0  0  0  0  0999 V2000
    4.7750    4.7750    0.0000 N   0  0  0  0  0  0  0  0  0  0  0  0
    4.7750    3.2750    0.0000 C   0  0  0  0  0  0  0  0  0  0  0  0
    6.0740    2.5250    0.0000 N   0  0  0  0  0  0  0  0  0  0  0  0
    6.0740    1.0250    0.0000 C   0  0  0  0  0  0  0  0  0  0  0  0
    7.3730    0.2750    0.0000 N   0  0  0  0  0  0  0  0  0  0  0  0
    8.6720    1.0250    0.0000 C   0  0  0  0  0  0  0  0  0  0  0  0
    9.9710    0.2750    0.0000 C   0  0  0  0  0  0  0  0  0  0  0  0
    9.9710   -1.2250    0.0000 C   0  0  0  0  0  0  0  0  0  0  0  0
    8.6720   -1.9750    0.0000 C   0  0  0  0  0  0  0  0  0  0  0  0
    7.3730   -1.2250    0.0000 C   0  0  0  0  0  0  0  0  0  0  0  0
    4.7750    0.2750    0.0000 C   0  0  0  0  0  0  0  0  0  0  0  0
    4.7750   -1.2250    0.0000 N   0  0  0  0  0  0  0  0  0  0  0  0
    3.4750   -1.9750    0.0000 C   0  0  0  0  0  0  0  0  0  0  0  0
    3.4750   -3.4750    0.0000 N   0  0  0  0  0  0  0  0  0  0  0  0
    2.1760   -1.2250    0.0000 N   0  0  0  0  0  0  0  0  0  0  0  0
    2.1760    0.2750    0.0000 C   0  0  0  0  0  0  0  0  0  0  0  0
    0.8770    1.0250    0.0000 N   0  0  0  0  0  0  0  0  0  0  0  0
    0.8770    2.5250    0.0000 C   0  0  0  0  0  0  0  0  0  0  0  0
   -0.4220    3.2750    0.0000 C   0  0  0  0  0  0  0  0  0  0  0  0
   -1.7210    2.5250    0.0000 C   0  0  0  0  0  0  0  0  0  0  0  0
   -1.7210    1.0250    0.0000 C   0  0  0  0  0  0  0  0  0  0  0  0
   -0.4220    0.2750    0.0000 C   0  0  0  0  0  0  0  0  0  0  0  0
    3.4750    1.0250    0.0000 C   0  0  0  0  0  0  0  0  0  0  0  0
    3.4750    2.5250    0.0000 N   0  0  0  0  0  0  0  0  0  0  0  0
  1  2  1  0  0  0  0
  2  3  1  0  0  0  0
  2 24  2  0  0  0  0
  3  4  2  0  0  0  0
  4  5  1  0  0  0  0
  4 11  1  0  0  0  0
  5  6  1  0  0  0  0
  5 10  1  0  0  0  0
  6  7  1  0  0  0  0
  7  8  1  0  0  0  0
  8  9  1  0  0  0  0
  9 10  1  0  0  0  0
 11 12  1  0  0  0  0
 11 23  2  0  0  0  0
 12 13  2  0  0  0  0
 13 14  1  0  0  0  0
 13 15  1  0  0  0  0
 15 16  2  0  0  0  0
 16 17  1  0  0  0  0
 16 23  1  0  0  0  0
 17 18  1  0  0  0  0
 17 22  1  0  0  0  0
 18 19  1  0  0  0  0
 19 20  1  0  0  0  0
 20 21  1  0  0  0  0
 21 22  1  0  0  0  0
 23 24  1  0  0  0  0
M  END
>  <name>
[N;amine]c1nc(N2CCCCC2)c2nc([N;amine])nc(N3CCCCC3)c2n1

>  <apo>
2

>  <freq>
1

>  <freq0>
0

>  <freq1>
1

>  <freqA>
0.99700278

>  <a_count>
48

$$$$

  MOE2015           2D

 24 25  0  0  1  0  0  0  0  0999 V2000
    2.1620    2.1530    0.0000 S   0  0  0  0  0  0  0  0  0  0  0  0
    2.1560    0.6530    0.0000 C   0  0  0  0  0  0  0  0  0  0  0  0
    3.4520   -0.1020    0.0000 C   0  0  0  0  0  0  0  0  0  0  0  0
    3.4460   -1.6020    0.0000 O   0  0  0  0  0  0  0  0  0  0  0  0
    4.7420   -2.3570    0.0000 P   0  0  3  0  0  0  0  0  0  0  0  0
    5.4970   -1.0610    0.0000 O   0  0  0  0  0  0  0  0  0  0  0  0
    6.0380   -3.1130    0.0000 O   0  0  0  0  0  0  0  0  0  0  0  0
    7.3400   -2.3680    0.0000 C   0  0  0  0  0  0  0  0  0  0  0  0
    8.6360   -3.1230    0.0000 C   0  0  2  0  0  0  0  0  0  0  0  0
   10.0090   -2.5190    0.0000 C   0  0  1  0  0  0  0  0  0  0  0  0
   10.3270   -1.0530    0.0000 O   0  0  0  0  0  0  0  0  0  0  0  0
   11.0080   -3.6380    0.0000 C   0  0  1  0  0  0  0  0  0  0  0  0
   12.3730   -4.2590    0.0000 O   0  0  0  0  0  0  0  0  0  0  0  0
   12.1900   -2.7140    0.0000 C   0  0  0  0  0  0  0  0  0  0  0  0
   10.2520   -4.9330    0.0000 C   0  0  0  0  0  0  0  0  0  0  0  0
    8.7870   -4.6160    0.0000 O   0  0  0  0  0  0  0  0  0  0  0  0
    3.9860   -3.6530    0.0000 N   0  0  0  0  0  0  0  0  0  0  0  0
    2.4870   -3.6470    0.0000 C   0  0  0  0  0  0  0  0  0  0  0  0
    1.7310   -4.9430    0.0000 C   0  0  0  0  0  0  0  0  0  0  0  0
    2.4760   -6.2450    0.0000 C   0  0  0  0  0  0  0  0  0  0  0  0
    1.7210   -7.5410    0.0000 C   0  0  0  0  0  0  0  0  0  0  0  0
    0.2210   -7.5350    0.0000 C   0  0  0  0  0  0  0  0  0  0  0  0
   -0.5240   -6.2330    0.0000 C   0  0  0  0  0  0  0  0  0  0  0  0
    0.2310   -4.9370    0.0000 C   0  0  0  0  0  0  0  0  0  0  0  0
  1  2  1  0  0  0  0
  2  3  1  0  0  0  0
  3  4  1  0  0  0  0
  4  5  1  0  0  0  0
  5  6  2  0  0  0  0
  5  7  1  0  0  0  0
  5 17  1  0  0  0  0
  7  8  1  0  0  0  0
  9  8  1  6  0  0  0
  9 10  1  0  0  0  0
  9 16  1  0  0  0  0
 10 11  1  1  0  0  0
 10 12  1  0  0  0  0
 12 13  1  6  0  0  0
 12 14  1  1  0  0  0
 12 15  1  0  0  0  0
 15 16  1  0  0  0  0
 17 18  1  0  0  0  0
 18 19  1  0  0  0  0
 19 20  1  0  0  0  0
 19 24  2  0  0  0  0
 20 21  2  0  0  0  0
 21 22  1  0  0  0  0
 22 23  2  0  0  0  0
 23 24  1  0  0  0  0
M  END
>  <name>
[S;thioester]CCOP(=O)(OC[C@@H]1[C@@H](O)[C@@](O)(C)[C;NaroC]O1)NCc1ccccc1

>  <apo>
2

>  <freq>
1

>  <freq0>
0

>  <freq1>
1

>  <freqA>
0.99700278

>  <a_count>
48

$$$$

  MOE2015           2D

 33 36  0  0  0  0  0  0  0  0999 V2000
    2.0330   -7.6650    0.0000 Cl  0  0  0  0  0  0  0  0  0  0  0  0
    2.0330   -6.1650    0.0000 C   0  0  0  0  0  0  0  0  0  0  0  0
    3.3320   -5.4150    0.0000 C   0  0  0  0  0  0  0  0  0  0  0  0
    4.6310   -6.1650    0.0000 N   0  0  0  0  0  0  0  0  0  0  0  0
    5.9300   -5.4150    0.0000 C   0  0  0  0  0  0  0  0  0  0  0  0
    5.9300   -3.9150    0.0000 N   0  0  0  0  0  0  0  0  0  0  0  0
    4.6310   -3.1650    0.0000 C   0  0  0  0  0  0  0  0  0  0  0  0
    4.6310   -1.6650    0.0000 C   0  0  0  0  0  0  0  0  0  0  0  0
    5.9300   -0.9150    0.0000 C   0  0  0  0  0  0  0  0  0  0  0  0
    5.9300    0.5850    0.0000 C   0  0  0  0  0  0  0  0  0  0  0  0
    7.2290    1.3350    0.0000 F   0  0  0  0  0  0  0  0  0  0  0  0
    4.6310    1.3350    0.0000 C   0  0  0  0  0  0  0  0  0  0  0  0
    4.6310    2.8350    0.0000 F   0  0  0  0  0  0  0  0  0  0  0  0
    3.3320    0.5850    0.0000 C   0  0  0  0  0  0  0  0  0  0  0  0
    2.0330    1.3350    0.0000 F   0  0  0  0  0  0  0  0  0  0  0  0
    3.3320   -0.9150    0.0000 C   0  0  0  0  0  0  0  0  0  0  0  0
    7.2290   -3.1650    0.0000 C   0  0  0  0  0  0  0  0  0  0  0  0
    7.2290   -1.6650    0.0000 O   0  0  0  0  0  0  0  0  0  0  0  0
    8.5280   -3.9150    0.0000 N   0  0  0  0  0  0  0  0  0  0  0  0
    9.8270   -3.1650    0.0000 C   0  0  0  0  0  0  0  0  0  0  0  0
   11.1260   -3.9150    0.0000 C   0  0  0  0  0  0  0  0  0  0  0  0
   12.4250   -3.1650    0.0000 O   0  0  0  0  0  0  0  0  0  0  0  0
    8.5280   -5.4150    0.0000 C   0  0  0  0  0  0  0  0  0  0  0  0
    9.8270   -6.1650    0.0000 O   0  0  0  0  0  0  0  0  0  0  0  0
    7.2290   -6.1650    0.0000 N   0  0  0  0  0  0  0  0  0  0  0  0
    3.3320   -3.9150    0.0000 C   0  0  0  0  0  0  0  0  0  0  0  0
    2.0330   -3.1650    0.0000 C   0  0  0  0  0  0  0  0  0  0  0  0
    0.7340   -3.9150    0.0000 C   0  0  0  0  0  0  0  0  0  0  0  0
   -0.3810   -2.9120    0.0000 N   0  0  0  0  0  0  0  0  0  0  0  0
    0.2290   -1.5410    0.0000 N   0  0  0  0  0  0  0  0  0  0  0  0
   -0.5210   -0.2420    0.0000 C   0  0  0  0  0  0  0  0  0  0  0  0
    1.7210   -1.6980    0.0000 C   0  0  0  0  0  0  0  0  0  0  0  0
    0.7340   -5.4150    0.0000 C   0  0  0  0  0  0  0  0  0  0  0  0
  1  2  1  0  0  0  0
  2  3  1  0  0  0  0
  2 33  2  0  0  0  0
  3  4  1  0  0  0  0
  3 26  2  0  0  0  0
  4  5  2  0  0  0  0
  5  6  1  0  0  0  0
  5 25  1  0  0  0  0
  6  7  1  0  0  0  0
  6 17  1  0  0  0  0
  7  8  1  0  0  0  0
  8  9  2  0  0  0  0
  8 16  1  0  0  0  0
  9 10  1  0  0  0  0
 10 11  1  0  0  0  0
 10 12  2  0  0  0  0
 12 13  1  0  0  0  0
 12 14  1  0  0  0  0
 14 15  1  0  0  0  0
 14 16  2  0  0  0  0
 17 18  2  0  0  0  0
 17 19  1  0  0  0  0
 19 20  1  0  0  0  0
 19 23  1  0  0  0  0
 20 21  1  0  0  0  0
 21 22  2  0  0  0  0
 23 24  2  0  0  0  0
 23 25  1  0  0  0  0
 26 27  1  0  0  0  0
 27 28  1  0  0  0  0
 27 32  2  0  0  0  0
 28 29  2  0  0  0  0
 28 33  1  0  0  0  0
 29 30  1  0  0  0  0
 30 31  1  0  0  0  0
 30 32  1  0  0  0  0
M  END
>  <name>
Clc1c(/N=C/2\N(Cc3cc(F)c(F)c(F)c3)C(=O)N(C[C;amide]=O)C(=O)N\2)cc2c(nn(C)c2)c1

>  <apo>
1

>  <freq>
1

>  <freq0>
0

>  <freq1>
1

>  <freqA>
0.99700278

>  <a_count>
47

$$$$

  MOE2015           2D

 24 26  0  0  0  0  0  0  0  0999 V2000
    0.0000    0.0000    0.0000 O   0  0  0  0  0  0  0  0  0  0  0  0
    1.5000    0.0000    0.0000 C   0  0  0  0  0  0  0  0  0  0  0  0
    1.5000    1.5000    0.0000 C   0  0  0  0  0  0  0  0  0  0  0  0
    3.0000    0.0000    0.0000 C   0  0  0  0  0  0  0  0  0  0  0  0
    1.5000   -1.5000    0.0000 C   0  0  0  0  0  0  0  0  0  0  0  0
   -0.7500    1.2990    0.0000 C   0  0  0  0  0  0  0  0  0  0  0  0
    0.0000    2.5980    0.0000 O   0  0  0  0  0  0  0  0  0  0  0  0
   -2.2500    1.2990    0.0000 N   0  0  0  0  0  0  0  0  0  0  0  0
   -3.0000    2.5980    0.0000 C   0  0  0  0  0  0  0  0  0  0  0  0
   -4.5000    2.5980    0.0000 C   0  0  0  0  0  0  0  0  0  0  0  0
   -5.2500    1.2990    0.0000 N   0  0  0  0  0  0  0  0  0  0  0  0
   -6.7500    1.2990    0.0000 C   0  0  0  0  0  0  0  0  0  0  0  0
   -7.5000    2.5980    0.0000 N   0  0  0  0  0  0  0  0  0  0  0  0
   -9.0000    2.5980    0.0000 C   0  0  0  0  0  0  0  0  0  0  0  0
   -9.7500    3.8970    0.0000 C   0  0  0  0  0  0  0  0  0  0  0  0
   -9.0000    5.1960    0.0000 O   0  0  0  0  0  0  0  0  0  0  0  0
  -11.2500    3.8970    0.0000 C   0  0  0  0  0  0  0  0  0  0  0  0
  -12.0000    2.5980    0.0000 C   0  0  0  0  0  0  0  0  0  0  0  0
  -11.2500    1.2990    0.0000 C   0  0  0  0  0  0  0  0  0  0  0  0
   -9.7500    1.2990    0.0000 C   0  0  0  0  0  0  0  0  0  0  0  0
   -9.0000    0.0000    0.0000 C   0  0  0  0  0  0  0  0  0  0  0  0
   -7.5000    0.0000    0.0000 C   0  0  0  0  0  0  0  0  0  0  0  0
   -4.5000    0.0000    0.0000 C   0  0  0  0  0  0  0  0  0  0  0  0
   -3.0000    0.0000    0.0000 C   0  0  0  0  0  0  0  0  0  0  0  0
  1  2  1  0  0  0  0
  1  6  1  0  0  0  0
  2  3  1  0  0  0  0
  2  4  1  0  0  0  0
  2  5  1  0  0  0  0
  6  7  2  0  0  0  0
  6  8  1  0  0  0  0
  8  9  1  0  0  0  0
  8 24  1  0  0  0  0
  9 10  1  0  0  0  0
 10 11  1  0  0  0  0
 11 12  1  0  0  0  0
 11 23  1  0  0  0  0
 12 13  1  0  0  0  0
 12 22  2  0  0  0  0
 13 14  2  0  0  0  0
 14 15  1  0  0  0  0
 14 20  1  0  0  0  0
 15 16  1  0  0  0  0
 15 17  2  0  0  0  0
 17 18  1  0  0  0  0
 18 19  2  0  0  0  0
 19 20  1  0  0  0  0
 20 21  2  0  0  0  0
 21 22  1  0  0  0  0
 23 24  1  0  0  0  0
M  END
>  <name>
O(C(C)(C)C)C(=O)N1CCN(c2nc3c([O;ether])cccc3cc2)CC1

>  <apo>
1

>  <freq>
1

>  <freq0>
0

>  <freq1>
1

>  <freqA>
0.99700278

>  <a_count>
47

$$$$

  MOE2015           2D

 25 27  0  0  0  0  0  0  0  0999 V2000
    2.0680    2.9100    0.0000 O   0  0  0  0  0  0  0  0  0  0  0  0
    1.3180    1.6110    0.0000 C   0  0  0  0  0  0  0  0  0  0  0  0
    2.0680    0.3120    0.0000 C   0  0  0  0  0  0  0  0  0  0  0  0
    3.5680    0.3120    0.0000 C   0  0  0  0  0  0  0  0  0  0  0  0
    4.3180   -0.9870    0.0000 C   0  0  0  0  0  0  0  0  0  0  0  0
    3.5680   -2.2860    0.0000 C   0  0  0  0  0  0  0  0  0  0  0  0
    5.8180   -0.9870    0.0000 C   0  0  0  0  0  0  0  0  0  0  0  0
    6.5680   -2.2860    0.0000 O   0  0  0  0  0  0  0  0  0  0  0  0
    8.0680   -2.2860    0.0000 C   0  0  0  0  0  0  0  0  0  0  0  0
    6.5680    0.3120    0.0000 C   0  0  0  0  0  0  0  0  0  0  0  0
    8.0680    0.3120    0.0000 O   0  0  0  0  0  0  0  0  0  0  0  0
    8.8180    1.6110    0.0000 C   0  0  0  0  0  0  0  0  0  0  0  0
    5.8180    1.6110    0.0000 C   0  0  0  0  0  0  0  0  0  0  0  0
    4.3180    1.6110    0.0000 C   0  0  0  0  0  0  0  0  0  0  0  0
   -0.1820    1.6110    0.0000 C   0  0  0  0  0  0  0  0  0  0  0  0
   -0.9320    2.9100    0.0000 C   0  0  0  0  0  0  0  0  0  0  0  0
   -0.1820    4.2090    0.0000 C   0  0  0  0  0  0  0  0  0  0  0  0
   -0.9320    5.5080    0.0000 C   0  0  0  0  0  0  0  0  0  0  0  0
   -2.4320    2.9100    0.0000 C   0  0  0  0  0  0  0  0  0  0  0  0
   -3.1820    1.6110    0.0000 C   0  0  0  0  0  0  0  0  0  0  0  0
   -4.6500    1.2990    0.0000 O   0  0  0  0  0  0  0  0  0  0  0  0
   -4.8060   -0.1930    0.0000 C   0  0  0  0  0  0  0  0  0  0  0  0
   -3.4360   -0.8030    0.0000 O   0  0  0  0  0  0  0  0  0  0  0  0
   -2.4320    0.3120    0.0000 C   0  0  0  0  0  0  0  0  0  0  0  0
   -0.9320    0.3120    0.0000 C   0  0  0  0  0  0  0  0  0  0  0  0
  1  2  2  0  0  0  0
  2  3  1  0  0  0  0
  2 15  1  0  0  0  0
  3  4  1  0  0  0  0
  4  5  1  0  0  0  0
  4 14  2  0  0  0  0
  5  6  1  0  0  0  0
  5  7  2  0  0  0  0
  7  8  1  0  0  0  0
  7 10  1  0  0  0  0
  8  9  1  0  0  0  0
 10 11  1  0  0  0  0
 10 13  2  0  0  0  0
 11 12  1  0  0  0  0
 13 14  1  0  0  0  0
 15 16  1  0  0  0  0
 15 25  2  0  0  0  0
 16 17  1  0  0  0  0
 16 19  2  0  0  0  0
 17 18  1  0  0  0  0
 19 20  1  0  0  0  0
 20 21  1  0  0  0  0
 20 24  2  0  0  0  0
 21 22  1  0  0  0  0
 22 23  1  0  0  0  0
 23 24  1  0  0  0  0
 24 25  1  0  0  0  0
M  END
>  <name>
O=C(Cc1c([C;amine])c(OC)c(OC)cc1)c1c(C[C;amine])cc2OCOc2c1

>  <apo>
2

>  <freq>
1

>  <freq0>
0

>  <freq1>
1

>  <freqA>
0.99700278

>  <a_count>
47

$$$$

  MOE2015           2D

 24 26  0  0  1  0  0  0  0  0999 V2000
    5.3900    5.0490    0.0000 O   0  0  0  0  0  0  0  0  0  0  0  0
    5.2920    3.5520    0.0000 C   0  0  0  0  0  0  0  0  0  0  0  0
    6.5400    2.7190    0.0000 O   0  0  0  0  0  0  0  0  0  0  0  0
    7.8850    3.3820    0.0000 C   0  0  0  0  0  0  0  0  0  0  0  0
    9.2300    4.0460    0.0000 C   0  0  0  0  0  0  0  0  0  0  0  0
    8.5480    2.0370    0.0000 C   0  0  0  0  0  0  0  0  0  0  0  0
    7.2210    4.7280    0.0000 C   0  0  0  0  0  0  0  0  0  0  0  0
    3.9470    2.8890    0.0000 N   0  0  0  0  0  0  0  0  0  0  0  0
    2.7000    3.7220    0.0000 C   0  0  2  0  0  0  0  0  0  0  0  0
    1.2930    3.2030    0.0000 C   0  0  0  0  0  0  0  0  0  0  0  0
    0.3640    4.3810    0.0000 N   0  0  0  0  0  0  0  0  0  0  0  0
   -1.1350    4.3220    0.0000 C   0  0  0  0  0  0  0  0  0  0  0  0
   -1.9350    5.5900    0.0000 N   0  0  0  0  0  0  0  0  0  0  0  0
   -3.4340    5.5310    0.0000 C   0  0  0  0  0  0  0  0  0  0  0  0
   -4.2350    6.8000    0.0000 C   0  0  0  0  0  0  0  0  0  0  0  0
   -3.5360    8.1270    0.0000 O   0  0  0  0  0  0  0  0  0  0  0  0
   -5.7340    6.7410    0.0000 C   0  0  0  0  0  0  0  0  0  0  0  0
   -6.4320    5.4130    0.0000 C   0  0  0  0  0  0  0  0  0  0  0  0
   -5.6310    4.1450    0.0000 C   0  0  0  0  0  0  0  0  0  0  0  0
   -4.1330    4.2040    0.0000 C   0  0  0  0  0  0  0  0  0  0  0  0
   -3.3320    2.9350    0.0000 C   0  0  0  0  0  0  0  0  0  0  0  0
   -1.8330    2.9940    0.0000 C   0  0  0  0  0  0  0  0  0  0  0  0
    1.1970    5.6280    0.0000 C   0  0  0  0  0  0  0  0  0  0  0  0
    2.6410    5.2210    0.0000 C   0  0  0  0  0  0  0  0  0  0  0  0
  1  2  2  0  0  0  0
  2  3  1  0  0  0  0
  2  8  1  0  0  0  0
  3  4  1  0  0  0  0
  4  5  1  0  0  0  0
  4  6  1  0  0  0  0
  4  7  1  0  0  0  0
  9  8  1  6  0  0  0
  9 10  1  0  0  0  0
  9 24  1  0  0  0  0
 10 11  1  0  0  0  0
 11 12  1  0  0  0  0
 11 23  1  0  0  0  0
 12 13  1  0  0  0  0
 12 22  2  0  0  0  0
 13 14  2  0  0  0  0
 14 15  1  0  0  0  0
 14 20  1  0  0  0  0
 15 16  1  0  0  0  0
 15 17  2  0  0  0  0
 17 18  1  0  0  0  0
 18 19  2  0  0  0  0
 19 20  1  0  0  0  0
 20 21  2  0  0  0  0
 21 22  1  0  0  0  0
 23 24  1  0  0  0  0
M  END
>  <name>
O=C(OC(C)(C)C)N[C@@H]1CN(c2nc3c([O;ether])cccc3cc2)CC1

>  <apo>
1

>  <freq>
1

>  <freq0>
0

>  <freq1>
1

>  <freqA>
0.99700278

>  <a_count>
47

$$$$

  MOE2015           2D

 24 26  0  0  1  0  0  0  0  0999 V2000
    5.3900    5.0490    0.0000 O   0  0  0  0  0  0  0  0  0  0  0  0
    5.2920    3.5520    0.0000 C   0  0  0  0  0  0  0  0  0  0  0  0
    6.5400    2.7190    0.0000 O   0  0  0  0  0  0  0  0  0  0  0  0
    7.8850    3.3820    0.0000 C   0  0  0  0  0  0  0  0  0  0  0  0
    9.2300    4.0460    0.0000 C   0  0  0  0  0  0  0  0  0  0  0  0
    8.5480    2.0370    0.0000 C   0  0  0  0  0  0  0  0  0  0  0  0
    7.2210    4.7280    0.0000 C   0  0  0  0  0  0  0  0  0  0  0  0
    3.9470    2.8890    0.0000 N   0  0  0  0  0  0  0  0  0  0  0  0
    2.7000    3.7220    0.0000 C   0  0  1  0  0  0  0  0  0  0  0  0
    1.2930    3.2030    0.0000 C   0  0  0  0  0  0  0  0  0  0  0  0
    0.3640    4.3810    0.0000 N   0  0  0  0  0  0  0  0  0  0  0  0
   -1.1350    4.3220    0.0000 C   0  0  0  0  0  0  0  0  0  0  0  0
   -1.9350    5.5900    0.0000 N   0  0  0  0  0  0  0  0  0  0  0  0
   -3.4340    5.5310    0.0000 C   0  0  0  0  0  0  0  0  0  0  0  0
   -4.2350    6.8000    0.0000 C   0  0  0  0  0  0  0  0  0  0  0  0
   -3.5360    8.1270    0.0000 O   0  0  0  0  0  0  0  0  0  0  0  0
   -5.7340    6.7410    0.0000 C   0  0  0  0  0  0  0  0  0  0  0  0
   -6.4320    5.4130    0.0000 C   0  0  0  0  0  0  0  0  0  0  0  0
   -5.6310    4.1450    0.0000 C   0  0  0  0  0  0  0  0  0  0  0  0
   -4.1330    4.2040    0.0000 C   0  0  0  0  0  0  0  0  0  0  0  0
   -3.3320    2.9350    0.0000 C   0  0  0  0  0  0  0  0  0  0  0  0
   -1.8330    2.9940    0.0000 C   0  0  0  0  0  0  0  0  0  0  0  0
    1.1970    5.6280    0.0000 C   0  0  0  0  0  0  0  0  0  0  0  0
    2.6410    5.2210    0.0000 C   0  0  0  0  0  0  0  0  0  0  0  0
  1  2  2  0  0  0  0
  2  3  1  0  0  0  0
  2  8  1  0  0  0  0
  3  4  1  0  0  0  0
  4  5  1  0  0  0  0
  4  6  1  0  0  0  0
  4  7  1  0  0  0  0
  9  8  1  1  0  0  0
  9 10  1  0  0  0  0
  9 24  1  0  0  0  0
 10 11  1  0  0  0  0
 11 12  1  0  0  0  0
 11 23  1  0  0  0  0
 12 13  1  0  0  0  0
 12 22  2  0  0  0  0
 13 14  2  0  0  0  0
 14 15  1  0  0  0  0
 14 20  1  0  0  0  0
 15 16  1  0  0  0  0
 15 17  2  0  0  0  0
 17 18  1  0  0  0  0
 18 19  2  0  0  0  0
 19 20  1  0  0  0  0
 20 21  2  0  0  0  0
 21 22  1  0  0  0  0
 23 24  1  0  0  0  0
M  END
>  <name>
O=C(OC(C)(C)C)N[C@H]1CN(c2nc3c([O;ether])cccc3cc2)CC1

>  <apo>
1

>  <freq>
1

>  <freq0>
0

>  <freq1>
1

>  <freqA>
0.99700278

>  <a_count>
47

$$$$

  MOE2015           2D

 21 24  0  0  1  0  0  0  0  0999 V2000
    0.0000   -0.5850    0.0000 C   0  0  0  0  0  0  0  0  0  0  0  0
    1.5000   -0.5850    0.0000 C   0  0  0  0  0  0  0  0  0  0  0  0
    2.2500    0.7140    0.0000 C   0  0  0  0  0  0  0  0  0  0  0  0
    3.7500    0.7140    0.0000 C   0  0  0  0  0  0  0  0  0  0  0  0
    4.5000    2.0130    0.0000 O   0  0  0  0  0  0  0  0  0  0  0  0
    6.0000    2.0130    0.0000 C   0  0  0  0  0  0  0  0  0  0  0  0
    7.2990    2.7630    0.0000 C   0  0  0  0  0  0  0  0  0  0  0  0
    6.0000    3.5130    0.0000 C   0  0  0  0  0  0  0  0  0  0  0  0
    6.7500    0.7140    0.0000 C   0  0  3  0  0  0  0  0  0  0  0  0
    6.0000   -0.5850    0.0000 C   0  0  3  0  0  0  0  0  0  0  0  0
    6.7500   -1.8840    0.0000 O   0  0  0  0  0  0  0  0  0  0  0  0
    8.2500   -1.8840    0.0000 C   0  0  3  0  0  0  0  0  0  0  0  0
    9.0000   -0.5850    0.0000 C   0  0  3  0  0  0  0  0  0  0  0  0
   10.5000   -0.5850    0.0000 C   0  0  0  0  0  0  0  0  0  0  0  0
   11.2500   -1.8840    0.0000 N   0  0  0  0  0  0  0  0  0  0  0  0
   10.5000   -3.1840    0.0000 C   0  0  0  0  0  0  0  0  0  0  0  0
    9.0000   -3.1840    0.0000 C   0  0  0  0  0  0  0  0  0  0  0  0
    8.2500    0.7140    0.0000 C   0  0  0  0  0  0  0  0  0  0  0  0
    4.5000   -0.5850    0.0000 C   0  0  0  0  0  0  0  0  0  0  0  0
    3.7500   -1.8840    0.0000 C   0  0  0  0  0  0  0  0  0  0  0  0
    2.2500   -1.8840    0.0000 C   0  0  0  0  0  0  0  0  0  0  0  0
  1  2  1  0  0  0  0
  2  3  1  0  0  0  0
  2 21  2  0  0  0  0
  3  4  2  0  0  0  0
  4  5  1  0  0  0  0
  4 19  1  0  0  0  0
  5  6  1  0  0  0  0
  6  7  1  0  0  0  0
  6  8  1  0  0  0  0
  6  9  1  0  0  0  0
  9 10  1  0  0  0  0
  9 18  1  0  0  0  0
 10 11  1  0  0  0  0
 10 19  1  0  0  0  0
 11 12  1  0  0  0  0
 12 13  1  0  0  0  0
 12 17  1  0  0  0  0
 13 14  1  0  0  0  0
 13 18  1  0  0  0  0
 14 15  1  0  0  0  0
 15 16  1  0  0  0  0
 16 17  1  0  0  0  0
 19 20  2  0  0  0  0
 20 21  1  0  0  0  0
M  END
>  <name>
Cc1cc2OC(C)(C)C3C(OC4C(C[N;amide]CC4)C3)c2cc1

>  <apo>
1

>  <freq>
1

>  <freq0>
0

>  <freq1>
1

>  <freqA>
0.99700278

>  <a_count>
46

$$$$

  MOE2015           2D

 27 30  0  0  0  0  0  0  0  0999 V2000
    3.2500    5.6290    0.0000 Cl  0  0  0  0  0  0  0  0  0  0  0  0
    4.0000    4.3300    0.0000 C   0  0  0  0  0  0  0  0  0  0  0  0
    5.5000    4.3300    0.0000 C   0  0  0  0  0  0  0  0  0  0  0  0
    6.2500    3.0310    0.0000 C   0  0  0  0  0  0  0  0  0  0  0  0
    7.7500    3.0310    0.0000 N   0  3  0  0  0  0  0  0  0  0  0  0
    8.5000    1.7320    0.0000 C   0  0  0  0  0  0  0  0  0  0  0  0
    7.7500    0.4330    0.0000 C   0  0  0  0  0  0  0  0  0  0  0  0
    6.2500    0.4330    0.0000 C   0  0  0  0  0  0  0  0  0  0  0  0
    5.5000   -0.8660    0.0000 N   0  0  0  0  0  0  0  0  0  0  0  0
    4.0000   -0.8660    0.0000 C   0  0  0  0  0  0  0  0  0  0  0  0
    3.2500    0.4330    0.0000 C   0  0  0  0  0  0  0  0  0  0  0  0
    1.7500    0.4330    0.0000 C   0  0  0  0  0  0  0  0  0  0  0  0
    1.0000    1.7320    0.0000 C   0  0  0  0  0  0  0  0  0  0  0  0
    1.0000   -0.8660    0.0000 C   0  0  0  0  0  0  0  0  0  0  0  0
   -0.5000   -0.8660    0.0000 O   0  0  0  0  0  0  0  0  0  0  0  0
    1.7500   -2.1650    0.0000 C   0  0  0  0  0  0  0  0  0  0  0  0
    1.0000   -3.4640    0.0000 C   0  0  0  0  0  0  0  0  0  0  0  0
    3.2500   -2.1650    0.0000 C   0  0  0  0  0  0  0  0  0  0  0  0
    5.5000    1.7320    0.0000 C   0  0  0  0  0  0  0  0  0  0  0  0
    4.0000    1.7320    0.0000 C   0  0  0  0  0  0  0  0  0  0  0  0
    3.2500    3.0310    0.0000 C   0  0  0  0  0  0  0  0  0  0  0  0
    8.5000   -0.8660    0.0000 N   0  0  0  0  0  0  0  0  0  0  0  0
   10.0000   -0.8660    0.0000 C   0  0  0  0  0  0  0  0  0  0  0  0
   10.7500   -2.1650    0.0000 O   0  0  0  0  0  0  0  0  0  0  0  0
   12.2500   -2.1650    0.0000 C   0  0  0  0  0  0  0  0  0  0  0  0
   10.7500    0.4330    0.0000 C   0  0  0  0  0  0  0  0  0  0  0  0
   10.0000    1.7320    0.0000 C   0  0  0  0  0  0  0  0  0  0  0  0
  1  2  1  0  0  0  0
  2  3  1  0  0  0  0
  2 21  2  0  0  0  0
  3  4  2  0  0  0  0
  4  5  1  0  0  0  0
  4 19  1  0  0  0  0
  5  6  2  0  0  0  0
  6  7  1  0  0  0  0
  6 27  1  0  0  0  0
  7  8  2  0  0  0  0
  7 22  1  0  0  0  0
  8  9  1  0  0  0  0
  8 19  1  0  0  0  0
  9 10  1  0  0  0  0
 10 11  1  0  0  0  0
 10 18  2  0  0  0  0
 11 12  2  0  0  0  0
 12 13  1  0  0  0  0
 12 14  1  0  0  0  0
 14 15  1  0  0  0  0
 14 16  2  0  0  0  0
 16 17  1  0  0  0  0
 16 18  1  0  0  0  0
 19 20  2  0  0  0  0
 20 21  1  0  0  0  0
 22 23  2  0  0  0  0
 23 24  1  0  0  0  0
 23 26  1  0  0  0  0
 24 25  1  0  0  0  0
 26 27  2  0  0  0  0
M  CHG  1   5   1
M  END
>  <name>
Clc1cc2[n+]c3c(c(Nc4cc([C;amine])c(O)c([C;amine])c4)c2cc1)nc(OC)cc3

>  <apo>
2

>  <freq>
1

>  <freq0>
0

>  <freq1>
1

>  <freqA>
0.99700278

>  <a_count>
46

$$$$

  MOE2015           2D

 18 18  0  0  1  0  0  0  0  0999 V2000
    6.3440   -1.5940    0.0000 O   0  0  0  0  0  0  0  0  0  0  0  0
    6.3440   -3.0940    0.0000 C   0  0  0  0  0  0  0  0  0  0  0  0
    7.6430   -3.8440    0.0000 C   0  0  0  0  0  0  0  0  0  0  0  0
    7.6430   -5.3440    0.0000 C   0  0  0  0  0  0  0  0  0  0  0  0
    8.9420   -3.0940    0.0000 C   0  0  0  0  0  0  0  0  0  0  0  0
    5.0450   -3.8440    0.0000 C   0  0  0  0  0  0  0  0  0  0  0  0
    3.7460   -3.0940    0.0000 C   0  0  2  0  0  0  0  0  0  0  0  0
    3.7460   -1.5940    0.0000 O   0  0  0  0  0  0  0  0  0  0  0  0
    2.4470   -3.8440    0.0000 C   0  0  1  0  0  0  0  0  0  0  0  0
    1.1480   -3.0940    0.0000 C   0  0  0  0  0  0  0  0  0  0  0  0
   -0.1510   -3.8440    0.0000 C   0  0  0  0  0  0  0  0  0  0  0  0
   -1.4500   -3.0940    0.0000 C   0  0  0  0  0  0  0  0  0  0  0  0
   -2.7490   -3.8440    0.0000 C   0  0  0  0  0  0  0  0  0  0  0  0
   -2.7490   -5.3440    0.0000 C   0  0  0  0  0  0  0  0  0  0  0  0
   -4.0480   -6.0940    0.0000 O   0  0  0  0  0  0  0  0  0  0  0  0
   -1.4500   -6.0940    0.0000 C   0  0  0  0  0  0  0  0  0  0  0  0
   -0.1510   -5.3440    0.0000 C   0  0  0  0  0  0  0  0  0  0  0  0
    2.4470   -5.3440    0.0000 C   0  0  0  0  0  0  0  0  0  0  0  0
  1  2  2  0  0  0  0
  2  3  1  0  0  0  0
  2  6  1  0  0  0  0
  3  4  1  0  0  0  0
  3  5  1  0  0  0  0
  6  7  1  0  0  0  0
  7  8  1  1  0  0  0
  7  9  1  0  0  0  0
  9 10  1  0  0  0  0
  9 18  1  6  0  0  0
 10 11  1  0  0  0  0
 11 12  1  0  0  0  0
 11 17  1  0  0  0  0
 12 13  1  0  0  0  0
 13 14  1  0  0  0  0
 14 15  1  0  0  0  0
 14 16  1  0  0  0  0
 16 17  1  0  0  0  0
M  END
>  <name>
O=C(C(C)[C;olefin])C[C@H]([O;ester])[C@@H](CC1C[C;ether]C(O)CC1)C

>  <apo>
3

>  <freq>
1

>  <freq0>
0

>  <freq1>
1

>  <freqA>
0.99700278

>  <a_count>
46

$$$$

  MOE2015           2D

 24 27  0  0  1  0  0  0  0  0999 V2000
    1.1560    1.4990    0.0000 O   0  0  0  0  0  0  0  0  0  0  0  0
    2.4550    0.7490    0.0000 C   0  0  0  0  0  0  0  0  0  0  0  0
    3.7540    1.4990    0.0000 N   0  0  0  0  0  0  0  0  0  0  0  0
    3.7540    2.9990    0.0000 O   0  5  0  0  0  0  0  0  0  0  0  0
    5.0530    0.7490    0.0000 C   0  0  0  0  0  0  0  0  0  0  0  0
    5.0530   -0.7510    0.0000 C   0  0  0  0  0  0  0  0  0  0  0  0
    6.3520   -1.5010    0.0000 C   0  0  0  0  0  0  0  0  0  0  0  0
    7.6510   -0.7510    0.0000 C   0  0  0  0  0  0  0  0  0  0  0  0
    8.9500   -1.5010    0.0000 C   0  0  0  0  0  0  0  0  0  0  0  0
    8.9500   -3.0010    0.0000 C   0  0  0  0  0  0  0  0  0  0  0  0
    7.6510   -3.7510    0.0000 C   0  0  0  0  0  0  0  0  0  0  0  0
    6.3520   -3.0010    0.0000 C   0  0  0  0  0  0  0  0  0  0  0  0
    3.7540   -1.5010    0.0000 C   0  0  0  0  0  0  0  0  0  0  0  0
    3.7540   -3.0010    0.0000 O   0  0  0  0  0  0  0  0  0  0  0  0
    2.4550   -3.7510    0.0000 C   0  0  3  0  0  0  0  0  0  0  0  0
    2.4550   -5.2510    0.0000 C   0  0  0  0  0  0  0  0  0  0  0  0
    1.1560   -3.0010    0.0000 C   0  0  3  0  0  0  0  0  0  0  0  0
    1.1560   -1.5010    0.0000 C   0  0  3  0  0  0  0  0  0  0  0  0
   -0.1430   -0.7510    0.0000 C   0  0  3  0  0  0  0  0  0  0  0  0
   -0.1430    0.7490    0.0000 C   0  0  0  0  0  0  0  0  0  0  0  0
   -1.4420   -1.5010    0.0000 C   0  0  0  0  0  0  0  0  0  0  0  0
   -1.4420   -3.0010    0.0000 C   0  0  0  0  0  0  0  0  0  0  0  0
   -0.1430   -3.7510    0.0000 C   0  0  0  0  0  0  0  0  0  0  0  0
    2.4550   -0.7510    0.0000 C   0  0  0  0  0  0  0  0  0  0  0  0
  1  2  2  0  0  0  0
  2  3  1  0  0  0  0
  2 24  1  0  0  0  0
  3  4  1  0  0  0  0
  3  5  1  0  0  0  0
  5  6  2  0  0  0  0
  6  7  1  0  0  0  0
  6 13  1  0  0  0  0
  7  8  1  0  0  0  0
  7 12  2  0  0  0  0
  8  9  2  0  0  0  0
  9 10  1  0  0  0  0
 10 11  2  0  0  0  0
 11 12  1  0  0  0  0
 13 14  1  0  0  0  0
 13 24  2  0  0  0  0
 14 15  1  0  0  0  0
 15 16  1  0  0  0  0
 15 17  1  0  0  0  0
 17 18  1  0  0  0  0
 17 23  1  0  0  0  0
 18 19  1  0  0  0  0
 18 24  1  0  0  0  0
 19 20  1  0  0  0  0
 19 21  1  0  0  0  0
 21 22  1  0  0  0  0
 22 23  1  0  0  0  0
M  CHG  1   4  -1
M  END
>  <name>
O=C1N([O-])C=C(c2ccccc2)C=2OC([C;olefin])C3C(C(C)CCC3)C1=2

>  <apo>
1

>  <freq>
1

>  <freq0>
0

>  <freq1>
1

>  <freqA>
0.99700278

>  <a_count>
46

$$$$

  MOE2015           2D

 28 32  0  0  1  0  0  0  0  0999 V2000
   -0.7160   -3.8110    0.0000 O   0  0  0  0  0  0  0  0  0  0  0  0
    0.5450   -2.9990    0.0000 C   0  0  0  0  0  0  0  0  0  0  0  0
    1.8790   -3.6850    0.0000 C   0  0  2  0  0  0  0  0  0  0  0  0
    1.1750   -5.0100    0.0000 O   0  0  0  0  0  0  0  0  0  0  0  0
    2.6630   -4.9640    0.0000 C   0  0  0  0  0  0  0  0  0  0  0  0
    1.9480   -6.2830    0.0000 C   0  0  0  0  0  0  0  0  0  0  0  0
    3.1400   -2.8740    0.0000 C   0  0  0  0  0  0  0  0  0  0  0  0
    3.0680   -1.3750    0.0000 C   0  0  0  0  0  0  0  0  0  0  0  0
    4.3290   -0.5640    0.0000 C   0  0  0  0  0  0  0  0  0  0  0  0
    4.2570    0.9350    0.0000 O   0  0  0  0  0  0  0  0  0  0  0  0
    5.6630   -1.2500    0.0000 N   0  0  0  0  0  0  0  0  0  0  0  0
    5.7350   -2.7480    0.0000 C   0  0  0  0  0  0  0  0  0  0  0  0
    7.1830   -3.1420    0.0000 C   0  0  0  0  0  0  0  0  0  0  0  0
    7.8580   -4.4820    0.0000 N   0  0  0  0  0  0  0  0  0  0  0  0
    9.3560   -4.5660    0.0000 C   0  0  0  0  0  0  0  0  0  0  0  0
   10.1780   -3.3120    0.0000 C   0  0  0  0  0  0  0  0  0  0  0  0
   11.6760   -3.3960    0.0000 C   0  0  0  0  0  0  0  0  0  0  0  0
   12.4980   -2.1420    0.0000 C   0  0  0  0  0  0  0  0  0  0  0  0
   12.3510   -4.7360    0.0000 C   0  0  0  0  0  0  0  0  0  0  0  0
   13.8490   -4.8200    0.0000 O   0  0  0  0  0  0  0  0  0  0  0  0
   11.5290   -5.9900    0.0000 C   0  0  0  0  0  0  0  0  0  0  0  0
   10.0310   -5.9060    0.0000 C   0  0  0  0  0  0  0  0  0  0  0  0
    9.5020   -1.9720    0.0000 C   0  0  0  0  0  0  0  0  0  0  0  0
    8.0050   -1.8880    0.0000 C   0  0  0  0  0  0  0  0  0  0  0  0
    7.0660   -0.7180    0.0000 C   0  0  0  0  0  0  0  0  0  0  0  0
    4.4740   -3.5600    0.0000 C   0  0  0  0  0  0  0  0  0  0  0  0
    1.7340   -0.6890    0.0000 C   0  0  0  0  0  0  0  0  0  0  0  0
    0.4730   -1.5010    0.0000 O   0  0  0  0  0  0  0  0  0  0  0  0
  1  2  2  0  0  0  0
  2  3  1  0  0  0  0
  2 28  1  0  0  0  0
  3  4  1  6  0  0  0
  3  5  1  1  0  0  0
  3  7  1  0  0  0  0
  5  6  1  0  0  0  0
  7  8  2  0  0  0  0
  7 26  1  0  0  0  0
  8  9  1  0  0  0  0
  8 27  1  0  0  0  0
  9 10  2  0  0  0  0
  9 11  1  0  0  0  0
 11 12  1  0  0  0  0
 11 25  1  0  0  0  0
 12 13  1  0  0  0  0
 12 26  2  0  0  0  0
 13 14  2  0  0  0  0
 13 24  1  0  0  0  0
 14 15  1  0  0  0  0
 15 16  1  0  0  0  0
 15 22  2  0  0  0  0
 16 17  2  0  0  0  0
 16 23  1  0  0  0  0
 17 18  1  0  0  0  0
 17 19  1  0  0  0  0
 19 20  1  0  0  0  0
 19 21  2  0  0  0  0
 21 22  1  0  0  0  0
 23 24  2  0  0  0  0
 24 25  1  0  0  0  0
 27 28  1  0  0  0  0
M  END
>  <name>
O=C1[C@](O)(CC)C2=C(C(=O)N3C(c4nc5c(c([C;amine])c(O)cc5)cc4C3)=C2)CO1

>  <apo>
1

>  <freq>
1

>  <freq0>
0

>  <freq1>
1

>  <freqA>
0.99700278

>  <a_count>
46

$$$$

  MOE2015           2D

 30 32  0  0  0  0  0  0  0  0999 V2000
    5.1750    5.1750    0.0000 F   0  0  0  0  0  0  0  0  0  0  0  0
    5.1750    3.6750    0.0000 C   0  0  0  0  0  0  0  0  0  0  0  0
    6.4750    2.9250    0.0000 C   0  0  0  0  0  0  0  0  0  0  0  0
    7.7740    3.6750    0.0000 F   0  0  0  0  0  0  0  0  0  0  0  0
    6.4750    1.4250    0.0000 C   0  0  0  0  0  0  0  0  0  0  0  0
    5.1750    0.6750    0.0000 C   0  0  0  0  0  0  0  0  0  0  0  0
    5.1750   -0.8250    0.0000 C   0  0  0  0  0  0  0  0  0  0  0  0
    6.4750   -1.5750    0.0000 N   0  0  0  0  0  0  0  0  0  0  0  0
    7.7740   -0.8250    0.0000 C   0  0  0  0  0  0  0  0  0  0  0  0
    7.7740    0.6750    0.0000 O   0  0  0  0  0  0  0  0  0  0  0  0
    9.0730   -1.5750    0.0000 N   0  0  0  0  0  0  0  0  0  0  0  0
   10.3720   -0.8250    0.0000 C   0  0  0  0  0  0  0  0  0  0  0  0
   11.6710   -1.5750    0.0000 C   0  0  0  0  0  0  0  0  0  0  0  0
   12.9700   -0.8250    0.0000 O   0  0  0  0  0  0  0  0  0  0  0  0
    9.0730   -3.0750    0.0000 C   0  0  0  0  0  0  0  0  0  0  0  0
   10.3720   -3.8250    0.0000 O   0  0  0  0  0  0  0  0  0  0  0  0
    7.7740   -3.8250    0.0000 N   0  0  0  0  0  0  0  0  0  0  0  0
    6.4750   -3.0750    0.0000 C   0  0  0  0  0  0  0  0  0  0  0  0
    5.1750   -3.8250    0.0000 N   0  0  0  0  0  0  0  0  0  0  0  0
    3.8760   -3.0750    0.0000 C   0  0  0  0  0  0  0  0  0  0  0  0
    2.5770   -3.8250    0.0000 C   0  0  0  0  0  0  0  0  0  0  0  0
    2.5770   -5.3250    0.0000 C   0  0  0  0  0  0  0  0  0  0  0  0
    1.2780   -3.0750    0.0000 C   0  0  0  0  0  0  0  0  0  0  0  0
    1.2780   -1.5750    0.0000 C   0  0  0  0  0  0  0  0  0  0  0  0
   -0.0210   -0.8250    0.0000 O   0  0  0  0  0  0  0  0  0  0  0  0
    2.5770   -0.8250    0.0000 C   0  0  0  0  0  0  0  0  0  0  0  0
    3.8760   -1.5750    0.0000 C   0  0  0  0  0  0  0  0  0  0  0  0
    3.8760    1.4250    0.0000 C   0  0  0  0  0  0  0  0  0  0  0  0
    3.8760    2.9250    0.0000 C   0  0  0  0  0  0  0  0  0  0  0  0
    2.5770    3.6750    0.0000 F   0  0  0  0  0  0  0  0  0  0  0  0
  1  2  1  0  0  0  0
  2  3  1  0  0  0  0
  2 29  2  0  0  0  0
  3  4  1  0  0  0  0
  3  5  2  0  0  0  0
  5  6  1  0  0  0  0
  6  7  1  0  0  0  0
  6 28  2  0  0  0  0
  7  8  1  0  0  0  0
  8  9  1  0  0  0  0
  8 18  1  0  0  0  0
  9 10  2  0  0  0  0
  9 11  1  0  0  0  0
 11 12  1  0  0  0  0
 11 15  1  0  0  0  0
 12 13  1  0  0  0  0
 13 14  2  0  0  0  0
 15 16  2  0  0  0  0
 15 17  1  0  0  0  0
 17 18  1  0  0  0  0
 18 19  2  0  0  0  0
 19 20  1  0  0  0  0
 20 21  1  0  0  0  0
 20 27  2  0  0  0  0
 21 22  1  0  0  0  0
 21 23  2  0  0  0  0
 23 24  1  0  0  0  0
 24 25  1  0  0  0  0
 24 26  2  0  0  0  0
 26 27  1  0  0  0  0
 28 29  1  0  0  0  0
 29 30  1  0  0  0  0
M  END
>  <name>
Fc1c(F)cc(CN/2C(=O)N(C[C;amide]=O)C(=O)N\C\2=N\c2c(C)cc([O;ether])cc2)cc1F

>  <apo>
2

>  <freq>
1

>  <freq0>
0

>  <freq1>
1

>  <freqA>
0.99700278

>  <a_count>
45

$$$$

  MOE2015           2D

 21 22  0  0  1  0  0  0  0  0999 V2000
    1.1670    2.4040    0.0000 O   0  0  0  0  0  0  0  0  0  0  0  0
    1.1670    0.9040    0.0000 C   0  0  2  0  0  0  0  0  0  0  0  0
   -0.1320    0.1540    0.0000 C   0  0  1  0  0  0  0  0  0  0  0  0
   -0.1320   -1.3460    0.0000 N   0  0  0  0  0  0  0  0  0  0  0  0
   -1.4310    0.9040    0.0000 C   0  0  0  0  0  0  0  0  0  0  0  0
   -2.7300    0.1540    0.0000 C   0  0  0  0  0  0  0  0  0  0  0  0
   -4.0290    0.9040    0.0000 C   0  0  0  0  0  0  0  0  0  0  0  0
   -5.3280    0.1540    0.0000 C   0  0  0  0  0  0  0  0  0  0  0  0
   -5.3280   -1.3460    0.0000 C   0  0  0  0  0  0  0  0  0  0  0  0
   -4.0290   -2.0960    0.0000 C   0  0  0  0  0  0  0  0  0  0  0  0
   -2.7300   -1.3460    0.0000 C   0  0  0  0  0  0  0  0  0  0  0  0
    2.4660    0.1540    0.0000 C   0  0  0  0  0  0  0  0  0  0  0  0
    3.7650    0.9040    0.0000 C   0  0  1  0  0  0  0  0  0  0  0  0
    3.7650    2.4040    0.0000 N   0  0  0  0  0  0  0  0  0  0  0  0
    5.0640    0.1540    0.0000 C   0  0  0  0  0  0  0  0  0  0  0  0
    6.3630    0.9040    0.0000 C   0  0  0  0  0  0  0  0  0  0  0  0
    6.3630    2.4040    0.0000 C   0  0  0  0  0  0  0  0  0  0  0  0
    7.6620    3.1540    0.0000 C   0  0  0  0  0  0  0  0  0  0  0  0
    8.9610    2.4040    0.0000 C   0  0  0  0  0  0  0  0  0  0  0  0
    8.9610    0.9040    0.0000 C   0  0  0  0  0  0  0  0  0  0  0  0
    7.6620    0.1540    0.0000 C   0  0  0  0  0  0  0  0  0  0  0  0
  2  1  1  1  0  0  0
  2  3  1  0  0  0  0
  2 12  1  0  0  0  0
  3  4  1  1  0  0  0
  3  5  1  0  0  0  0
  5  6  1  0  0  0  0
  6  7  1  0  0  0  0
  6 11  2  0  0  0  0
  7  8  2  0  0  0  0
  8  9  1  0  0  0  0
  9 10  2  0  0  0  0
 10 11  1  0  0  0  0
 12 13  1  0  0  0  0
 13 14  1  1  0  0  0
 13 15  1  0  0  0  0
 15 16  1  0  0  0  0
 16 17  1  0  0  0  0
 16 21  2  0  0  0  0
 17 18  2  0  0  0  0
 18 19  1  0  0  0  0
 19 20  2  0  0  0  0
 20 21  1  0  0  0  0
M  END
>  <name>
O[C@H]([C@@H]([N;amide])Cc1ccccc1)C[C@@H]([N;amide])Cc1ccccc1

>  <apo>
2

>  <freq>
1

>  <freq0>
0

>  <freq1>
1

>  <freqA>
0.99700278

>  <a_count>
45

$$$$

  MOE2015           2D

 24 25  0  0  1  0  0  0  0  0999 V2000
    0.0400    1.7000    0.0000 P   0  0  3  0  0  0  0  0  0  0  0  0
    0.0460    0.2000    0.0000 O   0  0  0  0  0  0  0  0  0  0  0  0
    1.5400    1.7060    0.0000 O   0  0  0  0  0  0  0  0  0  0  0  0
    2.2950    0.4100    0.0000 C   0  0  0  0  0  0  0  0  0  0  0  0
    3.7950    0.4160    0.0000 C   0  0  2  0  0  0  0  0  0  0  0  0
    4.6820   -0.7940    0.0000 C   0  0  1  0  0  0  0  0  0  0  0  0
    4.2240   -2.2220    0.0000 O   0  0  0  0  0  0  0  0  0  0  0  0
    6.1070   -0.3240    0.0000 C   0  0  1  0  0  0  0  0  0  0  0  0
    6.6680   -1.7150    0.0000 F   0  0  0  0  0  0  0  0  0  0  0  0
    7.6000   -0.4680    0.0000 C   0  0  0  0  0  0  0  0  0  0  0  0
    6.1000    1.1760    0.0000 C   0  0  0  0  0  0  0  0  0  0  0  0
    4.6720    1.6330    0.0000 O   0  0  0  0  0  0  0  0  0  0  0  0
   -1.4600    1.6940    0.0000 O   0  0  0  0  0  0  0  0  0  0  0  0
   -2.2050    0.3920    0.0000 C   0  0  0  0  0  0  0  0  0  0  0  0
   -1.4490   -0.9040    0.0000 C   0  0  0  0  0  0  0  0  0  0  0  0
   -2.1940   -2.2060    0.0000 C   0  0  0  0  0  0  0  0  0  0  0  0
   -3.6940   -2.2120    0.0000 C   0  0  0  0  0  0  0  0  0  0  0  0
   -4.4490   -0.9160    0.0000 C   0  0  0  0  0  0  0  0  0  0  0  0
   -3.7050    0.3860    0.0000 C   0  0  0  0  0  0  0  0  0  0  0  0
    0.0340    3.2000    0.0000 N   0  0  0  0  0  0  0  0  0  0  0  0
   -1.2680    3.9450    0.0000 C   0  0  2  0  0  0  0  0  0  0  0  0
   -1.2740    5.4450    0.0000 C   0  0  0  0  0  0  0  0  0  0  0  0
   -2.5770    6.1890    0.0000 O   0  0  0  0  0  0  0  0  0  0  0  0
   -2.5640    3.1890    0.0000 C   0  0  0  0  0  0  0  0  0  0  0  0
  1  2  2  0  0  0  0
  1  3  1  0  0  0  0
  1 13  1  0  0  0  0
  1 20  1  0  0  0  0
  3  4  1  0  0  0  0
  5  4  1  1  0  0  0
  5  6  1  0  0  0  0
  5 12  1  0  0  0  0
  6  7  1  6  0  0  0
  6  8  1  0  0  0  0
  8  9  1  1  0  0  0
  8 10  1  6  0  0  0
  8 11  1  0  0  0  0
 11 12  1  0  0  0  0
 13 14  1  0  0  0  0
 14 15  1  0  0  0  0
 14 19  2  0  0  0  0
 15 16  2  0  0  0  0
 16 17  1  0  0  0  0
 17 18  2  0  0  0  0
 18 19  1  0  0  0  0
 20 21  1  0  0  0  0
 21 22  1  0  0  0  0
 21 24  1  1  0  0  0
 22 23  2  0  0  0  0
M  END
>  <name>
P(=O)(OC[C@@H]1[C@@H](O)[C@@](F)(C)[C;NaroC]O1)(Oc1ccccc1)N[C@H]([C;ester]=O)C

>  <apo>
2

>  <freq>
1

>  <freq0>
0

>  <freq1>
1

>  <freqA>
0.99700278

>  <a_count>
45

$$$$

  MOE2015           2D

 24 25  0  0  1  0  0  0  0  0999 V2000
    0.0400    1.7000    0.0000 P   0  0  1  0  0  0  0  0  0  0  0  0
    0.0460    0.2000    0.0000 O   0  0  0  0  0  0  0  0  0  0  0  0
    1.5400    1.7060    0.0000 O   0  0  0  0  0  0  0  0  0  0  0  0
    2.2950    0.4100    0.0000 C   0  0  0  0  0  0  0  0  0  0  0  0
    3.7950    0.4160    0.0000 C   0  0  2  0  0  0  0  0  0  0  0  0
    4.6820   -0.7940    0.0000 C   0  0  1  0  0  0  0  0  0  0  0  0
    4.2240   -2.2220    0.0000 O   0  0  0  0  0  0  0  0  0  0  0  0
    6.1070   -0.3240    0.0000 C   0  0  1  0  0  0  0  0  0  0  0  0
    6.6680   -1.7150    0.0000 F   0  0  0  0  0  0  0  0  0  0  0  0
    7.6000   -0.4680    0.0000 C   0  0  0  0  0  0  0  0  0  0  0  0
    6.1000    1.1760    0.0000 C   0  0  0  0  0  0  0  0  0  0  0  0
    4.6720    1.6330    0.0000 O   0  0  0  0  0  0  0  0  0  0  0  0
   -1.4600    1.6940    0.0000 O   0  0  0  0  0  0  0  0  0  0  0  0
   -2.2050    0.3920    0.0000 C   0  0  0  0  0  0  0  0  0  0  0  0
   -1.4490   -0.9040    0.0000 C   0  0  0  0  0  0  0  0  0  0  0  0
   -2.1940   -2.2060    0.0000 C   0  0  0  0  0  0  0  0  0  0  0  0
   -3.6940   -2.2120    0.0000 C   0  0  0  0  0  0  0  0  0  0  0  0
   -4.4490   -0.9160    0.0000 C   0  0  0  0  0  0  0  0  0  0  0  0
   -3.7050    0.3860    0.0000 C   0  0  0  0  0  0  0  0  0  0  0  0
    0.0340    3.2000    0.0000 N   0  0  0  0  0  0  0  0  0  0  0  0
   -1.2680    3.9450    0.0000 C   0  0  2  0  0  0  0  0  0  0  0  0
   -1.2740    5.4450    0.0000 C   0  0  0  0  0  0  0  0  0  0  0  0
   -2.5770    6.1890    0.0000 O   0  0  0  0  0  0  0  0  0  0  0  0
   -2.5640    3.1890    0.0000 C   0  0  0  0  0  0  0  0  0  0  0  0
  1  2  2  0  0  0  0
  1  3  1  6  0  0  0
  1 13  1  0  0  0  0
  1 20  1  1  0  0  0
  3  4  1  0  0  0  0
  5  4  1  1  0  0  0
  5  6  1  0  0  0  0
  5 12  1  0  0  0  0
  6  7  1  6  0  0  0
  6  8  1  0  0  0  0
  8  9  1  1  0  0  0
  8 10  1  6  0  0  0
  8 11  1  0  0  0  0
 11 12  1  0  0  0  0
 13 14  1  0  0  0  0
 14 15  1  0  0  0  0
 14 19  2  0  0  0  0
 15 16  2  0  0  0  0
 16 17  1  0  0  0  0
 17 18  2  0  0  0  0
 18 19  1  0  0  0  0
 20 21  1  0  0  0  0
 21 22  1  0  0  0  0
 21 24  1  1  0  0  0
 22 23  2  0  0  0  0
M  END
>  <name>
[P@@](=O)(OC[C@@H]1[C@@H](O)[C@@](F)(C)[C;NaroC]O1)(Oc1ccccc1)N[C@H]([C;ester]=O)C

>  <apo>
2

>  <freq>
1

>  <freq0>
0

>  <freq1>
1

>  <freqA>
0.99700278

>  <a_count>
45

$$$$

  MOE2015           2D

 27 29  0  0  0  0  0  0  0  0999 V2000
   13.7470    1.1280    0.0000 F   0  0  0  0  0  0  0  0  0  0  0  0
   12.4480    1.8780    0.0000 C   0  0  0  0  0  0  0  0  0  0  0  0
   13.1980    3.1770    0.0000 F   0  0  0  0  0  0  0  0  0  0  0  0
   11.6980    0.5790    0.0000 F   0  0  0  0  0  0  0  0  0  0  0  0
   11.1490    2.6280    0.0000 C   0  0  0  0  0  0  0  0  0  0  0  0
    9.8500    1.8780    0.0000 C   0  0  0  0  0  0  0  0  0  0  0  0
    8.5500    2.6280    0.0000 C   0  0  0  0  0  0  0  0  0  0  0  0
    7.2510    1.8780    0.0000 O   0  0  0  0  0  0  0  0  0  0  0  0
    5.9520    2.6280    0.0000 C   0  0  0  0  0  0  0  0  0  0  0  0
    5.9520    4.1280    0.0000 C   0  0  0  0  0  0  0  0  0  0  0  0
    7.2510    4.8780    0.0000 O   0  0  0  0  0  0  0  0  0  0  0  0
    7.2510    6.3780    0.0000 C   0  0  0  0  0  0  0  0  0  0  0  0
    4.6530    4.8780    0.0000 C   0  0  0  0  0  0  0  0  0  0  0  0
    3.3540    4.1280    0.0000 C   0  0  0  0  0  0  0  0  0  0  0  0
    2.0550    4.8780    0.0000 N   0  0  0  0  0  0  0  0  0  0  0  0
    3.3540    2.6280    0.0000 C   0  0  0  0  0  0  0  0  0  0  0  0
    2.0550    1.8780    0.0000 N   0  0  0  0  0  0  0  0  0  0  0  0
    2.0550    0.3780    0.0000 C   0  0  0  0  0  0  0  0  0  0  0  0
    0.7560   -0.3720    0.0000 O   0  0  0  0  0  0  0  0  0  0  0  0
    0.7560   -1.8720    0.0000 C   0  0  0  0  0  0  0  0  0  0  0  0
    3.3540   -0.3720    0.0000 C   0  0  0  0  0  0  0  0  0  0  0  0
    4.6530    0.3780    0.0000 C   0  0  0  0  0  0  0  0  0  0  0  0
    5.9520   -0.3720    0.0000 C   0  0  0  0  0  0  0  0  0  0  0  0
    4.6530    1.8780    0.0000 C   0  0  0  0  0  0  0  0  0  0  0  0
    8.5500    4.1280    0.0000 C   0  0  0  0  0  0  0  0  0  0  0  0
    9.8500    4.8780    0.0000 C   0  0  0  0  0  0  0  0  0  0  0  0
   11.1490    4.1280    0.0000 C   0  0  0  0  0  0  0  0  0  0  0  0
  1  2  1  0  0  0  0
  2  3  1  0  0  0  0
  2  4  1  0  0  0  0
  2  5  1  0  0  0  0
  5  6  1  0  0  0  0
  5 27  2  0  0  0  0
  6  7  2  0  0  0  0
  7  8  1  0  0  0  0
  7 25  1  0  0  0  0
  8  9  1  0  0  0  0
  9 10  1  0  0  0  0
  9 24  2  0  0  0  0
 10 11  1  0  0  0  0
 10 13  2  0  0  0  0
 11 12  1  0  0  0  0
 13 14  1  0  0  0  0
 14 15  1  0  0  0  0
 14 16  2  0  0  0  0
 16 17  1  0  0  0  0
 16 24  1  0  0  0  0
 17 18  2  0  0  0  0
 18 19  1  0  0  0  0
 18 21  1  0  0  0  0
 19 20  1  0  0  0  0
 21 22  2  0  0  0  0
 22 23  1  0  0  0  0
 22 24  1  0  0  0  0
 25 26  2  0  0  0  0
 26 27  1  0  0  0  0
M  END
>  <name>
FC(F)(F)c1cc(Oc2c(OC)cc([N;amine])c3nc(OC)cc(C)c23)ccc1

>  <apo>
1

>  <freq>
1

>  <freq0>
0

>  <freq1>
1

>  <freqA>
0.99700278

>  <a_count>
44

$$$$

  MOE2015           2D

 22 23  0  0  1  0  0  0  0  0999 V2000
    5.0730    5.0730    0.0000 O   0  0  0  0  0  0  0  0  0  0  0  0
    5.0730    3.5730    0.0000 C   0  0  0  0  0  0  0  0  0  0  0  0
    6.3720    2.8230    0.0000 O   0  0  0  0  0  0  0  0  0  0  0  0
    7.6710    3.5730    0.0000 C   0  0  0  0  0  0  0  0  0  0  0  0
    6.9210    4.8720    0.0000 C   0  0  0  0  0  0  0  0  0  0  0  0
    8.4210    2.2740    0.0000 C   0  0  0  0  0  0  0  0  0  0  0  0
    8.9700    4.3230    0.0000 C   0  0  0  0  0  0  0  0  0  0  0  0
    3.7740    2.8230    0.0000 N   0  0  0  0  0  0  0  0  0  0  0  0
    2.4750    3.5730    0.0000 C   0  0  0  0  0  0  0  0  0  0  0  0
    1.1760    2.8230    0.0000 C   0  0  0  0  0  0  0  0  0  0  0  0
    1.1760    1.3230    0.0000 O   0  0  0  0  0  0  0  0  0  0  0  0
   -0.1230    3.5730    0.0000 N   0  0  0  0  0  0  0  0  0  0  0  0
   -1.4230    2.8230    0.0000 C   0  0  3  0  0  0  0  0  0  0  0  0
   -2.7220    3.5730    0.0000 C   0  0  0  0  0  0  0  0  0  0  0  0
   -2.7220    5.0730    0.0000 O   0  0  0  0  0  0  0  0  0  0  0  0
   -1.4230    1.3230    0.0000 C   0  0  0  0  0  0  0  0  0  0  0  0
   -2.7220    0.5730    0.0000 C   0  0  0  0  0  0  0  0  0  0  0  0
   -3.4720   -0.7260    0.0000 C   0  0  0  0  0  0  0  0  0  0  0  0
   -4.2220    0.5730    0.0000 C   0  0  0  0  0  0  0  0  0  0  0  0
   -0.1230    5.0730    0.0000 C   0  0  0  0  0  0  0  0  0  0  0  0
    1.1760    5.8230    0.0000 C   0  0  0  0  0  0  0  0  0  0  0  0
    2.4750    5.0730    0.0000 C   0  0  0  0  0  0  0  0  0  0  0  0
  1  2  2  0  0  0  0
  2  3  1  0  0  0  0
  2  8  1  0  0  0  0
  3  4  1  0  0  0  0
  4  5  1  0  0  0  0
  4  6  1  0  0  0  0
  4  7  1  0  0  0  0
  8  9  1  0  0  0  0
  9 10  1  0  0  0  0
  9 22  2  0  0  0  0
 10 11  2  0  0  0  0
 10 12  1  0  0  0  0
 12 13  1  0  0  0  0
 12 20  1  0  0  0  0
 13 14  1  0  0  0  0
 13 16  1  0  0  0  0
 14 15  2  0  0  0  0
 16 17  1  0  0  0  0
 17 18  1  0  0  0  0
 17 19  1  0  0  0  0
 18 19  1  0  0  0  0
 20 21  2  0  0  0  0
 21 22  1  0  0  0  0
M  END
>  <name>
O=C(OC(C)(C)C)NC=1C(=O)N(C([C;amide]=O)CC2CC2)C=CC=1

>  <apo>
1

>  <freq>
1

>  <freq0>
0

>  <freq1>
1

>  <freqA>
0.99700278

>  <a_count>
44

$$$$

  MOE2015           2D

 22 23  0  0  1  0  0  0  0  0999 V2000
    5.0730    5.0730    0.0000 O   0  0  0  0  0  0  0  0  0  0  0  0
    5.0730    3.5730    0.0000 C   0  0  0  0  0  0  0  0  0  0  0  0
    6.3720    2.8230    0.0000 O   0  0  0  0  0  0  0  0  0  0  0  0
    7.6710    3.5730    0.0000 C   0  0  0  0  0  0  0  0  0  0  0  0
    6.9210    4.8720    0.0000 C   0  0  0  0  0  0  0  0  0  0  0  0
    8.4210    2.2740    0.0000 C   0  0  0  0  0  0  0  0  0  0  0  0
    8.9700    4.3230    0.0000 C   0  0  0  0  0  0  0  0  0  0  0  0
    3.7740    2.8230    0.0000 N   0  0  0  0  0  0  0  0  0  0  0  0
    2.4750    3.5730    0.0000 C   0  0  0  0  0  0  0  0  0  0  0  0
    1.1760    2.8230    0.0000 C   0  0  0  0  0  0  0  0  0  0  0  0
    1.1760    1.3230    0.0000 O   0  0  0  0  0  0  0  0  0  0  0  0
   -0.1230    3.5730    0.0000 N   0  0  0  0  0  0  0  0  0  0  0  0
   -1.4230    2.8230    0.0000 C   0  0  2  0  0  0  0  0  0  0  0  0
   -2.7220    3.5730    0.0000 C   0  0  0  0  0  0  0  0  0  0  0  0
   -2.7220    5.0730    0.0000 O   0  0  0  0  0  0  0  0  0  0  0  0
   -1.4230    1.3230    0.0000 C   0  0  0  0  0  0  0  0  0  0  0  0
   -2.7220    0.5730    0.0000 C   0  0  0  0  0  0  0  0  0  0  0  0
   -3.4720   -0.7260    0.0000 C   0  0  0  0  0  0  0  0  0  0  0  0
   -4.2220    0.5730    0.0000 C   0  0  0  0  0  0  0  0  0  0  0  0
   -0.1230    5.0730    0.0000 C   0  0  0  0  0  0  0  0  0  0  0  0
    1.1760    5.8230    0.0000 C   0  0  0  0  0  0  0  0  0  0  0  0
    2.4750    5.0730    0.0000 C   0  0  0  0  0  0  0  0  0  0  0  0
  1  2  2  0  0  0  0
  2  3  1  0  0  0  0
  2  8  1  0  0  0  0
  3  4  1  0  0  0  0
  4  5  1  0  0  0  0
  4  6  1  0  0  0  0
  4  7  1  0  0  0  0
  8  9  1  0  0  0  0
  9 10  1  0  0  0  0
  9 22  2  0  0  0  0
 10 11  2  0  0  0  0
 10 12  1  0  0  0  0
 13 12  1  1  0  0  0
 12 20  1  0  0  0  0
 13 14  1  0  0  0  0
 13 16  1  0  0  0  0
 14 15  2  0  0  0  0
 16 17  1  0  0  0  0
 17 18  1  0  0  0  0
 17 19  1  0  0  0  0
 18 19  1  0  0  0  0
 20 21  2  0  0  0  0
 21 22  1  0  0  0  0
M  END
>  <name>
O=C(OC(C)(C)C)NC=1C(=O)N([C@H]([C;amide]=O)CC2CC2)C=CC=1

>  <apo>
1

>  <freq>
1

>  <freq0>
0

>  <freq1>
1

>  <freqA>
0.99700278

>  <a_count>
44

$$$$

  MOE2015           2D

 20 21  0  0  0  0  0  0  0  0999 V2000
    0.1200   -7.0050    0.0000 O   0  0  0  0  0  0  0  0  0  0  0  0
    0.1200   -5.5050    0.0000 C   0  0  0  0  0  0  0  0  0  0  0  0
    1.6200   -5.5050    0.0000 C   0  0  0  0  0  0  0  0  0  0  0  0
   -1.3800   -5.5050    0.0000 C   0  0  0  0  0  0  0  0  0  0  0  0
    0.1200   -4.0050    0.0000 C   0  0  0  0  0  0  0  0  0  0  0  0
    1.4190   -3.2550    0.0000 C   0  0  0  0  0  0  0  0  0  0  0  0
    2.7180   -4.0050    0.0000 C   0  0  0  0  0  0  0  0  0  0  0  0
    4.0170   -3.2550    0.0000 C   0  0  0  0  0  0  0  0  0  0  0  0
    5.3160   -4.0050    0.0000 C   0  0  0  0  0  0  0  0  0  0  0  0
    6.6150   -3.2550    0.0000 C   0  0  0  0  0  0  0  0  0  0  0  0
    7.9140   -4.0050    0.0000 C   0  0  0  0  0  0  0  0  0  0  0  0
    9.2130   -3.2550    0.0000 C   0  0  0  0  0  0  0  0  0  0  0  0
   10.5120   -4.0050    0.0000 C   0  0  0  0  0  0  0  0  0  0  0  0
    9.2130   -1.7550    0.0000 C   0  0  0  0  0  0  0  0  0  0  0  0
    7.9140   -1.0050    0.0000 C   0  0  0  0  0  0  0  0  0  0  0  0
    6.6150   -1.7550    0.0000 C   0  0  0  0  0  0  0  0  0  0  0  0
    1.4190   -1.7550    0.0000 C   0  0  0  0  0  0  0  0  0  0  0  0
    0.1200   -1.0050    0.0000 C   0  0  0  0  0  0  0  0  0  0  0  0
   -1.1790   -1.7550    0.0000 C   0  0  0  0  0  0  0  0  0  0  0  0
   -1.1790   -3.2550    0.0000 C   0  0  0  0  0  0  0  0  0  0  0  0
  1  2  1  0  0  0  0
  2  3  1  0  0  0  0
  2  4  1  0  0  0  0
  2  5  1  0  0  0  0
  5  6  1  0  0  0  0
  5 20  2  0  0  0  0
  6  7  1  0  0  0  0
  6 17  2  0  0  0  0
  7  8  1  0  0  0  0
  8  9  1  0  0  0  0
  9 10  1  0  0  0  0
 10 11  1  0  0  0  0
 10 16  2  0  0  0  0
 11 12  2  0  0  0  0
 12 13  1  0  0  0  0
 12 14  1  0  0  0  0
 14 15  2  0  0  0  0
 15 16  1  0  0  0  0
 17 18  1  0  0  0  0
 18 19  2  0  0  0  0
 19 20  1  0  0  0  0
M  END
>  <name>
OC(C)(C)c1c(CC[C;thioether]c2cc([C;olefin])ccc2)cccc1

>  <apo>
2

>  <freq>
1

>  <freq0>
0

>  <freq1>
1

>  <freqA>
0.99700278

>  <a_count>
44

$$$$

  MOE2015           2D

 21 21  0  0  1  0  0  0  0  0999 V2000
    0.3700   -1.3810    0.0000 O   0  2  0  0  0  0  0  0  0  0  0  0
    1.6690   -0.6310    0.0000 C   0  0  0  0  0  0  0  0  0  0  0  0
    1.6690    0.8690    0.0000 C   0  0  3  0  0  0  0  0  0  0  0  0
    2.9680    1.6190    0.0000 C   0  0  1  0  0  0  0  0  0  0  0  0
    4.2670    0.8690    0.0000 N   0  0  0  0  0  0  0  0  0  0  0  0
    5.5660    1.6190    0.0000 C   0  0  0  0  0  0  0  0  0  0  0  0
    5.5660    3.1190    0.0000 O   0  0  0  0  0  0  0  0  0  0  0  0
    6.8650    0.8690    0.0000 O   0  0  0  0  0  0  0  0  0  0  0  0
    8.1640    1.6190    0.0000 C   0  0  0  0  0  0  0  0  0  0  0  0
    9.4630    0.8690    0.0000 C   0  0  0  0  0  0  0  0  0  0  0  0
    9.4630   -0.6310    0.0000 C   0  0  0  0  0  0  0  0  0  0  0  0
   10.7620   -1.3810    0.0000 C   0  0  0  0  0  0  0  0  0  0  0  0
   12.0610   -0.6310    0.0000 C   0  0  0  0  0  0  0  0  0  0  0  0
   12.0610    0.8690    0.0000 C   0  0  0  0  0  0  0  0  0  0  0  0
   10.7620    1.6190    0.0000 C   0  0  0  0  0  0  0  0  0  0  0  0
    2.9680    3.1190    0.0000 C   0  0  0  0  0  0  0  0  0  0  0  0
    1.6690    3.8690    0.0000 O   0  0  0  0  0  0  0  0  0  0  0  0
    0.3700    1.6190    0.0000 C   0  0  0  0  0  0  0  0  0  0  0  0
    1.1200   -2.6800    0.0000 C   0  0  0  0  0  0  0  0  0  0  0  0
   -0.3800   -0.0820    0.0000 C   0  0  0  0  0  0  0  0  0  0  0  0
   -0.9290   -2.1310    0.0000 C   0  6  0  0  0  0  0  0  0  0  0  0
  1  2  1  0  0  0  0
  1 19  1  0  0  0  0
  1 20  1  0  0  0  0
  1 21  1  0  0  0  0
  2  3  1  0  0  0  0
  4  3  1  6  0  0  0
  3 18  1  0  0  0  0
  4  5  1  0  0  0  0
  4 16  1  0  0  0  0
  5  6  1  0  0  0  0
  6  7  2  0  0  0  0
  6  8  1  0  0  0  0
  8  9  1  0  0  0  0
  9 10  1  0  0  0  0
 10 11  1  0  0  0  0
 10 15  2  0  0  0  0
 11 12  2  0  0  0  0
 12 13  1  0  0  0  0
 13 14  2  0  0  0  0
 14 15  1  0  0  0  0
 16 17  2  0  0  0  0
M  CHG  1   1   2
M  CHG  1  21  -2
M  END
>  <name>
[O+2](CC([C@@H](NC(=O)OCc1ccccc1)[C;amide]=O)C)(C)(C)[C-2]

>  <apo>
1

>  <freq>
1

>  <freq0>
0

>  <freq1>
1

>  <freqA>
0.99700278

>  <a_count>
44

$$$$

  MOE2015           2D

 25 27  0  0  1  0  0  0  0  0999 V2000
   13.5760   -0.1920    0.0000 Cl  0  0  0  0  0  0  0  0  0  0  0  0
   12.2950   -0.9730    0.0000 C   0  0  0  0  0  0  0  0  0  0  0  0
   10.9790   -0.2540    0.0000 C   0  0  0  0  0  0  0  0  0  0  0  0
    9.6980   -1.0350    0.0000 C   0  0  0  0  0  0  0  0  0  0  0  0
    9.7340   -2.5340    0.0000 C   0  0  0  0  0  0  0  0  0  0  0  0
    8.4530   -3.3150    0.0000 C   0  0  0  0  0  0  0  0  0  0  0  0
    8.4890   -4.8150    0.0000 O   0  0  0  0  0  0  0  0  0  0  0  0
    7.1370   -2.5970    0.0000 N   0  0  0  0  0  0  0  0  0  0  0  0
    6.9440   -1.1090    0.0000 C   0  0  0  0  0  0  0  0  0  0  0  0
    8.0340   -0.0790    0.0000 C   0  0  0  0  0  0  0  0  0  0  0  0
    5.4700   -0.8320    0.0000 C   0  0  0  0  0  0  0  0  0  0  0  0
    4.8270    0.5230    0.0000 C   0  0  3  0  0  0  0  0  0  0  0  0
    3.3320    0.6440    0.0000 C   0  0  0  0  0  0  0  0  0  0  0  0
    2.6890    1.9990    0.0000 O   0  0  0  0  0  0  0  0  0  0  0  0
    5.6790    1.7570    0.0000 C   0  0  0  0  0  0  0  0  0  0  0  0
    4.7510   -2.1490    0.0000 C   0  0  0  0  0  0  0  0  0  0  0  0
    5.7810   -3.2390    0.0000 C   0  0  0  0  0  0  0  0  0  0  0  0
    5.3520   -4.6770    0.0000 C   0  0  0  0  0  0  0  0  0  0  0  0
    3.8930   -5.0240    0.0000 C   0  0  0  0  0  0  0  0  0  0  0  0
    2.8630   -3.9330    0.0000 C   0  0  0  0  0  0  0  0  0  0  0  0
    1.4030   -4.2800    0.0000 O   0  0  0  0  0  0  0  0  0  0  0  0
    0.9740   -5.7180    0.0000 C   0  0  0  0  0  0  0  0  0  0  0  0
    3.2920   -2.4960    0.0000 C   0  0  0  0  0  0  0  0  0  0  0  0
   11.0510   -3.2530    0.0000 C   0  0  0  0  0  0  0  0  0  0  0  0
   12.3310   -2.4720    0.0000 C   0  0  0  0  0  0  0  0  0  0  0  0
  1  2  1  0  0  0  0
  2  3  1  0  0  0  0
  2 25  2  0  0  0  0
  3  4  2  0  0  0  0
  4  5  1  0  0  0  0
  5  6  1  0  0  0  0
  5 24  2  0  0  0  0
  6  7  2  0  0  0  0
  6  8  1  0  0  0  0
  8  9  1  0  0  0  0
  8 17  1  0  0  0  0
  9 10  1  0  0  0  0
  9 11  2  0  0  0  0
 11 12  1  0  0  0  0
 11 16  1  0  0  0  0
 12 13  1  0  0  0  0
 12 15  1  0  0  0  0
 13 14  2  0  0  0  0
 16 17  1  0  0  0  0
 16 23  2  0  0  0  0
 17 18  2  0  0  0  0
 18 19  1  0  0  0  0
 19 20  2  0  0  0  0
 20 21  1  0  0  0  0
 20 23  1  0  0  0  0
 21 22  1  0  0  0  0
 24 25  1  0  0  0  0
M  END
>  <name>
Clc1ccc(C(=O)n2c(C)c(C([C;ester]=O)C)c3c2ccc(OC)c3)cc1

>  <apo>
1

>  <freq>
1

>  <freq0>
0

>  <freq1>
1

>  <freqA>
0.99700278

>  <a_count>
43

$$$$

  MOE2015           2D

 26 29  0  0  0  0  0  0  0  0999 V2000
    2.2170    8.3450    0.0000 O   0  0  0  0  0  0  0  0  0  0  0  0
    3.5190    7.6010    0.0000 C   0  0  0  0  0  0  0  0  0  0  0  0
    0.9210    7.5900    0.0000 C   0  0  0  0  0  0  0  0  0  0  0  0
   -0.3810    8.3340    0.0000 C   0  0  0  0  0  0  0  0  0  0  0  0
   -1.6770    7.5790    0.0000 C   0  0  0  0  0  0  0  0  0  0  0  0
   -1.6710    6.0790    0.0000 C   0  0  0  0  0  0  0  0  0  0  0  0
   -2.9660    5.3230    0.0000 C   0  0  0  0  0  0  0  0  0  0  0  0
   -4.2690    6.0670    0.0000 N   0  0  0  0  0  0  0  0  0  0  0  0
   -5.5640    5.3120    0.0000 N   0  0  0  0  0  0  0  0  0  0  0  0
   -6.8670    6.0560    0.0000 C   0  0  0  0  0  0  0  0  0  0  0  0
   -6.8730    7.5560    0.0000 N   0  0  0  0  0  0  0  0  0  0  0  0
   -8.1750    8.3000    0.0000 C   0  0  0  0  0  0  0  0  0  0  0  0
   -9.4710    7.5450    0.0000 N   0  0  0  0  0  0  0  0  0  0  0  0
   -9.4650    6.0450    0.0000 C   0  0  0  0  0  0  0  0  0  0  0  0
  -10.5750    5.0360    0.0000 N   0  0  0  0  0  0  0  0  0  0  0  0
  -12.0440    5.3420    0.0000 C   0  0  0  0  0  0  0  0  0  0  0  0
  -13.0420    4.2230    0.0000 C   0  0  0  0  0  0  0  0  0  0  0  0
  -14.5110    4.5280    0.0000 C   0  0  0  0  0  0  0  0  0  0  0  0
  -14.9810    5.9530    0.0000 C   0  0  0  0  0  0  0  0  0  0  0  0
  -13.9820    7.0720    0.0000 C   0  0  0  0  0  0  0  0  0  0  0  0
  -12.5130    6.7660    0.0000 C   0  0  0  0  0  0  0  0  0  0  0  0
   -9.9590    3.6690    0.0000 C   0  0  0  0  0  0  0  0  0  0  0  0
   -8.4680    3.8320    0.0000 C   0  0  0  0  0  0  0  0  0  0  0  0
   -8.1620    5.3010    0.0000 C   0  0  0  0  0  0  0  0  0  0  0  0
   -0.3680    5.3340    0.0000 C   0  0  0  0  0  0  0  0  0  0  0  0
    0.9280    6.0900    0.0000 C   0  0  0  0  0  0  0  0  0  0  0  0
  1  2  1  0  0  0  0
  1  3  1  0  0  0  0
  3  4  1  0  0  0  0
  3 26  2  0  0  0  0
  4  5  2  0  0  0  0
  5  6  1  0  0  0  0
  6  7  1  0  0  0  0
  6 25  2  0  0  0  0
  7  8  2  0  0  0  0
  8  9  1  0  0  0  0
  9 10  1  0  0  0  0
 10 11  1  0  0  0  0
 10 24  2  0  0  0  0
 11 12  2  0  0  0  0
 12 13  1  0  0  0  0
 13 14  2  0  0  0  0
 14 15  1  0  0  0  0
 14 24  1  0  0  0  0
 15 16  1  0  0  0  0
 15 22  1  0  0  0  0
 16 17  1  0  0  0  0
 16 21  2  0  0  0  0
 17 18  2  0  0  0  0
 18 19  1  0  0  0  0
 19 20  2  0  0  0  0
 20 21  1  0  0  0  0
 22 23  2  0  0  0  0
 23 24  1  0  0  0  0
 25 26  1  0  0  0  0
M  END
>  <name>
O(C)c1ccc(C=NNc2ncnc3n(-c4ccccc4)c[c;biphenyl]c23)cc1

>  <apo>
1

>  <freq>
1

>  <freq0>
0

>  <freq1>
1

>  <freqA>
0.99700278

>  <a_count>
43

$$$$

  MOE2015           2D

 24 27  0  0  0  0  0  0  0  0999 V2000
    2.4830    2.6770    0.0000 O   0  0  0  0  0  0  0  0  0  0  0  0
    1.7330    1.3780    0.0000 C   0  0  0  0  0  0  0  0  0  0  0  0
    2.4830    0.0790    0.0000 C   0  0  0  0  0  0  0  0  0  0  0  0
    3.9830    0.0790    0.0000 C   0  0  0  0  0  0  0  0  0  0  0  0
    4.7330   -1.2200    0.0000 C   0  0  0  0  0  0  0  0  0  0  0  0
    3.9830   -2.5190    0.0000 C   0  0  0  0  0  0  0  0  0  0  0  0
    6.2330   -1.2200    0.0000 C   0  0  0  0  0  0  0  0  0  0  0  0
    7.2370   -2.3350    0.0000 O   0  0  0  0  0  0  0  0  0  0  0  0
    8.6070   -1.7250    0.0000 C   0  0  0  0  0  0  0  0  0  0  0  0
    8.4500   -0.2330    0.0000 O   0  0  0  0  0  0  0  0  0  0  0  0
    6.9830    0.0790    0.0000 C   0  0  0  0  0  0  0  0  0  0  0  0
    6.2330    1.3780    0.0000 C   0  0  0  0  0  0  0  0  0  0  0  0
    4.7330    1.3780    0.0000 C   0  0  0  0  0  0  0  0  0  0  0  0
    0.2330    1.3780    0.0000 C   0  0  0  0  0  0  0  0  0  0  0  0
   -0.5170    2.6770    0.0000 C   0  0  0  0  0  0  0  0  0  0  0  0
    0.2330    3.9760    0.0000 C   0  0  0  0  0  0  0  0  0  0  0  0
   -0.5170    5.2750    0.0000 C   0  0  0  0  0  0  0  0  0  0  0  0
   -2.0170    2.6770    0.0000 C   0  0  0  0  0  0  0  0  0  0  0  0
   -2.7670    1.3780    0.0000 C   0  0  0  0  0  0  0  0  0  0  0  0
   -4.2340    1.0660    0.0000 O   0  0  0  0  0  0  0  0  0  0  0  0
   -4.3910   -0.4260    0.0000 C   0  0  0  0  0  0  0  0  0  0  0  0
   -3.0210   -1.0360    0.0000 O   0  0  0  0  0  0  0  0  0  0  0  0
   -2.0170    0.0790    0.0000 C   0  0  0  0  0  0  0  0  0  0  0  0
   -0.5170    0.0790    0.0000 C   0  0  0  0  0  0  0  0  0  0  0  0
  1  2  2  0  0  0  0
  2  3  1  0  0  0  0
  2 14  1  0  0  0  0
  3  4  1  0  0  0  0
  4  5  1  0  0  0  0
  4 13  2  0  0  0  0
  5  6  1  0  0  0  0
  5  7  2  0  0  0  0
  7  8  1  0  0  0  0
  7 11  1  0  0  0  0
  8  9  1  0  0  0  0
  9 10  1  0  0  0  0
 10 11  1  0  0  0  0
 11 12  2  0  0  0  0
 12 13  1  0  0  0  0
 14 15  1  0  0  0  0
 14 24  2  0  0  0  0
 15 16  1  0  0  0  0
 15 18  2  0  0  0  0
 16 17  1  0  0  0  0
 18 19  1  0  0  0  0
 19 20  1  0  0  0  0
 19 23  2  0  0  0  0
 20 21  1  0  0  0  0
 21 22  1  0  0  0  0
 22 23  1  0  0  0  0
 23 24  1  0  0  0  0
M  END
>  <name>
O=C(Cc1c([C;amine])c2OCOc2cc1)c1c(C[C;amine])cc2OCOc2c1

>  <apo>
2

>  <freq>
1

>  <freq0>
0

>  <freq1>
1

>  <freqA>
0.99700278

>  <a_count>
42

$$$$

  MOE2015           2D

 17 16  0  0  1  0  0  0  0  0999 V2000
   -0.1760    3.0570    0.0000 O   0  0  0  0  0  0  0  0  0  0  0  0
    0.5740    1.7580    0.0000 C   0  0  0  0  0  0  0  0  0  0  0  0
   -0.1760    0.4580    0.0000 O   0  0  0  0  0  0  0  0  0  0  0  0
   -1.6760    0.4580    0.0000 C   0  0  0  0  0  0  0  0  0  0  0  0
   -3.1760    0.4580    0.0000 C   0  0  0  0  0  0  0  0  0  0  0  0
   -1.6760   -1.0420    0.0000 C   0  0  0  0  0  0  0  0  0  0  0  0
   -1.6760    1.9580    0.0000 C   0  0  0  0  0  0  0  0  0  0  0  0
    2.0740    1.7580    0.0000 N   0  0  0  0  0  0  0  0  0  0  0  0
    2.8240    3.0570    0.0000 C   0  0  2  0  0  0  0  0  0  0  0  0
    2.0740    4.3560    0.0000 C   0  0  0  0  0  0  0  0  0  0  0  0
    2.8240    5.6550    0.0000 O   0  0  0  0  0  0  0  0  0  0  0  0
    4.3240    3.0570    0.0000 C   0  0  0  0  0  0  0  0  0  0  0  0
    5.0740    1.7580    0.0000 C   0  0  0  0  0  0  0  0  0  0  0  0
    6.5740    1.7580    0.0000 C   0  0  0  0  0  0  0  0  0  0  0  0
    7.3240    0.4580    0.0000 C   0  0  0  0  0  0  0  0  0  0  0  0
    8.8240    0.4580    0.0000 C   0  0  0  0  0  0  0  0  0  0  0  0
    9.5740   -0.8410    0.0000 C   0  0  0  0  0  0  0  0  0  0  0  0
  1  2  2  0  0  0  0
  2  3  1  0  0  0  0
  2  8  1  0  0  0  0
  3  4  1  0  0  0  0
  4  5  1  0  0  0  0
  4  6  1  0  0  0  0
  4  7  1  0  0  0  0
  9  8  1  6  0  0  0
  9 10  1  0  0  0  0
  9 12  1  0  0  0  0
 10 11  2  0  0  0  0
 12 13  1  0  0  0  0
 13 14  1  0  0  0  0
 14 15  1  0  0  0  0
 15 16  1  0  0  0  0
 16 17  1  0  0  0  0
M  END
>  <name>
O=C(OC(C)(C)C)N[C@H]([C;amide]=O)CCCCC[C;olefin]

>  <apo>
2

>  <freq>
1

>  <freq0>
0

>  <freq1>
1

>  <freqA>
0.99700278

>  <a_count>
42

$$$$

  MOE2015           2D

 24 26  0  0  0  0  0  0  0  0999 V2000
    1.0080   -2.6460    0.0000 O   0  0  0  0  0  0  0  0  0  0  0  0
    1.3920   -1.1960    0.0000 C   0  0  0  0  0  0  0  0  0  0  0  0
    0.4450   -0.0330    0.0000 N   0  0  0  0  0  0  0  0  0  0  0  0
   -1.0530   -0.1160    0.0000 C   0  0  0  0  0  0  0  0  0  0  0  0
   -1.8740    1.1390    0.0000 C   0  0  0  0  0  0  0  0  0  0  0  0
   -3.3710    1.0570    0.0000 C   0  0  0  0  0  0  0  0  0  0  0  0
   -4.1920    2.3120    0.0000 C   0  0  0  0  0  0  0  0  0  0  0  0
   -4.0490   -0.2820    0.0000 C   0  0  0  0  0  0  0  0  0  0  0  0
   -5.5460   -0.3650    0.0000 C   0  0  0  0  0  0  0  0  0  0  0  0
   -3.2280   -1.5380    0.0000 C   0  0  0  0  0  0  0  0  0  0  0  0
   -1.7300   -1.4550    0.0000 C   0  0  0  0  0  0  0  0  0  0  0  0
    1.2580    1.2270    0.0000 N   0  0  0  0  0  0  0  0  0  0  0  0
    2.7080    0.8430    0.0000 C   0  0  0  0  0  0  0  0  0  0  0  0
    3.8710    1.7900    0.0000 C   0  0  0  0  0  0  0  0  0  0  0  0
    2.7910   -0.6550    0.0000 C   0  0  0  0  0  0  0  0  0  0  0  0
    4.0510   -1.4680    0.0000 N   0  0  0  0  0  0  0  0  0  0  0  0
    5.3860   -0.7830    0.0000 N   0  0  0  0  0  0  0  0  0  0  0  0
    6.6460   -1.5970    0.0000 C   0  0  0  0  0  0  0  0  0  0  0  0
    7.9800   -0.9120    0.0000 C   0  0  0  0  0  0  0  0  0  0  0  0
    8.0550    0.5860    0.0000 O   0  0  0  0  0  0  0  0  0  0  0  0
    9.2410   -1.7250    0.0000 C   0  0  0  0  0  0  0  0  0  0  0  0
    9.1670   -3.2230    0.0000 C   0  0  0  0  0  0  0  0  0  0  0  0
    7.8320   -3.9080    0.0000 C   0  0  0  0  0  0  0  0  0  0  0  0
    6.5720   -3.0950    0.0000 C   0  0  0  0  0  0  0  0  0  0  0  0
  1  2  2  0  0  0  0
  2  3  1  0  0  0  0
  2 15  1  0  0  0  0
  3  4  1  0  0  0  0
  3 12  1  0  0  0  0
  4  5  1  0  0  0  0
  4 11  2  0  0  0  0
  5  6  2  0  0  0  0
  6  7  1  0  0  0  0
  6  8  1  0  0  0  0
  8  9  1  0  0  0  0
  8 10  2  0  0  0  0
 10 11  1  0  0  0  0
 12 13  2  0  0  0  0
 13 14  1  0  0  0  0
 13 15  1  0  0  0  0
 15 16  2  0  0  0  0
 16 17  1  0  0  0  0
 17 18  1  0  0  0  0
 18 19  2  0  0  0  0
 18 24  1  0  0  0  0
 19 20  1  0  0  0  0
 19 21  1  0  0  0  0
 21 22  2  0  0  0  0
 22 23  1  0  0  0  0
 23 24  2  0  0  0  0
M  END
>  <name>
O=C/1N(c2cc(C)c(C)cc2)N=C(C)\C\1=N/Nc1c(O)[c;biphenyl]ccc1

>  <apo>
1

>  <freq>
1

>  <freq0>
0

>  <freq1>
1

>  <freqA>
0.99700278

>  <a_count>
42

$$$$

  MOE2015           2D

 18 18  0  0  0  0  0  0  0  0999 V2000
    2.3940   -2.1060    0.0000 O   0  0  0  0  0  0  0  0  0  0  0  0
    2.3940   -0.6060    0.0000 C   0  0  0  0  0  0  0  0  0  0  0  0
    1.0950    0.1440    0.0000 N   0  0  0  0  0  0  0  0  0  0  0  0
   -0.2040   -0.6060    0.0000 C   0  0  0  0  0  0  0  0  0  0  0  0
   -1.5030    0.1440    0.0000 C   0  0  0  0  0  0  0  0  0  0  0  0
   -2.8020   -0.6060    0.0000 C   0  0  0  0  0  0  0  0  0  0  0  0
   -4.1010    0.1440    0.0000 C   0  0  0  0  0  0  0  0  0  0  0  0
   -5.4000   -0.6060    0.0000 C   0  0  0  0  0  0  0  0  0  0  0  0
    1.0950    1.6440    0.0000 C   0  0  0  0  0  0  0  0  0  0  0  0
   -0.2040    2.3940    0.0000 O   0  0  0  0  0  0  0  0  0  0  0  0
    2.3940    2.3940    0.0000 C   0  0  0  0  0  0  0  0  0  0  0  0
    3.6930    1.6440    0.0000 C   0  0  0  0  0  0  0  0  0  0  0  0
    3.6930    0.1440    0.0000 N   0  0  0  0  0  0  0  0  0  0  0  0
    4.9920   -0.6060    0.0000 C   0  0  0  0  0  0  0  0  0  0  0  0
    6.2910    0.1440    0.0000 C   0  0  0  0  0  0  0  0  0  0  0  0
    7.5900   -0.6060    0.0000 C   0  0  0  0  0  0  0  0  0  0  0  0
    8.8900    0.1440    0.0000 C   0  0  0  0  0  0  0  0  0  0  0  0
   10.1890   -0.6060    0.0000 C   0  0  0  0  0  0  0  0  0  0  0  0
  1  2  2  0  0  0  0
  2  3  1  0  0  0  0
  2 13  1  0  0  0  0
  3  4  1  0  0  0  0
  3  9  1  0  0  0  0
  4  5  1  0  0  0  0
  5  6  1  0  0  0  0
  6  7  1  0  0  0  0
  7  8  1  0  0  0  0
  9 10  2  0  0  0  0
  9 11  1  0  0  0  0
 11 12  2  0  0  0  0
 12 13  1  0  0  0  0
 13 14  1  0  0  0  0
 14 15  1  0  0  0  0
 15 16  1  0  0  0  0
 16 17  1  0  0  0  0
 17 18  1  0  0  0  0
M  END
>  <name>
O=C1N(CCCC[C;ether])C(=O)C=CN1CCCC[C;ether]

>  <apo>
2

>  <freq>
1

>  <freq0>
0

>  <freq1>
1

>  <freqA>
0.99700278

>  <a_count>
42

$$$$

  MOE2015           2D

 28 31  0  0  0  0  0  0  0  0999 V2000
    0.0290    0.0950    0.0000 O   0  0  0  0  0  0  0  0  0  0  0  0
    1.2780   -0.7360    0.0000 C   0  0  0  0  0  0  0  0  0  0  0  0
    0.4470   -1.9850    0.0000 C   0  0  0  0  0  0  0  0  0  0  0  0
   -1.0500   -1.8900    0.0000 C   0  0  0  0  0  0  0  0  0  0  0  0
   -2.0070   -3.0460    0.0000 O   0  0  0  0  0  0  0  0  0  0  0  0
   -3.4010   -2.4930    0.0000 C   0  0  0  0  0  0  0  0  0  0  0  0
   -3.3060   -0.9960    0.0000 N   0  0  0  0  0  0  0  0  0  0  0  0
   -1.8530   -0.6230    0.0000 N   0  0  0  0  0  0  0  0  0  0  0  0
    2.1080    0.5130    0.0000 C   0  0  0  0  0  0  0  0  0  0  0  0
    1.4420    1.8570    0.0000 C   0  0  0  0  0  0  0  0  0  0  0  0
    2.1380    3.1860    0.0000 O   0  0  0  0  0  0  0  0  0  0  0  0
    1.0890    4.2580    0.0000 C   0  0  0  0  0  0  0  0  0  0  0  0
   -0.2550    3.5920    0.0000 N   0  0  0  0  0  0  0  0  0  0  0  0
   -0.0370    2.1080    0.0000 N   0  0  0  0  0  0  0  0  0  0  0  0
    2.5270   -1.5670    0.0000 C   0  0  0  0  0  0  0  0  0  0  0  0
    2.5890   -3.0650    0.0000 N   0  0  0  0  0  0  0  0  0  0  0  0
    4.0330   -3.4700    0.0000 N   0  0  0  0  0  0  0  0  0  0  0  0
    4.8640   -2.2210    0.0000 C   0  0  0  0  0  0  0  0  0  0  0  0
    6.3630   -2.1580    0.0000 C   0  0  0  0  0  0  0  0  0  0  0  0
    7.0580   -0.8290    0.0000 C   0  0  0  0  0  0  0  0  0  0  0  0
    8.5570   -0.7670    0.0000 C   0  0  0  0  0  0  0  0  0  0  0  0
    9.2520    0.5620    0.0000 O   0  0  0  0  0  0  0  0  0  0  0  0
    9.3600   -2.0340    0.0000 C   0  0  0  0  0  0  0  0  0  0  0  0
   10.8590   -1.9720    0.0000 O   0  0  0  0  0  0  0  0  0  0  0  0
    8.6640   -3.3630    0.0000 C   0  0  0  0  0  0  0  0  0  0  0  0
    9.4680   -4.6300    0.0000 O   0  0  0  0  0  0  0  0  0  0  0  0
    7.1660   -3.4250    0.0000 C   0  0  0  0  0  0  0  0  0  0  0  0
    3.9330   -1.0450    0.0000 C   0  0  0  0  0  0  0  0  0  0  0  0
  1  2  1  0  0  0  0
  2  3  1  0  0  0  0
  2  9  1  0  0  0  0
  2 15  1  0  0  0  0
  3  4  1  0  0  0  0
  4  5  1  0  0  0  0
  4  8  2  0  0  0  0
  5  6  1  0  0  0  0
  6  7  2  0  0  0  0
  7  8  1  0  0  0  0
  9 10  1  0  0  0  0
 10 11  1  0  0  0  0
 10 14  2  0  0  0  0
 11 12  1  0  0  0  0
 12 13  2  0  0  0  0
 13 14  1  0  0  0  0
 15 16  2  0  0  0  0
 15 28  1  0  0  0  0
 16 17  1  0  0  0  0
 17 18  2  0  0  0  0
 18 19  1  0  0  0  0
 18 28  1  0  0  0  0
 19 20  1  0  0  0  0
 19 27  2  0  0  0  0
 20 21  2  0  0  0  0
 21 22  1  0  0  0  0
 21 23  1  0  0  0  0
 23 24  1  0  0  0  0
 23 25  2  0  0  0  0
 25 26  1  0  0  0  0
 25 27  1  0  0  0  0
M  END
>  <name>
OC(Cc1o[c;biphenyl]nn1)(Cc1o[c;biphenyl]nn1)C1=NN=C(c2cc(O)c(O)c(O)c2)C1

>  <apo>
2

>  <freq>
1

>  <freq0>
0

>  <freq1>
1

>  <freqA>
0.99700278

>  <a_count>
42

$$$$

  MOE2015           2D

 21 21  0  0  1  0  0  0  0  0999 V2000
   -1.2020   -4.4850    0.0000 P   0  0  0  0  0  0  0  0  0  0  0  0
    0.0970   -5.2350    0.0000 O   0  0  0  0  0  0  0  0  0  0  0  0
   -2.5010   -3.7350    0.0000 O   0  5  0  0  0  0  0  0  0  0  0  0
   -1.9520   -5.7840    0.0000 O   0  5  0  0  0  0  0  0  0  0  0  0
   -0.4520   -3.1860    0.0000 C   0  0  0  0  0  0  0  0  0  0  0  0
    1.0480   -3.1860    0.0000 C   0  0  1  0  0  0  0  0  0  0  0  0
    1.7980   -1.8870    0.0000 C   0  0  2  0  0  0  0  0  0  0  0  0
    1.0480   -0.5880    0.0000 N   0  3  0  0  0  0  0  0  0  0  0  0
    1.7980    0.7120    0.0000 C   0  0  0  0  0  0  0  0  0  0  0  0
    3.2980    0.7120    0.0000 N   0  0  0  0  0  0  0  0  0  0  0  0
    1.0480    2.0110    0.0000 N   0  0  0  0  0  0  0  0  0  0  0  0
    3.2980   -1.8870    0.0000 C   0  0  2  0  0  0  0  0  0  0  0  0
    4.0480   -0.5880    0.0000 O   0  0  0  0  0  0  0  0  0  0  0  0
    4.0480   -3.1860    0.0000 C   0  0  1  0  0  0  0  0  0  0  0  0
    5.5480   -3.1860    0.0000 N   0  3  0  0  0  0  0  0  0  0  0  0
    6.2980   -4.4850    0.0000 C   0  0  0  0  0  0  0  0  0  0  0  0
    5.5480   -5.7840    0.0000 N   0  0  0  0  0  0  0  0  0  0  0  0
    7.7980   -4.4850    0.0000 N   0  0  0  0  0  0  0  0  0  0  0  0
    3.2980   -4.4850    0.0000 C   0  0  0  0  0  0  0  0  0  0  0  0
    1.7980   -4.4850    0.0000 C   0  0  1  0  0  0  0  0  0  0  0  0
    1.0480   -5.7840    0.0000 O   0  0  0  0  0  0  0  0  0  0  0  0
  1  2  2  0  0  0  0
  1  3  1  0  0  0  0
  1  4  1  0  0  0  0
  1  5  1  0  0  0  0
  6  5  1  1  0  0  0
  6  7  1  0  0  0  0
  6 20  1  0  0  0  0
  7  8  1  6  0  0  0
  7 12  1  0  0  0  0
  8  9  2  0  0  0  0
  9 10  1  0  0  0  0
  9 11  1  0  0  0  0
 12 13  1  6  0  0  0
 12 14  1  0  0  0  0
 14 15  1  1  0  0  0
 14 19  1  0  0  0  0
 15 16  2  0  0  0  0
 16 17  1  0  0  0  0
 16 18  1  0  0  0  0
 19 20  1  0  0  0  0
 20 21  1  1  0  0  0
M  CHG  1   3  -1
M  CHG  1   4  -1
M  CHG  1   8   1
M  CHG  1  15   1
M  END
>  <name>
P(=O)([O-])([O-])C[C@H]1[C@H](/[N+]=C(\N)/N)[C@H](O)[C@@H](/[N+]=C(\N)/N)[C;ether][C@H]1O

>  <apo>
1

>  <freq>
1

>  <freq0>
0

>  <freq1>
1

>  <freqA>
0.99700278

>  <a_count>
42

$$$$

  MOE2015           2D

 23 25  0  0  0  0  0  0  0  0999 V2000
    3.0970    6.0340    0.0000 O   0  0  0  0  0  0  0  0  0  0  0  0
    3.0970    4.5340    0.0000 C   0  0  0  0  0  0  0  0  0  0  0  0
    4.3960    3.7840    0.0000 N   0  0  0  0  0  0  0  0  0  0  0  0
    4.3960    2.2840    0.0000 C   0  0  0  0  0  0  0  0  0  0  0  0
    5.6950    1.5340    0.0000 N   0  0  0  0  0  0  0  0  0  0  0  0
    5.6950    0.0340    0.0000 N   0  0  0  0  0  0  0  0  0  0  0  0
    6.9940   -0.7160    0.0000 C   0  0  0  0  0  0  0  0  0  0  0  0
    8.2930    0.0340    0.0000 C   0  0  0  0  0  0  0  0  0  0  0  0
    9.5920   -0.7160    0.0000 C   0  0  0  0  0  0  0  0  0  0  0  0
   10.8910    0.0340    0.0000 C   0  0  0  0  0  0  0  0  0  0  0  0
   12.1900   -0.7160    0.0000 C   0  0  0  0  0  0  0  0  0  0  0  0
   10.8910    1.5340    0.0000 C   0  0  0  0  0  0  0  0  0  0  0  0
    9.5920    2.2840    0.0000 C   0  0  0  0  0  0  0  0  0  0  0  0
    8.2930    1.5340    0.0000 C   0  0  0  0  0  0  0  0  0  0  0  0
    3.0970    1.5340    0.0000 C   0  0  0  0  0  0  0  0  0  0  0  0
    1.7980    2.2840    0.0000 C   0  0  0  0  0  0  0  0  0  0  0  0
    0.4990    1.5340    0.0000 N   0  0  0  0  0  0  0  0  0  0  0  0
    0.4990    0.0340    0.0000 C   0  0  0  0  0  0  0  0  0  0  0  0
   -0.8000   -0.7160    0.0000 C   0  0  0  0  0  0  0  0  0  0  0  0
   -2.0990    0.0340    0.0000 O   0  0  0  0  0  0  0  0  0  0  0  0
   -2.0990    1.5340    0.0000 C   0  0  0  0  0  0  0  0  0  0  0  0
   -0.8000    2.2840    0.0000 C   0  0  0  0  0  0  0  0  0  0  0  0
    1.7980    3.7840    0.0000 N   0  0  0  0  0  0  0  0  0  0  0  0
  1  2  1  0  0  0  0
  2  3  2  0  0  0  0
  2 23  1  0  0  0  0
  3  4  1  0  0  0  0
  4  5  1  0  0  0  0
  4 15  2  0  0  0  0
  5  6  1  0  0  0  0
  6  7  2  0  0  0  0
  7  8  1  0  0  0  0
  8  9  2  0  0  0  0
  8 14  1  0  0  0  0
  9 10  1  0  0  0  0
 10 11  1  0  0  0  0
 10 12  2  0  0  0  0
 12 13  1  0  0  0  0
 13 14  2  0  0  0  0
 15 16  1  0  0  0  0
 16 17  1  0  0  0  0
 16 23  2  0  0  0  0
 17 18  1  0  0  0  0
 17 22  1  0  0  0  0
 18 19  1  0  0  0  0
 19 20  1  0  0  0  0
 20 21  1  0  0  0  0
 21 22  1  0  0  0  0
M  END
>  <name>
[O;ether]c1nc(N/N=C\c2cc(C)ccc2)cc(N2CCOCC2)n1

>  <apo>
1

>  <freq>
1

>  <freq0>
0

>  <freq1>
1

>  <freqA>
0.99700278

>  <a_count>
42

$$$$

  MOE2015           2D

 20 21  0  0  1  0  0  0  0  0999 V2000
    0.6780    5.8510    0.0000 O   0  0  0  0  0  0  0  0  0  0  0  0
    0.6780    4.3510    0.0000 C   0  0  0  0  0  0  0  0  0  0  0  0
    1.9770    3.6010    0.0000 N   0  0  0  0  0  0  0  0  0  0  0  0
    3.2760    4.3510    0.0000 C   0  0  0  0  0  0  0  0  0  0  0  0
    4.5760    3.6010    0.0000 C   0  0  3  0  0  0  0  0  0  0  0  0
    4.5760    5.1010    0.0000 O   0  0  0  0  0  0  0  0  0  0  0  0
    6.0760    3.6010    0.0000 C   0  0  3  0  0  0  0  0  0  0  0  0
    6.8260    4.9000    0.0000 O   0  0  0  0  0  0  0  0  0  0  0  0
    6.8260    2.3010    0.0000 C   0  0  0  0  0  0  0  0  0  0  0  0
    6.0760    1.0020    0.0000 C   0  0  3  0  0  0  0  0  0  0  0  0
    6.8260   -0.2970    0.0000 N   0  0  0  0  0  0  0  0  0  0  0  0
    8.3260   -0.2970    0.0000 C   0  0  0  0  0  0  0  0  0  0  0  0
    4.5760    1.0020    0.0000 C   0  0  0  0  0  0  0  0  0  0  0  0
    3.8260    2.3010    0.0000 C   0  0  0  0  0  0  0  0  0  0  0  0
    1.9770    2.1010    0.0000 C   0  0  0  0  0  0  0  0  0  0  0  0
    0.6780    1.3510    0.0000 C   0  0  0  0  0  0  0  0  0  0  0  0
    0.6780   -0.1490    0.0000 C   0  0  0  0  0  0  0  0  0  0  0  0
   -0.6210    2.1010    0.0000 C   0  0  0  0  0  0  0  0  0  0  0  0
   -1.9200    1.3510    0.0000 O   0  0  0  0  0  0  0  0  0  0  0  0
   -0.6210    3.6010    0.0000 N   0  0  0  0  0  0  0  0  0  0  0  0
  1  2  2  0  0  0  0
  2  3  1  0  0  0  0
  2 20  1  0  0  0  0
  3  4  1  0  0  0  0
  3 15  1  0  0  0  0
  4  5  1  0  0  0  0
  5  6  1  0  0  0  0
  5  7  1  0  0  0  0
  5 14  1  0  0  0  0
  7  8  1  0  0  0  0
  7  9  1  0  0  0  0
  9 10  1  0  0  0  0
 10 11  1  0  0  0  0
 10 13  1  0  0  0  0
 11 12  1  0  0  0  0
 13 14  1  0  0  0  0
 15 16  2  0  0  0  0
 16 17  1  0  0  0  0
 16 18  1  0  0  0  0
 18 19  2  0  0  0  0
 18 20  1  0  0  0  0
M  END
>  <name>
O=C1N(CC2(O)C(O)CC([N;amide]C)CC2)C=C(C)C(=O)N1

>  <apo>
1

>  <freq>
1

>  <freq0>
0

>  <freq1>
1

>  <freqA>
0.99700278

>  <a_count>
41

$$$$

  MOE2015           2D

 25 27  0  0  0  0  0  0  0  0999 V2000
    2.8660    4.6760    0.0000 S   0  0  0  0  0  0  0  0  0  0  0  0
    3.5470    3.3400    0.0000 C   0  0  0  0  0  0  0  0  0  0  0  0
    2.7300    2.0820    0.0000 N   0  0  0  0  0  0  0  0  0  0  0  0
    1.2320    2.1600    0.0000 C   0  0  0  0  0  0  0  0  0  0  0  0
    0.2880    0.9950    0.0000 C   0  0  0  0  0  0  0  0  0  0  0  0
    0.6760   -0.4540    0.0000 O   0  0  0  0  0  0  0  0  0  0  0  0
   -1.1130    1.5320    0.0000 N   0  0  0  0  0  0  0  0  0  0  0  0
   -1.0340    3.0300    0.0000 N   0  0  0  0  0  0  0  0  0  0  0  0
   -2.2000    3.9740    0.0000 C   0  0  0  0  0  0  0  0  0  0  0  0
    0.4150    3.4180    0.0000 C   0  0  0  0  0  0  0  0  0  0  0  0
    0.9520    4.8190    0.0000 C   0  0  0  0  0  0  0  0  0  0  0  0
   -2.3710    0.7150    0.0000 C   0  0  0  0  0  0  0  0  0  0  0  0
   -3.7070    1.3960    0.0000 C   0  0  0  0  0  0  0  0  0  0  0  0
   -4.9650    0.5790    0.0000 C   0  0  0  0  0  0  0  0  0  0  0  0
   -4.8870   -0.9190    0.0000 C   0  0  0  0  0  0  0  0  0  0  0  0
   -3.5500   -1.6000    0.0000 C   0  0  0  0  0  0  0  0  0  0  0  0
   -2.2920   -0.7830    0.0000 C   0  0  0  0  0  0  0  0  0  0  0  0
    5.0450    3.2610    0.0000 N   0  5  0  0  0  0  0  0  0  0  0  0
    5.8620    4.5190    0.0000 N   0  0  0  0  0  0  0  0  0  0  0  0
    7.3600    4.4410    0.0000 C   0  0  0  0  0  0  0  0  0  0  0  0
    8.0410    3.1040    0.0000 C   0  0  0  0  0  0  0  0  0  0  0  0
    7.3600    1.7680    0.0000 O   0  0  0  0  0  0  0  0  0  0  0  0
    8.4200    0.7070    0.0000 C   0  0  0  0  0  0  0  0  0  0  0  0
    9.7570    1.3880    0.0000 C   0  0  0  0  0  0  0  0  0  0  0  0
    9.5220    2.8700    0.0000 C   0  0  0  0  0  0  0  0  0  0  0  0
  1  2  2  0  0  0  0
  2  3  1  0  0  0  0
  2 18  1  0  0  0  0
  3  4  1  0  0  0  0
  4  5  1  0  0  0  0
  4 10  2  0  0  0  0
  5  6  2  0  0  0  0
  5  7  1  0  0  0  0
  7  8  1  0  0  0  0
  7 12  1  0  0  0  0
  8  9  1  0  0  0  0
  8 10  1  0  0  0  0
 10 11  1  0  0  0  0
 12 13  1  0  0  0  0
 12 17  2  0  0  0  0
 13 14  2  0  0  0  0
 14 15  1  0  0  0  0
 15 16  2  0  0  0  0
 16 17  1  0  0  0  0
 18 19  1  0  0  0  0
 19 20  2  0  0  0  0
 20 21  1  0  0  0  0
 21 22  1  0  0  0  0
 21 25  2  0  0  0  0
 22 23  1  0  0  0  0
 23 24  2  0  0  0  0
 24 25  1  0  0  0  0
M  CHG  1  18  -1
M  END
>  <name>
S=C(NC=1C(=O)N(N(C)C=1C)c1ccccc1)[N-]/N=C\c1o[c;biphenyl]cc1

>  <apo>
1

>  <freq>
1

>  <freq0>
0

>  <freq1>
1

>  <freqA>
0.99700278

>  <a_count>
41

$$$$

  MOE2015           2D

 20 20  0  0  0  0  0  0  0  0999 V2000
    6.5470   -6.5470    0.0000 F   0  0  0  0  0  0  0  0  0  0  0  0
    6.5470   -5.0470    0.0000 C   0  0  0  0  0  0  0  0  0  0  0  0
    6.5470   -3.5470    0.0000 F   0  0  0  0  0  0  0  0  0  0  0  0
    8.0470   -5.0470    0.0000 F   0  0  0  0  0  0  0  0  0  0  0  0
    5.0470   -5.0470    0.0000 C   0  0  0  0  0  0  0  0  0  0  0  0
    4.2970   -3.7480    0.0000 C   0  0  0  0  0  0  0  0  0  0  0  0
    2.7970   -3.7480    0.0000 C   0  0  0  0  0  0  0  0  0  0  0  0
    2.0470   -5.0470    0.0000 C   0  0  0  0  0  0  0  0  0  0  0  0
    0.5470   -5.0470    0.0000 C   0  0  0  0  0  0  0  0  0  0  0  0
   -0.2030   -3.7480    0.0000 N   0  0  0  0  0  0  0  0  0  0  0  0
    0.5470   -2.4490    0.0000 O   0  0  0  0  0  0  0  0  0  0  0  0
   -0.2030   -1.1500    0.0000 C   0  0  0  0  0  0  0  0  0  0  0  0
    0.5470    0.1490    0.0000 C   0  0  0  0  0  0  0  0  0  0  0  0
   -0.2030    1.4480    0.0000 N   0  3  0  0  0  0  0  0  0  0  0  0
   -0.2030   -6.3460    0.0000 C   0  0  0  0  0  0  0  0  0  0  0  0
   -1.7030   -6.3460    0.0000 C   0  0  0  0  0  0  0  0  0  0  0  0
   -2.4530   -7.6450    0.0000 C   0  0  0  0  0  0  0  0  0  0  0  0
   -3.9530   -7.6450    0.0000 C   0  0  0  0  0  0  0  0  0  0  0  0
    2.7970   -6.3460    0.0000 C   0  0  0  0  0  0  0  0  0  0  0  0
    4.2970   -6.3460    0.0000 C   0  0  0  0  0  0  0  0  0  0  0  0
  1  2  1  0  0  0  0
  2  3  1  0  0  0  0
  2  4  1  0  0  0  0
  2  5  1  0  0  0  0
  5  6  1  0  0  0  0
  5 20  2  0  0  0  0
  6  7  2  0  0  0  0
  7  8  1  0  0  0  0
  8  9  1  0  0  0  0
  8 19  2  0  0  0  0
  9 10  2  0  0  0  0
  9 15  1  0  0  0  0
 10 11  1  0  0  0  0
 11 12  1  0  0  0  0
 12 13  1  0  0  0  0
 13 14  1  0  0  0  0
 15 16  1  0  0  0  0
 16 17  1  0  0  0  0
 17 18  1  0  0  0  0
 19 20  1  0  0  0  0
M  CHG  1  14   1
M  END
>  <name>
FC(F)(F)c1ccc(/C(=N\OCC[N+])/CCC[C;ether])cc1

>  <apo>
1

>  <freq>
1

>  <freq0>
0

>  <freq1>
1

>  <freqA>
0.99700278

>  <a_count>
40

$$$$

  MOE2015           2D

 24 27  0  0  1  0  0  0  0  0999 V2000
    5.7590   -3.3250    0.0000 F   0  0  0  0  0  0  0  0  0  0  0  0
    5.0090   -2.0260    0.0000 C   0  0  0  0  0  0  0  0  0  0  0  0
    5.7590   -0.7270    0.0000 C   0  0  0  0  0  0  0  0  0  0  0  0
    7.2590   -0.7270    0.0000 N   0  0  0  0  0  0  0  0  0  0  0  0
    8.0090   -2.0260    0.0000 C   0  0  0  0  0  0  0  0  0  0  0  0
    9.5090   -2.0260    0.0000 C   0  0  0  0  0  0  0  0  0  0  0  0
   10.2590   -0.7270    0.0000 N   0  3  0  0  0  0  0  0  0  0  0  0
    9.5090    0.5720    0.0000 C   0  0  0  0  0  0  0  0  0  0  0  0
    8.0090    0.5720    0.0000 C   0  0  0  0  0  0  0  0  0  0  0  0
    5.0090    0.5720    0.0000 C   0  0  0  0  0  0  0  0  0  0  0  0
    3.5090    0.5720    0.0000 C   0  0  0  0  0  0  0  0  0  0  0  0
    2.7590    1.8710    0.0000 N   0  0  0  0  0  0  0  0  0  0  0  0
    2.7590    3.3710    0.0000 C   0  0  3  0  0  0  0  0  0  0  0  0
    3.8200    4.4320    0.0000 C   0  0  0  0  0  0  0  0  0  0  0  0
    1.2590    3.3710    0.0000 S   0  0  0  0  0  0  0  0  0  0  0  0
    1.2590    1.8710    0.0000 C   0  0  0  0  0  0  0  0  0  0  0  0
    0.5090    0.5720    0.0000 C   0  0  0  0  0  0  0  0  0  0  0  0
   -0.9910    0.5720    0.0000 C   0  0  0  0  0  0  0  0  0  0  0  0
   -1.7410   -0.7270    0.0000 O   0  0  0  0  0  0  0  0  0  0  0  0
   -1.7410    1.8710    0.0000 O   0  5  0  0  0  0  0  0  0  0  0  0
    1.2590   -0.7270    0.0000 C   0  0  0  0  0  0  0  0  0  0  0  0
    0.5090   -2.0260    0.0000 O   0  0  0  0  0  0  0  0  0  0  0  0
    2.7590   -0.7270    0.0000 C   0  0  0  0  0  0  0  0  0  0  0  0
    3.5090   -2.0260    0.0000 C   0  0  0  0  0  0  0  0  0  0  0  0
  1  2  1  0  0  0  0
  2  3  1  0  0  0  0
  2 24  2  0  0  0  0
  3  4  1  0  0  0  0
  3 10  2  0  0  0  0
  4  5  1  0  0  0  0
  4  9  1  0  0  0  0
  5  6  1  0  0  0  0
  6  7  1  0  0  0  0
  7  8  1  0  0  0  0
  8  9  1  0  0  0  0
 10 11  1  0  0  0  0
 11 12  1  0  0  0  0
 11 23  2  0  0  0  0
 12 13  1  0  0  0  0
 12 16  1  0  0  0  0
 13 14  1  0  0  0  0
 13 15  1  0  0  0  0
 15 16  1  0  0  0  0
 16 17  2  0  0  0  0
 17 18  1  0  0  0  0
 17 21  1  0  0  0  0
 18 19  2  0  0  0  0
 18 20  1  0  0  0  0
 21 22  2  0  0  0  0
 21 23  1  0  0  0  0
 23 24  1  0  0  0  0
M  CHG  1   7   1
M  CHG  1  20  -1
M  END
>  <name>
Fc1c(N2CC[N+;amine]CC2)cc2N3C(C)SC3=C(C(=O)[O-])C(=O)c2c1

>  <apo>
1

>  <freq>
1

>  <freq0>
0

>  <freq1>
1

>  <freqA>
0.99700278

>  <a_count>
40

$$$$

  MOE2015           2D

 22 24  0  0  1  0  0  0  0  0999 V2000
    1.6010    1.6840    0.0000 O   0  0  0  0  0  0  0  0  0  0  0  0
    2.9090    0.9510    0.0000 C   0  0  0  0  0  0  0  0  0  0  0  0
    4.1990    1.7170    0.0000 O   0  5  0  0  0  0  0  0  0  0  0  0
    2.9280   -0.5490    0.0000 C   0  0  0  0  0  0  0  0  0  0  0  0
    4.1530   -1.4160    0.0000 C   0  0  0  0  0  0  0  0  0  0  0  0
    5.5740   -0.9340    0.0000 O   0  0  0  0  0  0  0  0  0  0  0  0
    6.7010   -1.9230    0.0000 C   0  0  3  0  0  0  0  0  0  0  0  0
    8.1640   -1.5930    0.0000 C   0  0  0  0  0  0  0  0  0  0  0  0
    8.9300   -2.8820    0.0000 C   0  0  3  0  0  0  0  0  0  0  0  0
   10.4240   -3.0200    0.0000 C   0  0  0  0  0  0  0  0  0  0  0  0
   11.0520   -4.3830    0.0000 O   0  0  0  0  0  0  0  0  0  0  0  0
    7.9410   -4.0100    0.0000 N   0  3  0  0  0  0  0  0  0  0  0  0
    6.5630   -3.4170    0.0000 C   0  0  0  0  0  0  0  0  0  0  0  0
    3.7080   -2.8480    0.0000 C   0  0  0  0  0  0  0  0  0  0  0  0
    2.2080   -2.8670    0.0000 C   0  0  3  0  0  0  0  0  0  0  0  0
    0.7870   -3.3490    0.0000 C   0  0  3  0  0  0  0  0  0  0  0  0
    0.1230   -4.6940    0.0000 C   0  0  3  0  0  0  0  0  0  0  0  0
    0.9560   -5.9410    0.0000 O   0  0  0  0  0  0  0  0  0  0  0  0
   -1.3740   -4.7910    0.0000 C   0  0  0  0  0  0  0  0  0  0  0  0
    0.3060   -1.9280    0.0000 C   0  0  0  0  0  0  0  0  0  0  0  0
   -1.0400   -1.2640    0.0000 O   0  0  0  0  0  0  0  0  0  0  0  0
    1.7260   -1.4460    0.0000 N   0  0  0  0  0  0  0  0  0  0  0  0
  1  2  2  0  0  0  0
  2  3  1  0  0  0  0
  2  4  1  0  0  0  0
  4  5  2  0  0  0  0
  4 22  1  0  0  0  0
  5  6  1  0  0  0  0
  5 14  1  0  0  0  0
  6  7  1  0  0  0  0
  7  8  1  0  0  0  0
  7 13  1  0  0  0  0
  8  9  1  0  0  0  0
  9 10  1  0  0  0  0
  9 12  1  0  0  0  0
 10 11  2  0  0  0  0
 12 13  1  0  0  0  0
 14 15  1  0  0  0  0
 15 16  1  0  0  0  0
 15 22  1  0  0  0  0
 16 17  1  0  0  0  0
 16 20  1  0  0  0  0
 17 18  1  0  0  0  0
 17 19  1  0  0  0  0
 20 21  2  0  0  0  0
 20 22  1  0  0  0  0
M  CHG  1   3  -1
M  CHG  1  12   1
M  END
>  <name>
O=C([O-])C1=C(OC2CC([C;amide]=O)[N+]C2)CC2C(C(O)C)C(=O)N12

>  <apo>
1

>  <freq>
1

>  <freq0>
0

>  <freq1>
1

>  <freqA>
0.99700278

>  <a_count>
40

$$$$

  MOE2015           2D

 23 24  0  0  1  0  0  0  0  0999 V2000
   -1.3040    2.2590    0.0000 O   0  0  0  0  0  0  0  0  0  0  0  0
   -0.5540    3.5580    0.0000 C   0  0  0  0  0  0  0  0  0  0  0  0
    0.9460    3.5580    0.0000 C   0  0  2  0  0  0  0  0  0  0  0  0
    1.6960    2.2590    0.0000 N   0  3  0  0  0  0  0  0  0  0  0  0
    1.6960    4.8570    0.0000 C   0  0  0  0  0  0  0  0  0  0  0  0
    3.1960    4.8570    0.0000 C   0  0  0  0  0  0  0  0  0  0  0  0
    3.9460    6.1560    0.0000 C   0  0  0  0  0  0  0  0  0  0  0  0
    5.4460    6.1560    0.0000 O   0  0  0  0  0  0  0  0  0  0  0  0
    6.1960    4.8570    0.0000 C   0  0  0  0  0  0  0  0  0  0  0  0
    5.4460    3.5580    0.0000 C   0  0  0  0  0  0  0  0  0  0  0  0
    6.1960    2.2590    0.0000 C   0  0  0  0  0  0  0  0  0  0  0  0
    5.4460    0.9600    0.0000 O   0  0  0  0  0  0  0  0  0  0  0  0
    7.6960    2.2590    0.0000 C   0  0  0  0  0  0  0  0  0  0  0  0
    8.4460    3.5580    0.0000 C   0  0  0  0  0  0  0  0  0  0  0  0
    9.9460    3.5580    0.0000 C   0  0  2  0  0  0  0  0  0  0  0  0
   10.6960    2.2590    0.0000 N   0  0  0  0  0  0  0  0  0  0  0  0
   10.6960    4.8570    0.0000 C   0  0  0  0  0  0  0  0  0  0  0  0
   12.1960    4.8570    0.0000 O   0  0  0  0  0  0  0  0  0  0  0  0
    7.6960    4.8570    0.0000 C   0  0  0  0  0  0  0  0  0  0  0  0
    3.1960    7.4550    0.0000 C   0  0  0  0  0  0  0  0  0  0  0  0
    3.9460    8.7540    0.0000 O   0  0  0  0  0  0  0  0  0  0  0  0
    1.6960    7.4550    0.0000 C   0  0  0  0  0  0  0  0  0  0  0  0
    0.9460    6.1560    0.0000 C   0  0  0  0  0  0  0  0  0  0  0  0
  1  2  2  0  0  0  0
  2  3  1  0  0  0  0
  3  4  1  1  0  0  0
  3  5  1  0  0  0  0
  5  6  1  0  0  0  0
  5 23  2  0  0  0  0
  6  7  2  0  0  0  0
  7  8  1  0  0  0  0
  7 20  1  0  0  0  0
  8  9  1  0  0  0  0
  9 10  2  0  0  0  0
  9 19  1  0  0  0  0
 10 11  1  0  0  0  0
 11 12  1  0  0  0  0
 11 13  2  0  0  0  0
 13 14  1  0  0  0  0
 14 15  1  0  0  0  0
 14 19  2  0  0  0  0
 15 16  1  1  0  0  0
 15 17  1  0  0  0  0
 17 18  2  0  0  0  0
 20 21  1  0  0  0  0
 20 22  2  0  0  0  0
 22 23  1  0  0  0  0
M  CHG  1   4   1
M  END
>  <name>
O=[C;amide][C@H]([N+])c1cc(Oc2cc(O)cc([C@H]([N;amide])[C;amide]=O)c2)c(O)cc1

>  <apo>
3

>  <freq>
1

>  <freq0>
0

>  <freq1>
1

>  <freqA>
0.99700278

>  <a_count>
40

$$$$

  MOE2015           2D

 25 28  0  0  0  0  0  0  0  0999 V2000
   -1.6980    2.3510    0.0000 O   0  0  0  0  0  0  0  0  0  0  0  0
   -1.2270    3.7750    0.0000 C   0  0  0  0  0  0  0  0  0  0  0  0
   -2.2240    4.8950    0.0000 N   0  0  0  0  0  0  0  0  0  0  0  0
    0.2420    4.0790    0.0000 C   0  0  0  0  0  0  0  0  0  0  0  0
    0.7140    5.5030    0.0000 C   0  0  0  0  0  0  0  0  0  0  0  0
    2.1830    5.8060    0.0000 C   0  0  0  0  0  0  0  0  0  0  0  0
    2.9400    7.1010    0.0000 C   0  0  0  0  0  0  0  0  0  0  0  0
    2.3370    8.4750    0.0000 O   0  0  0  0  0  0  0  0  0  0  0  0
    4.4050    6.7810    0.0000 C   0  0  0  0  0  0  0  0  0  0  0  0
    5.5260    7.7790    0.0000 O   0  0  0  0  0  0  0  0  0  0  0  0
    4.5540    5.2890    0.0000 N   0  0  0  0  0  0  0  0  0  0  0  0
    5.8490    4.5310    0.0000 C   0  0  0  0  0  0  0  0  0  0  0  0
    7.1520    5.2740    0.0000 C   0  0  0  0  0  0  0  0  0  0  0  0
    8.4470    4.5170    0.0000 C   0  0  0  0  0  0  0  0  0  0  0  0
    9.7500    5.2600    0.0000 C   0  0  0  0  0  0  0  0  0  0  0  0
    9.7580    6.7600    0.0000 C   0  0  0  0  0  0  0  0  0  0  0  0
    8.4630    7.5170    0.0000 C   0  0  0  0  0  0  0  0  0  0  0  0
    7.1600    6.7740    0.0000 C   0  0  0  0  0  0  0  0  0  0  0  0
   11.0610    7.5030    0.0000 C   0  0  0  0  0  0  0  0  0  0  0  0
   12.3560    6.7450    0.0000 C   0  0  0  0  0  0  0  0  0  0  0  0
   12.3480    5.2450    0.0000 C   0  0  0  0  0  0  0  0  0  0  0  0
   11.0450    4.5030    0.0000 C   0  0  0  0  0  0  0  0  0  0  0  0
    3.1800    4.6860    0.0000 C   0  0  0  0  0  0  0  0  0  0  0  0
    2.7090    3.2620    0.0000 C   0  0  0  0  0  0  0  0  0  0  0  0
    1.2400    2.9580    0.0000 C   0  0  0  0  0  0  0  0  0  0  0  0
  1  2  2  0  0  0  0
  2  3  1  0  0  0  0
  2  4  1  0  0  0  0
  4  5  1  0  0  0  0
  4 25  2  0  0  0  0
  5  6  2  0  0  0  0
  6  7  1  0  0  0  0
  6 23  1  0  0  0  0
  7  8  2  0  0  0  0
  7  9  1  0  0  0  0
  9 10  2  0  0  0  0
  9 11  1  0  0  0  0
 11 12  1  0  0  0  0
 11 23  1  0  0  0  0
 12 13  1  0  0  0  0
 13 14  1  0  0  0  0
 13 18  2  0  0  0  0
 14 15  2  0  0  0  0
 15 16  1  0  0  0  0
 15 22  1  0  0  0  0
 16 17  2  0  0  0  0
 16 19  1  0  0  0  0
 17 18  1  0  0  0  0
 19 20  2  0  0  0  0
 20 21  1  0  0  0  0
 21 22  2  0  0  0  0
 23 24  2  0  0  0  0
 24 25  1  0  0  0  0
M  END
>  <name>
O=C(N)c1cc2C(=O)C(=O)N(Cc3cc4c(cc3)c[c;biphenyl]cc4)c2cc1

>  <apo>
1

>  <freq>
1

>  <freq0>
0

>  <freq1>
1

>  <freqA>
0.99700278

>  <a_count>
39

$$$$

  MOE2015           2D

 19 19  0  0  1  0  0  0  0  0999 V2000
    0.9380    2.8520    0.0000 O   0  0  0  0  0  0  0  0  0  0  0  0
    0.9380    1.3520    0.0000 C   0  0  0  0  0  0  0  0  0  0  0  0
   -0.3610    0.6020    0.0000 O   0  0  0  0  0  0  0  0  0  0  0  0
   -1.6610    1.3520    0.0000 C   0  0  0  0  0  0  0  0  0  0  0  0
   -2.9600    0.6020    0.0000 C   0  0  0  0  0  0  0  0  0  0  0  0
   -2.9600   -0.8980    0.0000 C   0  0  0  0  0  0  0  0  0  0  0  0
   -4.2590   -1.6480    0.0000 C   0  0  0  0  0  0  0  0  0  0  0  0
   -5.5580   -0.8980    0.0000 C   0  0  0  0  0  0  0  0  0  0  0  0
   -5.5580    0.6020    0.0000 C   0  0  0  0  0  0  0  0  0  0  0  0
   -4.2590    1.3520    0.0000 C   0  0  0  0  0  0  0  0  0  0  0  0
    2.2370    0.6020    0.0000 N   0  0  0  0  0  0  0  0  0  0  0  0
    3.5360    1.3520    0.0000 C   0  0  0  0  0  0  0  0  0  0  0  0
    4.8350    0.6020    0.0000 C   0  0  0  0  0  0  0  0  0  0  0  0
    6.1340    1.3520    0.0000 C   0  0  0  0  0  0  0  0  0  0  0  0
    7.4330    0.6020    0.0000 C   0  0  0  0  0  0  0  0  0  0  0  0
    8.7320    1.3520    0.0000 C   0  0  3  0  0  0  0  0  0  0  0  0
   10.0310    0.6020    0.0000 N   0  0  0  0  0  0  0  0  0  0  0  0
    8.7320    2.8520    0.0000 C   0  0  0  0  0  0  0  0  0  0  0  0
   10.0310    3.6020    0.0000 O   0  0  0  0  0  0  0  0  0  0  0  0
  1  2  2  0  0  0  0
  2  3  1  0  0  0  0
  2 11  1  0  0  0  0
  3  4  1  0  0  0  0
  4  5  1  0  0  0  0
  5  6  1  0  0  0  0
  5 10  2  0  0  0  0
  6  7  2  0  0  0  0
  7  8  1  0  0  0  0
  8  9  2  0  0  0  0
  9 10  1  0  0  0  0
 11 12  1  0  0  0  0
 12 13  1  0  0  0  0
 13 14  1  0  0  0  0
 14 15  1  0  0  0  0
 15 16  1  0  0  0  0
 16 17  1  0  0  0  0
 16 18  1  0  0  0  0
 18 19  2  0  0  0  0
M  END
>  <name>
O=C(OCc1ccccc1)NCCCCC([N;amide])[C;ester]=O

>  <apo>
2

>  <freq>
1

>  <freq0>
0

>  <freq1>
1

>  <freqA>
0.99700278

>  <a_count>
39

$$$$

  MOE2015           2D

 22 23  0  0  1  0  0  0  0  0999 V2000
    1.1930   -2.0670    0.0000 O   0  0  0  0  0  0  0  0  0  0  0  0
    1.9430   -0.7680    0.0000 C   0  0  0  0  0  0  0  0  0  0  0  0
    3.4430   -0.7680    0.0000 O   0  0  0  0  0  0  0  0  0  0  0  0
    4.1930   -2.0670    0.0000 C   0  0  0  0  0  0  0  0  0  0  0  0
    5.6930   -2.0670    0.0000 C   0  0  0  0  0  0  0  0  0  0  0  0
    6.4430   -3.3660    0.0000 C   0  0  0  0  0  0  0  0  0  0  0  0
    7.9430   -3.3660    0.0000 C   0  0  0  0  0  0  0  0  0  0  0  0
    8.6930   -2.0670    0.0000 C   0  0  0  0  0  0  0  0  0  0  0  0
    7.9430   -0.7680    0.0000 C   0  0  0  0  0  0  0  0  0  0  0  0
    6.4430   -0.7680    0.0000 C   0  0  0  0  0  0  0  0  0  0  0  0
    1.1930    0.5310    0.0000 N   0  0  0  0  0  0  0  0  0  0  0  0
   -0.3070    0.5310    0.0000 C   0  0  2  0  0  0  0  0  0  0  0  0
   -1.0570    1.8300    0.0000 C   0  0  0  0  0  0  0  0  0  0  0  0
   -0.3070    3.1300    0.0000 O   0  0  0  0  0  0  0  0  0  0  0  0
   -1.0570   -0.7680    0.0000 C   0  0  0  0  0  0  0  0  0  0  0  0
   -2.5570   -0.7680    0.0000 C   0  0  0  0  0  0  0  0  0  0  0  0
   -3.3070   -2.0670    0.0000 C   0  0  0  0  0  0  0  0  0  0  0  0
   -4.8070   -2.0670    0.0000 C   0  0  0  0  0  0  0  0  0  0  0  0
   -5.5570   -0.7680    0.0000 C   0  0  0  0  0  0  0  0  0  0  0  0
   -7.0570   -0.7680    0.0000 O   0  0  0  0  0  0  0  0  0  0  0  0
   -4.8070    0.5310    0.0000 C   0  0  0  0  0  0  0  0  0  0  0  0
   -3.3070    0.5310    0.0000 C   0  0  0  0  0  0  0  0  0  0  0  0
  1  2  2  0  0  0  0
  2  3  1  0  0  0  0
  2 11  1  0  0  0  0
  3  4  1  0  0  0  0
  4  5  1  0  0  0  0
  5  6  1  0  0  0  0
  5 10  2  0  0  0  0
  6  7  2  0  0  0  0
  7  8  1  0  0  0  0
  8  9  2  0  0  0  0
  9 10  1  0  0  0  0
 12 11  1  1  0  0  0
 12 13  1  0  0  0  0
 12 15  1  0  0  0  0
 13 14  2  0  0  0  0
 15 16  1  0  0  0  0
 16 17  1  0  0  0  0
 16 22  2  0  0  0  0
 17 18  2  0  0  0  0
 18 19  1  0  0  0  0
 19 20  1  0  0  0  0
 19 21  2  0  0  0  0
 21 22  1  0  0  0  0
M  END
>  <name>
O=C(OCc1ccccc1)N[C@H]([C;amide]=O)Cc1ccc(O)cc1

>  <apo>
1

>  <freq>
1

>  <freq0>
0

>  <freq1>
1

>  <freqA>
0.99700278

>  <a_count>
39

$$$$

  MOE2015           2D

 25 27  0  0  0  0  0  0  0  0999 V2000
   12.2890    3.9710    0.0000 O   0  0  0  0  0  0  0  0  0  0  0  0
   11.6580    5.3310    0.0000 C   0  0  0  0  0  0  0  0  0  0  0  0
   10.1640    5.4650    0.0000 C   0  0  0  0  0  0  0  0  0  0  0  0
    9.1780    4.3340    0.0000 S   0  0  0  0  0  0  0  0  0  0  0  0
    7.7980    4.9230    0.0000 C   0  0  0  0  0  0  0  0  0  0  0  0
    6.5110    4.1520    0.0000 N   0  0  0  0  0  0  0  0  0  0  0  0
    5.2000    4.8820    0.0000 N   0  0  0  0  0  0  0  0  0  0  0  0
    3.9130    4.1120    0.0000 C   0  0  0  0  0  0  0  0  0  0  0  0
    2.6020    4.8410    0.0000 C   0  0  0  0  0  0  0  0  0  0  0  0
    1.3150    4.0710    0.0000 C   0  0  0  0  0  0  0  0  0  0  0  0
    0.0040    4.8000    0.0000 C   0  0  0  0  0  0  0  0  0  0  0  0
   -1.2830    4.0300    0.0000 O   0  0  0  0  0  0  0  0  0  0  0  0
   -1.2590    2.5300    0.0000 C   0  0  0  0  0  0  0  0  0  0  0  0
   -0.0190    6.3000    0.0000 C   0  0  0  0  0  0  0  0  0  0  0  0
   -1.3300    7.0290    0.0000 O   0  0  0  0  0  0  0  0  0  0  0  0
    1.2680    7.0700    0.0000 C   0  0  0  0  0  0  0  0  0  0  0  0
    2.5790    6.3410    0.0000 C   0  0  0  0  0  0  0  0  0  0  0  0
    7.9310    6.4170    0.0000 N   0  0  0  0  0  0  0  0  0  0  0  0
    6.8010    7.4030    0.0000 C   0  0  0  0  0  0  0  0  0  0  0  0
    5.3820    6.9170    0.0000 C   0  0  0  0  0  0  0  0  0  0  0  0
    4.2510    7.9030    0.0000 C   0  0  0  0  0  0  0  0  0  0  0  0
    4.5400    9.3750    0.0000 C   0  0  0  0  0  0  0  0  0  0  0  0
    5.9590    9.8610    0.0000 C   0  0  0  0  0  0  0  0  0  0  0  0
    7.0890    8.8750    0.0000 C   0  0  0  0  0  0  0  0  0  0  0  0
    9.3930    6.7520    0.0000 N   0  0  0  0  0  0  0  0  0  0  0  0
  1  2  2  0  0  0  0
  2  3  1  0  0  0  0
  3  4  1  0  0  0  0
  3 25  2  0  0  0  0
  4  5  1  0  0  0  0
  5  6  2  0  0  0  0
  5 18  1  0  0  0  0
  6  7  1  0  0  0  0
  7  8  2  0  0  0  0
  8  9  1  0  0  0  0
  9 10  1  0  0  0  0
  9 17  2  0  0  0  0
 10 11  2  0  0  0  0
 11 12  1  0  0  0  0
 11 14  1  0  0  0  0
 12 13  1  0  0  0  0
 14 15  1  0  0  0  0
 14 16  2  0  0  0  0
 16 17  1  0  0  0  0
 18 19  1  0  0  0  0
 18 25  1  0  0  0  0
 19 20  1  0  0  0  0
 19 24  2  0  0  0  0
 20 21  2  0  0  0  0
 21 22  1  0  0  0  0
 22 23  2  0  0  0  0
 23 24  1  0  0  0  0
M  END
>  <name>
O=[C;amide]C=1S/C(=N/N=C/c2cc(OC)c(O)cc2)/N(c2ccccc2)N=1

>  <apo>
1

>  <freq>
1

>  <freq0>
0

>  <freq1>
1

>  <freqA>
0.99700278

>  <a_count>
39

$$$$

  MOE2015           2D

 12 11  0  0  0  0  0  0  0  0999 V2000
    0.1000   -0.3750    0.0000 C   0  0  0  0  0  0  0  0  0  0  0  0
    1.4000    0.3750    0.0000 C   0  0  0  0  0  0  0  0  0  0  0  0
    2.6990   -0.3750    0.0000 C   0  0  0  0  0  0  0  0  0  0  0  0
    3.9980    0.3750    0.0000 C   0  0  0  0  0  0  0  0  0  0  0  0
    5.2970   -0.3750    0.0000 C   0  0  0  0  0  0  0  0  0  0  0  0
    6.5960    0.3750    0.0000 C   0  0  0  0  0  0  0  0  0  0  0  0
    7.8950   -0.3750    0.0000 C   0  0  0  0  0  0  0  0  0  0  0  0
   -1.1990    0.3750    0.0000 C   0  0  0  0  0  0  0  0  0  0  0  0
   -2.4980   -0.3750    0.0000 C   0  0  0  0  0  0  0  0  0  0  0  0
   -3.7970    0.3750    0.0000 C   0  0  0  0  0  0  0  0  0  0  0  0
   -5.0960   -0.3750    0.0000 C   0  0  0  0  0  0  0  0  0  0  0  0
   -6.3950    0.3750    0.0000 C   0  0  0  0  0  0  0  0  0  0  0  0
  1  2  1  0  0  0  0
  1  8  1  0  0  0  0
  2  3  1  0  0  0  0
  3  4  1  0  0  0  0
  4  5  1  0  0  0  0
  5  6  1  0  0  0  0
  6  7  1  0  0  0  0
  8  9  1  0  0  0  0
  9 10  1  0  0  0  0
 10 11  1  0  0  0  0
 11 12  1  0  0  0  0
M  END
>  <name>
C(CCCCCC)CCCC[C;quatN]

>  <apo>
1

>  <freq>
1

>  <freq0>
0

>  <freq1>
1

>  <freqA>
0.99700278

>  <a_count>
38

$$$$

  MOE2015           2D

 21 22  0  0  0  0  0  0  0  0999 V2000
   -1.8090   -1.8090    0.0000 F   0  0  0  0  0  0  0  0  0  0  0  0
   -1.8090   -3.3090    0.0000 C   0  0  0  0  0  0  0  0  0  0  0  0
   -0.5100   -4.0590    0.0000 C   0  0  0  0  0  0  0  0  0  0  0  0
    0.7890   -3.3090    0.0000 N   0  0  0  0  0  0  0  0  0  0  0  0
    2.0880   -4.0590    0.0000 C   0  0  0  0  0  0  0  0  0  0  0  0
    2.0880   -5.5590    0.0000 O   0  0  0  0  0  0  0  0  0  0  0  0
    3.3870   -3.3090    0.0000 N   0  0  0  0  0  0  0  0  0  0  0  0
    4.6860   -4.0590    0.0000 C   0  0  0  0  0  0  0  0  0  0  0  0
    5.9850   -3.3090    0.0000 C   0  0  0  0  0  0  0  0  0  0  0  0
    7.2840   -4.0590    0.0000 C   0  0  0  0  0  0  0  0  0  0  0  0
    8.5830   -3.3090    0.0000 C   0  0  0  0  0  0  0  0  0  0  0  0
    9.8820   -4.0590    0.0000 C   0  0  0  0  0  0  0  0  0  0  0  0
    3.3870   -1.8090    0.0000 C   0  0  0  0  0  0  0  0  0  0  0  0
    4.6860   -1.0590    0.0000 O   0  0  0  0  0  0  0  0  0  0  0  0
    2.0880   -1.0590    0.0000 C   0  0  0  0  0  0  0  0  0  0  0  0
    0.7890   -1.8090    0.0000 C   0  0  0  0  0  0  0  0  0  0  0  0
   -0.5100   -5.5590    0.0000 C   0  0  0  0  0  0  0  0  0  0  0  0
   -1.8090   -6.3090    0.0000 C   0  0  0  0  0  0  0  0  0  0  0  0
   -1.8090   -7.8090    0.0000 O   0  0  0  0  0  0  0  0  0  0  0  0
   -3.1080   -5.5590    0.0000 C   0  0  0  0  0  0  0  0  0  0  0  0
   -3.1080   -4.0590    0.0000 C   0  0  0  0  0  0  0  0  0  0  0  0
  1  2  1  0  0  0  0
  2  3  1  0  0  0  0
  2 21  2  0  0  0  0
  3  4  1  0  0  0  0
  3 17  2  0  0  0  0
  4  5  1  0  0  0  0
  4 16  1  0  0  0  0
  5  6  2  0  0  0  0
  5  7  1  0  0  0  0
  7  8  1  0  0  0  0
  7 13  1  0  0  0  0
  8  9  1  0  0  0  0
  9 10  1  0  0  0  0
 10 11  1  0  0  0  0
 11 12  1  0  0  0  0
 13 14  2  0  0  0  0
 13 15  1  0  0  0  0
 15 16  2  0  0  0  0
 17 18  1  0  0  0  0
 18 19  1  0  0  0  0
 18 20  2  0  0  0  0
 20 21  1  0  0  0  0
M  END
>  <name>
Fc1c(N2C(=O)N(CCCC[C;ether])C(=O)C=C2)cc([O;ether])cc1

>  <apo>
2

>  <freq>
1

>  <freq0>
0

>  <freq1>
1

>  <freqA>
0.99700278

>  <a_count>
38

$$$$

  MOE2015           2D

 18 19  0  0  0  0  0  0  0  0999 V2000
    3.3430   -1.9300    0.0000 N   0  0  0  0  0  0  0  0  0  0  0  0
    2.5930   -0.6310    0.0000 C   0  0  0  0  0  0  0  0  0  0  0  0
    1.0930   -0.6310    0.0000 C   0  0  0  0  0  0  0  0  0  0  0  0
    0.3430    0.6680    0.0000 C   0  0  0  0  0  0  0  0  0  0  0  0
    1.0930    1.9670    0.0000 C   0  0  0  0  0  0  0  0  0  0  0  0
   -1.1570    0.6680    0.0000 C   0  0  0  0  0  0  0  0  0  0  0  0
   -1.9070    1.9670    0.0000 C   0  0  0  0  0  0  0  0  0  0  0  0
   -1.9070   -0.6310    0.0000 C   0  0  0  0  0  0  0  0  0  0  0  0
   -3.4070   -0.6310    0.0000 C   0  0  0  0  0  0  0  0  0  0  0  0
   -1.1570   -1.9300    0.0000 C   0  0  0  0  0  0  0  0  0  0  0  0
   -1.9070   -3.2290    0.0000 C   0  0  0  0  0  0  0  0  0  0  0  0
    0.3430   -1.9300    0.0000 C   0  0  0  0  0  0  0  0  0  0  0  0
    1.0930   -3.2290    0.0000 C   0  0  0  0  0  0  0  0  0  0  0  0
    4.8430   -1.9300    0.0000 C   0  0  0  0  0  0  0  0  0  0  0  0
    5.7250   -0.7170    0.0000 N   0  0  0  0  0  0  0  0  0  0  0  0
    7.1520   -1.1800    0.0000 C   0  0  0  0  0  0  0  0  0  0  0  0
    7.1520   -2.6800    0.0000 C   0  0  0  0  0  0  0  0  0  0  0  0
    5.7250   -3.1440    0.0000 C   0  0  0  0  0  0  0  0  0  0  0  0
  1  2  2  0  0  0  0
  1 14  1  0  0  0  0
  2  3  1  0  0  0  0
  3  4  1  0  0  0  0
  3 12  2  0  0  0  0
  4  5  1  0  0  0  0
  4  6  2  0  0  0  0
  6  7  1  0  0  0  0
  6  8  1  0  0  0  0
  8  9  1  0  0  0  0
  8 10  2  0  0  0  0
 10 11  1  0  0  0  0
 10 12  1  0  0  0  0
 12 13  1  0  0  0  0
 14 15  1  0  0  0  0
 14 18  2  0  0  0  0
 15 16  1  0  0  0  0
 16 17  2  0  0  0  0
 17 18  1  0  0  0  0
M  END
>  <name>
N(=Cc1c([C;amine])c([C;amine])c([C;amine])c([C;amine])c1[C;amine])c1[nH]ccc1

>  <apo>
5

>  <freq>
1

>  <freq0>
0

>  <freq1>
1

>  <freqA>
0.99700278

>  <a_count>
38

$$$$

  MOE2015           2D

 20 21  0  0  0  0  0  0  0  0999 V2000
   -6.6370    3.0530    0.0000 O   0  0  0  0  0  0  0  0  0  0  0  0
   -7.3870    1.7540    0.0000 C   0  0  0  0  0  0  0  0  0  0  0  0
   -5.1370    3.0530    0.0000 C   0  0  0  0  0  0  0  0  0  0  0  0
   -4.3880    4.3520    0.0000 C   0  0  0  0  0  0  0  0  0  0  0  0
   -5.1380    5.6510    0.0000 C   0  0  0  0  0  0  0  0  0  0  0  0
   -6.4370    4.9010    0.0000 C   0  0  0  0  0  0  0  0  0  0  0  0
   -3.8380    6.4010    0.0000 C   0  0  0  0  0  0  0  0  0  0  0  0
   -5.8870    6.9500    0.0000 C   0  0  0  0  0  0  0  0  0  0  0  0
   -2.8880    4.3520    0.0000 C   0  0  0  0  0  0  0  0  0  0  0  0
   -2.1370    3.0530    0.0000 C   0  0  0  0  0  0  0  0  0  0  0  0
   -0.6370    3.0530    0.0000 N   0  0  0  0  0  0  0  0  0  0  0  0
    0.1130    1.7540    0.0000 C   0  0  0  0  0  0  0  0  0  0  0  0
   -0.6370    0.4550    0.0000 O   0  0  0  0  0  0  0  0  0  0  0  0
    1.6130    1.7540    0.0000 N   0  0  0  0  0  0  0  0  0  0  0  0
    2.3620    3.0530    0.0000 C   0  0  0  0  0  0  0  0  0  0  0  0
    3.8620    3.0530    0.0000 O   0  0  0  0  0  0  0  0  0  0  0  0
    1.6130    4.3520    0.0000 C   0  0  0  0  0  0  0  0  0  0  0  0
    0.1130    4.3520    0.0000 C   0  0  0  0  0  0  0  0  0  0  0  0
   -2.8870    1.7540    0.0000 C   0  0  0  0  0  0  0  0  0  0  0  0
   -4.3870    1.7540    0.0000 C   0  0  0  0  0  0  0  0  0  0  0  0
  1  2  1  0  0  0  0
  1  3  1  0  0  0  0
  3  4  1  0  0  0  0
  3 20  2  0  0  0  0
  4  5  1  0  0  0  0
  4  9  2  0  0  0  0
  5  6  1  0  0  0  0
  5  7  1  0  0  0  0
  5  8  1  0  0  0  0
  9 10  1  0  0  0  0
 10 11  1  0  0  0  0
 10 19  2  0  0  0  0
 11 12  1  0  0  0  0
 11 18  1  0  0  0  0
 12 13  2  0  0  0  0
 12 14  1  0  0  0  0
 14 15  1  0  0  0  0
 15 16  2  0  0  0  0
 15 17  1  0  0  0  0
 17 18  2  0  0  0  0
 19 20  1  0  0  0  0
M  END
>  <name>
O(C)c1c(C(C)(C)C)cc(N2C(=O)NC(=O)C=C2)c[c;biphenyl]1

>  <apo>
1

>  <freq>
1

>  <freq0>
0

>  <freq1>
1

>  <freqA>
0.99700278

>  <a_count>
38

$$$$

  MOE2015           2D

 21 22  0  0  1  0  0  0  0  0999 V2000
    1.0000   -1.7320    0.0000 O   0  0  0  0  0  0  0  0  0  0  0  0
    1.7500   -0.4330    0.0000 C   0  0  0  0  0  0  0  0  0  0  0  0
    3.2500   -0.4330    0.0000 O   0  0  0  0  0  0  0  0  0  0  0  0
    4.0000   -1.7320    0.0000 C   0  0  0  0  0  0  0  0  0  0  0  0
    5.5000   -1.7320    0.0000 C   0  0  0  0  0  0  0  0  0  0  0  0
    6.2500   -3.0310    0.0000 C   0  0  0  0  0  0  0  0  0  0  0  0
    7.7500   -3.0310    0.0000 C   0  0  0  0  0  0  0  0  0  0  0  0
    8.5000   -1.7320    0.0000 C   0  0  0  0  0  0  0  0  0  0  0  0
    7.7500   -0.4330    0.0000 C   0  0  0  0  0  0  0  0  0  0  0  0
    6.2500   -0.4330    0.0000 C   0  0  0  0  0  0  0  0  0  0  0  0
    1.0000    0.8660    0.0000 N   0  0  0  0  0  0  0  0  0  0  0  0
   -0.5000    0.8660    0.0000 C   0  0  3  0  0  0  0  0  0  0  0  0
   -1.2500    2.1650    0.0000 C   0  0  0  0  0  0  0  0  0  0  0  0
   -0.5000    3.4640    0.0000 O   0  0  0  0  0  0  0  0  0  0  0  0
   -1.2500   -0.4330    0.0000 C   0  0  0  0  0  0  0  0  0  0  0  0
   -2.7500   -0.4330    0.0000 C   0  0  0  0  0  0  0  0  0  0  0  0
   -3.5000   -1.7320    0.0000 C   0  0  0  0  0  0  0  0  0  0  0  0
   -5.0000   -1.7320    0.0000 C   0  0  0  0  0  0  0  0  0  0  0  0
   -5.7500   -0.4330    0.0000 C   0  0  0  0  0  0  0  0  0  0  0  0
   -5.0000    0.8660    0.0000 C   0  0  0  0  0  0  0  0  0  0  0  0
   -3.5000    0.8660    0.0000 C   0  0  0  0  0  0  0  0  0  0  0  0
  1  2  2  0  0  0  0
  2  3  1  0  0  0  0
  2 11  1  0  0  0  0
  3  4  1  0  0  0  0
  4  5  1  0  0  0  0
  5  6  1  0  0  0  0
  5 10  2  0  0  0  0
  6  7  2  0  0  0  0
  7  8  1  0  0  0  0
  8  9  2  0  0  0  0
  9 10  1  0  0  0  0
 11 12  1  0  0  0  0
 12 13  1  0  0  0  0
 12 15  1  0  0  0  0
 13 14  2  0  0  0  0
 15 16  1  0  0  0  0
 16 17  1  0  0  0  0
 16 21  2  0  0  0  0
 17 18  2  0  0  0  0
 18 19  1  0  0  0  0
 19 20  2  0  0  0  0
 20 21  1  0  0  0  0
M  END
>  <name>
O=C(OCc1ccccc1)NC([C;amide]=O)Cc1ccccc1

>  <apo>
1

>  <freq>
1

>  <freq0>
0

>  <freq1>
1

>  <freqA>
0.99700278

>  <a_count>
38

$$$$

  MOE2015           2D

 21 22  0  0  1  0  0  0  0  0999 V2000
    1.0000   -1.7320    0.0000 O   0  0  0  0  0  0  0  0  0  0  0  0
    1.7500   -0.4330    0.0000 C   0  0  0  0  0  0  0  0  0  0  0  0
    3.2500   -0.4330    0.0000 O   0  0  0  0  0  0  0  0  0  0  0  0
    4.0000   -1.7320    0.0000 C   0  0  0  0  0  0  0  0  0  0  0  0
    5.5000   -1.7320    0.0000 C   0  0  0  0  0  0  0  0  0  0  0  0
    6.2500   -3.0310    0.0000 C   0  0  0  0  0  0  0  0  0  0  0  0
    7.7500   -3.0310    0.0000 C   0  0  0  0  0  0  0  0  0  0  0  0
    8.5000   -1.7320    0.0000 C   0  0  0  0  0  0  0  0  0  0  0  0
    7.7500   -0.4330    0.0000 C   0  0  0  0  0  0  0  0  0  0  0  0
    6.2500   -0.4330    0.0000 C   0  0  0  0  0  0  0  0  0  0  0  0
    1.0000    0.8660    0.0000 N   0  0  0  0  0  0  0  0  0  0  0  0
   -0.5000    0.8660    0.0000 C   0  0  1  0  0  0  0  0  0  0  0  0
   -1.2500    2.1650    0.0000 C   0  0  0  0  0  0  0  0  0  0  0  0
   -0.5000    3.4640    0.0000 O   0  0  0  0  0  0  0  0  0  0  0  0
   -1.2500   -0.4330    0.0000 C   0  0  0  0  0  0  0  0  0  0  0  0
   -2.7500   -0.4330    0.0000 C   0  0  0  0  0  0  0  0  0  0  0  0
   -3.5000   -1.7320    0.0000 C   0  0  0  0  0  0  0  0  0  0  0  0
   -5.0000   -1.7320    0.0000 C   0  0  0  0  0  0  0  0  0  0  0  0
   -5.7500   -0.4330    0.0000 C   0  0  0  0  0  0  0  0  0  0  0  0
   -5.0000    0.8660    0.0000 C   0  0  0  0  0  0  0  0  0  0  0  0
   -3.5000    0.8660    0.0000 C   0  0  0  0  0  0  0  0  0  0  0  0
  1  2  2  0  0  0  0
  2  3  1  0  0  0  0
  2 11  1  0  0  0  0
  3  4  1  0  0  0  0
  4  5  1  0  0  0  0
  5  6  1  0  0  0  0
  5 10  2  0  0  0  0
  6  7  2  0  0  0  0
  7  8  1  0  0  0  0
  8  9  2  0  0  0  0
  9 10  1  0  0  0  0
 12 11  1  6  0  0  0
 12 13  1  0  0  0  0
 12 15  1  0  0  0  0
 13 14  2  0  0  0  0
 15 16  1  0  0  0  0
 16 17  1  0  0  0  0
 16 21  2  0  0  0  0
 17 18  2  0  0  0  0
 18 19  1  0  0  0  0
 19 20  2  0  0  0  0
 20 21  1  0  0  0  0
M  END
>  <name>
O=C(OCc1ccccc1)N[C@@H]([C;amide]=O)Cc1ccccc1

>  <apo>
1

>  <freq>
1

>  <freq0>
0

>  <freq1>
1

>  <freqA>
0.99700278

>  <a_count>
38

$$$$

  MOE2015           2D

 15 15  0  0  0  0  0  0  0  0999 V2000
   -2.2860    1.3200    0.0000 S   0  0  0  0  0  0  0  0  0  0  0  0
   -3.0360    2.6190    0.0000 O   0  0  0  0  0  0  0  0  0  0  0  0
   -1.5360    0.0210    0.0000 O   0  0  0  0  0  0  0  0  0  0  0  0
   -3.5850    0.5700    0.0000 C   0  0  0  0  0  0  0  0  0  0  0  0
   -4.8840   -0.1800    0.0000 C   0  0  0  0  0  0  0  0  0  0  0  0
   -4.3350    1.8690    0.0000 C   0  0  0  0  0  0  0  0  0  0  0  0
   -2.8350   -0.7290    0.0000 C   0  0  0  0  0  0  0  0  0  0  0  0
   -0.9870    2.0700    0.0000 C   0  0  0  0  0  0  0  0  0  0  0  0
    0.3120    1.3200    0.0000 C   0  0  0  0  0  0  0  0  0  0  0  0
    0.3120    2.8200    0.0000 N   0  0  0  0  0  0  0  0  0  0  0  0
   -0.4380    0.0210    0.0000 C   0  0  0  0  0  0  0  0  0  0  0  0
    0.3120   -1.2780    0.0000 C   0  0  0  0  0  0  0  0  0  0  0  0
    1.8120   -1.2780    0.0000 C   0  0  0  0  0  0  0  0  0  0  0  0
    2.5620    0.0210    0.0000 C   0  0  0  0  0  0  0  0  0  0  0  0
    1.8120    1.3200    0.0000 C   0  0  0  0  0  0  0  0  0  0  0  0
  1  2  2  0  0  0  0
  1  3  2  0  0  0  0
  1  4  1  0  0  0  0
  1  8  1  0  0  0  0
  4  5  1  0  0  0  0
  4  6  1  0  0  0  0
  4  7  1  0  0  0  0
  8  9  1  0  0  0  0
  9 10  1  0  0  0  0
  9 11  1  0  0  0  0
  9 15  1  0  0  0  0
 11 12  1  0  0  0  0
 12 13  1  0  0  0  0
 13 14  1  0  0  0  0
 14 15  1  0  0  0  0
M  END
>  <name>
S(=O)(=O)(C(C)(C)C)CC1([N;urea])CCCCC1

>  <apo>
1

>  <freq>
1

>  <freq0>
0

>  <freq1>
1

>  <freqA>
0.99700278

>  <a_count>
38

$$$$

  MOE2015           2D

 16 17  0  0  1  0  0  0  0  0999 V2000
   13.1250    2.5980    0.0000 N   0  3  0  0  0  0  0  0  0  0  0  0
   11.6250    2.5980    0.0000 C   0  0  0  0  0  0  0  0  0  0  0  0
   10.8750    1.2990    0.0000 C   0  0  0  0  0  0  0  0  0  0  0  0
    9.3750    1.2990    0.0000 C   0  0  0  0  0  0  0  0  0  0  0  0
    8.6250    0.0000    0.0000 C   0  0  0  0  0  0  0  0  0  0  0  0
    7.1250    0.0000    0.0000 C   0  0  0  0  0  0  0  0  0  0  0  0
    6.3750    1.2990    0.0000 C   0  0  0  0  0  0  0  0  0  0  0  0
    4.8750    1.2990    0.0000 N   0  0  0  0  0  0  0  0  0  0  0  0
    4.1250    0.0000    0.0000 C   0  0  0  0  0  0  0  0  0  0  0  0
    2.6250    0.0000    0.0000 C   0  0  3  0  0  0  0  0  0  0  0  0
    1.8750   -1.2990    0.0000 N   0  0  0  0  0  0  0  0  0  0  0  0
    1.8750    1.2990    0.0000 C   0  0  0  0  0  0  0  0  0  0  0  0
    2.6250    2.5980    0.0000 C   0  0  0  0  0  0  0  0  0  0  0  0
    4.1250    2.5980    0.0000 C   0  0  0  0  0  0  0  0  0  0  0  0
    7.1250    2.5980    0.0000 C   0  0  0  0  0  0  0  0  0  0  0  0
    8.6250    2.5980    0.0000 C   0  0  0  0  0  0  0  0  0  0  0  0
  1  2  1  0  0  0  0
  2  3  1  0  0  0  0
  3  4  1  0  0  0  0
  4  5  1  0  0  0  0
  4 16  2  0  0  0  0
  5  6  2  0  0  0  0
  6  7  1  0  0  0  0
  7  8  1  0  0  0  0
  7 15  2  0  0  0  0
  8  9  1  0  0  0  0
  8 14  1  0  0  0  0
  9 10  1  0  0  0  0
 10 11  1  0  0  0  0
 10 12  1  0  0  0  0
 12 13  1  0  0  0  0
 13 14  1  0  0  0  0
 15 16  1  0  0  0  0
M  CHG  1   1   1
M  END
>  <name>
[N+]CCc1ccc(N2CC([N;amide])CCC2)cc1

>  <apo>
1

>  <freq>
1

>  <freq0>
0

>  <freq1>
1

>  <freqA>
0.99700278

>  <a_count>
38

$$$$

  MOE2015           2D

 27 29  0  0  0  0  0  0  0  0999 V2000
   12.7050   -0.6120    0.0000 Cl  0  0  0  0  0  0  0  0  0  0  0  0
   11.4050   -1.3620    0.0000 C   0  0  0  0  0  0  0  0  0  0  0  0
   11.4050   -2.8620    0.0000 C   0  0  0  0  0  0  0  0  0  0  0  0
   12.7050   -3.6120    0.0000 F   0  0  0  0  0  0  0  0  0  0  0  0
   10.1060   -3.6120    0.0000 C   0  0  0  0  0  0  0  0  0  0  0  0
    8.8070   -2.8620    0.0000 C   0  0  0  0  0  0  0  0  0  0  0  0
    8.8070   -1.3620    0.0000 C   0  0  0  0  0  0  0  0  0  0  0  0
    7.5080   -0.6120    0.0000 C   0  0  0  0  0  0  0  0  0  0  0  0
    7.5080    0.8880    0.0000 O   0  0  0  0  0  0  0  0  0  0  0  0
    6.2090   -1.3620    0.0000 C   0  0  0  0  0  0  0  0  0  0  0  0
    4.9100   -0.6120    0.0000 N   0  0  0  0  0  0  0  0  0  0  0  0
    4.9100    0.8880    0.0000 C   0  0  0  0  0  0  0  0  0  0  0  0
    3.6110    1.6380    0.0000 C   0  0  0  0  0  0  0  0  0  0  0  0
    3.6110    3.1380    0.0000 O   0  0  0  0  0  0  0  0  0  0  0  0
    3.6110   -1.3620    0.0000 S   0  0  0  0  0  0  0  0  0  0  0  0
    2.8610   -0.0620    0.0000 O   0  0  0  0  0  0  0  0  0  0  0  0
    2.1110   -1.3620    0.0000 O   0  0  0  0  0  0  0  0  0  0  0  0
    3.6110   -2.8620    0.0000 C   0  0  0  0  0  0  0  0  0  0  0  0
    4.9100   -3.6120    0.0000 C   0  0  0  0  0  0  0  0  0  0  0  0
    6.2090   -2.8620    0.0000 C   0  0  0  0  0  0  0  0  0  0  0  0
    7.5080   -3.6120    0.0000 O   0  5  0  0  0  0  0  0  0  0  0  0
    4.9100   -5.1120    0.0000 C   0  0  0  0  0  0  0  0  0  0  0  0
    3.6110   -5.8620    0.0000 C   0  0  0  0  0  0  0  0  0  0  0  0
    2.3120   -5.1120    0.0000 C   0  0  0  0  0  0  0  0  0  0  0  0
    1.0130   -5.8620    0.0000 F   0  0  0  0  0  0  0  0  0  0  0  0
    2.3120   -3.6120    0.0000 C   0  0  0  0  0  0  0  0  0  0  0  0
   10.1060   -0.6120    0.0000 C   0  0  0  0  0  0  0  0  0  0  0  0
  1  2  1  0  0  0  0
  2  3  1  0  0  0  0
  2 27  2  0  0  0  0
  3  4  1  0  0  0  0
  3  5  2  0  0  0  0
  5  6  1  0  0  0  0
  6  7  2  0  0  0  0
  7  8  1  0  0  0  0
  7 27  1  0  0  0  0
  8  9  2  0  0  0  0
  8 10  1  0  0  0  0
 10 11  1  0  0  0  0
 10 20  2  0  0  0  0
 11 12  1  0  0  0  0
 11 15  1  0  0  0  0
 12 13  1  0  0  0  0
 13 14  2  0  0  0  0
 15 16  2  0  0  0  0
 15 17  2  0  0  0  0
 15 18  1  0  0  0  0
 18 19  1  0  0  0  0
 18 26  2  0  0  0  0
 19 20  1  0  0  0  0
 19 22  2  0  0  0  0
 20 21  1  0  0  0  0
 22 23  1  0  0  0  0
 23 24  2  0  0  0  0
 24 25  1  0  0  0  0
 24 26  1  0  0  0  0
M  CHG  1  21  -1
M  END
>  <name>
Clc1c(F)ccc(C(=O)C=2N(C[C;amide]=O)S(=O)(=O)c3c(C=2[O-])ccc(F)c3)c1

>  <apo>
1

>  <freq>
1

>  <freq0>
0

>  <freq1>
1

>  <freqA>
0.99700278

>  <a_count>
36

$$$$

  MOE2015           2D

 16 16  0  0  1  0  0  0  0  0999 V2000
    0.0140   -0.0080    0.0000 O   0  0  0  0  0  0  0  0  0  0  0  0
   -0.7360    1.2910    0.0000 C   0  0  0  0  0  0  0  0  0  0  0  0
   -2.2360    1.2910    0.0000 C   0  0  0  0  0  0  0  0  0  0  0  0
   -2.9860   -0.0080    0.0000 O   0  0  0  0  0  0  0  0  0  0  0  0
    0.0140    2.5900    0.0000 C   0  0  1  0  0  0  0  0  0  0  0  0
   -1.4860    2.5900    0.0000 O   0  0  0  0  0  0  0  0  0  0  0  0
    0.0140    4.0900    0.0000 C   0  0  2  0  0  0  0  0  0  0  0  0
   -1.2850    4.8400    0.0000 C   0  0  0  0  0  0  0  0  0  0  0  0
    1.3130    4.8400    0.0000 C   0  0  0  0  0  0  0  0  0  0  0  0
    2.6120    4.0900    0.0000 C   0  0  0  0  0  0  0  0  0  0  0  0
    2.6120    2.5900    0.0000 C   0  0  2  0  0  0  0  0  0  0  0  0
    3.9110    1.8400    0.0000 C   0  0  0  0  0  0  0  0  0  0  0  0
    5.2110    2.5900    0.0000 C   0  0  0  0  0  0  0  0  0  0  0  0
    6.5100    1.8400    0.0000 C   0  0  0  0  0  0  0  0  0  0  0  0
    7.8090    2.5900    0.0000 C   0  0  0  0  0  0  0  0  0  0  0  0
    1.3130    1.8400    0.0000 O   0  0  0  0  0  0  0  0  0  0  0  0
  1  2  2  0  0  0  0
  2  3  1  0  0  0  0
  5  2  1  1  0  0  0
  3  4  2  0  0  0  0
  5  6  1  6  0  0  0
  5  7  1  0  0  0  0
  5 16  1  0  0  0  0
  7  8  1  6  0  0  0
  7  9  1  0  0  0  0
  9 10  1  0  0  0  0
 10 11  1  0  0  0  0
 11 12  1  6  0  0  0
 11 16  1  0  0  0  0
 12 13  1  0  0  0  0
 13 14  1  0  0  0  0
 14 15  1  0  0  0  0
M  END
>  <name>
O=C([C;amide]=O)[C@@]1(O)[C@H](C)CC[C@H](C[C;ether][C;olefin]C)O1

>  <apo>
3

>  <freq>
1

>  <freq0>
0

>  <freq1>
1

>  <freqA>
0.99700278

>  <a_count>
36

$$$$

  MOE2015           2D

 18 18  0  0  1  0  0  0  0  0999 V2000
   -1.8750   -5.8460    0.0000 O   0  0  0  0  0  0  0  0  0  0  0  0
   -1.1250   -4.5470    0.0000 C   0  0  0  0  0  0  0  0  0  0  0  0
    0.3750   -4.5470    0.0000 N   0  0  0  0  0  0  0  0  0  0  0  0
    1.1250   -5.8460    0.0000 O   0  5  0  0  0  0  0  0  0  0  0  0
    1.1250   -3.2480    0.0000 C   0  0  2  0  0  0  0  0  0  0  0  0
    2.6250   -3.2480    0.0000 C   0  0  2  0  0  0  0  0  0  0  0  0
    3.3750   -1.9490    0.0000 C   0  0  0  0  0  0  0  0  0  0  0  0
    2.6250   -0.6500    0.0000 O   0  0  0  0  0  0  0  0  0  0  0  0
    3.3750   -4.5470    0.0000 C   0  0  0  0  0  0  0  0  0  0  0  0
    4.8750   -4.5470    0.0000 C   0  0  0  0  0  0  0  0  0  0  0  0
    5.6250   -5.8460    0.0000 C   0  0  0  0  0  0  0  0  0  0  0  0
    7.1250   -5.8460    0.0000 C   0  0  0  0  0  0  0  0  0  0  0  0
    7.8750   -7.1450    0.0000 C   0  0  0  0  0  0  0  0  0  0  0  0
    9.3750   -7.1450    0.0000 C   0  0  0  0  0  0  0  0  0  0  0  0
   10.1250   -5.8460    0.0000 C   0  0  0  0  0  0  0  0  0  0  0  0
    9.3750   -4.5470    0.0000 C   0  0  0  0  0  0  0  0  0  0  0  0
    7.8750   -4.5470    0.0000 C   0  0  0  0  0  0  0  0  0  0  0  0
    0.3750   -1.9490    0.0000 C   0  0  0  0  0  0  0  0  0  0  0  0
  1  2  2  0  0  0  0
  2  3  1  0  0  0  0
  3  4  1  0  0  0  0
  3  5  1  0  0  0  0
  5  6  1  0  0  0  0
  5 18  1  1  0  0  0
  6  7  1  0  0  0  0
  6  9  1  6  0  0  0
  7  8  2  0  0  0  0
  9 10  1  0  0  0  0
 10 11  1  0  0  0  0
 11 12  1  0  0  0  0
 12 13  1  0  0  0  0
 12 17  2  0  0  0  0
 13 14  2  0  0  0  0
 14 15  1  0  0  0  0
 15 16  2  0  0  0  0
 16 17  1  0  0  0  0
M  CHG  1   4  -1
M  END
>  <name>
O=CN([O-])[C@H]([C@H]([C;amide]=O)CCCc1ccccc1)C

>  <apo>
1

>  <freq>
1

>  <freq0>
0

>  <freq1>
1

>  <freqA>
0.99700278

>  <a_count>
36

$$$$

  MOE2015           2D

 21 23  0  0  0  0  0  0  0  0999 V2000
    0.6610   -2.4670    0.0000 O   0  0  0  0  0  0  0  0  0  0  0  0
    1.9600   -1.7170    0.0000 C   0  0  0  0  0  0  0  0  0  0  0  0
    3.2590   -2.4670    0.0000 C   0  0  0  0  0  0  0  0  0  0  0  0
    4.5580   -1.7170    0.0000 C   0  0  0  0  0  0  0  0  0  0  0  0
    4.5580   -0.2170    0.0000 C   0  0  0  0  0  0  0  0  0  0  0  0
    5.8570    0.5330    0.0000 C   0  0  0  0  0  0  0  0  0  0  0  0
    5.8570    2.0330    0.0000 C   0  0  0  0  0  0  0  0  0  0  0  0
    4.5580    2.7830    0.0000 N   0  0  0  0  0  0  0  0  0  0  0  0
    4.5580    4.2830    0.0000 C   0  0  0  0  0  0  0  0  0  0  0  0
    5.8570    5.0330    0.0000 C   0  0  0  0  0  0  0  0  0  0  0  0
    7.1560    4.2830    0.0000 C   0  0  0  0  0  0  0  0  0  0  0  0
    7.1560    2.7830    0.0000 C   0  0  0  0  0  0  0  0  0  0  0  0
    7.1560   -0.2170    0.0000 C   0  0  0  0  0  0  0  0  0  0  0  0
    7.1560   -1.7170    0.0000 C   0  0  0  0  0  0  0  0  0  0  0  0
    8.4550   -2.4670    0.0000 C   0  0  0  0  0  0  0  0  0  0  0  0
    9.7540   -1.7170    0.0000 C   0  0  0  0  0  0  0  0  0  0  0  0
   11.0530   -2.4670    0.0000 O   0  0  0  0  0  0  0  0  0  0  0  0
    9.7540   -0.2170    0.0000 C   0  0  0  0  0  0  0  0  0  0  0  0
    8.4550    0.5330    0.0000 C   0  0  0  0  0  0  0  0  0  0  0  0
    3.2590    0.5330    0.0000 C   0  0  0  0  0  0  0  0  0  0  0  0
    1.9600   -0.2170    0.0000 C   0  0  0  0  0  0  0  0  0  0  0  0
  1  2  1  0  0  0  0
  2  3  1  0  0  0  0
  2 21  2  0  0  0  0
  3  4  2  0  0  0  0
  4  5  1  0  0  0  0
  5  6  1  0  0  0  0
  5 20  2  0  0  0  0
  6  7  1  0  0  0  0
  6 13  1  0  0  0  0
  7  8  1  0  0  0  0
  7 12  2  0  0  0  0
  8  9  2  0  0  0  0
  9 10  1  0  0  0  0
 10 11  2  0  0  0  0
 11 12  1  0  0  0  0
 13 14  1  0  0  0  0
 13 19  2  0  0  0  0
 14 15  2  0  0  0  0
 15 16  1  0  0  0  0
 16 17  1  0  0  0  0
 16 18  2  0  0  0  0
 18 19  1  0  0  0  0
 20 21  1  0  0  0  0
M  END
>  <name>
[O;ester]c1ccc(C(c2ncccc2)c2ccc([O;ester])cc2)cc1

>  <apo>
2

>  <freq>
1

>  <freq0>
0

>  <freq1>
1

>  <freqA>
0.99700278

>  <a_count>
36

$$$$

  MOE2015           2D

 20 22  0  0  1  0  0  0  0  0999 V2000
   -1.2100   -1.2240    0.0000 F   0  0  0  0  0  0  0  0  0  0  0  0
   -1.1930   -2.7240    0.0000 C   0  0  0  0  0  0  0  0  0  0  0  0
    0.1140   -3.4590    0.0000 C   0  0  0  0  0  0  0  0  0  0  0  0
    0.1310   -4.9590    0.0000 C   0  0  0  0  0  0  0  0  0  0  0  0
   -1.1590   -5.7240    0.0000 C   0  0  0  0  0  0  0  0  0  0  0  0
   -2.4670   -4.9890    0.0000 C   0  0  0  0  0  0  0  0  0  0  0  0
   -2.4840   -3.4890    0.0000 C   0  0  0  0  0  0  0  0  0  0  0  0
    1.5630   -5.4060    0.0000 C   0  0  0  0  0  0  0  0  0  0  0  0
    2.4310   -4.1830    0.0000 N   0  0  0  0  0  0  0  0  0  0  0  0
    3.9310   -4.1660    0.0000 C   0  0  0  0  0  0  0  0  0  0  0  0
    4.6660   -2.8580    0.0000 O   0  0  0  0  0  0  0  0  0  0  0  0
    4.6960   -5.4560    0.0000 O   0  0  0  0  0  0  0  0  0  0  0  0
    6.1950   -5.4390    0.0000 C   0  0  2  0  0  0  0  0  0  0  0  0
    7.0910   -6.6430    0.0000 C   0  0  0  0  0  0  0  0  0  0  0  0
    8.5120   -6.1630    0.0000 C   0  0  1  0  0  0  0  0  0  0  0  0
    9.7360   -7.0310    0.0000 C   0  0  0  0  0  0  0  0  0  0  0  0
   11.0990   -6.4050    0.0000 O   0  0  0  0  0  0  0  0  0  0  0  0
    8.4950   -4.6630    0.0000 N   0  0  0  0  0  0  0  0  0  0  0  0
    7.0630   -4.2160    0.0000 C   0  0  0  0  0  0  0  0  0  0  0  0
    1.5360   -2.9790    0.0000 C   0  0  0  0  0  0  0  0  0  0  0  0
  1  2  1  0  0  0  0
  2  3  2  0  0  0  0
  2  7  1  0  0  0  0
  3  4  1  0  0  0  0
  3 20  1  0  0  0  0
  4  5  2  0  0  0  0
  4  8  1  0  0  0  0
  5  6  1  0  0  0  0
  6  7  2  0  0  0  0
  8  9  1  0  0  0  0
  9 10  1  0  0  0  0
  9 20  1  0  0  0  0
 10 11  2  0  0  0  0
 10 12  1  0  0  0  0
 13 12  1  1  0  0  0
 13 14  1  0  0  0  0
 13 19  1  0  0  0  0
 14 15  1  0  0  0  0
 15 16  1  6  0  0  0
 15 18  1  0  0  0  0
 16 17  2  0  0  0  0
 18 19  1  0  0  0  0
M  END
>  <name>
Fc1c2c(ccc1)CN(C(=O)O[C@@H]1C[C@@H]([C;amide]=O)[N;amide]C1)C2

>  <apo>
2

>  <freq>
1

>  <freq0>
0

>  <freq1>
1

>  <freqA>
0.99700278

>  <a_count>
35

$$$$

  MOE2015           2D

 13 12  0  0  1  0  0  0  0  0999 V2000
    2.0460    2.0460    0.0000 O   0  0  0  0  0  0  0  0  0  0  0  0
    2.0460    0.5460    0.0000 C   0  0  0  0  0  0  0  0  0  0  0  0
    0.7470   -0.2040    0.0000 C   0  0  1  0  0  0  0  0  0  0  0  0
   -0.5520    0.5460    0.0000 C   0  0  0  0  0  0  0  0  0  0  0  0
   -1.8510   -0.2040    0.0000 C   0  0  0  0  0  0  0  0  0  0  0  0
   -1.8510   -1.7040    0.0000 C   0  0  0  0  0  0  0  0  0  0  0  0
   -3.1500    0.5460    0.0000 C   0  0  0  0  0  0  0  0  0  0  0  0
    0.7470   -1.7040    0.0000 C   0  0  0  0  0  0  0  0  0  0  0  0
    3.3450   -0.2040    0.0000 C   0  0  0  0  0  0  0  0  0  0  0  0
    4.6440    0.5460    0.0000 C   0  0  2  0  0  0  0  0  0  0  0  0
    4.6440    2.0460    0.0000 O   0  0  0  0  0  0  0  0  0  0  0  0
    5.9430   -0.2040    0.0000 C   0  0  0  0  0  0  0  0  0  0  0  0
    7.2420    0.5460    0.0000 C   0  0  0  0  0  0  0  0  0  0  0  0
  1  2  2  0  0  0  0
  2  3  1  0  0  0  0
  2  9  1  0  0  0  0
  3  4  1  0  0  0  0
  3  8  1  6  0  0  0
  4  5  1  0  0  0  0
  5  6  1  0  0  0  0
  5  7  1  0  0  0  0
  9 10  1  0  0  0  0
 10 11  1  6  0  0  0
 10 12  1  0  0  0  0
 12 13  1  0  0  0  0
M  END
>  <name>
O=C([C@@H](CC([C;olefin])C)C)[C;ether][C@H](O)[C;olefin]C

>  <apo>
3

>  <freq>
1

>  <freq0>
0

>  <freq1>
1

>  <freqA>
0.99700278

>  <a_count>
35

$$$$

  MOE2015           2D

 20 22  0  0  1  0  0  0  0  0999 V2000
    2.5870    2.9690    0.0000 O   0  0  0  0  0  0  0  0  0  0  0  0
    2.5870    1.4690    0.0000 C   0  0  0  0  0  0  0  0  0  0  0  0
    3.8860    0.7190    0.0000 C   0  0  1  0  0  0  0  0  0  0  0  0
    3.8860   -0.7810    0.0000 N   0  0  0  0  0  0  0  0  0  0  0  0
    5.1850    1.4690    0.0000 C   0  0  0  0  0  0  0  0  0  0  0  0
    6.4840    0.7190    0.0000 C   0  0  1  0  0  0  0  0  0  0  0  0
    7.8550    1.3300    0.0000 C   0  0  0  0  0  0  0  0  0  0  0  0
    8.1660    2.7970    0.0000 O   0  0  0  0  0  0  0  0  0  0  0  0
    8.8580    0.2150    0.0000 N   0  0  0  0  0  0  0  0  0  0  0  0
    8.1080   -1.0840    0.0000 C   0  0  0  0  0  0  0  0  0  0  0  0
    6.6410   -0.7720    0.0000 C   0  0  0  0  0  0  0  0  0  0  0  0
    1.2880    0.7190    0.0000 C   0  0  0  0  0  0  0  0  0  0  0  0
    1.1310   -0.7720    0.0000 S   0  0  0  0  0  0  0  0  0  0  0  0
   -0.3360   -1.0840    0.0000 C   0  0  0  0  0  0  0  0  0  0  0  0
   -1.0860    0.2150    0.0000 C   0  0  0  0  0  0  0  0  0  0  0  0
   -0.0820    1.3300    0.0000 N   0  0  0  0  0  0  0  0  0  0  0  0
   -2.5860    0.2150    0.0000 C   0  0  0  0  0  0  0  0  0  0  0  0
   -3.3360   -1.0840    0.0000 C   0  0  0  0  0  0  0  0  0  0  0  0
   -2.5860   -2.3830    0.0000 C   0  0  0  0  0  0  0  0  0  0  0  0
   -1.0860   -2.3830    0.0000 C   0  0  0  0  0  0  0  0  0  0  0  0
  1  2  2  0  0  0  0
  2  3  1  0  0  0  0
  2 12  1  0  0  0  0
  3  4  1  6  0  0  0
  3  5  1  0  0  0  0
  6  5  1  1  0  0  0
  6  7  1  0  0  0  0
  6 11  1  0  0  0  0
  7  8  2  0  0  0  0
  7  9  1  0  0  0  0
  9 10  1  0  0  0  0
 10 11  1  0  0  0  0
 12 13  1  0  0  0  0
 12 16  2  0  0  0  0
 13 14  1  0  0  0  0
 14 15  2  0  0  0  0
 14 20  1  0  0  0  0
 15 16  1  0  0  0  0
 15 17  1  0  0  0  0
 17 18  2  0  0  0  0
 18 19  1  0  0  0  0
 19 20  2  0  0  0  0
M  END
>  <name>
O=C([C@@H]([N;amide])C[C@H]1C(=O)NCC1)c1sc2c(n1)cccc2

>  <apo>
1

>  <freq>
1

>  <freq0>
0

>  <freq1>
1

>  <freqA>
0.99700278

>  <a_count>
35

$$$$

  MOE2015           2D

 17 19  0  0  0  0  0  0  0  0999 V2000
   -0.1760    0.4160    0.0000 O   0  0  0  0  0  0  0  0  0  0  0  0
    1.3140    0.2450    0.0000 C   0  0  0  0  0  0  0  0  0  0  0  0
    2.3280    1.3510    0.0000 C   0  0  0  0  0  0  0  0  0  0  0  0
    3.6930    0.7280    0.0000 N   0  0  0  0  0  0  0  0  0  0  0  0
    4.9990    1.4650    0.0000 C   0  0  0  0  0  0  0  0  0  0  0  0
    5.0130    2.9650    0.0000 C   0  0  0  0  0  0  0  0  0  0  0  0
    6.3190    3.7030    0.0000 C   0  0  0  0  0  0  0  0  0  0  0  0
    7.6110    2.9400    0.0000 C   0  0  0  0  0  0  0  0  0  0  0  0
    7.5970    1.4400    0.0000 C   0  0  0  0  0  0  0  0  0  0  0  0
    6.2910    0.7030    0.0000 C   0  0  0  0  0  0  0  0  0  0  0  0
    3.5220   -0.7630    0.0000 C   0  0  0  0  0  0  0  0  0  0  0  0
    2.0520   -1.0610    0.0000 N   0  0  0  0  0  0  0  0  0  0  0  0
    0.9060    1.8280    0.0000 C   0  0  0  0  0  0  0  0  0  0  0  0
    0.6080    3.2980    0.0000 C   0  0  0  0  0  0  0  0  0  0  0  0
    1.7330    4.2910    0.0000 N   0  3  0  0  0  0  0  0  0  0  0  0
    3.1550    3.8140    0.0000 C   0  0  0  0  0  0  0  0  0  0  0  0
    3.4530    2.3440    0.0000 C   0  0  0  0  0  0  0  0  0  0  0  0
  1  2  2  0  0  0  0
  2  3  1  0  0  0  0
  2 12  1  0  0  0  0
  3  4  1  0  0  0  0
  3 13  1  0  0  0  0
  3 17  1  0  0  0  0
  4  5  1  0  0  0  0
  4 11  1  0  0  0  0
  5  6  1  0  0  0  0
  5 10  2  0  0  0  0
  6  7  2  0  0  0  0
  7  8  1  0  0  0  0
  8  9  2  0  0  0  0
  9 10  1  0  0  0  0
 11 12  1  0  0  0  0
 13 14  1  0  0  0  0
 14 15  1  0  0  0  0
 15 16  1  0  0  0  0
 16 17  1  0  0  0  0
M  CHG  1  15   1
M  END
>  <name>
O=C1C2(N(c3ccccc3)CN1)CC[N+;amine]CC2

>  <apo>
1

>  <freq>
1

>  <freq0>
0

>  <freq1>
1

>  <freqA>
0.99700278

>  <a_count>
35

$$$$

  MOE2015           2D

 19 21  0  0  0  0  0  0  0  0999 V2000
    0.0000    0.0000    0.0000 O   0  0  0  0  0  0  0  0  0  0  0  0
    1.5000    0.0000    0.0000 C   0  0  0  0  0  0  0  0  0  0  0  0
    2.2500   -1.2990    0.0000 C   0  0  0  0  0  0  0  0  0  0  0  0
    3.7500   -1.2990    0.0000 N   0  0  0  0  0  0  0  0  0  0  0  0
    4.5000   -2.5980    0.0000 C   0  0  0  0  0  0  0  0  0  0  0  0
    6.0000   -2.5980    0.0000 N   0  0  0  0  0  0  0  0  0  0  0  0
    6.8820   -3.8120    0.0000 C   0  0  0  0  0  0  0  0  0  0  0  0
    8.3080   -3.3480    0.0000 C   0  0  0  0  0  0  0  0  0  0  0  0
    8.3080   -1.8480    0.0000 C   0  0  0  0  0  0  0  0  0  0  0  0
    6.8820   -1.3850    0.0000 C   0  0  0  0  0  0  0  0  0  0  0  0
    3.7500   -3.8970    0.0000 C   0  0  0  0  0  0  0  0  0  0  0  0
    4.5000   -5.1960    0.0000 C   0  0  0  0  0  0  0  0  0  0  0  0
    6.0000   -5.1960    0.0000 C   0  0  0  0  0  0  0  0  0  0  0  0
    3.7500   -6.4950    0.0000 C   0  0  0  0  0  0  0  0  0  0  0  0
    2.2500   -6.4950    0.0000 C   0  0  0  0  0  0  0  0  0  0  0  0
    1.5000   -7.7940    0.0000 C   0  0  0  0  0  0  0  0  0  0  0  0
    1.5000   -5.1960    0.0000 N   0  0  0  0  0  0  0  0  0  0  0  0
    2.2500   -3.8970    0.0000 C   0  0  0  0  0  0  0  0  0  0  0  0
    1.5000   -2.5980    0.0000 N   0  0  0  0  0  0  0  0  0  0  0  0
  1  2  2  0  0  0  0
  2  3  1  0  0  0  0
  3  4  1  0  0  0  0
  3 19  2  0  0  0  0
  4  5  2  0  0  0  0
  5  6  1  0  0  0  0
  5 11  1  0  0  0  0
  6  7  1  0  0  0  0
  6 10  1  0  0  0  0
  7  8  1  0  0  0  0
  8  9  1  0  0  0  0
  9 10  1  0  0  0  0
 11 12  1  0  0  0  0
 11 18  2  0  0  0  0
 12 13  1  0  0  0  0
 12 14  2  0  0  0  0
 14 15  1  0  0  0  0
 15 16  1  0  0  0  0
 15 17  2  0  0  0  0
 17 18  1  0  0  0  0
 18 19  1  0  0  0  0
M  END
>  <name>
O=[C;amide]c1nc(N2CCCC2)c2c(C)cc(C)nc2n1

>  <apo>
1

>  <freq>
1

>  <freq0>
0

>  <freq1>
1

>  <freqA>
0.99700278

>  <a_count>
35

$$$$

  MOE2015           2D

 16 16  0  0  1  0  0  0  0  0999 V2000
    8.8120    1.9490    0.0000 Cl  0  0  0  0  0  0  0  0  0  0  0  0
    7.3120    1.9490    0.0000 C   0  0  2  0  0  0  0  0  0  0  0  0
    6.5620    0.6500    0.0000 C   0  0  1  0  0  0  0  0  0  0  0  0
    7.3120   -0.6500    0.0000 N   0  0  0  0  0  0  0  0  0  0  0  0
    5.0620    0.6500    0.0000 C   0  0  2  0  0  0  0  0  0  0  0  0
    4.3120   -0.6500    0.0000 C   0  0  2  0  0  0  0  0  0  0  0  0
    5.0630   -1.9490    0.0000 O   0  0  0  0  0  0  0  0  0  0  0  0
    2.8120   -0.6500    0.0000 C   0  0  2  0  0  0  0  0  0  0  0  0
    2.0630   -1.9490    0.0000 O   0  0  0  0  0  0  0  0  0  0  0  0
    2.0630    0.6500    0.0000 C   0  0  1  0  0  0  0  0  0  0  0  0
    0.5630    0.6500    0.0000 O   0  0  0  0  0  0  0  0  0  0  0  0
    2.8120    1.9490    0.0000 C   0  0  1  0  0  0  0  0  0  0  0  0
    2.0620    3.2480    0.0000 S   0  0  0  0  0  0  0  0  0  0  0  0
    2.8120    4.5470    0.0000 C   0  0  0  0  0  0  0  0  0  0  0  0
    4.3120    1.9490    0.0000 O   0  0  0  0  0  0  0  0  0  0  0  0
    6.5620    3.2480    0.0000 C   0  0  0  0  0  0  0  0  0  0  0  0
  2  1  1  6  0  0  0
  2  3  1  0  0  0  0
  2 16  1  0  0  0  0
  3  4  1  1  0  0  0
  3  5  1  0  0  0  0
  5  6  1  0  0  0  0
  5 15  1  6  0  0  0
  6  7  1  6  0  0  0
  6  8  1  0  0  0  0
  8  9  1  6  0  0  0
  8 10  1  0  0  0  0
 10 11  1  1  0  0  0
 10 12  1  0  0  0  0
 12 13  1  1  0  0  0
 12 15  1  0  0  0  0
 13 14  1  0  0  0  0
M  END
>  <name>
Cl[C@H]([C@@H]([N;amide])[C@@H]1[C@H](O)[C@H](O)[C@@H]([O;ester])[C@@H](SC)O1)C

>  <apo>
2

>  <freq>
1

>  <freq0>
0

>  <freq1>
1

>  <freqA>
0.99700278

>  <a_count>
34

$$$$

  MOE2015           2D

 23 25  0  0  0  0  0  0  0  0999 V2000
    5.2490    9.1510    0.0000 F   0  0  0  0  0  0  0  0  0  0  0  0
    6.0070    7.8560    0.0000 C   0  0  0  0  0  0  0  0  0  0  0  0
    6.7640    6.5610    0.0000 F   0  0  0  0  0  0  0  0  0  0  0  0
    7.3010    8.6130    0.0000 F   0  0  0  0  0  0  0  0  0  0  0  0
    4.7120    7.0980    0.0000 C   0  0  0  0  0  0  0  0  0  0  0  0
    3.4090    7.8410    0.0000 C   0  0  0  0  0  0  0  0  0  0  0  0
    2.1140    7.0840    0.0000 C   0  0  0  0  0  0  0  0  0  0  0  0
    2.1220    5.5840    0.0000 C   0  0  0  0  0  0  0  0  0  0  0  0
    0.8270    4.8270    0.0000 N   0  0  0  0  0  0  0  0  0  0  0  0
   -0.4760    5.5700    0.0000 N   0  0  0  0  0  0  0  0  0  0  0  0
   -1.7710    4.8130    0.0000 C   0  0  0  0  0  0  0  0  0  0  0  0
   -1.9200    3.3200    0.0000 C   0  0  0  0  0  0  0  0  0  0  0  0
   -0.7990    2.3220    0.0000 O   0  0  0  0  0  0  0  0  0  0  0  0
   -3.3850    3.0000    0.0000 N   0  0  0  0  0  0  0  0  0  0  0  0
   -4.1420    4.2950    0.0000 C   0  0  0  0  0  0  0  0  0  0  0  0
   -3.1450    5.4150    0.0000 C   0  0  0  0  0  0  0  0  0  0  0  0
   -3.6160    6.8390    0.0000 C   0  0  0  0  0  0  0  0  0  0  0  0
   -5.0850    7.1430    0.0000 C   0  0  0  0  0  0  0  0  0  0  0  0
   -5.5560    8.5670    0.0000 N   0  0  0  0  0  0  0  0  0  0  0  0
   -6.0820    6.0230    0.0000 C   0  0  0  0  0  0  0  0  0  0  0  0
   -5.6110    4.5990    0.0000 C   0  0  0  0  0  0  0  0  0  0  0  0
    3.4250    4.8410    0.0000 C   0  0  0  0  0  0  0  0  0  0  0  0
    4.7200    5.5980    0.0000 C   0  0  0  0  0  0  0  0  0  0  0  0
  1  2  1  0  0  0  0
  2  3  1  0  0  0  0
  2  4  1  0  0  0  0
  2  5  1  0  0  0  0
  5  6  1  0  0  0  0
  5 23  2  0  0  0  0
  6  7  2  0  0  0  0
  7  8  1  0  0  0  0
  8  9  1  0  0  0  0
  8 22  2  0  0  0  0
  9 10  1  0  0  0  0
 10 11  2  0  0  0  0
 11 12  1  0  0  0  0
 11 16  1  0  0  0  0
 12 13  2  0  0  0  0
 12 14  1  0  0  0  0
 14 15  1  0  0  0  0
 15 16  1  0  0  0  0
 15 21  2  0  0  0  0
 16 17  2  0  0  0  0
 17 18  1  0  0  0  0
 18 19  1  0  0  0  0
 18 20  2  0  0  0  0
 20 21  1  0  0  0  0
 22 23  1  0  0  0  0
M  END
>  <name>
FC(F)(F)c1ccc(N/N=C/2\C(=O)Nc3c\2cc([N;amide])cc3)cc1

>  <apo>
1

>  <freq>
1

>  <freq0>
0

>  <freq1>
1

>  <freqA>
0.99700278

>  <a_count>
34

$$$$

  MOE2015           2D

 21 23  0  0  0  0  0  0  0  0999 V2000
    0.0000    0.0000    0.0000 F   0  0  0  0  0  0  0  0  0  0  0  0
    1.5000    0.0000    0.0000 C   0  0  0  0  0  0  0  0  0  0  0  0
    2.2500    1.2990    0.0000 C   0  0  0  0  0  0  0  0  0  0  0  0
    3.7500    1.2990    0.0000 C   0  0  0  0  0  0  0  0  0  0  0  0
    4.5000    0.0000    0.0000 C   0  0  0  0  0  0  0  0  0  0  0  0
    6.0000    0.0000    0.0000 N   0  0  0  0  0  0  0  0  0  0  0  0
    6.7500    1.2990    0.0000 C   0  0  0  0  0  0  0  0  0  0  0  0
    6.0000    2.5980    0.0000 C   0  0  0  0  0  0  0  0  0  0  0  0
    4.5000    2.5980    0.0000 C   0  0  0  0  0  0  0  0  0  0  0  0
    3.7500    3.8970    0.0000 O   0  0  0  0  0  0  0  0  0  0  0  0
    6.7500    3.8970    0.0000 C   0  0  0  0  0  0  0  0  0  0  0  0
    8.2500    3.8970    0.0000 N   0  3  0  0  0  0  0  0  0  0  0  0
    9.0000    2.5980    0.0000 C   0  0  0  0  0  0  0  0  0  0  0  0
   10.5000    2.5980    0.0000 N   0  0  0  0  0  0  0  0  0  0  0  0
   11.2500    1.2990    0.0000 C   0  0  0  0  0  0  0  0  0  0  0  0
   12.7500    1.2990    0.0000 C   0  0  0  0  0  0  0  0  0  0  0  0
   10.5000    0.0000    0.0000 C   0  0  0  0  0  0  0  0  0  0  0  0
    9.0000    0.0000    0.0000 C   0  0  0  0  0  0  0  0  0  0  0  0
    8.2500    1.2990    0.0000 C   0  0  0  0  0  0  0  0  0  0  0  0
    3.7500   -1.2990    0.0000 C   0  0  0  0  0  0  0  0  0  0  0  0
    2.2500   -1.2990    0.0000 C   0  0  0  0  0  0  0  0  0  0  0  0
  1  2  1  0  0  0  0
  2  3  1  0  0  0  0
  2 21  2  0  0  0  0
  3  4  2  0  0  0  0
  4  5  1  0  0  0  0
  5  6  1  0  0  0  0
  5 20  2  0  0  0  0
  6  7  1  0  0  0  0
  7  8  1  0  0  0  0
  7 19  2  0  0  0  0
  8  9  1  0  0  0  0
  8 11  2  0  0  0  0
  9 10  2  0  0  0  0
 11 12  1  0  0  0  0
 12 13  2  0  0  0  0
 13 14  1  0  0  0  0
 13 19  1  0  0  0  0
 14 15  2  0  0  0  0
 15 16  1  0  0  0  0
 15 17  1  0  0  0  0
 17 18  2  0  0  0  0
 18 19  1  0  0  0  0
 20 21  1  0  0  0  0
M  CHG  1  12   1
M  END
>  <name>
Fc1ccc(Nc2c([C;amide]=O)c[n+]c3nc(C)ccc23)cc1

>  <apo>
1

>  <freq>
1

>  <freq0>
0

>  <freq1>
1

>  <freqA>
0.99700278

>  <a_count>
34

$$$$

  MOE2015           2D

 15 15  0  0  0  0  0  0  0  0999 V2000
    1.9290   -0.3710    0.0000 O   0  0  0  0  0  0  0  0  0  0  0  0
    1.9290    1.1290    0.0000 C   0  0  0  0  0  0  0  0  0  0  0  0
    0.6300    1.8790    0.0000 O   0  0  0  0  0  0  0  0  0  0  0  0
   -0.6690    1.1290    0.0000 C   0  0  0  0  0  0  0  0  0  0  0  0
   -0.6690   -0.3710    0.0000 C   0  0  0  0  0  0  0  0  0  0  0  0
   -1.9680   -1.1210    0.0000 C   0  0  0  0  0  0  0  0  0  0  0  0
   -3.2670   -0.3710    0.0000 C   0  0  0  0  0  0  0  0  0  0  0  0
   -4.5660   -1.1210    0.0000 O   0  0  0  0  0  0  0  0  0  0  0  0
   -3.2670    1.1290    0.0000 C   0  0  0  0  0  0  0  0  0  0  0  0
   -1.9680    1.8790    0.0000 C   0  0  0  0  0  0  0  0  0  0  0  0
    3.2280    1.8790    0.0000 N   0  0  0  0  0  0  0  0  0  0  0  0
    4.5270    1.1290    0.0000 C   0  0  0  0  0  0  0  0  0  0  0  0
    5.8270    1.8790    0.0000 C   0  0  0  0  0  0  0  0  0  0  0  0
    7.1260    1.1290    0.0000 C   0  0  0  0  0  0  0  0  0  0  0  0
    8.4250    1.8790    0.0000 N   0  3  0  0  0  0  0  0  0  0  0  0
  1  2  2  0  0  0  0
  2  3  1  0  0  0  0
  2 11  1  0  0  0  0
  3  4  1  0  0  0  0
  4  5  1  0  0  0  0
  4 10  1  0  0  0  0
  5  6  1  0  0  0  0
  6  7  1  0  0  0  0
  7  8  2  0  0  0  0
  7  9  1  0  0  0  0
  9 10  1  0  0  0  0
 11 12  1  0  0  0  0
 12 13  1  0  0  0  0
 13 14  1  0  0  0  0
 14 15  1  0  0  0  0
M  CHG  1  15   1
M  END
>  <name>
O=C(OC1C[C;olefin]C(=O)[C;olefin]C1)NCCC[N+]

>  <apo>
2

>  <freq>
1

>  <freq0>
0

>  <freq1>
1

>  <freqA>
0.99700278

>  <a_count>
34

$$$$

  MOE2015           2D

 20 22  0  0  0  0  0  0  0  0999 V2000
    2.0540   -5.8380    0.0000 O   0  0  0  0  0  0  0  0  0  0  0  0
    0.9330   -4.8430    0.0000 C   0  0  0  0  0  0  0  0  0  0  0  0
    1.0790   -3.3500    0.0000 C   0  0  0  0  0  0  0  0  0  0  0  0
    2.3730   -2.5910    0.0000 N   0  0  0  0  0  0  0  0  0  0  0  0
    3.6770   -3.3320    0.0000 N   0  0  0  0  0  0  0  0  0  0  0  0
    4.9710   -2.5730    0.0000 C   0  0  0  0  0  0  0  0  0  0  0  0
    6.2750   -3.3130    0.0000 C   0  0  0  0  0  0  0  0  0  0  0  0
    7.5690   -2.5540    0.0000 C   0  0  0  0  0  0  0  0  0  0  0  0
    7.5580   -1.0540    0.0000 C   0  0  0  0  0  0  0  0  0  0  0  0
    8.8520   -0.2950    0.0000 C   0  0  0  0  0  0  0  0  0  0  0  0
    6.2540   -0.3140    0.0000 C   0  0  0  0  0  0  0  0  0  0  0  0
    4.9600   -1.0730    0.0000 C   0  0  0  0  0  0  0  0  0  0  0  0
   -0.2960   -2.7490    0.0000 C   0  0  0  0  0  0  0  0  0  0  0  0
   -1.2910   -3.8710    0.0000 C   0  0  0  0  0  0  0  0  0  0  0  0
   -0.5320   -5.1650    0.0000 N   0  0  0  0  0  0  0  0  0  0  0  0
   -2.7610   -3.5690    0.0000 C   0  0  0  0  0  0  0  0  0  0  0  0
   -3.2340   -2.1460    0.0000 C   0  0  0  0  0  0  0  0  0  0  0  0
   -2.2380   -1.0240    0.0000 C   0  0  0  0  0  0  0  0  0  0  0  0
   -2.7120    0.3990    0.0000 N   0  0  0  0  0  0  0  0  0  0  0  0
   -0.7690   -1.3260    0.0000 C   0  0  0  0  0  0  0  0  0  0  0  0
  1  2  2  0  0  0  0
  2  3  1  0  0  0  0
  2 15  1  0  0  0  0
  3  4  2  0  0  0  0
  3 13  1  0  0  0  0
  4  5  1  0  0  0  0
  5  6  1  0  0  0  0
  6  7  1  0  0  0  0
  6 12  2  0  0  0  0
  7  8  2  0  0  0  0
  8  9  1  0  0  0  0
  9 10  1  0  0  0  0
  9 11  2  0  0  0  0
 11 12  1  0  0  0  0
 13 14  2  0  0  0  0
 13 20  1  0  0  0  0
 14 15  1  0  0  0  0
 14 16  1  0  0  0  0
 16 17  2  0  0  0  0
 17 18  1  0  0  0  0
 18 19  1  0  0  0  0
 18 20  2  0  0  0  0
M  END
>  <name>
O=C1/C(=N\Nc2ccc(C)cc2)/c2c(N1)ccc([N;amide])c2

>  <apo>
1

>  <freq>
1

>  <freq0>
0

>  <freq1>
1

>  <freqA>
0.99700278

>  <a_count>
34

$$$$

  MOE2015           2D

 19 21  0  0  1  0  0  0  0  0999 V2000
    0.0000    0.0000    0.0000 O   0  0  0  0  0  0  0  0  0  0  0  0
    1.5000    0.0000    0.0000 C   0  0  0  0  0  0  0  0  0  0  0  0
    2.2500    1.2990    0.0000 C   0  0  2  0  0  0  0  0  0  0  0  0
    1.5000    2.5980    0.0000 C   0  0  0  0  0  0  0  0  0  0  0  0
    3.7500    1.2990    0.0000 C   0  0  2  0  0  0  0  0  0  0  0  0
    4.5000    0.0000    0.0000 C   0  0  2  0  0  0  0  0  0  0  0  0
    5.2500   -1.2990    0.0000 C   0  0  0  0  0  0  0  0  0  0  0  0
    6.0000    0.0000    0.0000 C   0  0  0  0  0  0  0  0  0  0  0  0
    6.7500   -1.2990    0.0000 N   0  0  0  0  0  0  0  0  0  0  0  0
    8.2500   -1.2990    0.0000 C   0  0  0  0  0  0  0  0  0  0  0  0
    9.0000    0.0000    0.0000 N   0  0  0  0  0  0  0  0  0  0  0  0
    8.2500    1.2990    0.0000 C   0  0  0  0  0  0  0  0  0  0  0  0
    6.7500    1.2990    0.0000 C   0  0  0  0  0  0  0  0  0  0  0  0
    6.0000    2.5980    0.0000 C   0  0  0  0  0  0  0  0  0  0  0  0
    4.5000    2.5980    0.0000 C   0  0  0  0  0  0  0  0  0  0  0  0
    3.7500   -1.2990    0.0000 C   0  0  0  0  0  0  0  0  0  0  0  0
    2.2500   -1.2990    0.0000 C   0  0  0  0  0  0  0  0  0  0  0  0
    1.5000   -2.5980    0.0000 C   0  0  0  0  0  0  0  0  0  0  0  0
    0.7500   -3.8970    0.0000 N   0  0  0  0  0  0  0  0  0  0  0  0
  1  2  2  0  0  0  0
  2  3  1  0  0  0  0
  2 17  1  0  0  0  0
  3  4  1  6  0  0  0
  3  5  1  0  0  0  0
  5  6  1  0  0  0  0
  5 15  1  1  0  0  0
  6  7  1  1  0  0  0
  6  8  1  0  0  0  0
  6 16  1  0  0  0  0
  8  9  2  0  0  0  0
  8 13  1  0  0  0  0
  9 10  1  0  0  0  0
 10 11  2  0  0  0  0
 11 12  1  0  0  0  0
 12 13  2  0  0  0  0
 13 14  1  0  0  0  0
 14 15  1  0  0  0  0
 16 17  2  0  0  0  0
 17 18  1  0  0  0  0
 18 19  3  0  0  0  0
M  END
>  <name>
O=C1[C@H](C)[C@@H]2[C@](C)(c3n[c;biphenyl]n[c;biphenyl]c3CC2)C=C1C#N

>  <apo>
2

>  <freq>
1

>  <freq0>
0

>  <freq1>
1

>  <freqA>
0.99700278

>  <a_count>
34

$$$$

  MOE2015           2D

 23 26  0  0  0  0  0  0  0  0999 V2000
    5.6010    7.7990    0.0000 O   0  0  0  0  0  0  0  0  0  0  0  0
    4.2810    7.0870    0.0000 C   0  0  0  0  0  0  0  0  0  0  0  0
    4.2370    5.5880    0.0000 C   0  0  0  0  0  0  0  0  0  0  0  0
    2.9160    4.8760    0.0000 C   0  0  0  0  0  0  0  0  0  0  0  0
    1.5040    5.3810    0.0000 S   0  0  0  0  0  0  0  0  0  0  0  0
    0.5870    4.1940    0.0000 C   0  0  0  0  0  0  0  0  0  0  0  0
    1.4330    2.9550    0.0000 C   0  0  0  0  0  0  0  0  0  0  0  0
    2.8720    3.3770    0.0000 N   0  0  0  0  0  0  0  0  0  0  0  0
    4.1490    2.5890    0.0000 C   0  0  0  0  0  0  0  0  0  0  0  0
    4.1050    1.0900    0.0000 O   0  0  0  0  0  0  0  0  0  0  0  0
    5.4690    3.3010    0.0000 C   0  0  0  0  0  0  0  0  0  0  0  0
    6.7460    2.5130    0.0000 C   0  0  0  0  0  0  0  0  0  0  0  0
    8.0660    3.2250    0.0000 C   0  0  0  0  0  0  0  0  0  0  0  0
    9.3430    2.4370    0.0000 C   0  0  0  0  0  0  0  0  0  0  0  0
    9.2990    0.9380    0.0000 C   0  0  0  0  0  0  0  0  0  0  0  0
    7.9790    0.2260    0.0000 C   0  0  0  0  0  0  0  0  0  0  0  0
    6.7020    1.0140    0.0000 C   0  0  0  0  0  0  0  0  0  0  0  0
    5.5130    4.8000    0.0000 C   0  0  0  0  0  0  0  0  0  0  0  0
    0.7830    1.6040    0.0000 C   0  0  0  0  0  0  0  0  0  0  0  0
   -0.7130    1.4910    0.0000 C   0  0  0  0  0  0  0  0  0  0  0  0
   -1.3630    0.1390    0.0000 O   0  0  0  0  0  0  0  0  0  0  0  0
   -1.5590    2.7290    0.0000 C   0  0  0  0  0  0  0  0  0  0  0  0
   -0.9090    4.0810    0.0000 C   0  0  0  0  0  0  0  0  0  0  0  0
  1  2  2  0  0  0  0
  2  3  1  0  0  0  0
  3  4  2  0  0  0  0
  3 18  1  0  0  0  0
  4  5  1  0  0  0  0
  4  8  1  0  0  0  0
  5  6  1  0  0  0  0
  6  7  1  0  0  0  0
  6 23  2  0  0  0  0
  7  8  1  0  0  0  0
  7 19  2  0  0  0  0
  8  9  1  0  0  0  0
  9 10  2  0  0  0  0
  9 11  1  0  0  0  0
 11 12  1  0  0  0  0
 11 18  2  0  0  0  0
 12 13  1  0  0  0  0
 12 17  2  0  0  0  0
 13 14  2  0  0  0  0
 14 15  1  0  0  0  0
 15 16  2  0  0  0  0
 16 17  1  0  0  0  0
 19 20  1  0  0  0  0
 20 21  1  0  0  0  0
 20 22  2  0  0  0  0
 22 23  1  0  0  0  0
M  END
>  <name>
O=[C;amide]C1=C2Sc3c(N2C(=O)C(c2ccccc2)=C1)cc([O;ether])cc3

>  <apo>
2

>  <freq>
1

>  <freq0>
0

>  <freq1>
1

>  <freqA>
0.99700278

>  <a_count>
34

$$$$

  MOE2015           2D

 21 24  0  0  1  0  0  0  0  0999 V2000
   -1.5210    1.5260    0.0000 O   0  0  0  0  0  0  0  0  0  0  0  0
   -1.5160    3.0260    0.0000 C   0  0  0  0  0  0  0  0  0  0  0  0
   -0.2150    3.7720    0.0000 C   0  0  0  0  0  0  0  0  0  0  0  0
   -0.2100    5.2720    0.0000 C   0  0  0  0  0  0  0  0  0  0  0  0
   -1.5060    6.0260    0.0000 O   0  0  0  0  0  0  0  0  0  0  0  0
    1.0920    6.0180    0.0000 C   0  0  0  0  0  0  0  0  0  0  0  0
    1.0970    7.5180    0.0000 O   0  5  0  0  0  0  0  0  0  0  0  0
    2.3880    5.2630    0.0000 C   0  0  0  0  0  0  0  0  0  0  0  0
    3.6900    6.0090    0.0000 C   0  0  0  0  0  0  0  0  0  0  0  0
    3.6900    7.5090    0.0000 O   0  0  0  0  0  0  0  0  0  0  0  0
    4.9820    5.2680    0.0000 N   0  0  0  0  0  0  0  0  0  0  0  0
    4.9840    3.7530    0.0000 C   0  0  2  0  0  0  0  0  0  0  0  0
    6.3060    3.0120    0.0000 O   0  0  0  0  0  0  0  0  0  0  0  0
    7.6290    3.8450    0.0000 C   0  0  1  0  0  0  0  0  0  0  0  0
    7.5020    5.2310    0.0000 C   0  0  0  0  0  0  0  0  0  0  0  0
    6.3540    6.0170    0.0000 C   0  0  2  0  0  0  0  0  0  0  0  0
    7.9430    6.4280    0.0000 C   0  0  0  0  0  0  0  0  0  0  0  0
    8.7630    5.0310    0.0000 C   0  0  0  0  0  0  0  0  0  0  0  0
    3.6800    3.0090    0.0000 C   0  0  0  0  0  0  0  0  0  0  0  0
    2.3830    3.7630    0.0000 N   0  0  0  0  0  0  0  0  0  0  0  0
    1.0820    3.0180    0.0000 C   0  0  0  0  0  0  0  0  0  0  0  0
  1  2  2  0  0  0  0
  2  3  1  0  0  0  0
  3  4  1  0  0  0  0
  3 21  2  0  0  0  0
  4  5  2  0  0  0  0
  4  6  1  0  0  0  0
  6  7  1  0  0  0  0
  6  8  2  0  0  0  0
  8  9  1  0  0  0  0
  8 20  1  0  0  0  0
  9 10  2  0  0  0  0
  9 11  1  0  0  0  0
 11 12  1  0  0  0  0
 11 16  1  0  0  0  0
 12 13  1  0  0  0  0
 12 19  1  6  0  0  0
 13 14  1  0  0  0  0
 14 15  1  0  0  0  0
 14 18  1  1  0  0  0
 15 16  1  0  0  0  0
 16 17  1  1  0  0  0
 17 18  1  0  0  0  0
 19 20  1  0  0  0  0
 20 21  1  0  0  0  0
M  CHG  1   7  -1
M  END
>  <name>
O=[C;amide]C=1C(=O)C([O-])=C2C(=O)N3[C@H](O[C@H]4C[C@@H]3CC4)CN2C=1

>  <apo>
1

>  <freq>
1

>  <freq0>
0

>  <freq1>
1

>  <freqA>
0.99700278

>  <a_count>
34

$$$$

  MOE2015           2D

 17 17  0  0  1  0  0  0  0  0999 V2000
    0.4500   -0.8170    0.0000 P   0  0  0  0  0  0  0  0  0  0  0  0
    1.2000   -2.1160    0.0000 O   0  0  0  0  0  0  0  0  0  0  0  0
    1.7490   -0.0670    0.0000 O   0  0  0  0  0  0  0  0  0  0  0  0
    3.0480   -0.8170    0.0000 C   0  0  1  0  0  0  0  0  0  0  0  0
    4.3470   -0.0670    0.0000 C   0  0  0  0  0  0  0  0  0  0  0  0
    5.6460   -0.8170    0.0000 N   0  0  0  0  0  0  0  0  0  0  0  0
    3.0480   -2.3170    0.0000 C   0  0  0  0  0  0  0  0  0  0  0  0
   -0.8490   -1.5670    0.0000 O   0  0  0  0  0  0  0  0  0  0  0  0
   -2.1480   -0.8170    0.0000 C   0  0  2  0  0  0  0  0  0  0  0  0
   -3.5180   -1.4270    0.0000 C   0  0  1  0  0  0  0  0  0  0  0  0
   -3.8300   -2.8940    0.0000 C   0  0  0  0  0  0  0  0  0  0  0  0
   -5.2570   -3.3580    0.0000 O   0  0  0  0  0  0  0  0  0  0  0  0
   -4.5220   -0.3120    0.0000 O   0  0  0  0  0  0  0  0  0  0  0  0
   -3.7720    0.9870    0.0000 C   0  0  0  0  0  0  0  0  0  0  0  0
   -2.3050    0.6750    0.0000 C   0  0  1  0  0  0  0  0  0  0  0  0
   -1.1900    1.6790    0.0000 O   0  0  0  0  0  0  0  0  0  0  0  0
   -0.3000    0.4820    0.0000 O   0  5  0  0  0  0  0  0  0  0  0  0
  1  2  2  0  0  0  0
  1  3  1  0  0  0  0
  1  8  1  0  0  0  0
  1 17  1  0  0  0  0
  3  4  1  0  0  0  0
  4  5  1  0  0  0  0
  4  7  1  1  0  0  0
  5  6  1  0  0  0  0
  9  8  1  6  0  0  0
  9 10  1  0  0  0  0
  9 15  1  0  0  0  0
 10 11  1  1  0  0  0
 10 13  1  0  0  0  0
 11 12  1  0  0  0  0
 13 14  1  0  0  0  0
 14 15  1  0  0  0  0
 15 16  1  1  0  0  0
M  CHG  1  17  -1
M  END
>  <name>
P(=O)(O[C@@H](C[N;amide])C)(O[C@@H]1[C@@H](CO)O[C;NaroC][C@H]1O)[O-]

>  <apo>
2

>  <freq>
1

>  <freq0>
0

>  <freq1>
1

>  <freqA>
0.99700278

>  <a_count>
34

$$$$

  MOE2015           2D

 22 24  0  0  0  0  0  0  0  0999 V2000
   13.5680    0.0000    0.0000 Br  0  0  0  0  0  0  0  0  0  0  0  0
   12.0680    0.0000    0.0000 C   0  0  0  0  0  0  0  0  0  0  0  0
   11.3180    1.2990    0.0000 C   0  0  0  0  0  0  0  0  0  0  0  0
    9.8180    1.2990    0.0000 C   0  0  0  0  0  0  0  0  0  0  0  0
    9.0680    2.5980    0.0000 F   0  0  0  0  0  0  0  0  0  0  0  0
    9.0680    0.0000    0.0000 C   0  0  0  0  0  0  0  0  0  0  0  0
    7.5680    0.0000    0.0000 N   0  0  0  0  0  0  0  0  0  0  0  0
    6.8180   -1.2990    0.0000 C   0  0  0  0  0  0  0  0  0  0  0  0
    7.5680   -2.5980    0.0000 N   0  0  0  0  0  0  0  0  0  0  0  0
    6.8180   -3.8970    0.0000 C   0  0  0  0  0  0  0  0  0  0  0  0
    5.3180   -3.8970    0.0000 N   0  0  0  0  0  0  0  0  0  0  0  0
    4.5680   -2.5980    0.0000 C   0  0  0  0  0  0  0  0  0  0  0  0
    5.3180   -1.2990    0.0000 C   0  0  0  0  0  0  0  0  0  0  0  0
    4.5680    0.0000    0.0000 C   0  0  0  0  0  0  0  0  0  0  0  0
    3.0680    0.0000    0.0000 C   0  0  0  0  0  0  0  0  0  0  0  0
    2.3180    1.2990    0.0000 O   0  0  0  0  0  0  0  0  0  0  0  0
    3.0680    2.5980    0.0000 C   0  0  0  0  0  0  0  0  0  0  0  0
    2.3180   -1.2990    0.0000 C   0  0  0  0  0  0  0  0  0  0  0  0
    0.8180   -1.2990    0.0000 O   0  0  0  0  0  0  0  0  0  0  0  0
    3.0680   -2.5980    0.0000 C   0  0  0  0  0  0  0  0  0  0  0  0
    9.8180   -1.2990    0.0000 C   0  0  0  0  0  0  0  0  0  0  0  0
   11.3180   -1.2990    0.0000 C   0  0  0  0  0  0  0  0  0  0  0  0
  1  2  1  0  0  0  0
  2  3  1  0  0  0  0
  2 22  2  0  0  0  0
  3  4  2  0  0  0  0
  4  5  1  0  0  0  0
  4  6  1  0  0  0  0
  6  7  1  0  0  0  0
  6 21  2  0  0  0  0
  7  8  1  0  0  0  0
  8  9  2  0  0  0  0
  8 13  1  0  0  0  0
  9 10  1  0  0  0  0
 10 11  2  0  0  0  0
 11 12  1  0  0  0  0
 12 13  1  0  0  0  0
 12 20  2  0  0  0  0
 13 14  2  0  0  0  0
 14 15  1  0  0  0  0
 15 16  1  0  0  0  0
 15 18  2  0  0  0  0
 16 17  1  0  0  0  0
 18 19  1  0  0  0  0
 18 20  1  0  0  0  0
 21 22  1  0  0  0  0
M  END
>  <name>
Brc1cc(F)c(Nc2ncnc3c2cc(OC)c([O;ether])c3)cc1

>  <apo>
1

>  <freq>
1

>  <freq0>
0

>  <freq1>
1

>  <freqA>
0.99700278

>  <a_count>
33

$$$$

  MOE2015           2D

 23 26  0  0  1  0  0  0  0  0999 V2000
    0.1740   -6.2080    0.0000 Cl  0  0  0  0  0  0  0  0  0  0  0  0
    0.9160   -4.9050    0.0000 C   0  0  0  0  0  0  0  0  0  0  0  0
    2.4160   -4.8960    0.0000 C   0  0  0  0  0  0  0  0  0  0  0  0
    3.1580   -3.5930    0.0000 C   0  0  0  0  0  0  0  0  0  0  0  0
    4.6580   -3.5840    0.0000 C   0  0  0  0  0  0  0  0  0  0  0  0
    5.4160   -4.8780    0.0000 O   0  0  0  0  0  0  0  0  0  0  0  0
    5.4000   -2.2800    0.0000 C   0  0  0  0  0  0  0  0  0  0  0  0
    6.8660   -1.9600    0.0000 C   0  0  3  0  0  0  0  0  0  0  0  0
    7.9860   -2.9570    0.0000 C   0  0  0  0  0  0  0  0  0  0  0  0
    9.4100   -2.4850    0.0000 C   0  0  0  0  0  0  0  0  0  0  0  0
   10.5310   -3.4820    0.0000 C   0  0  0  0  0  0  0  0  0  0  0  0
   11.9550   -3.0100    0.0000 O   0  0  0  0  0  0  0  0  0  0  0  0
   10.2280   -4.9510    0.0000 C   0  0  0  0  0  0  0  0  0  0  0  0
    8.8040   -5.4230    0.0000 C   0  0  0  0  0  0  0  0  0  0  0  0
    7.6830   -4.4260    0.0000 C   0  0  0  0  0  0  0  0  0  0  0  0
    7.0140   -0.4670    0.0000 N   0  0  0  0  0  0  0  0  0  0  0  0
    5.6400    0.1350    0.0000 C   0  0  0  0  0  0  0  0  0  0  0  0
    5.3190    1.6000    0.0000 O   0  0  0  0  0  0  0  0  0  0  0  0
    4.6430   -0.9860    0.0000 C   0  0  0  0  0  0  0  0  0  0  0  0
    3.1430   -0.9950    0.0000 O   0  0  0  0  0  0  0  0  0  0  0  0
    2.4000   -2.2980    0.0000 C   0  0  0  0  0  0  0  0  0  0  0  0
    0.9000   -2.3070    0.0000 C   0  0  0  0  0  0  0  0  0  0  0  0
    0.1580   -3.6100    0.0000 C   0  0  0  0  0  0  0  0  0  0  0  0
  1  2  1  0  0  0  0
  2  3  1  0  0  0  0
  2 23  2  0  0  0  0
  3  4  2  0  0  0  0
  4  5  1  0  0  0  0
  4 21  1  0  0  0  0
  5  6  2  0  0  0  0
  5  7  1  0  0  0  0
  7  8  1  0  0  0  0
  7 19  2  0  0  0  0
  8  9  1  0  0  0  0
  8 16  1  0  0  0  0
  9 10  1  0  0  0  0
  9 15  2  0  0  0  0
 10 11  2  0  0  0  0
 11 12  1  0  0  0  0
 11 13  1  0  0  0  0
 13 14  2  0  0  0  0
 14 15  1  0  0  0  0
 16 17  1  0  0  0  0
 17 18  2  0  0  0  0
 17 19  1  0  0  0  0
 19 20  1  0  0  0  0
 20 21  1  0  0  0  0
 21 22  2  0  0  0  0
 22 23  1  0  0  0  0
M  END
>  <name>
Clc1cc2C(=O)C=3C(c4cc([O;ether])ccc4)[N;lactam]C(=O)C=3Oc2cc1

>  <apo>
2

>  <freq>
1

>  <freq0>
0

>  <freq1>
1

>  <freqA>
0.99700278

>  <a_count>
33

$$$$

  MOE2015           2D

 20 21  0  0  1  0  0  0  0  0999 V2000
    4.9100   -0.9350    0.0000 F   0  0  0  0  0  0  0  0  0  0  0  0
    4.9100   -2.4350    0.0000 C   0  0  0  0  0  0  0  0  0  0  0  0
    3.6110   -3.1850    0.0000 C   0  0  0  0  0  0  0  0  0  0  0  0
    2.3120   -2.4350    0.0000 C   0  0  3  0  0  0  0  0  0  0  0  0
    1.5620   -3.7340    0.0000 O   0  0  0  0  0  0  0  0  0  0  0  0
    1.0130   -1.6850    0.0000 C   0  0  3  0  0  0  0  0  0  0  0  0
    1.0130   -0.1850    0.0000 C   0  0  0  0  0  0  0  0  0  0  0  0
   -0.2860   -2.4350    0.0000 C   0  0  0  0  0  0  0  0  0  0  0  0
   -1.5850   -1.6850    0.0000 C   0  0  0  0  0  0  0  0  0  0  0  0
   -1.5850   -0.1850    0.0000 F   0  0  0  0  0  0  0  0  0  0  0  0
   -2.8840   -2.4350    0.0000 C   0  0  0  0  0  0  0  0  0  0  0  0
   -2.8840   -3.9350    0.0000 N   0  0  0  0  0  0  0  0  0  0  0  0
   -1.5850   -4.6850    0.0000 C   0  0  0  0  0  0  0  0  0  0  0  0
   -0.2860   -3.9350    0.0000 N   0  0  0  0  0  0  0  0  0  0  0  0
    3.0620   -1.1360    0.0000 C   0  0  0  0  0  0  0  0  0  0  0  0
    3.6110   -4.6850    0.0000 C   0  0  0  0  0  0  0  0  0  0  0  0
    4.9100   -5.4350    0.0000 C   0  0  0  0  0  0  0  0  0  0  0  0
    6.2090   -4.6850    0.0000 C   0  0  0  0  0  0  0  0  0  0  0  0
    7.5080   -5.4350    0.0000 F   0  0  0  0  0  0  0  0  0  0  0  0
    6.2090   -3.1850    0.0000 C   0  0  0  0  0  0  0  0  0  0  0  0
  1  2  1  0  0  0  0
  2  3  1  0  0  0  0
  2 20  2  0  0  0  0
  3  4  1  0  0  0  0
  3 16  2  0  0  0  0
  4  5  1  0  0  0  0
  4  6  1  0  0  0  0
  4 15  1  0  0  0  0
  6  7  1  0  0  0  0
  6  8  1  0  0  0  0
  8  9  1  0  0  0  0
  8 14  2  0  0  0  0
  9 10  1  0  0  0  0
  9 11  2  0  0  0  0
 11 12  1  0  0  0  0
 12 13  2  0  0  0  0
 13 14  1  0  0  0  0
 16 17  1  0  0  0  0
 17 18  2  0  0  0  0
 18 19  1  0  0  0  0
 18 20  1  0  0  0  0
M  END
>  <name>
Fc1c(C(O)(C(C)c2c(F)cncn2)[C;NaroC])ccc(F)c1

>  <apo>
1

>  <freq>
1

>  <freq0>
0

>  <freq1>
1

>  <freqA>
0.99700278

>  <a_count>
33

$$$$

  MOE2015           2D

 15 17  0  0  0  0  0  0  0  0999 V2000
    3.8200    3.8210    0.0000 O   0  0  0  0  0  0  0  0  0  0  0  0
    3.8200    2.3210    0.0000 C   0  0  0  0  0  0  0  0  0  0  0  0
    5.1190    1.5710    0.0000 C   0  0  0  0  0  0  0  0  0  0  0  0
    6.4180    2.3210    0.0000 O   0  0  0  0  0  0  0  0  0  0  0  0
    2.5210    1.5700    0.0000 C   0  0  0  0  0  0  0  0  0  0  0  0
    1.2220    2.3200    0.0000 C   0  0  0  0  0  0  0  0  0  0  0  0
   -0.3280    2.0880    0.0000 C   0  0  0  0  0  0  0  0  0  0  0  0
   -1.6480    2.9030    0.0000 C   0  0  0  0  0  0  0  0  0  0  0  0
   -1.4040    4.3580    0.0000 C   0  0  0  0  0  0  0  0  0  0  0  0
    0.1760    4.5470    0.0000 C   0  0  0  0  0  0  0  0  0  0  0  0
    1.4500    3.7750    0.0000 C   0  0  0  0  0  0  0  0  0  0  0  0
   -0.8230    3.5630    0.0000 C   0  0  0  0  0  0  0  0  0  0  0  0
   -1.0910    2.2090    0.0000 C   0  0  0  0  0  0  0  0  0  0  0  0
    0.1360    1.4430    0.0000 C   0  0  0  0  0  0  0  0  0  0  0  0
   -2.7630    1.8690    0.0000 C   0  0  0  0  0  0  0  0  0  0  0  0
  1  2  2  0  0  0  0
  2  3  1  0  0  0  0
  2  5  1  0  0  0  0
  3  4  2  0  0  0  0
  5  6  1  0  0  0  0
  6  7  1  0  0  0  0
  6 11  1  0  0  0  0
  6 14  1  0  0  0  0
  7  8  1  0  0  0  0
  8  9  1  0  0  0  0
  8 15  1  0  0  0  0
  9 10  1  0  0  0  0
 10 11  1  0  0  0  0
 10 12  1  0  0  0  0
 12 13  1  0  0  0  0
 13 14  1  0  0  0  0
 13 15  1  0  0  0  0
M  END
>  <name>
O=C([C;amide]=O)CC12CC3CC(C1)CC(C2)C3

>  <apo>
1

>  <freq>
1

>  <freq0>
0

>  <freq1>
1

>  <freqA>
0.99700278

>  <a_count>
33

$$$$

  MOE2015           2D

 20 22  0  0  1  0  0  0  0  0999 V2000
    1.2640    4.7170    0.0000 O   0  0  0  0  0  0  0  0  0  0  0  0
    2.5630    3.9670    0.0000 C   0  0  0  0  0  0  0  0  0  0  0  0
    3.8620    4.7170    0.0000 O   0  5  0  0  0  0  0  0  0  0  0  0
    2.5630    2.4670    0.0000 C   0  0  0  0  0  0  0  0  0  0  0  0
    3.8620    1.7170    0.0000 C   0  0  0  0  0  0  0  0  0  0  0  0
    5.1610    2.4670    0.0000 C   0  0  0  0  0  0  0  0  0  0  0  0
    6.4600    1.7170    0.0000 N   0  3  0  0  0  0  0  0  0  0  0  0
    6.4600    0.2170    0.0000 C   0  0  0  0  0  0  0  0  0  0  0  0
    7.7590   -0.5330    0.0000 C   0  0  0  0  0  0  0  0  0  0  0  0
    9.0580    0.2170    0.0000 C   0  0  0  0  0  0  0  0  0  0  0  0
    9.0580    1.7170    0.0000 C   0  0  0  0  0  0  0  0  0  0  0  0
    7.7590    2.4670    0.0000 C   0  0  0  0  0  0  0  0  0  0  0  0
    3.8620    0.2170    0.0000 C   0  0  0  0  0  0  0  0  0  0  0  0
    2.5630   -0.5330    0.0000 S   0  0  0  0  0  0  0  0  0  0  0  0
    1.2640    0.2170    0.0000 C   0  0  3  0  0  0  0  0  0  0  0  0
   -0.2360    0.2170    0.0000 C   0  0  3  0  0  0  0  0  0  0  0  0
   -1.2970   -0.8440    0.0000 N   0  0  0  0  0  0  0  0  0  0  0  0
   -0.2360    1.7170    0.0000 C   0  0  0  0  0  0  0  0  0  0  0  0
   -1.2970    2.7780    0.0000 O   0  0  0  0  0  0  0  0  0  0  0  0
    1.2640    1.7170    0.0000 N   0  0  0  0  0  0  0  0  0  0  0  0
  1  2  2  0  0  0  0
  2  3  1  0  0  0  0
  2  4  1  0  0  0  0
  4  5  2  0  0  0  0
  4 20  1  0  0  0  0
  5  6  1  0  0  0  0
  5 13  1  0  0  0  0
  6  7  1  0  0  0  0
  7  8  1  0  0  0  0
  7 12  2  0  0  0  0
  8  9  2  0  0  0  0
  9 10  1  0  0  0  0
 10 11  2  0  0  0  0
 11 12  1  0  0  0  0
 13 14  1  0  0  0  0
 14 15  1  0  0  0  0
 15 16  1  0  0  0  0
 15 20  1  0  0  0  0
 16 17  1  0  0  0  0
 16 18  1  0  0  0  0
 18 19  2  0  0  0  0
 18 20  1  0  0  0  0
M  CHG  1   3  -1
M  CHG  1   7   1
M  END
>  <name>
O=C([O-])C1=C(C[n+]2ccccc2)CSC2C([N;amide])C(=O)N12

>  <apo>
1

>  <freq>
1

>  <freq0>
0

>  <freq1>
1

>  <freqA>
0.99700278

>  <a_count>
33

$$$$

  MOE2015           2D

 19 21  0  0  0  0  0  0  0  0999 V2000
    2.1320   -3.2820    0.0000 O   0  0  0  0  0  0  0  0  0  0  0  0
    1.3820   -1.9830    0.0000 C   0  0  0  0  0  0  0  0  0  0  0  0
    2.1320   -0.6840    0.0000 N   0  0  0  0  0  0  0  0  0  0  0  0
    3.6320   -0.6840    0.0000 C   0  0  0  0  0  0  0  0  0  0  0  0
    4.3820   -1.9830    0.0000 C   0  0  0  0  0  0  0  0  0  0  0  0
    5.8820   -1.9830    0.0000 C   0  0  0  0  0  0  0  0  0  0  0  0
    6.6320   -0.6840    0.0000 C   0  0  0  0  0  0  0  0  0  0  0  0
    8.1320   -0.6840    0.0000 C   0  0  0  0  0  0  0  0  0  0  0  0
    5.8820    0.6150    0.0000 C   0  0  0  0  0  0  0  0  0  0  0  0
    4.3820    0.6150    0.0000 C   0  0  0  0  0  0  0  0  0  0  0  0
    1.3820    0.6150    0.0000 C   0  0  0  0  0  0  0  0  0  0  0  0
    2.1320    1.9140    0.0000 C   0  0  0  0  0  0  0  0  0  0  0  0
   -0.1180    0.6150    0.0000 N   0  0  0  0  0  0  0  0  0  0  0  0
   -0.8680   -0.6840    0.0000 C   0  0  0  0  0  0  0  0  0  0  0  0
   -0.1180   -1.9830    0.0000 C   0  0  0  0  0  0  0  0  0  0  0  0
   -0.8680   -3.2820    0.0000 C   0  0  0  0  0  0  0  0  0  0  0  0
   -2.3680   -3.2820    0.0000 C   0  0  0  0  0  0  0  0  0  0  0  0
   -3.1180   -1.9830    0.0000 C   0  0  0  0  0  0  0  0  0  0  0  0
   -2.3680   -0.6840    0.0000 C   0  0  0  0  0  0  0  0  0  0  0  0
  1  2  2  0  0  0  0
  2  3  1  0  0  0  0
  2 15  1  0  0  0  0
  3  4  1  0  0  0  0
  3 11  1  0  0  0  0
  4  5  1  0  0  0  0
  4 10  2  0  0  0  0
  5  6  2  0  0  0  0
  6  7  1  0  0  0  0
  7  8  1  0  0  0  0
  7  9  2  0  0  0  0
  9 10  1  0  0  0  0
 11 12  1  0  0  0  0
 11 13  2  0  0  0  0
 13 14  1  0  0  0  0
 14 15  1  0  0  0  0
 14 19  2  0  0  0  0
 15 16  2  0  0  0  0
 16 17  1  0  0  0  0
 17 18  2  0  0  0  0
 18 19  1  0  0  0  0
M  END
>  <name>
O=C1N(c2ccc(C)cc2)C([C;olefin])=Nc2c1cccc2

>  <apo>
1

>  <freq>
1

>  <freq0>
0

>  <freq1>
1

>  <freqA>
0.99700278

>  <a_count>
33

$$$$

  MOE2015           2D

 21 23  0  0  0  0  0  0  0  0999 V2000
    1.6070    2.7840    0.0000 O   0  0  0  0  0  0  0  0  0  0  0  0
    2.3570    1.4850    0.0000 C   0  0  0  0  0  0  0  0  0  0  0  0
    1.6070    0.1860    0.0000 C   0  0  0  0  0  0  0  0  0  0  0  0
    0.1070    0.1860    0.0000 C   0  0  0  0  0  0  0  0  0  0  0  0
   -0.6430    1.4850    0.0000 O   0  0  0  0  0  0  0  0  0  0  0  0
   -0.6430   -1.1130    0.0000 C   0  0  0  0  0  0  0  0  0  0  0  0
    0.1070   -2.4120    0.0000 C   0  0  0  0  0  0  0  0  0  0  0  0
   -0.6430   -3.7120    0.0000 O   0  0  0  0  0  0  0  0  0  0  0  0
    1.6070   -2.4120    0.0000 C   0  0  0  0  0  0  0  0  0  0  0  0
    2.3570   -3.7120    0.0000 C   0  0  0  0  0  0  0  0  0  0  0  0
    2.3570   -1.1130    0.0000 C   0  0  0  0  0  0  0  0  0  0  0  0
    3.8570   -1.1130    0.0000 O   0  0  0  0  0  0  0  0  0  0  0  0
    4.6070    0.1860    0.0000 C   0  0  0  0  0  0  0  0  0  0  0  0
    6.1070    0.1860    0.0000 C   0  0  0  0  0  0  0  0  0  0  0  0
    6.8570    1.4850    0.0000 C   0  0  0  0  0  0  0  0  0  0  0  0
    8.3570    1.4850    0.0000 C   0  0  0  0  0  0  0  0  0  0  0  0
    9.1070    0.1860    0.0000 C   0  0  0  0  0  0  0  0  0  0  0  0
   10.6070    0.1860    0.0000 O   0  0  0  0  0  0  0  0  0  0  0  0
    8.3570   -1.1130    0.0000 C   0  0  0  0  0  0  0  0  0  0  0  0
    6.8570   -1.1130    0.0000 C   0  0  0  0  0  0  0  0  0  0  0  0
    3.8570    1.4850    0.0000 C   0  0  0  0  0  0  0  0  0  0  0  0
  1  2  2  0  0  0  0
  2  3  1  0  0  0  0
  2 21  1  0  0  0  0
  3  4  1  0  0  0  0
  3 11  2  0  0  0  0
  4  5  1  0  0  0  0
  4  6  2  0  0  0  0
  6  7  1  0  0  0  0
  7  8  1  0  0  0  0
  7  9  2  0  0  0  0
  9 10  1  0  0  0  0
  9 11  1  0  0  0  0
 11 12  1  0  0  0  0
 12 13  1  0  0  0  0
 13 14  1  0  0  0  0
 13 21  2  0  0  0  0
 14 15  1  0  0  0  0
 14 20  2  0  0  0  0
 15 16  2  0  0  0  0
 16 17  1  0  0  0  0
 17 18  1  0  0  0  0
 17 19  2  0  0  0  0
 19 20  1  0  0  0  0
M  END
>  <name>
O=C1c2c(O)cc(O)c([C;olefin])c2OC(c2ccc(O)cc2)=C1

>  <apo>
1

>  <freq>
1

>  <freq0>
0

>  <freq1>
1

>  <freqA>
0.99700278

>  <a_count>
33

$$$$

  MOE2015           2D

 20 22  0  0  1  0  0  0  0  0999 V2000
    7.7170   -7.7170    0.0000 O   0  0  0  0  0  0  0  0  0  0  0  0
    7.7170   -6.2170    0.0000 C   0  0  0  0  0  0  0  0  0  0  0  0
    6.4180   -5.4670    0.0000 C   0  0  0  0  0  0  0  0  0  0  0  0
    6.4180   -3.9670    0.0000 C   0  0  0  0  0  0  0  0  0  0  0  0
    7.7170   -3.2170    0.0000 O   0  0  0  0  0  0  0  0  0  0  0  0
    5.1190   -3.2170    0.0000 C   0  0  0  0  0  0  0  0  0  0  0  0
    5.1190   -1.7170    0.0000 O   0  5  0  0  0  0  0  0  0  0  0  0
    3.8200   -3.9670    0.0000 C   0  0  0  0  0  0  0  0  0  0  0  0
    2.5210   -3.2170    0.0000 C   0  0  0  0  0  0  0  0  0  0  0  0
    2.5210   -1.7170    0.0000 O   0  0  0  0  0  0  0  0  0  0  0  0
    1.2220   -3.9670    0.0000 N   0  0  0  0  0  0  0  0  0  0  0  0
   -0.0770   -3.2170    0.0000 C   0  0  3  0  0  0  0  0  0  0  0  0
   -0.0770   -1.7170    0.0000 C   0  0  0  0  0  0  0  0  0  0  0  0
   -1.3770   -3.9670    0.0000 C   0  0  0  0  0  0  0  0  0  0  0  0
   -1.3770   -5.4670    0.0000 C   0  0  0  0  0  0  0  0  0  0  0  0
   -0.0770   -6.2170    0.0000 O   0  0  0  0  0  0  0  0  0  0  0  0
    1.2220   -5.4670    0.0000 C   0  0  3  0  0  0  0  0  0  0  0  0
    2.5210   -6.2170    0.0000 C   0  0  0  0  0  0  0  0  0  0  0  0
    3.8200   -5.4670    0.0000 N   0  0  0  0  0  0  0  0  0  0  0  0
    5.1190   -6.2170    0.0000 C   0  0  0  0  0  0  0  0  0  0  0  0
  1  2  2  0  0  0  0
  2  3  1  0  0  0  0
  3  4  1  0  0  0  0
  3 20  2  0  0  0  0
  4  5  2  0  0  0  0
  4  6  1  0  0  0  0
  6  7  1  0  0  0  0
  6  8  2  0  0  0  0
  8  9  1  0  0  0  0
  8 19  1  0  0  0  0
  9 10  2  0  0  0  0
  9 11  1  0  0  0  0
 11 12  1  0  0  0  0
 11 17  1  0  0  0  0
 12 13  1  0  0  0  0
 12 14  1  0  0  0  0
 14 15  1  0  0  0  0
 15 16  1  0  0  0  0
 16 17  1  0  0  0  0
 17 18  1  0  0  0  0
 18 19  1  0  0  0  0
 19 20  1  0  0  0  0
M  CHG  1   7  -1
M  END
>  <name>
O=[C;amide]C=1C(=O)C([O-])=C2C(=O)N3C(C)CCOC3CN2C=1

>  <apo>
1

>  <freq>
1

>  <freq0>
0

>  <freq1>
1

>  <freqA>
0.99700278

>  <a_count>
33

$$$$

  MOE2015           2D

 23 25  0  0  0  0  0  0  0  0999 V2000
    1.0790   -0.0380    0.0000 S   0  0  0  0  0  0  0  0  0  0  0  0
    0.3220   -1.3330    0.0000 O   0  0  0  0  0  0  0  0  0  0  0  0
    1.8370    1.2570    0.0000 O   0  0  0  0  0  0  0  0  0  0  0  0
   -0.2150    0.7190    0.0000 N   0  0  0  0  0  0  0  0  0  0  0  0
   -1.5890    0.1170    0.0000 C   0  0  0  0  0  0  0  0  0  0  0  0
   -2.5870    1.2370    0.0000 C   0  0  0  0  0  0  0  0  0  0  0  0
   -4.0560    0.9330    0.0000 C   0  0  0  0  0  0  0  0  0  0  0  0
   -4.5270   -0.4910    0.0000 C   0  0  0  0  0  0  0  0  0  0  0  0
   -5.9960   -0.7950    0.0000 C   0  0  0  0  0  0  0  0  0  0  0  0
   -6.4670   -2.2190    0.0000 O   0  0  0  0  0  0  0  0  0  0  0  0
   -3.5290   -1.6110    0.0000 C   0  0  0  0  0  0  0  0  0  0  0  0
   -2.0610   -1.3070    0.0000 C   0  0  0  0  0  0  0  0  0  0  0  0
   -1.8290    2.5320    0.0000 C   0  0  0  0  0  0  0  0  0  0  0  0
   -0.3640    2.2120    0.0000 C   0  0  0  0  0  0  0  0  0  0  0  0
    2.3740   -0.7950    0.0000 C   0  0  0  0  0  0  0  0  0  0  0  0
    3.6770   -0.0520    0.0000 C   0  0  0  0  0  0  0  0  0  0  0  0
    4.9720   -0.8100    0.0000 C   0  0  0  0  0  0  0  0  0  0  0  0
    6.2760   -0.0670    0.0000 N   0  3  0  0  0  0  0  0  0  0  0  0
    7.5700   -0.8240    0.0000 O   0  0  0  0  0  0  0  0  0  0  0  0
    6.2840    1.4330    0.0000 O   0  5  0  0  0  0  0  0  0  0  0  0
    4.9640   -2.3100    0.0000 C   0  0  0  0  0  0  0  0  0  0  0  0
    3.6610   -3.0520    0.0000 C   0  0  0  0  0  0  0  0  0  0  0  0
    2.3660   -2.2950    0.0000 C   0  0  0  0  0  0  0  0  0  0  0  0
  1  2  2  0  0  0  0
  1  3  2  0  0  0  0
  1  4  1  0  0  0  0
  1 15  1  0  0  0  0
  4  5  1  0  0  0  0
  4 14  1  0  0  0  0
  5  6  1  0  0  0  0
  5 12  2  0  0  0  0
  6  7  2  0  0  0  0
  6 13  1  0  0  0  0
  7  8  1  0  0  0  0
  8  9  1  0  0  0  0
  8 11  2  0  0  0  0
  9 10  2  0  0  0  0
 11 12  1  0  0  0  0
 13 14  2  0  0  0  0
 15 16  1  0  0  0  0
 15 23  2  0  0  0  0
 16 17  2  0  0  0  0
 17 18  1  0  0  0  0
 17 21  1  0  0  0  0
 18 19  2  0  0  0  0
 18 20  1  0  0  0  0
 21 22  2  0  0  0  0
 22 23  1  0  0  0  0
M  CHG  1  18   1
M  CHG  1  20  -1
M  END
>  <name>
S(=O)(=O)(n1c2c(cc([C;ester]=O)cc2)cc1)c1cc([N+](=O)[O-])ccc1

>  <apo>
1

>  <freq>
1

>  <freq0>
0

>  <freq1>
1

>  <freqA>
0.99700278

>  <a_count>
33

$$$$

  MOE2015           2D

 11 10  0  0  0  0  0  0  0  0999 V2000
   12.2910   -3.2930    0.0000 O   0  0  0  0  0  0  0  0  0  0  0  0
   10.9920   -2.5430    0.0000 C   0  0  0  0  0  0  0  0  0  0  0  0
    9.6930   -3.2930    0.0000 C   0  0  0  0  0  0  0  0  0  0  0  0
    8.3940   -2.5430    0.0000 C   0  0  0  0  0  0  0  0  0  0  0  0
    7.0940   -3.2930    0.0000 C   0  0  0  0  0  0  0  0  0  0  0  0
    5.7950   -2.5430    0.0000 C   0  0  0  0  0  0  0  0  0  0  0  0
    4.4960   -3.2930    0.0000 C   0  0  0  0  0  0  0  0  0  0  0  0
    3.1970   -2.5430    0.0000 C   0  0  0  0  0  0  0  0  0  0  0  0
    1.8980   -3.2930    0.0000 C   0  0  0  0  0  0  0  0  0  0  0  0
    0.5990   -2.5430    0.0000 C   0  0  0  0  0  0  0  0  0  0  0  0
   -0.7000   -3.2930    0.0000 C   0  0  0  0  0  0  0  0  0  0  0  0
  1  2  1  0  0  0  0
  2  3  1  0  0  0  0
  3  4  1  0  0  0  0
  4  5  1  0  0  0  0
  5  6  1  0  0  0  0
  6  7  1  0  0  0  0
  7  8  1  0  0  0  0
  8  9  1  0  0  0  0
  9 10  1  0  0  0  0
 10 11  1  0  0  0  0
M  END
>  <name>
[O;ester]CCCCCCCCCC

>  <apo>
1

>  <freq>
1

>  <freq0>
0

>  <freq1>
1

>  <freqA>
0.99700278

>  <a_count>
33

$$$$

  MOE2015           2D

 18 19  0  0  0  0  0  0  0  0999 V2000
    4.7500    2.7420    0.0000 S   0  0  0  0  0  0  0  0  0  0  0  0
    4.0000    1.4430    0.0000 C   0  0  0  0  0  0  0  0  0  0  0  0
    4.7500    0.1440    0.0000 C   0  0  0  0  0  0  0  0  0  0  0  0
    6.2500    0.1440    0.0000 C   0  0  0  0  0  0  0  0  0  0  0  0
    7.0000    1.4430    0.0000 C   0  0  0  0  0  0  0  0  0  0  0  0
    7.0000   -1.1550    0.0000 C   0  0  0  0  0  0  0  0  0  0  0  0
    4.0000   -1.1550    0.0000 C   0  0  0  0  0  0  0  0  0  0  0  0
    2.5000   -1.1550    0.0000 N   0  0  0  0  0  0  0  0  0  0  0  0
    1.7500    0.1440    0.0000 C   0  0  0  0  0  0  0  0  0  0  0  0
    0.2500    0.1440    0.0000 N   0  0  0  0  0  0  0  0  0  0  0  0
   -0.5000   -1.1550    0.0000 C   0  0  0  0  0  0  0  0  0  0  0  0
   -0.5000    1.4430    0.0000 C   0  0  0  0  0  0  0  0  0  0  0  0
   -2.0000    1.4430    0.0000 O   0  0  0  0  0  0  0  0  0  0  0  0
    0.2500    2.7420    0.0000 N   0  0  0  0  0  0  0  0  0  0  0  0
   -0.5000    4.0410    0.0000 C   0  0  0  0  0  0  0  0  0  0  0  0
    1.7500    2.7420    0.0000 C   0  0  0  0  0  0  0  0  0  0  0  0
    2.5000    4.0410    0.0000 O   0  0  0  0  0  0  0  0  0  0  0  0
    2.5000    1.4430    0.0000 C   0  0  0  0  0  0  0  0  0  0  0  0
  1  2  1  0  0  0  0
  2  3  1  0  0  0  0
  2 18  2  0  0  0  0
  3  4  1  0  0  0  0
  3  7  2  0  0  0  0
  4  5  1  0  0  0  0
  4  6  1  0  0  0  0
  7  8  1  0  0  0  0
  8  9  2  0  0  0  0
  9 10  1  0  0  0  0
  9 18  1  0  0  0  0
 10 11  1  0  0  0  0
 10 12  1  0  0  0  0
 12 13  2  0  0  0  0
 12 14  1  0  0  0  0
 14 15  1  0  0  0  0
 14 16  1  0  0  0  0
 16 17  2  0  0  0  0
 16 18  1  0  0  0  0
M  END
>  <name>
[S;thioether]c1c(C(C)C)cnc2N(C)C(=O)N(C)C(=O)c12

>  <apo>
1

>  <freq>
1

>  <freq0>
0

>  <freq1>
1

>  <freqA>
0.99700278

>  <a_count>
33

$$$$

  MOE2015           2D

 23 23  0  0  1  0  0  0  0  0999 V2000
   -1.2380    4.6380    0.0000 Cl  0  0  0  0  0  0  0  0  0  0  0  0
   -0.4930    3.3350    0.0000 C   0  0  0  0  0  0  0  0  0  0  0  0
    0.2510    2.0330    0.0000 Cl  0  0  0  0  0  0  0  0  0  0  0  0
    0.8090    4.0800    0.0000 P   0  0  0  0  0  0  0  0  0  0  0  0
    2.1110    4.8240    0.0000 O   0  0  0  0  0  0  0  0  0  0  0  0
    3.4070    4.0680    0.0000 P   0  0  0  0  0  0  0  0  0  0  0  0
    4.1630    5.3640    0.0000 O   0  0  0  0  0  0  0  0  0  0  0  0
    4.7030    3.3120    0.0000 O   0  0  0  0  0  0  0  0  0  0  0  0
    6.0050    4.0570    0.0000 C   0  0  0  0  0  0  0  0  0  0  0  0
    7.3010    3.3010    0.0000 C   0  0  2  0  0  0  0  0  0  0  0  0
    8.6740    3.9050    0.0000 C   0  0  1  0  0  0  0  0  0  0  0  0
    8.9920    5.3710    0.0000 O   0  0  0  0  0  0  0  0  0  0  0  0
    9.6730    2.7860    0.0000 C   0  0  2  0  0  0  0  0  0  0  0  0
   11.1650    2.9360    0.0000 O   0  0  0  0  0  0  0  0  0  0  0  0
    8.9170    1.4900    0.0000 C   0  0  0  0  0  0  0  0  0  0  0  0
    7.4510    1.8080    0.0000 O   0  0  0  0  0  0  0  0  0  0  0  0
    2.6510    2.7720    0.0000 O   0  5  0  0  0  0  0  0  0  0  0  0
    1.5530    2.7770    0.0000 O   0  0  0  0  0  0  0  0  0  0  0  0
    0.0650    5.3820    0.0000 O   0  5  0  0  0  0  0  0  0  0  0  0
   -1.7960    2.5910    0.0000 P   0  0  0  0  0  0  0  0  0  0  0  0
   -1.0510    1.2890    0.0000 O   0  0  0  0  0  0  0  0  0  0  0  0
   -2.5400    3.8930    0.0000 O   0  5  0  0  0  0  0  0  0  0  0  0
   -3.0980    1.8470    0.0000 O   0  5  0  0  0  0  0  0  0  0  0  0
  1  2  1  0  0  0  0
  2  3  1  0  0  0  0
  2  4  1  0  0  0  0
  2 20  1  0  0  0  0
  4  5  1  0  0  0  0
  4 18  2  0  0  0  0
  4 19  1  0  0  0  0
  5  6  1  0  0  0  0
  6  7  2  0  0  0  0
  6  8  1  0  0  0  0
  6 17  1  0  0  0  0
  8  9  1  0  0  0  0
 10  9  1  6  0  0  0
 10 11  1  0  0  0  0
 10 16  1  0  0  0  0
 11 12  1  1  0  0  0
 11 13  1  0  0  0  0
 13 14  1  6  0  0  0
 13 15  1  0  0  0  0
 15 16  1  0  0  0  0
 20 21  2  0  0  0  0
 20 22  1  0  0  0  0
 20 23  1  0  0  0  0
M  CHG  1  17  -1
M  CHG  1  19  -1
M  CHG  1  22  -1
M  CHG  1  23  -1
M  END
>  <name>
ClC(Cl)(P(OP(=O)(OC[C@@H]1[C@@H](O)[C@H](O)[C;NaroC]O1)[O-])(=O)[O-])P(=O)([O-])[O-]

>  <apo>
1

>  <freq>
1

>  <freq0>
0

>  <freq1>
1

>  <freqA>
0.99700278

>  <a_count>
32

$$$$

  MOE2015           2D

 17 19  0  0  1  0  0  0  0  0999 V2000
    0.1300   -2.6880    0.0000 N   0  0  0  0  0  0  0  0  0  0  0  0
    1.4300   -1.9400    0.0000 C   0  0  0  0  0  0  0  0  0  0  0  0
    1.4320   -0.4400    0.0000 N   0  0  0  0  0  0  0  0  0  0  0  0
    2.7320    0.3080    0.0000 C   0  0  0  0  0  0  0  0  0  0  0  0
    2.7340    1.8080    0.0000 N   0  0  0  0  0  0  0  0  0  0  0  0
    4.0300   -0.4430    0.0000 C   0  0  0  0  0  0  0  0  0  0  0  0
    4.0280   -1.9430    0.0000 C   0  0  0  0  0  0  0  0  0  0  0  0
    5.4540   -2.4090    0.0000 O   0  0  0  0  0  0  0  0  0  0  0  0
    6.3370   -1.1970    0.0000 C   0  0  3  0  0  0  0  0  0  0  0  0
    6.9950   -2.5450    0.0000 C   0  0  0  0  0  0  0  0  0  0  0  0
    8.4600   -2.8690    0.0000 O   0  0  0  0  0  0  0  0  0  0  0  0
    9.6270   -1.9270    0.0000 C   0  0  0  0  0  0  0  0  0  0  0  0
    9.6180   -0.4270    0.0000 C   0  0  0  0  0  0  0  0  0  0  0  0
    8.4400    0.5010    0.0000 N   0  0  0  0  0  0  0  0  0  0  0  0
    6.9800    0.1580    0.0000 C   0  0  0  0  0  0  0  0  0  0  0  0
    5.4570    0.0180    0.0000 C   0  0  0  0  0  0  0  0  0  0  0  0
    2.7280   -2.6920    0.0000 N   0  0  0  0  0  0  0  0  0  0  0  0
  1  2  1  0  0  0  0
  2  3  1  0  0  0  0
  2 17  2  0  0  0  0
  3  4  2  0  0  0  0
  4  5  1  0  0  0  0
  4  6  1  0  0  0  0
  6  7  2  0  0  0  0
  6 16  1  0  0  0  0
  7  8  1  0  0  0  0
  7 17  1  0  0  0  0
  8  9  1  0  0  0  0
  9 10  1  0  0  0  0
  9 15  1  0  0  0  0
  9 16  1  0  0  0  0
 10 11  1  0  0  0  0
 11 12  1  0  0  0  0
 12 13  1  0  0  0  0
 13 14  1  0  0  0  0
 14 15  1  0  0  0  0
M  END
>  <name>
Nc1nc(N)c2c(OC3(COCC[N;amide]C3)C2)n1

>  <apo>
1

>  <freq>
1

>  <freq0>
0

>  <freq1>
1

>  <freqA>
0.99700278

>  <a_count>
32

$$$$

  MOE2015           2D

 17 18  0  0  1  0  0  0  0  0999 V2000
    1.2890   -3.1320    0.0000 O   0  0  0  0  0  0  0  0  0  0  0  0
    1.2890   -1.6320    0.0000 C   0  0  0  0  0  0  0  0  0  0  0  0
    2.5880   -0.8820    0.0000 O   0  0  0  0  0  0  0  0  0  0  0  0
    3.8870   -1.6320    0.0000 C   0  0  0  0  0  0  0  0  0  0  0  0
    5.1860   -0.8820    0.0000 C   0  0  0  0  0  0  0  0  0  0  0  0
    5.1860    0.6180    0.0000 C   0  0  0  0  0  0  0  0  0  0  0  0
    6.4850    1.3680    0.0000 C   0  0  0  0  0  0  0  0  0  0  0  0
    7.7840    0.6180    0.0000 C   0  0  0  0  0  0  0  0  0  0  0  0
    7.7840   -0.8820    0.0000 C   0  0  0  0  0  0  0  0  0  0  0  0
    6.4850   -1.6320    0.0000 C   0  0  0  0  0  0  0  0  0  0  0  0
   -0.0100   -0.8820    0.0000 N   0  0  0  0  0  0  0  0  0  0  0  0
   -1.3810   -1.4920    0.0000 C   0  0  3  0  0  0  0  0  0  0  0  0
   -1.6930   -2.9590    0.0000 C   0  0  0  0  0  0  0  0  0  0  0  0
   -3.1190   -3.4220    0.0000 O   0  0  0  0  0  0  0  0  0  0  0  0
   -2.3840   -0.3770    0.0000 C   0  0  0  0  0  0  0  0  0  0  0  0
   -1.6340    0.9220    0.0000 C   0  0  0  0  0  0  0  0  0  0  0  0
   -0.1670    0.6100    0.0000 C   0  0  0  0  0  0  0  0  0  0  0  0
  1  2  2  0  0  0  0
  2  3  1  0  0  0  0
  2 11  1  0  0  0  0
  3  4  1  0  0  0  0
  4  5  1  0  0  0  0
  5  6  1  0  0  0  0
  5 10  2  0  0  0  0
  6  7  2  0  0  0  0
  7  8  1  0  0  0  0
  8  9  2  0  0  0  0
  9 10  1  0  0  0  0
 11 12  1  0  0  0  0
 11 17  1  0  0  0  0
 12 13  1  0  0  0  0
 12 15  1  0  0  0  0
 13 14  2  0  0  0  0
 15 16  1  0  0  0  0
 16 17  1  0  0  0  0
M  END
>  <name>
O=C(OCc1ccccc1)N1C([C;amide]=O)CCC1

>  <apo>
1

>  <freq>
1

>  <freq0>
0

>  <freq1>
1

>  <freqA>
0.99700278

>  <a_count>
32

$$$$

  MOE2015           2D

 18 20  0  0  1  0  0  0  0  0999 V2000
    2.8150    3.6700    0.0000 O   0  0  0  0  0  0  0  0  0  0  0  0
    3.2030    2.2200    0.0000 C   0  0  0  0  0  0  0  0  0  0  0  0
    4.6760    1.9410    0.0000 N   0  0  0  0  0  0  0  0  0  0  0  0
    5.5670    3.1470    0.0000 C   0  0  0  0  0  0  0  0  0  0  0  0
    5.3770    0.6140    0.0000 C   0  0  0  0  0  0  0  0  0  0  0  0
    4.7780   -0.7610    0.0000 C   0  0  0  0  0  0  0  0  0  0  0  0
    3.3290   -1.1480    0.0000 C   0  0  0  0  0  0  0  0  0  0  0  0
    2.1210   -0.2560    0.0000 C   0  0  0  0  0  0  0  0  0  0  0  0
    2.0640    1.2430    0.0000 C   0  0  2  0  0  0  0  0  0  0  0  0
    0.6900    1.8440    0.0000 N   0  0  0  0  0  0  0  0  0  0  0  0
    0.7460   -0.8550    0.0000 C   0  0  0  0  0  0  0  0  0  0  0  0
    0.5770   -2.3460    0.0000 C   0  0  0  0  0  0  0  0  0  0  0  0
    1.7850   -3.2380    0.0000 C   0  0  0  0  0  0  0  0  0  0  0  0
    3.1600   -2.6380    0.0000 C   0  0  0  0  0  0  0  0  0  0  0  0
    5.6690   -1.9670    0.0000 C   0  0  0  0  0  0  0  0  0  0  0  0
    7.1590   -1.7990    0.0000 C   0  0  0  0  0  0  0  0  0  0  0  0
    7.7590   -0.4240    0.0000 C   0  0  0  0  0  0  0  0  0  0  0  0
    6.8670    0.7830    0.0000 C   0  0  0  0  0  0  0  0  0  0  0  0
  1  2  2  0  0  0  0
  2  3  1  0  0  0  0
  2  9  1  0  0  0  0
  3  4  1  0  0  0  0
  3  5  1  0  0  0  0
  5  6  2  0  0  0  0
  5 18  1  0  0  0  0
  6  7  1  0  0  0  0
  6 15  1  0  0  0  0
  7  8  2  0  0  0  0
  7 14  1  0  0  0  0
  8  9  1  0  0  0  0
  8 11  1  0  0  0  0
  9 10  1  6  0  0  0
 11 12  2  0  0  0  0
 12 13  1  0  0  0  0
 13 14  2  0  0  0  0
 15 16  2  0  0  0  0
 16 17  1  0  0  0  0
 17 18  2  0  0  0  0
M  END
>  <name>
O=C1N(C)c2c(-c3c([C@@H]1[N;amide])cccc3)cccc2

>  <apo>
1

>  <freq>
1

>  <freq0>
0

>  <freq1>
1

>  <freqA>
0.99700278

>  <a_count>
32

$$$$

  MOE2015           2D

 16 18  0  0  0  0  0  0  0  0999 V2000
    4.2230    1.4050    0.0000 O   0  0  0  0  0  0  0  0  0  0  0  0
    3.0210    0.5060    0.0000 C   0  0  0  0  0  0  0  0  0  0  0  0
    3.0420   -0.9940    0.0000 N   0  0  0  0  0  0  0  0  0  0  0  0
    4.2680   -1.8580    0.0000 C   0  0  0  0  0  0  0  0  0  0  0  0
    4.1320   -3.3520    0.0000 C   0  0  0  0  0  0  0  0  0  0  0  0
    5.3580   -4.2170    0.0000 C   0  0  0  0  0  0  0  0  0  0  0  0
    6.7190   -3.5880    0.0000 N   0  3  0  0  0  0  0  0  0  0  0  0
    6.8550   -2.0940    0.0000 C   0  0  0  0  0  0  0  0  0  0  0  0
    5.6300   -1.2290    0.0000 C   0  0  0  0  0  0  0  0  0  0  0  0
    1.6220   -1.4770    0.0000 C   0  0  0  0  0  0  0  0  0  0  0  0
    0.7240   -0.2760    0.0000 C   0  0  0  0  0  0  0  0  0  0  0  0
    1.5890    0.9500    0.0000 N   0  0  0  0  0  0  0  0  0  0  0  0
   -0.7660   -0.4540    0.0000 C   0  0  0  0  0  0  0  0  0  0  0  0
   -1.3570   -1.8320    0.0000 C   0  0  0  0  0  0  0  0  0  0  0  0
   -0.4580   -3.0330    0.0000 C   0  0  0  0  0  0  0  0  0  0  0  0
    1.0310   -2.8560    0.0000 C   0  0  0  0  0  0  0  0  0  0  0  0
  1  2  2  0  0  0  0
  2  3  1  0  0  0  0
  2 12  1  0  0  0  0
  3  4  1  0  0  0  0
  3 10  1  0  0  0  0
  4  5  1  0  0  0  0
  4  9  1  0  0  0  0
  5  6  1  0  0  0  0
  6  7  1  0  0  0  0
  7  8  1  0  0  0  0
  8  9  1  0  0  0  0
 10 11  1  0  0  0  0
 10 16  2  0  0  0  0
 11 12  1  0  0  0  0
 11 13  2  0  0  0  0
 13 14  1  0  0  0  0
 14 15  2  0  0  0  0
 15 16  1  0  0  0  0
M  CHG  1   7   1
M  END
>  <name>
O=C1N(C2CC[N+;amine]CC2)c2c(N1)cccc2

>  <apo>
1

>  <freq>
1

>  <freq0>
0

>  <freq1>
1

>  <freqA>
0.99700278

>  <a_count>
32

$$$$

  MOE2015           2D

 21 23  0  0  0  0  0  0  0  0999 V2000
    3.1240    3.1240    0.0000 O   0  0  0  0  0  0  0  0  0  0  0  0
    3.1240    1.6240    0.0000 C   0  0  0  0  0  0  0  0  0  0  0  0
    1.8250    0.8740    0.0000 C   0  0  0  0  0  0  0  0  0  0  0  0
    0.5260    1.6240    0.0000 C   0  0  0  0  0  0  0  0  0  0  0  0
    0.5260    3.1240    0.0000 O   0  0  0  0  0  0  0  0  0  0  0  0
   -0.7730    0.8740    0.0000 C   0  0  0  0  0  0  0  0  0  0  0  0
   -0.7730   -0.6260    0.0000 C   0  0  0  0  0  0  0  0  0  0  0  0
   -2.0720   -1.3760    0.0000 O   0  0  0  0  0  0  0  0  0  0  0  0
    0.5260   -1.3760    0.0000 C   0  0  0  0  0  0  0  0  0  0  0  0
    0.5260   -2.8760    0.0000 N   0  0  0  0  0  0  0  0  0  0  0  0
    1.8250   -0.6260    0.0000 C   0  0  0  0  0  0  0  0  0  0  0  0
    3.1240   -1.3760    0.0000 C   0  0  0  0  0  0  0  0  0  0  0  0
    3.1240   -2.8760    0.0000 O   0  0  0  0  0  0  0  0  0  0  0  0
    4.4230   -0.6260    0.0000 C   0  0  0  0  0  0  0  0  0  0  0  0
    4.4230    0.8740    0.0000 C   0  0  0  0  0  0  0  0  0  0  0  0
    5.7220    1.6240    0.0000 C   0  0  0  0  0  0  0  0  0  0  0  0
    5.7220    3.1240    0.0000 O   0  0  0  0  0  0  0  0  0  0  0  0
    7.0210    0.8740    0.0000 C   0  0  0  0  0  0  0  0  0  0  0  0
    7.0210   -0.6260    0.0000 C   0  0  0  0  0  0  0  0  0  0  0  0
    8.3200   -1.3760    0.0000 C   0  0  0  0  0  0  0  0  0  0  0  0
    5.7220   -1.3760    0.0000 C   0  0  0  0  0  0  0  0  0  0  0  0
  1  2  2  0  0  0  0
  2  3  1  0  0  0  0
  2 15  1  0  0  0  0
  3  4  1  0  0  0  0
  3 11  2  0  0  0  0
  4  5  1  0  0  0  0
  4  6  2  0  0  0  0
  6  7  1  0  0  0  0
  7  8  1  0  0  0  0
  7  9  2  0  0  0  0
  9 10  1  0  0  0  0
  9 11  1  0  0  0  0
 11 12  1  0  0  0  0
 12 13  2  0  0  0  0
 12 14  1  0  0  0  0
 14 15  1  0  0  0  0
 14 21  2  0  0  0  0
 15 16  2  0  0  0  0
 16 17  1  0  0  0  0
 16 18  1  0  0  0  0
 18 19  2  0  0  0  0
 19 20  1  0  0  0  0
 19 21  1  0  0  0  0
M  END
>  <name>
O=C1c2c(O)cc(O)c([N;amine])c2C(=O)c2c1c(O)cc(C)c2

>  <apo>
1

>  <freq>
1

>  <freq0>
0

>  <freq1>
1

>  <freqA>
0.99700278

>  <a_count>
32

$$$$

  MOE2015           2D

 16 17  0  0  0  0  0  0  0  0999 V2000
   12.8840    1.6130    0.0000 O   0  0  0  0  0  0  0  0  0  0  0  0
   11.5850    2.3630    0.0000 C   0  0  0  0  0  0  0  0  0  0  0  0
   10.2860    1.6130    0.0000 C   0  0  0  0  0  0  0  0  0  0  0  0
    8.9870    2.3630    0.0000 C   0  0  0  0  0  0  0  0  0  0  0  0
    7.6880    1.6130    0.0000 C   0  0  0  0  0  0  0  0  0  0  0  0
    6.3880    2.3630    0.0000 N   0  0  0  0  0  0  0  0  0  0  0  0
    5.0180    1.7530    0.0000 C   0  0  0  0  0  0  0  0  0  0  0  0
    4.7060    0.2860    0.0000 O   0  0  0  0  0  0  0  0  0  0  0  0
    4.0140    2.8680    0.0000 C   0  0  0  0  0  0  0  0  0  0  0  0
    4.7640    4.1670    0.0000 N   0  0  0  0  0  0  0  0  0  0  0  0
    6.2320    3.8550    0.0000 C   0  0  0  0  0  0  0  0  0  0  0  0
    7.3460    4.8590    0.0000 O   0  0  0  0  0  0  0  0  0  0  0  0
    3.2640    1.5690    0.0000 C   0  0  0  0  0  0  0  0  0  0  0  0
    1.7970    1.8810    0.0000 C   0  0  0  0  0  0  0  0  0  0  0  0
    1.6400    3.3730    0.0000 C   0  0  0  0  0  0  0  0  0  0  0  0
    3.0110    3.9830    0.0000 C   0  0  0  0  0  0  0  0  0  0  0  0
  1  2  2  0  0  0  0
  2  3  1  0  0  0  0
  3  4  1  0  0  0  0
  4  5  1  0  0  0  0
  5  6  1  0  0  0  0
  6  7  1  0  0  0  0
  6 11  1  0  0  0  0
  7  8  2  0  0  0  0
  7  9  1  0  0  0  0
  9 10  1  0  0  0  0
  9 13  1  0  0  0  0
  9 16  1  0  0  0  0
 10 11  1  0  0  0  0
 11 12  2  0  0  0  0
 13 14  1  0  0  0  0
 14 15  1  0  0  0  0
 15 16  1  0  0  0  0
M  END
>  <name>
O=[C;amide]CCCN1C(=O)C2(NC1=O)CCCC2

>  <apo>
1

>  <freq>
1

>  <freq0>
0

>  <freq1>
1

>  <freqA>
0.99700278

>  <a_count>
32

$$$$

  MOE2015           2D

 14 14  0  0  1  0  0  0  0  0999 V2000
    0.0000    0.0000    0.0000 O   0  0  0  0  0  0  0  0  0  0  0  0
    1.5000    0.0000    0.0000 C   0  0  0  0  0  0  0  0  0  0  0  0
    2.2500    1.2990    0.0000 C   0  0  3  0  0  0  0  0  0  0  0  0
    1.5000    2.5980    0.0000 C   0  0  0  0  0  0  0  0  0  0  0  0
    3.7500    1.2990    0.0000 C   0  0  0  0  0  0  0  0  0  0  0  0
    4.5000    2.5980    0.0000 C   0  0  0  0  0  0  0  0  0  0  0  0
    6.0000    2.5980    0.0000 C   0  0  0  0  0  0  0  0  0  0  0  0
    6.7500    1.2990    0.0000 C   0  0  0  0  0  0  0  0  0  0  0  0
    8.2500    1.2990    0.0000 C   0  0  0  0  0  0  0  0  0  0  0  0
    9.0000    2.5980    0.0000 C   0  0  0  0  0  0  0  0  0  0  0  0
    8.2500    3.8970    0.0000 C   0  0  0  0  0  0  0  0  0  0  0  0
   10.5000    2.5980    0.0000 C   0  0  0  0  0  0  0  0  0  0  0  0
    6.0000    0.0000    0.0000 C   0  0  0  0  0  0  0  0  0  0  0  0
    4.5000    0.0000    0.0000 C   0  0  0  0  0  0  0  0  0  0  0  0
  1  2  2  0  0  0  0
  2  3  1  0  0  0  0
  3  4  1  0  0  0  0
  3  5  1  0  0  0  0
  5  6  1  0  0  0  0
  5 14  2  0  0  0  0
  6  7  2  0  0  0  0
  7  8  1  0  0  0  0
  8  9  1  0  0  0  0
  8 13  2  0  0  0  0
  9 10  1  0  0  0  0
 10 11  1  0  0  0  0
 10 12  1  0  0  0  0
 13 14  1  0  0  0  0
M  END
>  <name>
O=[C;ester]C(C)c1ccc(CC(C)C)cc1

>  <apo>
1

>  <freq>
1

>  <freq0>
0

>  <freq1>
1

>  <freqA>
0.99700278

>  <a_count>
32

$$$$

  MOE2015           2D

 16 17  0  0  1  0  0  0  0  0999 V2000
    0.0000    0.0000    0.0000 O   0  0  0  0  0  0  0  0  0  0  0  0
    1.5000    0.0000    0.0000 C   0  0  0  0  0  0  0  0  0  0  0  0
    2.2500   -1.2990    0.0000 C   0  0  2  0  0  0  0  0  0  0  0  0
    3.0000    0.0000    0.0000 C   0  0  0  0  0  0  0  0  0  0  0  0
    0.9510   -2.0490    0.0000 N   0  3  0  0  0  0  0  0  0  0  0  0
    0.9510   -3.5490    0.0000 C   0  0  0  0  0  0  0  0  0  0  0  0
    2.2500   -4.2990    0.0000 C   0  0  0  0  0  0  0  0  0  0  0  0
    3.5490   -3.5490    0.0000 C   0  0  0  0  0  0  0  0  0  0  0  0
    3.5490   -2.0490    0.0000 C   0  0  0  0  0  0  0  0  0  0  0  0
    4.8480   -1.2990    0.0000 C   0  0  0  0  0  0  0  0  0  0  0  0
    6.1470   -2.0490    0.0000 C   0  0  0  0  0  0  0  0  0  0  0  0
    7.4460   -1.2990    0.0000 O   0  0  0  0  0  0  0  0  0  0  0  0
    7.4460    0.2010    0.0000 C   0  0  0  0  0  0  0  0  0  0  0  0
    6.1470   -3.5490    0.0000 C   0  0  0  0  0  0  0  0  0  0  0  0
    7.4460   -4.2990    0.0000 O   0  0  0  0  0  0  0  0  0  0  0  0
    4.8480   -4.2990    0.0000 C   0  0  0  0  0  0  0  0  0  0  0  0
  1  2  2  0  0  0  0
  3  2  1  1  0  0  0
  3  4  1  6  0  0  0
  3  5  1  0  0  0  0
  3  9  1  0  0  0  0
  5  6  1  0  0  0  0
  6  7  1  0  0  0  0
  7  8  1  0  0  0  0
  8  9  2  0  0  0  0
  8 16  1  0  0  0  0
  9 10  1  0  0  0  0
 10 11  2  0  0  0  0
 11 12  1  0  0  0  0
 11 14  1  0  0  0  0
 12 13  1  0  0  0  0
 14 15  1  0  0  0  0
 14 16  2  0  0  0  0
M  CHG  1   5   1
M  END
>  <name>
O=[C;ester][C@]1([C;thioether])[N+]CCc2c1cc(OC)c(O)c2

>  <apo>
2

>  <freq>
1

>  <freq0>
0

>  <freq1>
1

>  <freqA>
0.99700278

>  <a_count>
32

$$$$

  MOE2015           2D

 22 22  0  0  1  0  0  0  0  0999 V2000
    3.3490   -6.5370    0.0000 S   0  0  0  0  0  0  0  0  0  0  0  0
    3.3490   -8.0370    0.0000 O   0  0  0  0  0  0  0  0  0  0  0  0
    3.3490   -5.0370    0.0000 O   0  0  0  0  0  0  0  0  0  0  0  0
    1.8490   -6.5370    0.0000 O   0  0  0  0  0  0  0  0  0  0  0  0
    1.0990   -5.2380    0.0000 C   0  0  0  0  0  0  0  0  0  0  0  0
   -0.4010   -5.2380    0.0000 C   0  0  2  0  0  0  0  0  0  0  0  0
   -1.1510   -6.5370    0.0000 O   0  0  0  0  0  0  0  0  0  0  0  0
   -2.6510   -6.5370    0.0000 C   0  0  0  0  0  0  0  0  0  0  0  0
   -3.4010   -5.2380    0.0000 C   0  0  1  0  0  0  0  0  0  0  0  0
   -4.9010   -5.2380    0.0000 N   0  0  0  0  0  0  0  0  0  0  0  0
   -5.6510   -6.5370    0.0000 S   0  0  0  0  0  0  0  0  0  0  0  0
   -6.9500   -5.7870    0.0000 O   0  0  0  0  0  0  0  0  0  0  0  0
   -4.3520   -7.2870    0.0000 O   0  0  0  0  0  0  0  0  0  0  0  0
   -6.4010   -7.8360    0.0000 O   0  5  0  0  0  0  0  0  0  0  0  0
   -2.6510   -3.9390    0.0000 C   0  0  2  0  0  0  0  0  0  0  0  0
   -3.4010   -2.6400    0.0000 O   0  0  0  0  0  0  0  0  0  0  0  0
   -2.6510   -1.3410    0.0000 S   0  0  0  0  0  0  0  0  0  0  0  0
   -1.3520   -2.0910    0.0000 O   0  0  0  0  0  0  0  0  0  0  0  0
   -3.9500   -0.5910    0.0000 O   0  0  0  0  0  0  0  0  0  0  0  0
   -1.9010   -0.0420    0.0000 O   0  5  0  0  0  0  0  0  0  0  0  0
   -1.1510   -3.9390    0.0000 C   0  0  0  0  0  0  0  0  0  0  0  0
    4.8490   -6.5370    0.0000 O   0  5  0  0  0  0  0  0  0  0  0  0
  1  2  2  0  0  0  0
  1  3  2  0  0  0  0
  1  4  1  0  0  0  0
  1 22  1  0  0  0  0
  4  5  1  0  0  0  0
  6  5  1  6  0  0  0
  6  7  1  0  0  0  0
  6 21  1  0  0  0  0
  7  8  1  0  0  0  0
  8  9  1  0  0  0  0
  9 10  1  1  0  0  0
  9 15  1  0  0  0  0
 10 11  1  0  0  0  0
 11 12  2  0  0  0  0
 11 13  2  0  0  0  0
 11 14  1  0  0  0  0
 15 16  1  6  0  0  0
 15 21  1  0  0  0  0
 16 17  1  0  0  0  0
 17 18  2  0  0  0  0
 17 19  2  0  0  0  0
 17 20  1  0  0  0  0
M  CHG  1  14  -1
M  CHG  1  20  -1
M  CHG  1  22  -1
M  END
>  <name>
S(=O)(=O)(OC[C@@H]1O[C;ether][C@@H](NS(=O)(=O)[O-])[C@H](OS(=O)(=O)[O-])[C;ether]1)[O-]

>  <apo>
2

>  <freq>
1

>  <freq0>
0

>  <freq1>
1

>  <freqA>
0.99700278

>  <a_count>
32

$$$$

  MOE2015           2D

 20 20  0  0  1  0  0  0  0  0999 V2000
   -7.4050    0.0000    0.0000 S   0  0  0  0  0  0  0  0  0  0  0  0
   -8.9050    0.0000    0.0000 O   0  0  0  0  0  0  0  0  0  0  0  0
   -5.9050    0.0000    0.0000 O   0  0  0  0  0  0  0  0  0  0  0  0
   -7.4050    1.5000    0.0000 O   0  0  0  0  0  0  0  0  0  0  0  0
   -6.1050    2.2500    0.0000 C   0  0  0  0  0  0  0  0  0  0  0  0
   -6.1050    3.7500    0.0000 C   0  0  0  0  0  0  0  0  0  0  0  0
   -7.4050    4.5000    0.0000 O   0  0  0  0  0  0  0  0  0  0  0  0
   -4.8060    4.5000    0.0000 C   0  0  0  0  0  0  0  0  0  0  0  0
   -3.5070    3.7500    0.0000 C   0  0  0  0  0  0  0  0  0  0  0  0
   -3.5070    2.2500    0.0000 C   0  0  0  0  0  0  0  0  0  0  0  0
   -2.2080    1.5000    0.0000 C   0  0  2  0  0  0  0  0  0  0  0  0
   -2.2080    0.0000    0.0000 O   0  0  0  0  0  0  0  0  0  0  0  0
   -0.9090    2.2500    0.0000 C   0  0  1  0  0  0  0  0  0  0  0  0
   -0.9090    3.7500    0.0000 O   0  0  0  0  0  0  0  0  0  0  0  0
    0.3900    1.5000    0.0000 C   0  0  2  0  0  0  0  0  0  0  0  0
    0.3900    0.0000    0.0000 N   0  0  0  0  0  0  0  0  0  0  0  0
    1.6890    2.2500    0.0000 C   0  0  0  0  0  0  0  0  0  0  0  0
    2.9880    1.5000    0.0000 O   0  0  0  0  0  0  0  0  0  0  0  0
   -4.8060    1.5000    0.0000 C   0  0  0  0  0  0  0  0  0  0  0  0
   -7.4050   -1.5000    0.0000 O   0  5  0  0  0  0  0  0  0  0  0  0
  1  2  2  0  0  0  0
  1  3  2  0  0  0  0
  1  4  1  0  0  0  0
  1 20  1  0  0  0  0
  4  5  1  0  0  0  0
  5  6  1  0  0  0  0
  5 19  2  0  0  0  0
  6  7  1  0  0  0  0
  6  8  2  0  0  0  0
  8  9  1  0  0  0  0
  9 10  2  0  0  0  0
 10 11  1  0  0  0  0
 10 19  1  0  0  0  0
 11 12  1  1  0  0  0
 11 13  1  0  0  0  0
 13 14  1  1  0  0  0
 13 15  1  0  0  0  0
 15 16  1  1  0  0  0
 15 17  1  0  0  0  0
 17 18  2  0  0  0  0
M  CHG  1  20  -1
M  END
>  <name>
S(=O)(=O)(Oc1c(O)ccc([C@H](O)[C@@H](O)[C@H]([N;amide])[C;amide]=O)c1)[O-]

>  <apo>
2

>  <freq>
1

>  <freq0>
0

>  <freq1>
1

>  <freqA>
0.99700278

>  <a_count>
32

$$$$

  MOE2015           2D

 17 18  0  0  0  0  0  0  0  0999 V2000
    1.8840    2.8710    0.0000 S   0  0  0  0  0  0  0  0  0  0  0  0
    2.4810    1.4940    0.0000 C   0  0  0  0  0  0  0  0  0  0  0  0
    1.7180    0.2030    0.0000 C   0  0  0  0  0  0  0  0  0  0  0  0
    2.7110   -0.9220    0.0000 C   0  0  0  0  0  0  0  0  0  0  0  0
    4.0870   -0.3250    0.0000 N   0  0  0  0  0  0  0  0  0  0  0  0
    5.3790   -1.0870    0.0000 C   0  0  0  0  0  0  0  0  0  0  0  0
    6.6850   -0.3490    0.0000 O   0  0  0  0  0  0  0  0  0  0  0  0
    7.9770   -1.1120    0.0000 C   0  0  0  0  0  0  0  0  0  0  0  0
    8.7400    0.1800    0.0000 C   0  0  0  0  0  0  0  0  0  0  0  0
    9.2690   -1.8740    0.0000 C   0  0  0  0  0  0  0  0  0  0  0  0
    7.2150   -2.4030    0.0000 C   0  0  0  0  0  0  0  0  0  0  0  0
    5.3650   -2.5870    0.0000 O   0  0  0  0  0  0  0  0  0  0  0  0
    3.9450    1.1690    0.0000 C   0  0  0  0  0  0  0  0  0  0  0  0
    2.2340   -2.3440    0.0000 C   0  0  0  0  0  0  0  0  0  0  0  0
    0.7640   -2.6420    0.0000 C   0  0  0  0  0  0  0  0  0  0  0  0
   -0.2290   -1.5170    0.0000 C   0  0  0  0  0  0  0  0  0  0  0  0
    0.2480   -0.0950    0.0000 C   0  0  0  0  0  0  0  0  0  0  0  0
  1  2  1  0  0  0  0
  2  3  1  0  0  0  0
  2 13  2  0  0  0  0
  3  4  1  0  0  0  0
  3 17  2  0  0  0  0
  4  5  1  0  0  0  0
  4 14  2  0  0  0  0
  5  6  1  0  0  0  0
  5 13  1  0  0  0  0
  6  7  1  0  0  0  0
  6 12  2  0  0  0  0
  7  8  1  0  0  0  0
  8  9  1  0  0  0  0
  8 10  1  0  0  0  0
  8 11  1  0  0  0  0
 14 15  1  0  0  0  0
 15 16  2  0  0  0  0
 16 17  1  0  0  0  0
M  END
>  <name>
[S;thioether]c1c2c(n(C(OC(C)(C)C)=O)c1)cccc2

>  <apo>
1

>  <freq>
1

>  <freq0>
0

>  <freq1>
1

>  <freqA>
0.99700278

>  <a_count>
32

$$$$

  MOE2015           2D

 20 22  0  0  1  0  0  0  0  0999 V2000
    3.0080   -6.1030    0.0000 Br  0  0  0  0  0  0  0  0  0  0  0  0
    1.7600   -5.2700    0.0000 C   0  0  0  0  0  0  0  0  0  0  0  0
    1.8580   -3.7740    0.0000 C   0  0  0  0  0  0  0  0  0  0  0  0
    2.8940   -2.6890    0.0000 C   0  0  3  0  0  0  0  0  0  0  0  0
    2.0500   -1.4500    0.0000 C   0  0  0  0  0  0  0  0  0  0  0  0
    2.7010   -0.0990    0.0000 C   0  0  0  0  0  0  0  0  0  0  0  0
    1.8560    1.1410    0.0000 C   0  0  0  0  0  0  0  0  0  0  0  0
    0.3600    1.0290    0.0000 C   0  0  0  0  0  0  0  0  0  0  0  0
   -0.2910   -0.3220    0.0000 C   0  0  0  0  0  0  0  0  0  0  0  0
    0.5540   -1.5620    0.0000 C   0  0  0  0  0  0  0  0  0  0  0  0
    3.9120   -1.5870    0.0000 S   0  0  0  0  0  0  0  0  0  0  0  0
    5.2750   -2.2150    0.0000 C   0  0  0  0  0  0  0  0  0  0  0  0
    6.5830   -1.4810    0.0000 C   0  0  0  0  0  0  0  0  0  0  0  0
    7.8720   -2.2480    0.0000 O   0  0  0  0  0  0  0  0  0  0  0  0
    5.0990   -3.7040    0.0000 N   0  0  0  0  0  0  0  0  0  0  0  0
    3.6280   -3.9980    0.0000 N   0  0  0  0  0  0  0  0  0  0  0  0
    0.6100   -2.9410    0.0000 C   0  0  0  0  0  0  0  0  0  0  0  0
   -0.7350   -3.6050    0.0000 C   0  0  0  0  0  0  0  0  0  0  0  0
   -0.8320   -5.1020    0.0000 C   0  0  0  0  0  0  0  0  0  0  0  0
    0.4150   -5.9340    0.0000 C   0  0  0  0  0  0  0  0  0  0  0  0
  1  2  1  0  0  0  0
  2  3  1  0  0  0  0
  2 20  2  0  0  0  0
  3  4  1  0  0  0  0
  3 17  2  0  0  0  0
  4  5  1  0  0  0  0
  4 11  1  0  0  0  0
  4 16  1  0  0  0  0
  5  6  1  0  0  0  0
  5 10  2  0  0  0  0
  6  7  2  0  0  0  0
  7  8  1  0  0  0  0
  8  9  2  0  0  0  0
  9 10  1  0  0  0  0
 11 12  1  0  0  0  0
 12 13  1  0  0  0  0
 12 15  2  0  0  0  0
 13 14  2  0  0  0  0
 15 16  1  0  0  0  0
 17 18  1  0  0  0  0
 18 19  2  0  0  0  0
 19 20  1  0  0  0  0
M  END
>  <name>
Brc1c(C2(c3ccccc3)SC([C;amide]=O)=NN2)cccc1

>  <apo>
1

>  <freq>
1

>  <freq0>
0

>  <freq1>
1

>  <freqA>
0.99700278

>  <a_count>
31

$$$$

  MOE2015           2D

 15 16  0  0  0  0  0  0  0  0999 V2000
   -0.8630    1.0370    0.0000 C   0  0  0  0  0  0  0  0  0  0  0  0
   -0.8630    2.5370    0.0000 C   0  0  0  0  0  0  0  0  0  0  0  0
   -2.1620    3.2870    0.0000 C   0  0  0  0  0  0  0  0  0  0  0  0
   -2.1620    0.2870    0.0000 C   0  0  0  0  0  0  0  0  0  0  0  0
   -2.1620   -1.2130    0.0000 C   0  0  0  0  0  0  0  0  0  0  0  0
   -3.4610   -1.9630    0.0000 C   0  0  0  0  0  0  0  0  0  0  0  0
   -4.7610   -1.2130    0.0000 C   0  0  0  0  0  0  0  0  0  0  0  0
   -4.7610    0.2870    0.0000 C   0  0  0  0  0  0  0  0  0  0  0  0
   -3.4610    1.0370    0.0000 C   0  0  0  0  0  0  0  0  0  0  0  0
    0.4360    0.2870    0.0000 C   0  0  0  0  0  0  0  0  0  0  0  0
    1.7350    1.0370    0.0000 C   0  0  0  0  0  0  0  0  0  0  0  0
    3.0340    0.2870    0.0000 C   0  0  0  0  0  0  0  0  0  0  0  0
    3.0340   -1.2130    0.0000 C   0  0  0  0  0  0  0  0  0  0  0  0
    1.7350   -1.9630    0.0000 C   0  0  0  0  0  0  0  0  0  0  0  0
    0.4360   -1.2130    0.0000 C   0  0  0  0  0  0  0  0  0  0  0  0
  1  2  1  0  0  0  0
  1  4  1  0  0  0  0
  1 10  1  0  0  0  0
  2  3  1  0  0  0  0
  4  5  1  0  0  0  0
  4  9  2  0  0  0  0
  5  6  2  0  0  0  0
  6  7  1  0  0  0  0
  7  8  2  0  0  0  0
  8  9  1  0  0  0  0
 10 11  1  0  0  0  0
 10 15  2  0  0  0  0
 11 12  2  0  0  0  0
 12 13  1  0  0  0  0
 13 14  2  0  0  0  0
 14 15  1  0  0  0  0
M  END
>  <name>
C(C[C;amine])(c1ccccc1)c1ccccc1

>  <apo>
1

>  <freq>
1

>  <freq0>
0

>  <freq1>
1

>  <freqA>
0.99700278

>  <a_count>
31

$$$$

  MOE2015           2D

 20 22  0  0  1  0  0  0  0  0999 V2000
   11.1450    0.3620    0.0000 Cl  0  0  0  0  0  0  0  0  0  0  0  0
    9.6480    0.2650    0.0000 C   0  0  0  0  0  0  0  0  0  0  0  0
    8.9840   -1.0800    0.0000 C   0  0  0  0  0  0  0  0  0  0  0  0
    7.4870   -1.1780    0.0000 C   0  0  0  0  0  0  0  0  0  0  0  0
    6.6550    0.0700    0.0000 C   0  0  0  0  0  0  0  0  0  0  0  0
    5.1980   -0.2860    0.0000 C   0  0  3  0  0  0  0  0  0  0  0  0
    4.5470    1.0660    0.0000 C   0  0  0  0  0  0  0  0  0  0  0  0
    5.3910    2.3050    0.0000 C   0  0  0  0  0  0  0  0  0  0  0  0
    4.7400    3.6560    0.0000 C   0  0  0  0  0  0  0  0  0  0  0  0
    3.2450    3.7680    0.0000 C   0  0  0  0  0  0  0  0  0  0  0  0
    2.4000    2.5290    0.0000 C   0  0  0  0  0  0  0  0  0  0  0  0
    3.0510    1.1770    0.0000 C   0  0  0  0  0  0  0  0  0  0  0  0
    3.7340   -0.6160    0.0000 S   0  0  0  0  0  0  0  0  0  0  0  0
    3.5960   -2.1100    0.0000 C   0  0  0  0  0  0  0  0  0  0  0  0
    2.3070   -2.8760    0.0000 C   0  0  0  0  0  0  0  0  0  0  0  0
    2.3260   -4.3760    0.0000 O   0  0  0  0  0  0  0  0  0  0  0  0
    4.9740   -2.7030    0.0000 N   0  0  0  0  0  0  0  0  0  0  0  0
    5.9640   -1.5750    0.0000 N   0  0  0  0  0  0  0  0  0  0  0  0
    7.3190    1.4150    0.0000 C   0  0  0  0  0  0  0  0  0  0  0  0
    8.8160    1.5120    0.0000 C   0  0  0  0  0  0  0  0  0  0  0  0
  1  2  1  0  0  0  0
  2  3  1  0  0  0  0
  2 20  2  0  0  0  0
  3  4  2  0  0  0  0
  4  5  1  0  0  0  0
  5  6  1  0  0  0  0
  5 19  2  0  0  0  0
  6  7  1  0  0  0  0
  6 13  1  0  0  0  0
  6 18  1  0  0  0  0
  7  8  1  0  0  0  0
  7 12  2  0  0  0  0
  8  9  2  0  0  0  0
  9 10  1  0  0  0  0
 10 11  2  0  0  0  0
 11 12  1  0  0  0  0
 13 14  1  0  0  0  0
 14 15  1  0  0  0  0
 14 17  2  0  0  0  0
 15 16  2  0  0  0  0
 17 18  1  0  0  0  0
 19 20  1  0  0  0  0
M  END
>  <name>
Clc1ccc(C2(c3ccccc3)SC([C;amide]=O)=NN2)cc1

>  <apo>
1

>  <freq>
1

>  <freq0>
0

>  <freq1>
1

>  <freqA>
0.99700278

>  <a_count>
31

$$$$

  MOE2015           2D

 16 16  0  0  1  0  0  0  0  0999 V2000
    0.9600   -3.0710    0.0000 O   0  0  0  0  0  0  0  0  0  0  0  0
    0.9600   -1.5710    0.0000 C   0  0  0  0  0  0  0  0  0  0  0  0
    2.2590   -0.8210    0.0000 O   0  0  0  0  0  0  0  0  0  0  0  0
    3.5580   -1.5710    0.0000 C   0  0  0  0  0  0  0  0  0  0  0  0
    4.8570   -0.8210    0.0000 C   0  0  0  0  0  0  0  0  0  0  0  0
    4.8570    0.6790    0.0000 C   0  0  0  0  0  0  0  0  0  0  0  0
    6.1560    1.4290    0.0000 C   0  0  0  0  0  0  0  0  0  0  0  0
    7.4550    0.6790    0.0000 C   0  0  0  0  0  0  0  0  0  0  0  0
    7.4550   -0.8210    0.0000 C   0  0  0  0  0  0  0  0  0  0  0  0
    6.1560   -1.5710    0.0000 C   0  0  0  0  0  0  0  0  0  0  0  0
   -0.3390   -0.8210    0.0000 N   0  0  0  0  0  0  0  0  0  0  0  0
   -1.6380   -1.5710    0.0000 C   0  0  2  0  0  0  0  0  0  0  0  0
   -2.9370   -0.8210    0.0000 C   0  0  0  0  0  0  0  0  0  0  0  0
   -2.9370    0.6790    0.0000 O   0  0  0  0  0  0  0  0  0  0  0  0
   -1.6380   -3.0710    0.0000 C   0  0  0  0  0  0  0  0  0  0  0  0
   -2.9370   -3.8210    0.0000 C   0  0  0  0  0  0  0  0  0  0  0  0
  1  2  2  0  0  0  0
  2  3  1  0  0  0  0
  2 11  1  0  0  0  0
  3  4  1  0  0  0  0
  4  5  1  0  0  0  0
  5  6  1  0  0  0  0
  5 10  2  0  0  0  0
  6  7  2  0  0  0  0
  7  8  1  0  0  0  0
  8  9  2  0  0  0  0
  9 10  1  0  0  0  0
 12 11  1  1  0  0  0
 12 13  1  0  0  0  0
 12 15  1  0  0  0  0
 13 14  2  0  0  0  0
 15 16  1  0  0  0  0
M  END
>  <name>
O=C(OCc1ccccc1)N[C@H]([C;amide]=O)[C;ether]C

>  <apo>
2

>  <freq>
1

>  <freq0>
0

>  <freq1>
1

>  <freqA>
0.99700278

>  <a_count>
31

$$$$

  MOE2015           2D

 19 21  0  0  0  0  0  0  0  0999 V2000
    1.8810    1.3560    0.0000 O   0  0  0  0  0  0  0  0  0  0  0  0
    1.4070   -0.0670    0.0000 C   0  0  0  0  0  0  0  0  0  0  0  0
    2.2790   -1.2870    0.0000 C   0  0  0  0  0  0  0  0  0  0  0  0
    3.7790   -1.2990    0.0000 N   0  0  0  0  0  0  0  0  0  0  0  0
    4.5190   -2.6040    0.0000 N   0  0  0  0  0  0  0  0  0  0  0  0
    6.0190   -2.6150    0.0000 C   0  0  0  0  0  0  0  0  0  0  0  0
    6.7590   -3.9200    0.0000 C   0  0  0  0  0  0  0  0  0  0  0  0
    8.2590   -3.9310    0.0000 C   0  0  0  0  0  0  0  0  0  0  0  0
    9.0190   -2.6380    0.0000 N   0  3  0  0  0  0  0  0  0  0  0  0
    8.2790   -1.3330    0.0000 C   0  0  0  0  0  0  0  0  0  0  0  0
    6.7790   -1.3220    0.0000 C   0  0  0  0  0  0  0  0  0  0  0  0
    1.3880   -2.4940    0.0000 C   0  0  0  0  0  0  0  0  0  0  0  0
   -0.0350   -2.0200    0.0000 C   0  0  0  0  0  0  0  0  0  0  0  0
   -0.0230   -0.5200    0.0000 N   0  0  0  0  0  0  0  0  0  0  0  0
   -1.1570   -3.0150    0.0000 C   0  0  0  0  0  0  0  0  0  0  0  0
   -0.8560   -4.4840    0.0000 C   0  0  0  0  0  0  0  0  0  0  0  0
    0.5670   -4.9590    0.0000 C   0  0  0  0  0  0  0  0  0  0  0  0
    0.8670   -6.4280    0.0000 N   0  0  0  0  0  0  0  0  0  0  0  0
    1.6890   -3.9640    0.0000 C   0  0  0  0  0  0  0  0  0  0  0  0
  1  2  2  0  0  0  0
  2  3  1  0  0  0  0
  2 14  1  0  0  0  0
  3  4  2  0  0  0  0
  3 12  1  0  0  0  0
  4  5  1  0  0  0  0
  5  6  1  0  0  0  0
  6  7  2  0  0  0  0
  6 11  1  0  0  0  0
  7  8  1  0  0  0  0
  8  9  2  0  0  0  0
  9 10  1  0  0  0  0
 10 11  2  0  0  0  0
 12 13  2  0  0  0  0
 12 19  1  0  0  0  0
 13 14  1  0  0  0  0
 13 15  1  0  0  0  0
 15 16  2  0  0  0  0
 16 17  1  0  0  0  0
 17 18  1  0  0  0  0
 17 19  2  0  0  0  0
M  CHG  1   9   1
M  END
>  <name>
O=C1/C(=N/Nc2cc[n+]cc2)/c2c(N1)ccc([N;amide])c2

>  <apo>
1

>  <freq>
1

>  <freq0>
0

>  <freq1>
1

>  <freqA>
0.99700278

>  <a_count>
31

$$$$

  MOE2015           2D

 16 17  0  0  1  0  0  0  0  0999 V2000
    2.6120    4.5250    0.0000 O   0  0  0  0  0  0  0  0  0  0  0  0
    3.3620    3.2260    0.0000 C   0  0  0  0  0  0  0  0  0  0  0  0
    2.6120    1.9270    0.0000 N   0  0  0  0  0  0  0  0  0  0  0  0
    1.1120    1.9270    0.0000 C   0  0  3  0  0  0  0  0  0  0  0  0
    0.3620    0.6280    0.0000 C   0  0  3  0  0  0  0  0  0  0  0  0
    1.6610   -0.1220    0.0000 O   0  0  0  0  0  0  0  0  0  0  0  0
    0.3620   -0.8720    0.0000 C   0  0  0  0  0  0  0  0  0  0  0  0
   -1.1380    0.6280    0.0000 C   0  0  0  0  0  0  0  0  0  0  0  0
   -1.8880    1.9270    0.0000 N   0  0  0  0  0  0  0  0  0  0  0  0
   -1.1380    3.2260    0.0000 C   0  0  0  0  0  0  0  0  0  0  0  0
    0.3620    3.2260    0.0000 C   0  0  0  0  0  0  0  0  0  0  0  0
    3.3620    0.6280    0.0000 C   0  0  0  0  0  0  0  0  0  0  0  0
    4.8620    0.6280    0.0000 C   0  0  0  0  0  0  0  0  0  0  0  0
    5.6120    1.9270    0.0000 C   0  0  0  0  0  0  0  0  0  0  0  0
    7.1120    1.9270    0.0000 O   0  0  0  0  0  0  0  0  0  0  0  0
    4.8620    3.2260    0.0000 N   0  0  0  0  0  0  0  0  0  0  0  0
  1  2  2  0  0  0  0
  2  3  1  0  0  0  0
  2 16  1  0  0  0  0
  3  4  1  0  0  0  0
  3 12  1  0  0  0  0
  4  5  1  0  0  0  0
  4 11  1  0  0  0  0
  5  6  1  0  0  0  0
  5  7  1  0  0  0  0
  5  8  1  0  0  0  0
  8  9  1  0  0  0  0
  9 10  1  0  0  0  0
 10 11  1  0  0  0  0
 12 13  2  0  0  0  0
 13 14  1  0  0  0  0
 14 15  2  0  0  0  0
 14 16  1  0  0  0  0
M  END
>  <name>
O=C1N(C2C(O)(C)C[N;amide]CC2)C=CC(=O)N1

>  <apo>
1

>  <freq>
1

>  <freq0>
0

>  <freq1>
1

>  <freqA>
0.99700278

>  <a_count>
31

$$$$

  MOE2015           2D

 18 19  0  0  1  0  0  0  0  0999 V2000
    2.4810   -4.3280    0.0000 O   0  0  0  0  0  0  0  0  0  0  0  0
    3.2390   -3.0340    0.0000 C   0  0  0  0  0  0  0  0  0  0  0  0
    2.4970   -1.7300    0.0000 N   0  0  0  0  0  0  0  0  0  0  0  0
    0.9970   -1.7210    0.0000 C   0  0  1  0  0  0  0  0  0  0  0  0
    0.1230   -0.5010    0.0000 C   0  0  2  0  0  0  0  0  0  0  0  0
    0.5960    0.9220    0.0000 O   0  0  0  0  0  0  0  0  0  0  0  0
   -1.3060   -0.9560    0.0000 C   0  0  2  0  0  0  0  0  0  0  0  0
   -2.5140   -0.0670    0.0000 O   0  0  0  0  0  0  0  0  0  0  0  0
   -1.3160   -2.4560    0.0000 C   0  0  1  0  0  0  0  0  0  0  0  0
   -2.5350   -3.3300    0.0000 C   0  0  0  0  0  0  0  0  0  0  0  0
   -2.3880   -4.8230    0.0000 O   0  0  0  0  0  0  0  0  0  0  0  0
    0.1080   -2.9280    0.0000 O   0  0  0  0  0  0  0  0  0  0  0  0
    3.2550   -0.4360    0.0000 C   0  0  0  0  0  0  0  0  0  0  0  0
    4.7550   -0.4450    0.0000 C   0  0  0  0  0  0  0  0  0  0  0  0
    5.4970   -1.7490    0.0000 C   0  0  0  0  0  0  0  0  0  0  0  0
    6.9970   -1.7580    0.0000 N   0  0  0  0  0  0  0  0  0  0  0  0
    7.7550   -0.4640    0.0000 O   0  0  0  0  0  0  0  0  0  0  0  0
    4.7390   -3.0430    0.0000 N   0  0  0  0  0  0  0  0  0  0  0  0
  1  2  2  0  0  0  0
  2  3  1  0  0  0  0
  2 18  1  0  0  0  0
  4  3  1  6  0  0  0
  3 13  1  0  0  0  0
  4  5  1  0  0  0  0
  4 12  1  0  0  0  0
  5  6  1  1  0  0  0
  5  7  1  0  0  0  0
  7  8  1  1  0  0  0
  7  9  1  0  0  0  0
  9 10  1  6  0  0  0
  9 12  1  0  0  0  0
 10 11  1  0  0  0  0
 13 14  2  0  0  0  0
 14 15  1  0  0  0  0
 15 16  1  0  0  0  0
 15 18  2  0  0  0  0
 16 17  1  0  0  0  0
M  END
>  <name>
O=C1N([C@H]2[C@H](O)[C@H](O)[C@@H](C[O;ester])O2)C=CC(NO)=N1

>  <apo>
1

>  <freq>
1

>  <freq0>
0

>  <freq1>
1

>  <freqA>
0.99700278

>  <a_count>
31

$$$$

  MOE2015           2D

 17 19  0  0  0  0  0  0  0  0999 V2000
    1.2790    2.2160    0.0000 O   0  0  0  0  0  0  0  0  0  0  0  0
    2.0290    0.9170    0.0000 C   0  0  0  0  0  0  0  0  0  0  0  0
    3.5290    0.9170    0.0000 N   0  0  0  0  0  0  0  0  0  0  0  0
    4.2790   -0.3820    0.0000 C   0  0  0  0  0  0  0  0  0  0  0  0
    5.7790   -0.3820    0.0000 N   0  0  0  0  0  0  0  0  0  0  0  0
    6.5290   -1.6810    0.0000 C   0  0  0  0  0  0  0  0  0  0  0  0
    8.0290   -1.6810    0.0000 C   0  0  0  0  0  0  0  0  0  0  0  0
    8.7790   -0.3820    0.0000 C   0  0  0  0  0  0  0  0  0  0  0  0
    8.0290    0.9170    0.0000 C   0  0  0  0  0  0  0  0  0  0  0  0
    6.5290    0.9170    0.0000 C   0  0  0  0  0  0  0  0  0  0  0  0
    3.5290   -1.6810    0.0000 N   0  0  0  0  0  0  0  0  0  0  0  0
    2.0290   -1.6810    0.0000 C   0  0  0  0  0  0  0  0  0  0  0  0
    1.2790   -2.9800    0.0000 N   0  0  0  0  0  0  0  0  0  0  0  0
   -0.2210   -2.9800    0.0000 C   0  0  0  0  0  0  0  0  0  0  0  0
   -0.9710   -1.6810    0.0000 C   0  0  0  0  0  0  0  0  0  0  0  0
   -0.2210   -0.3820    0.0000 C   0  0  0  0  0  0  0  0  0  0  0  0
    1.2790   -0.3820    0.0000 C   0  0  0  0  0  0  0  0  0  0  0  0
  1  2  2  0  0  0  0
  2  3  1  0  0  0  0
  2 17  1  0  0  0  0
  3  4  1  0  0  0  0
  4  5  1  0  0  0  0
  4 11  2  0  0  0  0
  5  6  1  0  0  0  0
  5 10  1  0  0  0  0
  6  7  1  0  0  0  0
  7  8  1  0  0  0  0
  8  9  1  0  0  0  0
  9 10  1  0  0  0  0
 11 12  1  0  0  0  0
 12 13  1  0  0  0  0
 12 17  2  0  0  0  0
 13 14  2  0  0  0  0
 14 15  1  0  0  0  0
 15 16  2  0  0  0  0
 16 17  1  0  0  0  0
M  END
>  <name>
O=C1NC(N2CCCCC2)=Nc2ncc[c;biphenyl]c12

>  <apo>
1

>  <freq>
1

>  <freq0>
0

>  <freq1>
1

>  <freqA>
0.99700278

>  <a_count>
31

$$$$

  MOE2015           2D

 13 15  0  0  0  0  0  0  0  0999 V2000
    9.1470    0.1560    0.0000 O   0  0  0  0  0  0  0  0  0  0  0  0
    7.8700    0.9430    0.0000 C   0  0  0  0  0  0  0  0  0  0  0  0
    6.5500    0.2300    0.0000 C   0  0  0  0  0  0  0  0  0  0  0  0
    5.2720    1.0160    0.0000 C   0  0  0  0  0  0  0  0  0  0  0  0
    3.7160    0.8280    0.0000 C   0  0  0  0  0  0  0  0  0  0  0  0
    2.4200    1.6800    0.0000 C   0  0  0  0  0  0  0  0  0  0  0  0
    2.7050    3.1270    0.0000 C   0  0  0  0  0  0  0  0  0  0  0  0
    4.2890    3.2710    0.0000 C   0  0  0  0  0  0  0  0  0  0  0  0
    5.5410    2.4640    0.0000 C   0  0  0  0  0  0  0  0  0  0  0  0
    3.2630    2.3160    0.0000 C   0  0  0  0  0  0  0  0  0  0  0  0
    2.9570    0.9710    0.0000 C   0  0  0  0  0  0  0  0  0  0  0  0
    4.1620    0.1700    0.0000 C   0  0  0  0  0  0  0  0  0  0  0  0
    1.2760    0.6780    0.0000 C   0  0  0  0  0  0  0  0  0  0  0  0
  1  2  2  0  0  0  0
  2  3  1  0  0  0  0
  3  4  1  0  0  0  0
  4  5  1  0  0  0  0
  4  9  1  0  0  0  0
  4 12  1  0  0  0  0
  5  6  1  0  0  0  0
  6  7  1  0  0  0  0
  6 13  1  0  0  0  0
  7  8  1  0  0  0  0
  8  9  1  0  0  0  0
  8 10  1  0  0  0  0
 10 11  1  0  0  0  0
 11 12  1  0  0  0  0
 11 13  1  0  0  0  0
M  END
>  <name>
O=[C;amide]CC12CC3CC(C1)CC(C2)C3

>  <apo>
1

>  <freq>
1

>  <freq0>
0

>  <freq1>
1

>  <freqA>
0.99700278

>  <a_count>
31

$$$$

  MOE2015           2D

 11 10  0  0  0  0  0  0  0  0999 V2000
   12.2910   -3.2930    0.0000 O   0  0  0  0  0  0  0  0  0  0  0  0
   10.9920   -2.5430    0.0000 C   0  0  0  0  0  0  0  0  0  0  0  0
    9.6930   -3.2930    0.0000 C   0  0  0  0  0  0  0  0  0  0  0  0
    8.3940   -2.5430    0.0000 C   0  0  0  0  0  0  0  0  0  0  0  0
    7.0940   -3.2930    0.0000 C   0  0  0  0  0  0  0  0  0  0  0  0
    5.7950   -2.5430    0.0000 C   0  0  0  0  0  0  0  0  0  0  0  0
    4.4960   -3.2930    0.0000 C   0  0  0  0  0  0  0  0  0  0  0  0
    3.1970   -2.5430    0.0000 C   0  0  0  0  0  0  0  0  0  0  0  0
    1.8980   -3.2930    0.0000 C   0  0  0  0  0  0  0  0  0  0  0  0
    0.5990   -2.5430    0.0000 C   0  0  0  0  0  0  0  0  0  0  0  0
   -0.7000   -3.2930    0.0000 C   0  0  0  0  0  0  0  0  0  0  0  0
  1  2  2  0  0  0  0
  2  3  1  0  0  0  0
  3  4  1  0  0  0  0
  4  5  1  0  0  0  0
  5  6  1  0  0  0  0
  6  7  1  0  0  0  0
  7  8  1  0  0  0  0
  8  9  1  0  0  0  0
  9 10  1  0  0  0  0
 10 11  1  0  0  0  0
M  END
>  <name>
O=[C;amide]CCCCCCCCC

>  <apo>
1

>  <freq>
1

>  <freq0>
0

>  <freq1>
1

>  <freqA>
0.99700278

>  <a_count>
31

$$$$

  MOE2015           2D

 16 18  0  0  1  0  0  0  0  0999 V2000
    5.2660   -0.3680    0.0000 O   0  0  0  0  0  0  0  0  0  0  0  0
    5.4100   -1.8610    0.0000 C   0  0  3  0  0  0  0  0  0  0  0  0
    4.2870   -2.8550    0.0000 C   0  0  3  0  0  0  0  0  0  0  0  0
    2.8230   -2.5310    0.0000 N   0  0  0  0  0  0  0  0  0  0  0  0
    1.7000   -3.5260    0.0000 C   0  0  0  0  0  0  0  0  0  0  0  0
    1.6870   -5.0260    0.0000 N   0  0  0  0  0  0  0  0  0  0  0  0
    0.3820   -5.7650    0.0000 C   0  0  0  0  0  0  0  0  0  0  0  0
   -0.9110   -5.0040    0.0000 N   0  0  0  0  0  0  0  0  0  0  0  0
   -0.8980   -3.5040    0.0000 C   0  0  3  0  0  0  0  0  0  0  0  0
   -2.1910   -2.7430    0.0000 N   0  3  0  0  0  0  0  0  0  0  0  0
    0.4070   -2.7650    0.0000 C   0  0  0  0  0  0  0  0  0  0  0  0
    0.7310   -1.3000    0.0000 N   0  0  0  0  0  0  0  0  0  0  0  0
    2.2240   -1.1560    0.0000 C   0  0  0  0  0  0  0  0  0  0  0  0
    4.8860   -4.2310    0.0000 C   0  0  0  0  0  0  0  0  0  0  0  0
    6.3790   -4.0860    0.0000 N   0  0  0  0  0  0  0  0  0  0  0  0
    6.7030   -2.6220    0.0000 C   0  0  0  0  0  0  0  0  0  0  0  0
  1  2  1  0  0  0  0
  2  3  1  0  0  0  0
  2 16  1  0  0  0  0
  3  4  1  0  0  0  0
  3 14  1  0  0  0  0
  4  5  1  0  0  0  0
  4 13  1  0  0  0  0
  5  6  2  0  0  0  0
  5 11  1  0  0  0  0
  6  7  1  0  0  0  0
  7  8  2  0  0  0  0
  8  9  1  0  0  0  0
  9 10  1  0  0  0  0
  9 11  1  0  0  0  0
 11 12  2  0  0  0  0
 12 13  1  0  0  0  0
 14 15  1  0  0  0  0
 15 16  1  0  0  0  0
M  CHG  1  10   1
M  END
>  <name>
OC1C(N2C3=NC=NC([N+])C3=NC2)C[N;amide]C1

>  <apo>
1

>  <freq>
1

>  <freq0>
0

>  <freq1>
1

>  <freqA>
0.99700278

>  <a_count>
31

$$$$

  MOE2015           2D

 18 18  0  0  0  0  0  0  0  0999 V2000
   -3.8600   -1.0340    0.0000 S   0  0  0  0  0  0  0  0  0  0  0  0
   -5.1590   -1.7840    0.0000 O   0  0  0  0  0  0  0  0  0  0  0  0
   -2.5610   -0.2840    0.0000 O   0  0  0  0  0  0  0  0  0  0  0  0
   -3.1100   -2.3330    0.0000 N   0  0  0  0  0  0  0  0  0  0  0  0
   -3.8600   -3.6320    0.0000 S   0  0  0  0  0  0  0  0  0  0  0  0
   -5.1590   -2.8820    0.0000 O   0  0  0  0  0  0  0  0  0  0  0  0
   -2.5610   -4.3820    0.0000 O   0  0  0  0  0  0  0  0  0  0  0  0
   -4.6100   -4.9310    0.0000 C   0  0  0  0  0  0  0  0  0  0  0  0
   -1.6100   -2.3330    0.0000 C   0  0  0  0  0  0  0  0  0  0  0  0
   -0.8600   -3.6320    0.0000 C   0  0  0  0  0  0  0  0  0  0  0  0
    0.6400   -3.6320    0.0000 C   0  0  0  0  0  0  0  0  0  0  0  0
    1.3900   -2.3330    0.0000 C   0  0  0  0  0  0  0  0  0  0  0  0
    2.8900   -2.3330    0.0000 C   0  0  0  0  0  0  0  0  0  0  0  0
    3.6400   -1.0340    0.0000 O   0  0  0  0  0  0  0  0  0  0  0  0
    3.6400   -3.6320    0.0000 C   0  0  0  0  0  0  0  0  0  0  0  0
    0.6400   -1.0340    0.0000 C   0  0  0  0  0  0  0  0  0  0  0  0
   -0.8600   -1.0340    0.0000 C   0  0  0  0  0  0  0  0  0  0  0  0
   -4.6100    0.2650    0.0000 C   0  0  0  0  0  0  0  0  0  0  0  0
  1  2  2  0  0  0  0
  1  3  2  0  0  0  0
  1  4  1  0  0  0  0
  1 18  1  0  0  0  0
  4  5  1  0  0  0  0
  4  9  1  0  0  0  0
  5  6  2  0  0  0  0
  5  7  2  0  0  0  0
  5  8  1  0  0  0  0
  9 10  1  0  0  0  0
  9 17  2  0  0  0  0
 10 11  2  0  0  0  0
 11 12  1  0  0  0  0
 12 13  1  0  0  0  0
 12 16  2  0  0  0  0
 13 14  2  0  0  0  0
 13 15  1  0  0  0  0
 16 17  1  0  0  0  0
M  END
>  <name>
S(=O)(=O)(N(S(=O)(=O)C)c1ccc(C(=O)[C;olefin])cc1)C

>  <apo>
1

>  <freq>
1

>  <freq0>
0

>  <freq1>
1

>  <freqA>
0.99700278

>  <a_count>
31

$$$$

  MOE2015           2D

 20 22  0  0  0  0  0  0  0  0999 V2000
    0.3470   -2.7250    0.0000 F   0  0  0  0  0  0  0  0  0  0  0  0
    1.6460   -1.9750    0.0000 C   0  0  0  0  0  0  0  0  0  0  0  0
    1.6460   -0.4750    0.0000 C   0  0  0  0  0  0  0  0  0  0  0  0
    0.3470    0.2750    0.0000 C   0  0  0  0  0  0  0  0  0  0  0  0
    0.3470    1.7750    0.0000 C   0  0  0  0  0  0  0  0  0  0  0  0
   -0.9520    2.5250    0.0000 O   0  0  0  0  0  0  0  0  0  0  0  0
    2.9450    0.2750    0.0000 C   0  0  0  0  0  0  0  0  0  0  0  0
    4.2440   -0.4750    0.0000 C   0  0  0  0  0  0  0  0  0  0  0  0
    4.2440   -1.9750    0.0000 C   0  0  0  0  0  0  0  0  0  0  0  0
    5.5430   -2.7250    0.0000 O   0  0  0  0  0  0  0  0  0  0  0  0
    6.8420   -1.9750    0.0000 C   0  0  0  0  0  0  0  0  0  0  0  0
    8.2130   -2.5850    0.0000 S   0  0  0  0  0  0  0  0  0  0  0  0
    9.2160   -1.4700    0.0000 C   0  0  0  0  0  0  0  0  0  0  0  0
    8.4660   -0.1710    0.0000 C   0  0  0  0  0  0  0  0  0  0  0  0
    6.9990   -0.4830    0.0000 N   0  0  0  0  0  0  0  0  0  0  0  0
    9.2160    1.1280    0.0000 C   0  0  0  0  0  0  0  0  0  0  0  0
   10.7160    1.1280    0.0000 C   0  0  0  0  0  0  0  0  0  0  0  0
   11.4660   -0.1710    0.0000 C   0  0  0  0  0  0  0  0  0  0  0  0
   10.7160   -1.4700    0.0000 C   0  0  0  0  0  0  0  0  0  0  0  0
    2.9450   -2.7250    0.0000 C   0  0  0  0  0  0  0  0  0  0  0  0
  1  2  1  0  0  0  0
  2  3  1  0  0  0  0
  2 20  2  0  0  0  0
  3  4  1  0  0  0  0
  3  7  2  0  0  0  0
  4  5  1  0  0  0  0
  5  6  2  0  0  0  0
  7  8  1  0  0  0  0
  8  9  2  0  0  0  0
  9 10  1  0  0  0  0
  9 20  1  0  0  0  0
 10 11  1  0  0  0  0
 11 12  1  0  0  0  0
 11 15  2  0  0  0  0
 12 13  1  0  0  0  0
 13 14  1  0  0  0  0
 13 19  2  0  0  0  0
 14 15  1  0  0  0  0
 14 16  2  0  0  0  0
 16 17  1  0  0  0  0
 17 18  2  0  0  0  0
 18 19  1  0  0  0  0
M  END
>  <name>
Fc1c(C[C;amide]=O)ccc(Oc2sc3c(n2)cccc3)c1

>  <apo>
1

>  <freq>
1

>  <freq0>
0

>  <freq1>
1

>  <freqA>
0.99700278

>  <a_count>
30

$$$$

  MOE2015           2D

 16 17  0  0  1  0  0  0  0  0999 V2000
    0.8960    3.3430    0.0000 F   0  0  0  0  0  0  0  0  0  0  0  0
    2.1950    2.5930    0.0000 C   0  0  0  0  0  0  0  0  0  0  0  0
    2.1950    1.0930    0.0000 C   0  0  0  0  0  0  0  0  0  0  0  0
    0.8960    0.3430    0.0000 C   0  0  1  0  0  0  0  0  0  0  0  0
   -0.6040    0.3430    0.0000 C   0  0  1  0  0  0  0  0  0  0  0  0
   -1.9030    1.0930    0.0000 N   0  0  0  0  0  0  0  0  0  0  0  0
    0.1460   -0.9560    0.0000 C   0  0  0  0  0  0  0  0  0  0  0  0
    3.4940    0.3430    0.0000 C   0  0  0  0  0  0  0  0  0  0  0  0
    3.4940   -1.1570    0.0000 O   0  0  0  0  0  0  0  0  0  0  0  0
    4.7930    1.0930    0.0000 C   0  0  0  0  0  0  0  0  0  0  0  0
    6.0920    0.3430    0.0000 C   0  0  0  0  0  0  0  0  0  0  0  0
    6.0920   -1.1570    0.0000 O   0  0  0  0  0  0  0  0  0  0  0  0
    7.3910    1.0930    0.0000 C   0  0  0  0  0  0  0  0  0  0  0  0
    8.6900    0.3430    0.0000 C   0  0  0  0  0  0  0  0  0  0  0  0
    4.7930    2.5930    0.0000 C   0  0  0  0  0  0  0  0  0  0  0  0
    3.4940    3.3430    0.0000 C   0  0  0  0  0  0  0  0  0  0  0  0
  1  2  1  0  0  0  0
  2  3  2  0  0  0  0
  2 16  1  0  0  0  0
  4  3  1  6  0  0  0
  3  8  1  0  0  0  0
  4  5  1  0  0  0  0
  4  7  1  0  0  0  0
  5  6  1  6  0  0  0
  5  7  1  0  0  0  0
  8  9  1  0  0  0  0
  8 10  2  0  0  0  0
 10 11  1  0  0  0  0
 10 15  1  0  0  0  0
 11 12  2  0  0  0  0
 11 13  1  0  0  0  0
 13 14  1  0  0  0  0
 15 16  2  0  0  0  0
M  END
>  <name>
Fc1c([C@H]2[C@@H]([N;urea])C2)c(O)c(C(=O)CC)cc1

>  <apo>
1

>  <freq>
1

>  <freq0>
0

>  <freq1>
1

>  <freqA>
0.99700278

>  <a_count>
30

$$$$

  MOE2015           2D

 15 15  0  0  0  0  0  0  0  0999 V2000
    8.2670   -2.2150    0.0000 O   0  0  0  0  0  0  0  0  0  0  0  0
    6.9680   -1.4650    0.0000 C   0  0  0  0  0  0  0  0  0  0  0  0
    5.6690   -2.2150    0.0000 N   0  0  0  0  0  0  0  0  0  0  0  0
    5.6690   -3.7150    0.0000 O   0  0  0  0  0  0  0  0  0  0  0  0
    6.9680   -4.4650    0.0000 C   0  0  0  0  0  0  0  0  0  0  0  0
    4.3700   -1.4650    0.0000 C   0  0  0  0  0  0  0  0  0  0  0  0
    3.0710   -2.2150    0.0000 C   0  0  0  0  0  0  0  0  0  0  0  0
    1.7720   -1.4650    0.0000 C   0  0  0  0  0  0  0  0  0  0  0  0
    1.7720    0.0350    0.0000 O   0  0  0  0  0  0  0  0  0  0  0  0
    0.4730    0.7850    0.0000 C   0  0  0  0  0  0  0  0  0  0  0  0
    0.4730   -2.2150    0.0000 C   0  0  0  0  0  0  0  0  0  0  0  0
    0.4730   -3.7150    0.0000 C   0  0  0  0  0  0  0  0  0  0  0  0
    1.7720   -4.4650    0.0000 C   0  0  0  0  0  0  0  0  0  0  0  0
    3.0710   -3.7150    0.0000 C   0  0  0  0  0  0  0  0  0  0  0  0
    6.9680    0.0350    0.0000 C   0  0  0  0  0  0  0  0  0  0  0  0
  1  2  2  0  0  0  0
  2  3  1  0  0  0  0
  2 15  1  0  0  0  0
  3  4  1  0  0  0  0
  3  6  1  0  0  0  0
  4  5  1  0  0  0  0
  6  7  1  0  0  0  0
  7  8  1  0  0  0  0
  7 14  2  0  0  0  0
  8  9  1  0  0  0  0
  8 11  2  0  0  0  0
  9 10  1  0  0  0  0
 11 12  1  0  0  0  0
 12 13  2  0  0  0  0
 13 14  1  0  0  0  0
M  END
>  <name>
O=C(N(OC)Cc1c(OC)cccc1)[C;thioether]

>  <apo>
1

>  <freq>
1

>  <freq0>
0

>  <freq1>
1

>  <freqA>
0.99700278

>  <a_count>
30

$$$$

  MOE2015           2D

 14 14  0  0  1  0  0  0  0  0999 V2000
    4.5000    4.0830    0.0000 O   0  0  0  0  0  0  0  0  0  0  0  0
    3.7500    2.7840    0.0000 C   0  0  0  0  0  0  0  0  0  0  0  0
    4.5000    1.4850    0.0000 C   0  0  1  0  0  0  0  0  0  0  0  0
    6.0000    1.4850    0.0000 C   0  0  0  0  0  0  0  0  0  0  0  0
    6.7500    0.1860    0.0000 C   0  0  1  0  0  0  0  0  0  0  0  0
    6.0000   -1.1130    0.0000 O   0  0  0  0  0  0  0  0  0  0  0  0
    8.2500    0.1860    0.0000 C   0  0  0  0  0  0  0  0  0  0  0  0
    3.7500    0.1860    0.0000 C   0  0  0  0  0  0  0  0  0  0  0  0
    2.2500    0.1860    0.0000 C   0  0  0  0  0  0  0  0  0  0  0  0
    1.5000    1.4850    0.0000 C   0  0  0  0  0  0  0  0  0  0  0  0
    0.0000    1.4850    0.0000 C   0  0  0  0  0  0  0  0  0  0  0  0
   -0.7500    0.1860    0.0000 C   0  0  0  0  0  0  0  0  0  0  0  0
    0.0000   -1.1130    0.0000 C   0  0  0  0  0  0  0  0  0  0  0  0
    1.5000   -1.1130    0.0000 C   0  0  0  0  0  0  0  0  0  0  0  0
  1  2  2  0  0  0  0
  3  2  1  1  0  0  0
  3  4  1  0  0  0  0
  3  8  1  0  0  0  0
  4  5  1  0  0  0  0
  5  6  1  6  0  0  0
  5  7  1  0  0  0  0
  8  9  1  0  0  0  0
  9 10  1  0  0  0  0
  9 14  2  0  0  0  0
 10 11  2  0  0  0  0
 11 12  1  0  0  0  0
 12 13  2  0  0  0  0
 13 14  1  0  0  0  0
M  END
>  <name>
O=[C;amide][C@@H](C[C@@H](O)[C;amine])Cc1ccccc1

>  <apo>
2

>  <freq>
1

>  <freq0>
0

>  <freq1>
1

>  <freqA>
0.99700278

>  <a_count>
30

$$$$

  MOE2015           2D

 13 13  0  0  1  0  0  0  0  0999 V2000
    8.9330   -4.6590    0.0000 O   0  0  0  0  0  0  0  0  0  0  0  0
    8.0750   -3.4290    0.0000 C   0  0  0  0  0  0  0  0  0  0  0  0
    6.5800   -3.5570    0.0000 C   0  0  1  0  0  0  0  0  0  0  0  0
    5.5980   -2.4240    0.0000 N   0  0  0  0  0  0  0  0  0  0  0  0
    4.2160   -3.0080    0.0000 C   0  0  0  0  0  0  0  0  0  0  0  0
    2.9320   -2.2330    0.0000 C   0  0  1  0  0  0  0  0  0  0  0  0
    2.9600   -0.7340    0.0000 N   0  3  0  0  0  0  0  0  0  0  0  0
    1.6190   -2.9590    0.0000 C   0  0  2  0  0  0  0  0  0  0  0  0
    0.3340   -2.1840    0.0000 C   0  0  0  0  0  0  0  0  0  0  0  0
   -0.9790   -2.9100    0.0000 C   0  0  0  0  0  0  0  0  0  0  0  0
    1.5900   -4.4580    0.0000 C   0  0  0  0  0  0  0  0  0  0  0  0
    4.3450   -4.5020    0.0000 S   0  0  0  0  0  0  0  0  0  0  0  0
    5.8060   -4.8420    0.0000 C   0  0  0  0  0  0  0  0  0  0  0  0
  1  2  2  0  0  0  0
  3  2  1  6  0  0  0
  3  4  1  0  0  0  0
  3 13  1  0  0  0  0
  4  5  2  0  0  0  0
  5  6  1  0  0  0  0
  5 12  1  0  0  0  0
  6  7  1  6  0  0  0
  6  8  1  0  0  0  0
  8  9  1  0  0  0  0
  8 11  1  1  0  0  0
  9 10  1  0  0  0  0
 12 13  1  0  0  0  0
M  CHG  1   7   1
M  END
>  <name>
O=[C;amide][C@H]1N=C([C@@H]([N+])[C@H](CC)C)SC1

>  <apo>
1

>  <freq>
1

>  <freq0>
0

>  <freq1>
1

>  <freqA>
0.99700278

>  <a_count>
30

$$$$

  MOE2015           2D

 16 17  0  0  1  0  0  0  0  0999 V2000
   11.5180   -0.6490    0.0000 O   0  0  0  0  0  0  0  0  0  0  0  0
   10.2190   -1.3990    0.0000 C   0  0  0  0  0  0  0  0  0  0  0  0
    8.9190   -0.6490    0.0000 C   0  0  1  0  0  0  0  0  0  0  0  0
    8.9190    0.8510    0.0000 C   0  0  0  0  0  0  0  0  0  0  0  0
    7.6200   -1.3990    0.0000 C   0  0  0  0  0  0  0  0  0  0  0  0
    6.3210   -0.6490    0.0000 C   0  0  0  0  0  0  0  0  0  0  0  0
    5.0220   -1.3990    0.0000 C   0  0  0  0  0  0  0  0  0  0  0  0
    5.0220   -2.8990    0.0000 C   0  0  0  0  0  0  0  0  0  0  0  0
    3.7230   -3.6490    0.0000 C   0  0  0  0  0  0  0  0  0  0  0  0
    2.4240   -2.8990    0.0000 C   0  0  0  0  0  0  0  0  0  0  0  0
    1.1250   -3.6490    0.0000 O   0  0  0  0  0  0  0  0  0  0  0  0
   -0.1740   -2.8990    0.0000 C   0  0  0  0  0  0  0  0  0  0  0  0
    2.4240   -1.3990    0.0000 C   0  0  0  0  0  0  0  0  0  0  0  0
    3.7230   -0.6490    0.0000 C   0  0  0  0  0  0  0  0  0  0  0  0
    6.3210   -3.6490    0.0000 C   0  0  0  0  0  0  0  0  0  0  0  0
    7.6200   -2.8990    0.0000 C   0  0  0  0  0  0  0  0  0  0  0  0
  1  2  2  0  0  0  0
  2  3  1  0  0  0  0
  3  4  1  6  0  0  0
  3  5  1  0  0  0  0
  5  6  2  0  0  0  0
  5 16  1  0  0  0  0
  6  7  1  0  0  0  0
  7  8  1  0  0  0  0
  7 14  2  0  0  0  0
  8  9  2  0  0  0  0
  8 15  1  0  0  0  0
  9 10  1  0  0  0  0
 10 11  1  0  0  0  0
 10 13  2  0  0  0  0
 11 12  1  0  0  0  0
 13 14  1  0  0  0  0
 15 16  2  0  0  0  0
M  END
>  <name>
O=[C;ester][C@@H](C)c1cc2c(cc(OC)cc2)cc1

>  <apo>
1

>  <freq>
1

>  <freq0>
0

>  <freq1>
1

>  <freqA>
0.99700278

>  <a_count>
30

$$$$

  MOE2015           2D

 16 17  0  0  1  0  0  0  0  0999 V2000
   11.5180   -0.6490    0.0000 O   0  0  0  0  0  0  0  0  0  0  0  0
   10.2190   -1.3990    0.0000 C   0  0  0  0  0  0  0  0  0  0  0  0
    8.9190   -0.6490    0.0000 C   0  0  2  0  0  0  0  0  0  0  0  0
    8.9190    0.8510    0.0000 C   0  0  0  0  0  0  0  0  0  0  0  0
    7.6200   -1.3990    0.0000 C   0  0  0  0  0  0  0  0  0  0  0  0
    6.3210   -0.6490    0.0000 C   0  0  0  0  0  0  0  0  0  0  0  0
    5.0220   -1.3990    0.0000 C   0  0  0  0  0  0  0  0  0  0  0  0
    5.0220   -2.8990    0.0000 C   0  0  0  0  0  0  0  0  0  0  0  0
    3.7230   -3.6490    0.0000 C   0  0  0  0  0  0  0  0  0  0  0  0
    2.4240   -2.8990    0.0000 C   0  0  0  0  0  0  0  0  0  0  0  0
    1.1250   -3.6490    0.0000 O   0  0  0  0  0  0  0  0  0  0  0  0
   -0.1740   -2.8990    0.0000 C   0  0  0  0  0  0  0  0  0  0  0  0
    2.4240   -1.3990    0.0000 C   0  0  0  0  0  0  0  0  0  0  0  0
    3.7230   -0.6490    0.0000 C   0  0  0  0  0  0  0  0  0  0  0  0
    6.3210   -3.6490    0.0000 C   0  0  0  0  0  0  0  0  0  0  0  0
    7.6200   -2.8990    0.0000 C   0  0  0  0  0  0  0  0  0  0  0  0
  1  2  2  0  0  0  0
  2  3  1  0  0  0  0
  3  4  1  1  0  0  0
  3  5  1  0  0  0  0
  5  6  2  0  0  0  0
  5 16  1  0  0  0  0
  6  7  1  0  0  0  0
  7  8  1  0  0  0  0
  7 14  2  0  0  0  0
  8  9  2  0  0  0  0
  8 15  1  0  0  0  0
  9 10  1  0  0  0  0
 10 11  1  0  0  0  0
 10 13  2  0  0  0  0
 11 12  1  0  0  0  0
 13 14  1  0  0  0  0
 15 16  2  0  0  0  0
M  END
>  <name>
O=[C;ester][C@H](C)c1cc2c(cc(OC)cc2)cc1

>  <apo>
1

>  <freq>
1

>  <freq0>
0

>  <freq1>
1

>  <freqA>
0.99700278

>  <a_count>
30

$$$$

  MOE2015           2D

 17 17  0  0  1  0  0  0  0  0999 V2000
    7.1110   -4.2400    0.0000 P   0  0  0  0  0  0  0  0  0  0  0  0
    6.3610   -5.5390    0.0000 O   0  0  0  0  0  0  0  0  0  0  0  0
    5.8120   -3.4900    0.0000 O   0  0  0  0  0  0  0  0  0  0  0  0
    4.5130   -4.2400    0.0000 C   0  0  0  0  0  0  0  0  0  0  0  0
    3.2140   -3.4900    0.0000 C   0  0  0  0  0  0  0  0  0  0  0  0
    3.2140   -1.9900    0.0000 O   0  0  0  0  0  0  0  0  0  0  0  0
    1.9150   -4.2400    0.0000 C   0  0  1  0  0  0  0  0  0  0  0  0
    1.9150   -5.7400    0.0000 N   0  0  0  0  0  0  0  0  0  0  0  0
    0.6160   -3.4900    0.0000 C   0  0  0  0  0  0  0  0  0  0  0  0
   -0.6830   -4.2400    0.0000 C   0  0  1  0  0  0  0  0  0  0  0  0
   -2.0530   -3.6290    0.0000 C   0  0  0  0  0  0  0  0  0  0  0  0
   -2.3650   -2.1620    0.0000 O   0  0  0  0  0  0  0  0  0  0  0  0
   -3.0570   -4.7440    0.0000 N   0  0  0  0  0  0  0  0  0  0  0  0
   -2.3070   -6.0430    0.0000 C   0  0  0  0  0  0  0  0  0  0  0  0
   -0.8400   -5.7310    0.0000 C   0  0  0  0  0  0  0  0  0  0  0  0
    7.8610   -2.9410    0.0000 O   0  5  0  0  0  0  0  0  0  0  0  0
    8.4100   -4.9900    0.0000 O   0  5  0  0  0  0  0  0  0  0  0  0
  1  2  2  0  0  0  0
  1  3  1  0  0  0  0
  1 16  1  0  0  0  0
  1 17  1  0  0  0  0
  3  4  1  0  0  0  0
  4  5  1  0  0  0  0
  5  6  2  0  0  0  0
  5  7  1  0  0  0  0
  7  8  1  1  0  0  0
  7  9  1  0  0  0  0
 10  9  1  6  0  0  0
 10 11  1  0  0  0  0
 10 15  1  0  0  0  0
 11 12  2  0  0  0  0
 11 13  1  0  0  0  0
 13 14  1  0  0  0  0
 14 15  1  0  0  0  0
M  CHG  1  16  -1
M  CHG  1  17  -1
M  END
>  <name>
P(=O)(OCC(=O)[C@@H]([N;amide])C[C@H]1C(=O)NCC1)([O-])[O-]

>  <apo>
1

>  <freq>
1

>  <freq0>
0

>  <freq1>
1

>  <freqA>
0.99700278

>  <a_count>
30

$$$$

  MOE2015           2D

 19 19  0  0  1  0  0  0  0  0999 V2000
    5.5860   -5.5860    0.0000 S   0  0  0  0  0  0  0  0  0  0  0  0
    5.5860   -4.0860    0.0000 O   0  0  0  0  0  0  0  0  0  0  0  0
    5.5860   -7.0860    0.0000 O   0  0  0  0  0  0  0  0  0  0  0  0
    4.0860   -5.5860    0.0000 O   0  0  0  0  0  0  0  0  0  0  0  0
    3.3360   -4.2870    0.0000 C   0  0  0  0  0  0  0  0  0  0  0  0
    1.8360   -4.2870    0.0000 C   0  0  2  0  0  0  0  0  0  0  0  0
    1.0860   -2.9880    0.0000 C   0  0  1  0  0  0  0  0  0  0  0  0
    1.8360   -1.6890    0.0000 O   0  0  0  0  0  0  0  0  0  0  0  0
   -0.4140   -2.9880    0.0000 C   0  0  2  0  0  0  0  0  0  0  0  0
   -1.1640   -1.6890    0.0000 O   0  0  0  0  0  0  0  0  0  0  0  0
   -1.1640   -4.2870    0.0000 C   0  0  2  0  0  0  0  0  0  0  0  0
   -2.6640   -4.2870    0.0000 N   0  0  0  0  0  0  0  0  0  0  0  0
   -3.4140   -5.5860    0.0000 S   0  0  0  0  0  0  0  0  0  0  0  0
   -2.1150   -6.3360    0.0000 O   0  0  0  0  0  0  0  0  0  0  0  0
   -4.7130   -4.8360    0.0000 O   0  0  0  0  0  0  0  0  0  0  0  0
   -4.1640   -6.8850    0.0000 O   0  5  0  0  0  0  0  0  0  0  0  0
   -0.4140   -5.5860    0.0000 C   0  0  0  0  0  0  0  0  0  0  0  0
    1.0860   -5.5860    0.0000 O   0  0  0  0  0  0  0  0  0  0  0  0
    7.0860   -5.5860    0.0000 O   0  5  0  0  0  0  0  0  0  0  0  0
  1  2  2  0  0  0  0
  1  3  2  0  0  0  0
  1  4  1  0  0  0  0
  1 19  1  0  0  0  0
  4  5  1  0  0  0  0
  6  5  1  1  0  0  0
  6  7  1  0  0  0  0
  6 18  1  0  0  0  0
  7  8  1  6  0  0  0
  7  9  1  0  0  0  0
  9 10  1  1  0  0  0
  9 11  1  0  0  0  0
 11 12  1  1  0  0  0
 11 17  1  0  0  0  0
 12 13  1  0  0  0  0
 13 14  2  0  0  0  0
 13 15  2  0  0  0  0
 13 16  1  0  0  0  0
 17 18  1  0  0  0  0
M  CHG  1  16  -1
M  CHG  1  19  -1
M  END
>  <name>
S(=O)(=O)(OC[C@@H]1[C@@H](O)[C@H](O)[C@H](NS(=O)(=O)[O-])[C;ether]O1)[O-]

>  <apo>
1

>  <freq>
1

>  <freq0>
0

>  <freq1>
1

>  <freqA>
0.99700278

>  <a_count>
30

$$$$

  MOE2015           2D

 12 12  0  0  0  0  0  0  0  0999 V2000
    0.0000    0.0000    0.0000 C   0  0  0  0  0  0  0  0  0  0  0  0
    1.5000    0.0000    0.0000 C   0  0  0  0  0  0  0  0  0  0  0  0
    2.2500    1.2990    0.0000 C   0  0  0  0  0  0  0  0  0  0  0  0
    1.5000    2.5980    0.0000 C   0  0  0  0  0  0  0  0  0  0  0  0
    3.7500    1.2990    0.0000 C   0  0  0  0  0  0  0  0  0  0  0  0
    4.5000    2.5980    0.0000 C   0  0  0  0  0  0  0  0  0  0  0  0
    4.5000    0.0000    0.0000 C   0  0  0  0  0  0  0  0  0  0  0  0
    6.0000    0.0000    0.0000 C   0  0  0  0  0  0  0  0  0  0  0  0
    3.7500   -1.2990    0.0000 C   0  0  0  0  0  0  0  0  0  0  0  0
    4.5000   -2.5980    0.0000 C   0  0  0  0  0  0  0  0  0  0  0  0
    2.2500   -1.2990    0.0000 C   0  0  0  0  0  0  0  0  0  0  0  0
    1.5000   -2.5980    0.0000 C   0  0  0  0  0  0  0  0  0  0  0  0
  1  2  1  0  0  0  0
  2  3  1  0  0  0  0
  2 11  2  0  0  0  0
  3  4  1  0  0  0  0
  3  5  2  0  0  0  0
  5  6  1  0  0  0  0
  5  7  1  0  0  0  0
  7  8  1  0  0  0  0
  7  9  2  0  0  0  0
  9 10  1  0  0  0  0
  9 11  1  0  0  0  0
 11 12  1  0  0  0  0
M  END
>  <name>
[C;amine]c1c([C;amine])c([C;amine])c([C;amine])c([C;amine])c1[C;amine]

>  <apo>
6

>  <freq>
1

>  <freq0>
0

>  <freq1>
1

>  <freqA>
0.99700278

>  <a_count>
30

$$$$

  MOE2015           2D

 15 15  0  0  0  0  0  0  0  0999 V2000
    1.6200    1.6070    0.0000 O   0  0  0  0  0  0  0  0  0  0  0  0
    1.6080    0.1070    0.0000 C   0  0  0  0  0  0  0  0  0  0  0  0
    2.9010   -0.6530    0.0000 C   0  0  0  0  0  0  0  0  0  0  0  0
    4.2060    0.0870    0.0000 C   0  0  0  0  0  0  0  0  0  0  0  0
    5.4990   -0.6740    0.0000 C   0  0  0  0  0  0  0  0  0  0  0  0
    6.8040    0.0660    0.0000 C   0  0  0  0  0  0  0  0  0  0  0  0
    8.0970   -0.6940    0.0000 C   0  0  0  0  0  0  0  0  0  0  0  0
    9.4020    0.0450    0.0000 O   0  0  0  0  0  0  0  0  0  0  0  0
    0.3030   -0.6320    0.0000 C   0  0  0  0  0  0  0  0  0  0  0  0
   -1.0620   -0.0110    0.0000 C   0  0  0  0  0  0  0  0  0  0  0  0
   -1.3620    1.4580    0.0000 C   0  0  0  0  0  0  0  0  0  0  0  0
   -2.0750   -1.1180    0.0000 N   0  0  0  0  0  0  0  0  0  0  0  0
   -1.3350   -2.4230    0.0000 C   0  0  0  0  0  0  0  0  0  0  0  0
   -1.9560   -3.7880    0.0000 O   0  0  0  0  0  0  0  0  0  0  0  0
    0.1350   -2.1230    0.0000 N   0  0  0  0  0  0  0  0  0  0  0  0
  1  2  2  0  0  0  0
  2  3  1  0  0  0  0
  2  9  1  0  0  0  0
  3  4  1  0  0  0  0
  4  5  1  0  0  0  0
  5  6  1  0  0  0  0
  6  7  1  0  0  0  0
  7  8  2  0  0  0  0
  9 10  2  0  0  0  0
  9 15  1  0  0  0  0
 10 11  1  0  0  0  0
 10 12  1  0  0  0  0
 12 13  1  0  0  0  0
 13 14  2  0  0  0  0
 13 15  1  0  0  0  0
M  END
>  <name>
O=C(CCCC[C;amide]=O)C1=C(C)NC(=O)N1

>  <apo>
1

>  <freq>
1

>  <freq0>
0

>  <freq1>
1

>  <freqA>
0.99700278

>  <a_count>
29

$$$$

  MOE2015           2D

 14 13  0  0  1  0  0  0  0  0999 V2000
    2.3490    0.8650    0.0000 O   0  0  0  0  0  0  0  0  0  0  0  0
    2.3490   -0.6350    0.0000 C   0  0  0  0  0  0  0  0  0  0  0  0
    3.6480   -1.3850    0.0000 O   0  0  0  0  0  0  0  0  0  0  0  0
    4.9480   -0.6350    0.0000 C   0  0  0  0  0  0  0  0  0  0  0  0
    6.2470    0.1150    0.0000 C   0  0  0  0  0  0  0  0  0  0  0  0
    4.1980    0.6640    0.0000 C   0  0  0  0  0  0  0  0  0  0  0  0
    5.6980   -1.9340    0.0000 C   0  0  0  0  0  0  0  0  0  0  0  0
    1.0500   -1.3850    0.0000 N   0  0  0  0  0  0  0  0  0  0  0  0
   -0.2490   -0.6350    0.0000 C   0  0  3  0  0  0  0  0  0  0  0  0
   -0.2490    0.8650    0.0000 C   0  0  0  0  0  0  0  0  0  0  0  0
   -1.5480    1.6150    0.0000 O   0  0  0  0  0  0  0  0  0  0  0  0
   -1.5480   -1.3850    0.0000 C   0  0  0  0  0  0  0  0  0  0  0  0
   -1.5480   -2.8850    0.0000 C   0  0  0  0  0  0  0  0  0  0  0  0
   -2.8470   -3.6350    0.0000 O   0  0  0  0  0  0  0  0  0  0  0  0
  1  2  2  0  0  0  0
  2  3  1  0  0  0  0
  2  8  1  0  0  0  0
  3  4  1  0  0  0  0
  4  5  1  0  0  0  0
  4  6  1  0  0  0  0
  4  7  1  0  0  0  0
  8  9  1  0  0  0  0
  9 10  1  0  0  0  0
  9 12  1  0  0  0  0
 10 11  2  0  0  0  0
 12 13  1  0  0  0  0
 13 14  2  0  0  0  0
M  END
>  <name>
O=C(OC(C)(C)C)NC([C;amide]=O)C[C;ester]=O

>  <apo>
2

>  <freq>
1

>  <freq0>
0

>  <freq1>
1

>  <freqA>
0.99700278

>  <a_count>
29

$$$$

  MOE2015           2D

 15 15  0  0  0  0  0  0  0  0999 V2000
    2.3390   -0.2610    0.0000 O   0  0  0  0  0  0  0  0  0  0  0  0
    2.3390    1.2390    0.0000 C   0  0  0  0  0  0  0  0  0  0  0  0
    3.6380    1.9890    0.0000 O   0  0  0  0  0  0  0  0  0  0  0  0
    4.9370    1.2390    0.0000 C   0  0  0  0  0  0  0  0  0  0  0  0
    5.6870    2.5380    0.0000 C   0  0  0  0  0  0  0  0  0  0  0  0
    6.2360    0.4890    0.0000 C   0  0  0  0  0  0  0  0  0  0  0  0
    4.1870   -0.0600    0.0000 C   0  0  0  0  0  0  0  0  0  0  0  0
    1.0400    1.9890    0.0000 N   0  0  0  0  0  0  0  0  0  0  0  0
   -0.2590    1.2390    0.0000 C   0  0  0  0  0  0  0  0  0  0  0  0
   -1.5580    1.9890    0.0000 C   0  0  0  0  0  0  0  0  0  0  0  0
   -1.5580    3.4890    0.0000 O   0  0  0  0  0  0  0  0  0  0  0  0
   -2.8570    1.2390    0.0000 N   0  0  0  0  0  0  0  0  0  0  0  0
   -2.8570   -0.2610    0.0000 C   0  0  0  0  0  0  0  0  0  0  0  0
   -1.5580   -1.0110    0.0000 C   0  0  0  0  0  0  0  0  0  0  0  0
   -0.2590   -0.2610    0.0000 C   0  0  0  0  0  0  0  0  0  0  0  0
  1  2  2  0  0  0  0
  2  3  1  0  0  0  0
  2  8  1  0  0  0  0
  3  4  1  0  0  0  0
  4  5  1  0  0  0  0
  4  6  1  0  0  0  0
  4  7  1  0  0  0  0
  8  9  1  0  0  0  0
  9 10  1  0  0  0  0
  9 15  2  0  0  0  0
 10 11  2  0  0  0  0
 10 12  1  0  0  0  0
 12 13  1  0  0  0  0
 13 14  2  0  0  0  0
 14 15  1  0  0  0  0
M  END
>  <name>
O=C(OC(C)(C)C)NC=1C(=O)[N;urea]C=CC=1

>  <apo>
1

>  <freq>
1

>  <freq0>
0

>  <freq1>
1

>  <freqA>
0.99700278

>  <a_count>
29

$$$$

  MOE2015           2D

 12 12  0  0  1  0  0  0  0  0999 V2000
    1.3030    1.2650    0.0000 O   0  0  0  0  0  0  0  0  0  0  0  0
    1.2580   -0.2340    0.0000 C   0  0  0  0  0  0  0  0  0  0  0  0
    2.5340   -1.0230    0.0000 C   0  0  1  0  0  0  0  0  0  0  0  0
    2.4900   -2.5220    0.0000 N   0  0  0  0  0  0  0  0  0  0  0  0
    3.8550   -0.3120    0.0000 C   0  0  0  0  0  0  0  0  0  0  0  0
    5.1310   -1.1010    0.0000 C   0  0  0  0  0  0  0  0  0  0  0  0
    6.4520   -0.3900    0.0000 C   0  0  0  0  0  0  0  0  0  0  0  0
    5.0870   -2.6000    0.0000 C   0  0  0  0  0  0  0  0  0  0  0  0
   -0.0620   -0.9450    0.0000 C   0  0  2  0  0  0  0  0  0  0  0  0
   -0.4070    0.5150    0.0000 C   0  0  0  0  0  0  0  0  0  0  0  0
   -1.2790   -1.8220    0.0000 O   0  0  0  0  0  0  0  0  0  0  0  0
    0.0890   -2.4380    0.0000 C   0  0  0  0  0  0  0  0  0  0  0  0
  1  2  2  0  0  0  0
  2  3  1  0  0  0  0
  9  2  1  1  0  0  0
  3  4  1  6  0  0  0
  3  5  1  0  0  0  0
  5  6  1  0  0  0  0
  6  7  1  0  0  0  0
  6  8  1  0  0  0  0
  9 10  1  6  0  0  0
  9 11  1  0  0  0  0
  9 12  1  0  0  0  0
 11 12  1  0  0  0  0
M  END
>  <name>
O=C([C@@H]([N;amide])CC(C)C)[C@]1(C)OC1

>  <apo>
1

>  <freq>
1

>  <freq0>
0

>  <freq1>
1

>  <freqA>
0.99700278

>  <a_count>
29

$$$$

  MOE2015           2D

 19 21  0  0  0  0  0  0  0  0999 V2000
    3.1160    1.3710    0.0000 O   0  0  0  0  0  0  0  0  0  0  0  0
    3.1260   -0.1290    0.0000 C   0  0  0  0  0  0  0  0  0  0  0  0
    1.8330   -0.8880    0.0000 C   0  0  0  0  0  0  0  0  0  0  0  0
    0.4580   -0.2870    0.0000 C   0  0  0  0  0  0  0  0  0  0  0  0
   -0.5380   -1.4090    0.0000 C   0  0  0  0  0  0  0  0  0  0  0  0
    0.2210   -2.7030    0.0000 S   0  0  0  0  0  0  0  0  0  0  0  0
    1.6860   -2.3810    0.0000 C   0  0  0  0  0  0  0  0  0  0  0  0
   -2.0070   -1.1080    0.0000 C   0  0  0  0  0  0  0  0  0  0  0  0
   -2.4810    0.3160    0.0000 C   0  0  0  0  0  0  0  0  0  0  0  0
   -3.9500    0.6170    0.0000 O   0  0  0  0  0  0  0  0  0  0  0  0
   -1.4850    1.4370    0.0000 C   0  0  0  0  0  0  0  0  0  0  0  0
   -0.0150    1.1360    0.0000 C   0  0  0  0  0  0  0  0  0  0  0  0
    4.4310   -0.8700    0.0000 C   0  0  0  0  0  0  0  0  0  0  0  0
    4.4410   -2.3700    0.0000 C   0  0  0  0  0  0  0  0  0  0  0  0
    5.7450   -3.1110    0.0000 C   0  0  0  0  0  0  0  0  0  0  0  0
    7.0390   -2.3520    0.0000 C   0  0  0  0  0  0  0  0  0  0  0  0
    8.3430   -3.0920    0.0000 O   0  0  0  0  0  0  0  0  0  0  0  0
    7.0290   -0.8520    0.0000 C   0  0  0  0  0  0  0  0  0  0  0  0
    5.7240   -0.1110    0.0000 C   0  0  0  0  0  0  0  0  0  0  0  0
  1  2  2  0  0  0  0
  2  3  1  0  0  0  0
  2 13  1  0  0  0  0
  3  4  1  0  0  0  0
  3  7  2  0  0  0  0
  4  5  1  0  0  0  0
  4 12  2  0  0  0  0
  5  6  1  0  0  0  0
  5  8  2  0  0  0  0
  6  7  1  0  0  0  0
  8  9  1  0  0  0  0
  9 10  1  0  0  0  0
  9 11  2  0  0  0  0
 11 12  1  0  0  0  0
 13 14  1  0  0  0  0
 13 19  2  0  0  0  0
 14 15  2  0  0  0  0
 15 16  1  0  0  0  0
 16 17  1  0  0  0  0
 16 18  2  0  0  0  0
 18 19  1  0  0  0  0
M  END
>  <name>
O=C(c1c2c(s[c;biphenyl]1)cc(O)cc2)c1ccc([O;ether])cc1

>  <apo>
2

>  <freq>
1

>  <freq0>
0

>  <freq1>
1

>  <freqA>
0.99700278

>  <a_count>
29

$$$$

  MOE2015           2D

 15 16  0  0  1  0  0  0  0  0999 V2000
    9.3530   -2.0570    0.0000 O   0  0  0  0  0  0  0  0  0  0  0  0
    7.9920   -1.4270    0.0000 C   0  0  0  0  0  0  0  0  0  0  0  0
    6.7660   -2.2920    0.0000 C   0  0  0  0  0  0  0  0  0  0  0  0
    5.3460   -1.8090    0.0000 S   0  0  0  0  0  0  0  0  0  0  0  0
    4.4480   -3.0100    0.0000 C   0  0  3  0  0  0  0  0  0  0  0  0
    5.3120   -4.2350    0.0000 N   0  0  0  0  0  0  0  0  0  0  0  0
    6.7450   -3.7920    0.0000 N   0  0  0  0  0  0  0  0  0  0  0  0
    3.7160   -1.7000    0.0000 C   0  0  0  0  0  0  0  0  0  0  0  0
    2.2160   -1.6790    0.0000 C   0  0  0  0  0  0  0  0  0  0  0  0
    1.4840   -0.3700    0.0000 O   0  0  0  0  0  0  0  0  0  0  0  0
    1.4480   -2.9680    0.0000 C   0  0  0  0  0  0  0  0  0  0  0  0
    2.1800   -4.2770    0.0000 C   0  0  0  0  0  0  0  0  0  0  0  0
    2.1590   -5.7770    0.0000 C   0  0  0  0  0  0  0  0  0  0  0  0
    0.8700   -5.0090    0.0000 C   0  0  0  0  0  0  0  0  0  0  0  0
    3.6790   -4.2980    0.0000 C   0  0  0  0  0  0  0  0  0  0  0  0
  1  2  2  0  0  0  0
  2  3  1  0  0  0  0
  3  4  1  0  0  0  0
  3  7  2  0  0  0  0
  4  5  1  0  0  0  0
  5  6  1  0  0  0  0
  5  8  1  0  0  0  0
  5 15  1  0  0  0  0
  6  7  1  0  0  0  0
  8  9  1  0  0  0  0
  9 10  2  0  0  0  0
  9 11  1  0  0  0  0
 11 12  1  0  0  0  0
 12 13  1  0  0  0  0
 12 14  1  0  0  0  0
 12 15  1  0  0  0  0
M  END
>  <name>
O=[C;amide]C=1SC2(NN=1)CC(=O)CC(C)(C)C2

>  <apo>
1

>  <freq>
1

>  <freq0>
0

>  <freq1>
1

>  <freqA>
0.99700278

>  <a_count>
29

$$$$

  MOE2015           2D

 15 16  0  0  0  0  0  0  0  0999 V2000
   11.0820    6.3980    0.0000 O   0  0  0  0  0  0  0  0  0  0  0  0
   10.3320    5.0990    0.0000 C   0  0  0  0  0  0  0  0  0  0  0  0
    8.8320    5.0990    0.0000 C   0  0  0  0  0  0  0  0  0  0  0  0
    8.0820    3.8000    0.0000 C   0  0  0  0  0  0  0  0  0  0  0  0
    6.5820    3.8000    0.0000 C   0  0  0  0  0  0  0  0  0  0  0  0
    5.7000    2.5860    0.0000 N   0  0  0  0  0  0  0  0  0  0  0  0
    4.2740    3.0500    0.0000 C   0  0  0  0  0  0  0  0  0  0  0  0
    4.2740    4.5500    0.0000 C   0  0  0  0  0  0  0  0  0  0  0  0
    5.7000    5.0140    0.0000 N   0  0  0  0  0  0  0  0  0  0  0  0
    2.9740    5.3000    0.0000 C   0  0  0  0  0  0  0  0  0  0  0  0
    1.6750    4.5500    0.0000 C   0  0  0  0  0  0  0  0  0  0  0  0
    0.3760    5.3000    0.0000 C   0  0  0  0  0  0  0  0  0  0  0  0
    1.6750    3.0500    0.0000 C   0  0  0  0  0  0  0  0  0  0  0  0
    0.3760    2.3000    0.0000 C   0  0  0  0  0  0  0  0  0  0  0  0
    2.9740    2.3000    0.0000 C   0  0  0  0  0  0  0  0  0  0  0  0
  1  2  2  0  0  0  0
  2  3  1  0  0  0  0
  3  4  1  0  0  0  0
  4  5  1  0  0  0  0
  5  6  1  0  0  0  0
  5  9  2  0  0  0  0
  6  7  1  0  0  0  0
  7  8  1  0  0  0  0
  7 15  2  0  0  0  0
  8  9  1  0  0  0  0
  8 10  2  0  0  0  0
 10 11  1  0  0  0  0
 11 12  1  0  0  0  0
 11 13  2  0  0  0  0
 13 14  1  0  0  0  0
 13 15  1  0  0  0  0
M  END
>  <name>
O=[C;amide]CCc1[nH]c2c(n1)cc(C)c(C)c2

>  <apo>
1

>  <freq>
1

>  <freq0>
0

>  <freq1>
1

>  <freqA>
0.99700278

>  <a_count>
29

$$$$

  MOE2015           2D

 13 13  0  0  1  0  0  0  0  0999 V2000
    6.5770    0.0000    0.0000 O   0  0  0  0  0  0  0  0  0  0  0  0
    5.0770    0.0000    0.0000 C   0  0  0  0  0  0  0  0  0  0  0  0
    4.3270   -1.2990    0.0000 C   0  0  2  0  0  0  0  0  0  0  0  0
    5.0770   -2.5980    0.0000 C   0  0  0  0  0  0  0  0  0  0  0  0
    4.3270   -3.8970    0.0000 C   0  0  0  0  0  0  0  0  0  0  0  0
    6.5770   -2.5980    0.0000 C   0  0  0  0  0  0  0  0  0  0  0  0
    2.8270   -1.2990    0.0000 N   0  0  0  0  0  0  0  0  0  0  0  0
    2.0770    0.0000    0.0000 C   0  0  0  0  0  0  0  0  0  0  0  0
    2.8270    1.2990    0.0000 O   0  0  0  0  0  0  0  0  0  0  0  0
    0.5770    0.0000    0.0000 N   0  0  0  0  0  0  0  0  0  0  0  0
   -0.1730   -1.2990    0.0000 C   0  0  0  0  0  0  0  0  0  0  0  0
    0.5770   -2.5980    0.0000 C   0  0  0  0  0  0  0  0  0  0  0  0
    2.0770   -2.5980    0.0000 C   0  0  0  0  0  0  0  0  0  0  0  0
  1  2  2  0  0  0  0
  3  2  1  6  0  0  0
  3  4  1  0  0  0  0
  3  7  1  0  0  0  0
  4  5  1  0  0  0  0
  4  6  1  0  0  0  0
  7  8  1  0  0  0  0
  7 13  1  0  0  0  0
  8  9  2  0  0  0  0
  8 10  1  0  0  0  0
 10 11  1  0  0  0  0
 11 12  1  0  0  0  0
 12 13  1  0  0  0  0
M  END
>  <name>
O=[C;amide][C@H](C(C)C)N1C(=O)NCCC1

>  <apo>
1

>  <freq>
1

>  <freq0>
0

>  <freq1>
1

>  <freqA>
0.99700278

>  <a_count>
29

$$$$

  MOE2015           2D

 15 16  0  0  1  0  0  0  0  0999 V2000
    3.0630    5.3060    0.0000 O   0  0  0  0  0  0  0  0  0  0  0  0
    3.8130    4.0070    0.0000 C   0  0  0  0  0  0  0  0  0  0  0  0
    3.0630    2.7080    0.0000 C   0  0  2  0  0  0  0  0  0  0  0  0
    3.8130    1.4090    0.0000 C   0  0  0  0  0  0  0  0  0  0  0  0
    5.3130    1.4090    0.0000 C   0  0  0  0  0  0  0  0  0  0  0  0
    6.6120    2.1590    0.0000 C   0  0  0  0  0  0  0  0  0  0  0  0
    6.6120    0.6590    0.0000 C   0  0  0  0  0  0  0  0  0  0  0  0
    1.5630    2.7080    0.0000 N   0  0  0  0  0  0  0  0  0  0  0  0
    0.8130    1.4090    0.0000 C   0  0  0  0  0  0  0  0  0  0  0  0
    1.5630    0.1100    0.0000 O   0  0  0  0  0  0  0  0  0  0  0  0
   -0.6870    1.4090    0.0000 C   0  0  0  0  0  0  0  0  0  0  0  0
   -1.4370    0.1100    0.0000 N   0  0  0  0  0  0  0  0  0  0  0  0
   -1.4370    2.7080    0.0000 C   0  0  0  0  0  0  0  0  0  0  0  0
   -0.6870    4.0070    0.0000 C   0  0  0  0  0  0  0  0  0  0  0  0
    0.8130    4.0070    0.0000 C   0  0  0  0  0  0  0  0  0  0  0  0
  1  2  2  0  0  0  0
  3  2  1  6  0  0  0
  3  4  1  0  0  0  0
  3  8  1  0  0  0  0
  4  5  1  0  0  0  0
  5  6  1  0  0  0  0
  5  7  1  0  0  0  0
  6  7  1  0  0  0  0
  8  9  1  0  0  0  0
  8 15  1  0  0  0  0
  9 10  2  0  0  0  0
  9 11  1  0  0  0  0
 11 12  1  0  0  0  0
 11 13  2  0  0  0  0
 13 14  1  0  0  0  0
 14 15  2  0  0  0  0
M  END
>  <name>
O=[C;amide][C@H](CC1CC1)N1C(=O)C(N)=CC=C1

>  <apo>
1

>  <freq>
1

>  <freq0>
0

>  <freq1>
1

>  <freqA>
0.99700278

>  <a_count>
29

$$$$

  MOE2015           2D

 11 11  0  0  1  0  0  0  0  0999 V2000
   -0.9450   -4.1790    0.0000 O   0  0  0  0  0  0  0  0  0  0  0  0
   -0.3150   -2.8170    0.0000 C   0  0  0  0  0  0  0  0  0  0  0  0
    1.1780   -2.6820    0.0000 C   0  0  1  0  0  0  0  0  0  0  0  0
    1.9470   -1.3930    0.0000 N   0  3  3  0  0  0  0  0  0  0  0  0
    1.3560   -0.0140    0.0000 C   0  0  0  0  0  0  0  0  0  0  0  0
    3.4090   -1.7260    0.0000 C   0  0  0  0  0  0  0  0  0  0  0  0
    3.5450   -3.2200    0.0000 C   0  0  2  0  0  0  0  0  0  0  0  0
    4.8330   -3.9880    0.0000 C   0  0  0  0  0  0  0  0  0  0  0  0
    6.1430   -3.2570    0.0000 C   0  0  0  0  0  0  0  0  0  0  0  0
    7.4310   -4.0250    0.0000 C   0  0  0  0  0  0  0  0  0  0  0  0
    2.1660   -3.8100    0.0000 C   0  0  0  0  0  0  0  0  0  0  0  0
  1  2  2  0  0  0  0
  3  2  1  1  0  0  0
  3  4  1  0  0  0  0
  3 11  1  0  0  0  0
  4  5  1  0  0  0  0
  4  6  1  0  0  0  0
  6  7  1  0  0  0  0
  7  8  1  6  0  0  0
  7 11  1  0  0  0  0
  8  9  1  0  0  0  0
  9 10  1  0  0  0  0
M  CHG  1   4   1
M  END
>  <name>
O=[C;amide][C@H]1[N+](C)C[C@H](CCC)C1

>  <apo>
1

>  <freq>
1

>  <freq0>
0

>  <freq1>
1

>  <freqA>
0.99700278

>  <a_count>
29

$$$$

  MOE2015           2D

 18 18  0  0  1  0  0  0  0  0999 V2000
    3.5950    5.9050    0.0000 S   0  0  0  0  0  0  0  0  0  0  0  0
    3.5950    7.4050    0.0000 O   0  0  0  0  0  0  0  0  0  0  0  0
    3.5950    4.4050    0.0000 O   0  0  0  0  0  0  0  0  0  0  0  0
    2.0950    5.9050    0.0000 O   0  0  0  0  0  0  0  0  0  0  0  0
    1.3450    4.6060    0.0000 C   0  0  0  0  0  0  0  0  0  0  0  0
   -0.1550    4.6060    0.0000 C   0  0  2  0  0  0  0  0  0  0  0  0
   -0.9050    3.3070    0.0000 O   0  0  0  0  0  0  0  0  0  0  0  0
   -2.4050    3.3070    0.0000 C   0  0  0  0  0  0  0  0  0  0  0  0
   -3.1550    4.6060    0.0000 C   0  0  1  0  0  0  0  0  0  0  0  0
   -4.6550    4.6060    0.0000 N   0  0  0  0  0  0  0  0  0  0  0  0
   -5.4050    3.3070    0.0000 S   0  0  0  0  0  0  0  0  0  0  0  0
   -4.1060    2.5570    0.0000 O   0  0  0  0  0  0  0  0  0  0  0  0
   -6.7040    4.0570    0.0000 O   0  0  0  0  0  0  0  0  0  0  0  0
   -6.1550    2.0080    0.0000 O   0  5  0  0  0  0  0  0  0  0  0  0
   -2.4050    5.9050    0.0000 C   0  0  2  0  0  0  0  0  0  0  0  0
   -3.1550    7.2040    0.0000 O   0  0  0  0  0  0  0  0  0  0  0  0
   -0.9050    5.9050    0.0000 C   0  0  0  0  0  0  0  0  0  0  0  0
    5.0950    5.9050    0.0000 O   0  5  0  0  0  0  0  0  0  0  0  0
  1  2  2  0  0  0  0
  1  3  2  0  0  0  0
  1  4  1  0  0  0  0
  1 18  1  0  0  0  0
  4  5  1  0  0  0  0
  6  5  1  6  0  0  0
  6  7  1  0  0  0  0
  6 17  1  0  0  0  0
  7  8  1  0  0  0  0
  8  9  1  0  0  0  0
  9 10  1  1  0  0  0
  9 15  1  0  0  0  0
 10 11  1  0  0  0  0
 11 12  2  0  0  0  0
 11 13  2  0  0  0  0
 11 14  1  0  0  0  0
 15 16  1  6  0  0  0
 15 17  1  0  0  0  0
M  CHG  1  14  -1
M  CHG  1  18  -1
M  END
>  <name>
S(=O)(=O)(OC[C@@H]1O[C;ether][C@@H](NS(=O)(=O)[O-])[C@H](O)[C;ether]1)[O-]

>  <apo>
2

>  <freq>
1

>  <freq0>
0

>  <freq1>
1

>  <freqA>
0.99700278

>  <a_count>
29

$$$$

  MOE2015           2D

 11 13  0  0  0  0  0  0  0  0999 V2000
    5.9900    0.0470    0.0000 C   0  0  0  0  0  0  0  0  0  0  0  0
    4.5190    0.3450    0.0000 C   0  0  0  0  0  0  0  0  0  0  0  0
    3.1230   -0.3690    0.0000 C   0  0  0  0  0  0  0  0  0  0  0  0
    1.6130   -0.0160    0.0000 C   0  0  0  0  0  0  0  0  0  0  0  0
    1.3810    1.4410    0.0000 C   0  0  0  0  0  0  0  0  0  0  0  0
    2.8190    2.1220    0.0000 C   0  0  0  0  0  0  0  0  0  0  0  0
    4.2720    1.7960    0.0000 C   0  0  0  0  0  0  0  0  0  0  0  0
    2.1850    0.8720    0.0000 C   0  0  0  0  0  0  0  0  0  0  0  0
    2.3620   -0.4960    0.0000 C   0  0  0  0  0  0  0  0  0  0  0  0
    3.7680   -0.8320    0.0000 C   0  0  0  0  0  0  0  0  0  0  0  0
    0.8850   -1.3510    0.0000 C   0  0  0  0  0  0  0  0  0  0  0  0
  1  2  1  0  0  0  0
  2  3  1  0  0  0  0
  2  7  1  0  0  0  0
  2 10  1  0  0  0  0
  3  4  1  0  0  0  0
  4  5  1  0  0  0  0
  4 11  1  0  0  0  0
  5  6  1  0  0  0  0
  6  7  1  0  0  0  0
  6  8  1  0  0  0  0
  8  9  1  0  0  0  0
  9 10  1  0  0  0  0
  9 11  1  0  0  0  0
M  END
>  <name>
[C;ether]C12CC3CC(C1)CC(C2)C3

>  <apo>
1

>  <freq>
1

>  <freq0>
0

>  <freq1>
1

>  <freqA>
0.99700278

>  <a_count>
29

$$$$

  MOE2015           2D

 16 17  0  0  0  0  0  0  0  0999 V2000
    8.1170    1.5690    0.0000 Br  0  0  0  0  0  0  0  0  0  0  0  0
    6.8180    0.8190    0.0000 C   0  0  0  0  0  0  0  0  0  0  0  0
    6.8180   -0.6810    0.0000 C   0  0  0  0  0  0  0  0  0  0  0  0
    8.1170   -1.4310    0.0000 O   0  0  0  0  0  0  0  0  0  0  0  0
    5.5190   -1.4310    0.0000 C   0  0  0  0  0  0  0  0  0  0  0  0
    5.5190   -2.9310    0.0000 C   0  0  0  0  0  0  0  0  0  0  0  0
    4.2200   -0.6810    0.0000 C   0  0  0  0  0  0  0  0  0  0  0  0
    2.7930   -1.1450    0.0000 C   0  0  0  0  0  0  0  0  0  0  0  0
    2.3300   -2.5710    0.0000 C   0  0  0  0  0  0  0  0  0  0  0  0
    0.8630   -2.8830    0.0000 O   0  0  0  0  0  0  0  0  0  0  0  0
    1.9120    0.0690    0.0000 C   0  0  0  0  0  0  0  0  0  0  0  0
    0.4120    0.0690    0.0000 C   0  0  0  0  0  0  0  0  0  0  0  0
    2.7930    1.2830    0.0000 N   0  0  0  0  0  0  0  0  0  0  0  0
    2.3300    2.7090    0.0000 C   0  0  0  0  0  0  0  0  0  0  0  0
    4.2200    0.8190    0.0000 C   0  0  0  0  0  0  0  0  0  0  0  0
    5.5190    1.5690    0.0000 C   0  0  0  0  0  0  0  0  0  0  0  0
  1  2  1  0  0  0  0
  2  3  1  0  0  0  0
  2 16  2  0  0  0  0
  3  4  1  0  0  0  0
  3  5  2  0  0  0  0
  5  6  1  0  0  0  0
  5  7  1  0  0  0  0
  7  8  1  0  0  0  0
  7 15  2  0  0  0  0
  8  9  1  0  0  0  0
  8 11  2  0  0  0  0
  9 10  2  0  0  0  0
 11 12  1  0  0  0  0
 11 13  1  0  0  0  0
 13 14  1  0  0  0  0
 13 15  1  0  0  0  0
 15 16  1  0  0  0  0
M  END
>  <name>
Brc1c(O)c([C;amine])c2c([C;ester]=O)c([C;thioether])n(C)c2c1

>  <apo>
3

>  <freq>
1

>  <freq0>
0

>  <freq1>
1

>  <freqA>
0.99700278

>  <a_count>
28

$$$$

  MOE2015           2D

 10 11  0  0  0  0  0  0  0  0999 V2000
    4.9070    1.3170    0.0000 C   0  0  0  0  0  0  0  0  0  0  0  0
    3.6090    0.5660    0.0000 C   0  0  0  0  0  0  0  0  0  0  0  0
    2.3090    1.3150    0.0000 C   0  0  0  0  0  0  0  0  0  0  0  0
    1.0110    0.5640    0.0000 C   0  0  0  0  0  0  0  0  0  0  0  0
   -0.5620   -0.7350    0.0000 C   0  0  0  0  0  0  0  0  0  0  0  0
   -1.0070    0.0250    0.0000 C   0  0  0  0  0  0  0  0  0  0  0  0
    1.0020   -0.3180    0.0000 C   0  0  0  0  0  0  0  0  0  0  0  0
   -0.3040    1.4390    0.0000 C   0  0  0  0  0  0  0  0  0  0  0  0
    6.2070    0.5680    0.0000 C   0  0  0  0  0  0  0  0  0  0  0  0
    7.5050    1.3190    0.0000 C   0  0  0  0  0  0  0  0  0  0  0  0
  1  2  1  0  0  0  0
  1  9  1  0  0  0  0
  2  3  1  0  0  0  0
  3  4  1  0  0  0  0
  4  5  1  0  0  0  0
  4  7  1  0  0  0  0
  4  8  1  0  0  0  0
  5  6  1  0  0  0  0
  6  7  1  0  0  0  0
  6  8  1  0  0  0  0
  9 10  1  0  0  0  0
M  END
>  <name>
C(CCC12CC(C1)C2)C[C;amine]

>  <apo>
1

>  <freq>
1

>  <freq0>
0

>  <freq1>
1

>  <freqA>
0.99700278

>  <a_count>
28

$$$$

  MOE2015           2D

 17 18  0  0  1  0  0  0  0  0999 V2000
   11.2020   -3.0020    0.0000 O   0  0  0  0  0  0  0  0  0  0  0  0
    9.9030   -2.2520    0.0000 C   0  0  0  0  0  0  0  0  0  0  0  0
    8.6040   -3.0020    0.0000 O   0  0  0  0  0  0  0  0  0  0  0  0
    7.3050   -2.2520    0.0000 C   0  0  0  0  0  0  0  0  0  0  0  0
    6.0060   -3.0020    0.0000 C   0  0  0  0  0  0  0  0  0  0  0  0
    4.7070   -2.2520    0.0000 C   0  0  0  0  0  0  0  0  0  0  0  0
    4.7070   -0.7520    0.0000 C   0  0  0  0  0  0  0  0  0  0  0  0
    3.4080   -0.0020    0.0000 O   0  0  0  0  0  0  0  0  0  0  0  0
    3.4080   -3.0020    0.0000 N   0  0  0  0  0  0  0  0  0  0  0  0
    1.9080   -3.0020    0.0000 C   0  0  0  0  0  0  0  0  0  0  0  0
    0.8470   -1.9410    0.0000 O   0  0  0  0  0  0  0  0  0  0  0  0
    1.9080   -4.5020    0.0000 C   0  0  3  0  0  0  0  0  0  0  0  0
    0.8470   -5.5620    0.0000 N   0  0  0  0  0  0  0  0  0  0  0  0
    3.4080   -4.5020    0.0000 C   0  0  3  0  0  0  0  0  0  0  0  0
    4.7070   -5.2520    0.0000 S   0  0  0  0  0  0  0  0  0  0  0  0
    6.0060   -4.5020    0.0000 C   0  0  0  0  0  0  0  0  0  0  0  0
    9.9030   -0.7520    0.0000 N   0  0  0  0  0  0  0  0  0  0  0  0
  1  2  2  0  0  0  0
  2  3  1  0  0  0  0
  2 17  1  0  0  0  0
  3  4  1  0  0  0  0
  4  5  1  0  0  0  0
  5  6  2  0  0  0  0
  5 16  1  0  0  0  0
  6  7  1  0  0  0  0
  6  9  1  0  0  0  0
  7  8  2  0  0  0  0
  9 10  1  0  0  0  0
  9 14  1  0  0  0  0
 10 11  2  0  0  0  0
 10 12  1  0  0  0  0
 12 13  1  0  0  0  0
 12 14  1  0  0  0  0
 14 15  1  0  0  0  0
 15 16  1  0  0  0  0
M  END
>  <name>
O=C(OCC1=C([C;ester]=O)N2C(=O)C([N;amide])C2SC1)N

>  <apo>
2

>  <freq>
1

>  <freq0>
0

>  <freq1>
1

>  <freqA>
0.99700278

>  <a_count>
28

$$$$

  MOE2015           2D

 12 11  0  0  1  0  0  0  0  0999 V2000
   -0.4220    1.5740    0.0000 O   0  0  0  0  0  0  0  0  0  0  0  0
    0.8770    2.3240    0.0000 C   0  0  0  0  0  0  0  0  0  0  0  0
    0.8770    3.8240    0.0000 O   0  5  0  0  0  0  0  0  0  0  0  0
    2.1760    1.5740    0.0000 C   0  0  0  0  0  0  0  0  0  0  0  0
    3.4750    2.3240    0.0000 C   0  0  2  0  0  0  0  0  0  0  0  0
    3.4750    3.8240    0.0000 O   0  0  0  0  0  0  0  0  0  0  0  0
    4.7750    1.5740    0.0000 C   0  0  1  0  0  0  0  0  0  0  0  0
    4.7750    0.0740    0.0000 N   0  0  0  0  0  0  0  0  0  0  0  0
    6.0740    2.3240    0.0000 C   0  0  0  0  0  0  0  0  0  0  0  0
    7.3730    1.5740    0.0000 C   0  0  0  0  0  0  0  0  0  0  0  0
    8.6720    2.3240    0.0000 C   0  0  0  0  0  0  0  0  0  0  0  0
    7.3730    0.0740    0.0000 C   0  0  0  0  0  0  0  0  0  0  0  0
  1  2  2  0  0  0  0
  2  3  1  0  0  0  0
  2  4  1  0  0  0  0
  4  5  1  0  0  0  0
  5  6  1  6  0  0  0
  5  7  1  0  0  0  0
  7  8  1  6  0  0  0
  7  9  1  0  0  0  0
  9 10  1  0  0  0  0
 10 11  1  0  0  0  0
 10 12  1  0  0  0  0
M  CHG  1   3  -1
M  END
>  <name>
O=C([O-])C[C@H](O)[C@@H]([N;amide])CC(C)C

>  <apo>
1

>  <freq>
1

>  <freq0>
0

>  <freq1>
1

>  <freqA>
0.99700278

>  <a_count>
28

$$$$

  MOE2015           2D

 15 16  0  0  1  0  0  0  0  0999 V2000
    2.3790   -4.1210    0.0000 O   0  0  0  0  0  0  0  0  0  0  0  0
    3.1290   -2.8220    0.0000 C   0  0  0  0  0  0  0  0  0  0  0  0
    2.3790   -1.5230    0.0000 N   0  0  0  0  0  0  0  0  0  0  0  0
    0.8790   -1.5230    0.0000 C   0  0  3  0  0  0  0  0  0  0  0  0
   -0.0030   -0.3090    0.0000 C   0  0  3  0  0  0  0  0  0  0  0  0
    0.4610    1.1180    0.0000 O   0  0  0  0  0  0  0  0  0  0  0  0
   -1.4290   -0.7730    0.0000 C   0  0  0  0  0  0  0  0  0  0  0  0
   -1.4290   -2.2730    0.0000 N   0  0  0  0  0  0  0  0  0  0  0  0
   -0.0030   -2.7360    0.0000 C   0  0  0  0  0  0  0  0  0  0  0  0
    3.1290   -0.2230    0.0000 C   0  0  0  0  0  0  0  0  0  0  0  0
    4.6290   -0.2230    0.0000 C   0  0  0  0  0  0  0  0  0  0  0  0
    5.3790    1.0760    0.0000 C   0  0  0  0  0  0  0  0  0  0  0  0
    5.3790   -1.5230    0.0000 C   0  0  0  0  0  0  0  0  0  0  0  0
    6.8790   -1.5230    0.0000 O   0  0  0  0  0  0  0  0  0  0  0  0
    4.6290   -2.8220    0.0000 N   0  0  0  0  0  0  0  0  0  0  0  0
  1  2  2  0  0  0  0
  2  3  1  0  0  0  0
  2 15  1  0  0  0  0
  3  4  1  0  0  0  0
  3 10  1  0  0  0  0
  4  5  1  0  0  0  0
  4  9  1  0  0  0  0
  5  6  1  0  0  0  0
  5  7  1  0  0  0  0
  7  8  1  0  0  0  0
  8  9  1  0  0  0  0
 10 11  2  0  0  0  0
 11 12  1  0  0  0  0
 11 13  1  0  0  0  0
 13 14  2  0  0  0  0
 13 15  1  0  0  0  0
M  END
>  <name>
O=C1N(C2C(O)C[N;amide]C2)C=C(C)C(=O)N1

>  <apo>
1

>  <freq>
1

>  <freq0>
0

>  <freq1>
1

>  <freqA>
0.99700278

>  <a_count>
28

$$$$

  MOE2015           2D

 16 17  0  0  1  0  0  0  0  0999 V2000
    2.3440    4.0590    0.0000 O   0  0  0  0  0  0  0  0  0  0  0  0
    3.0940    2.7600    0.0000 C   0  0  0  0  0  0  0  0  0  0  0  0
    2.3440    1.4610    0.0000 C   0  0  3  0  0  0  0  0  0  0  0  0
    3.0940    0.1620    0.0000 N   0  0  0  0  0  0  0  0  0  0  0  0
    4.5940    0.1620    0.0000 C   0  0  0  0  0  0  0  0  0  0  0  0
    5.3440   -1.1370    0.0000 C   0  0  0  0  0  0  0  0  0  0  0  0
    6.8440   -1.1370    0.0000 C   0  0  0  0  0  0  0  0  0  0  0  0
    7.5940    0.1620    0.0000 C   0  0  0  0  0  0  0  0  0  0  0  0
    6.8440    1.4610    0.0000 C   0  0  0  0  0  0  0  0  0  0  0  0
    5.3440    1.4610    0.0000 C   0  0  0  0  0  0  0  0  0  0  0  0
    0.8440    1.4610    0.0000 C   0  0  0  0  0  0  0  0  0  0  0  0
    0.0940    2.7600    0.0000 C   0  0  0  0  0  0  0  0  0  0  0  0
   -1.4060    2.7600    0.0000 N   0  0  0  0  0  0  0  0  0  0  0  0
   -2.1560    1.4610    0.0000 C   0  0  0  0  0  0  0  0  0  0  0  0
   -1.4060    0.1620    0.0000 C   0  0  0  0  0  0  0  0  0  0  0  0
    0.0940    0.1620    0.0000 C   0  0  0  0  0  0  0  0  0  0  0  0
  1  2  2  0  0  0  0
  2  3  1  0  0  0  0
  3  4  1  0  0  0  0
  3 11  1  0  0  0  0
  4  5  1  0  0  0  0
  5  6  1  0  0  0  0
  5 10  2  0  0  0  0
  6  7  2  0  0  0  0
  7  8  1  0  0  0  0
  8  9  2  0  0  0  0
  9 10  1  0  0  0  0
 11 12  1  0  0  0  0
 11 16  2  0  0  0  0
 12 13  2  0  0  0  0
 13 14  1  0  0  0  0
 14 15  2  0  0  0  0
 15 16  1  0  0  0  0
M  END
>  <name>
O=[C;amide]C([N;amide]c1cc[c;biphenyl]cc1)c1cnccc1

>  <apo>
3

>  <freq>
1

>  <freq0>
0

>  <freq1>
1

>  <freqA>
0.99700278

>  <a_count>
28

$$$$

  MOE2015           2D

 10  9  0  0  1  0  0  0  0  0999 V2000
   10.2560    2.7480    0.0000 O   0  0  0  0  0  0  0  0  0  0  0  0
    8.9570    1.9980    0.0000 C   0  0  0  0  0  0  0  0  0  0  0  0
    7.6580    2.7480    0.0000 C   0  0  0  0  0  0  0  0  0  0  0  0
    6.3590    1.9980    0.0000 C   0  0  0  0  0  0  0  0  0  0  0  0
    5.0600    2.7480    0.0000 C   0  0  0  0  0  0  0  0  0  0  0  0
    3.7610    1.9980    0.0000 C   0  0  0  0  0  0  0  0  0  0  0  0
    2.4620    2.7480    0.0000 C   0  0  3  0  0  0  0  0  0  0  0  0
    1.1630    1.9980    0.0000 C   0  0  0  0  0  0  0  0  0  0  0  0
   -0.1360    2.7480    0.0000 C   0  0  0  0  0  0  0  0  0  0  0  0
    2.4620    4.2480    0.0000 C   0  0  0  0  0  0  0  0  0  0  0  0
  1  2  2  0  0  0  0
  2  3  1  0  0  0  0
  3  4  1  0  0  0  0
  4  5  1  0  0  0  0
  5  6  1  0  0  0  0
  6  7  1  0  0  0  0
  7  8  1  0  0  0  0
  7 10  1  0  0  0  0
  8  9  1  0  0  0  0
M  END
>  <name>
O=[C;amide]CCCCC(CC)C

>  <apo>
1

>  <freq>
1

>  <freq0>
0

>  <freq1>
1

>  <freqA>
0.99700278

>  <a_count>
28

$$$$

  MOE2015           2D

 11 10  0  0  1  0  0  0  0  0999 V2000
    9.1370   -2.4480    0.0000 O   0  0  0  0  0  0  0  0  0  0  0  0
    7.8380   -1.6980    0.0000 C   0  0  0  0  0  0  0  0  0  0  0  0
    6.5390   -2.4480    0.0000 C   0  0  0  0  0  0  0  0  0  0  0  0
    5.2400   -1.6980    0.0000 C   0  0  2  0  0  0  0  0  0  0  0  0
    5.2400   -0.1980    0.0000 O   0  0  0  0  0  0  0  0  0  0  0  0
    3.9410   -2.4480    0.0000 C   0  0  1  0  0  0  0  0  0  0  0  0
    3.9410   -3.9480    0.0000 N   0  0  0  0  0  0  0  0  0  0  0  0
    2.6420   -1.6980    0.0000 C   0  0  0  0  0  0  0  0  0  0  0  0
    1.3430   -2.4480    0.0000 C   0  0  0  0  0  0  0  0  0  0  0  0
    1.3430   -3.9480    0.0000 C   0  0  0  0  0  0  0  0  0  0  0  0
    0.0440   -1.6980    0.0000 C   0  0  0  0  0  0  0  0  0  0  0  0
  1  2  2  0  0  0  0
  2  3  1  0  0  0  0
  3  4  1  0  0  0  0
  4  5  1  1  0  0  0
  4  6  1  0  0  0  0
  6  7  1  1  0  0  0
  6  8  1  0  0  0  0
  8  9  1  0  0  0  0
  9 10  1  0  0  0  0
  9 11  1  0  0  0  0
M  END
>  <name>
O=[C;amide]C[C@H](O)[C@@H]([N;amide])CC(C)C

>  <apo>
2

>  <freq>
1

>  <freq0>
0

>  <freq1>
1

>  <freqA>
0.99700278

>  <a_count>
28

$$$$

  MOE2015           2D

 14 14  0  0  0  0  0  0  0  0999 V2000
   12.2140    0.0000    0.0000 O   0  0  0  0  0  0  0  0  0  0  0  0
   10.7140    0.0000    0.0000 C   0  0  0  0  0  0  0  0  0  0  0  0
    9.9640   -1.2990    0.0000 C   0  0  0  0  0  0  0  0  0  0  0  0
    8.4640   -1.2990    0.0000 C   0  0  0  0  0  0  0  0  0  0  0  0
    7.7140   -2.5980    0.0000 C   0  0  0  0  0  0  0  0  0  0  0  0
    6.2140   -2.5980    0.0000 C   0  0  0  0  0  0  0  0  0  0  0  0
    5.4640   -1.2990    0.0000 C   0  0  0  0  0  0  0  0  0  0  0  0
    3.9640   -1.2990    0.0000 C   0  0  0  0  0  0  0  0  0  0  0  0
    3.2140   -2.5980    0.0000 N   0  3  0  0  0  0  0  0  0  0  0  0
    1.7140   -2.5980    0.0000 C   0  0  0  0  0  0  0  0  0  0  0  0
    0.9640   -1.2990    0.0000 N   0  0  0  0  0  0  0  0  0  0  0  0
    0.9640   -3.8970    0.0000 N   0  0  0  0  0  0  0  0  0  0  0  0
    6.2140    0.0000    0.0000 C   0  0  0  0  0  0  0  0  0  0  0  0
    7.7140    0.0000    0.0000 C   0  0  0  0  0  0  0  0  0  0  0  0
  1  2  2  0  0  0  0
  2  3  1  0  0  0  0
  3  4  1  0  0  0  0
  4  5  1  0  0  0  0
  4 14  2  0  0  0  0
  5  6  2  0  0  0  0
  6  7  1  0  0  0  0
  7  8  1  0  0  0  0
  7 13  2  0  0  0  0
  8  9  1  0  0  0  0
  9 10  2  0  0  0  0
 10 11  1  0  0  0  0
 10 12  1  0  0  0  0
 13 14  1  0  0  0  0
M  CHG  1   9   1
M  END
>  <name>
O=[C;amide]Cc1ccc(C/[N+]=C(\N)/N)cc1

>  <apo>
1

>  <freq>
1

>  <freq0>
0

>  <freq1>
1

>  <freqA>
0.99700278

>  <a_count>
28

$$$$

  MOE2015           2D

 14 15  0  0  1  0  0  0  0  0999 V2000
   10.1920   -2.9830    0.0000 O   0  0  0  0  0  0  0  0  0  0  0  0
    8.8220   -3.5930    0.0000 C   0  0  0  0  0  0  0  0  0  0  0  0
    7.6080   -2.7110    0.0000 C   0  0  1  0  0  0  0  0  0  0  0  0
    7.7650   -1.2200    0.0000 N   0  0  0  0  0  0  0  0  0  0  0  0
    6.2380   -3.3210    0.0000 C   0  0  0  0  0  0  0  0  0  0  0  0
    5.0240   -2.4400    0.0000 C   0  0  0  0  0  0  0  0  0  0  0  0
    5.0240   -0.9400    0.0000 C   0  0  0  0  0  0  0  0  0  0  0  0
    3.5980   -0.4760    0.0000 N   0  0  0  0  0  0  0  0  0  0  0  0
    2.7160   -1.6900    0.0000 C   0  0  3  0  0  0  0  0  0  0  0  0
    3.5980   -2.9030    0.0000 C   0  0  3  0  0  0  0  0  0  0  0  0
    2.9870   -4.2740    0.0000 C   0  0  0  0  0  0  0  0  0  0  0  0
    1.4960   -4.4300    0.0000 C   0  0  0  0  0  0  0  0  0  0  0  0
    0.6140   -3.2170    0.0000 C   0  0  0  0  0  0  0  0  0  0  0  0
    1.2240   -1.8470    0.0000 C   0  0  0  0  0  0  0  0  0  0  0  0
  1  2  2  0  0  0  0
  2  3  1  0  0  0  0
  3  4  1  6  0  0  0
  3  5  1  0  0  0  0
  5  6  1  0  0  0  0
  6  7  2  0  0  0  0
  6 10  1  0  0  0  0
  7  8  1  0  0  0  0
  8  9  1  0  0  0  0
  9 10  1  0  0  0  0
  9 14  1  0  0  0  0
 10 11  1  0  0  0  0
 11 12  2  0  0  0  0
 12 13  1  0  0  0  0
 13 14  2  0  0  0  0
M  END
>  <name>
O=[C;amide][C@@H]([N;amide])CC1=CNC2C1C=CC=C2

>  <apo>
2

>  <freq>
1

>  <freq0>
0

>  <freq1>
1

>  <freqA>
0.99700278

>  <a_count>
28

$$$$

  MOE2015           2D

 15 16  0  0  1  0  0  0  0  0999 V2000
   10.7390    2.8770    0.0000 O   0  0  0  0  0  0  0  0  0  0  0  0
    9.4400    2.1270    0.0000 C   0  0  0  0  0  0  0  0  0  0  0  0
    8.1410    2.8770    0.0000 C   0  0  1  0  0  0  0  0  0  0  0  0
    8.1410    4.3770    0.0000 N   0  0  0  0  0  0  0  0  0  0  0  0
    6.8420    2.1270    0.0000 C   0  0  0  0  0  0  0  0  0  0  0  0
    5.5430    2.8770    0.0000 C   0  0  0  0  0  0  0  0  0  0  0  0
    4.2440    2.1270    0.0000 C   0  0  0  0  0  0  0  0  0  0  0  0
    2.9450    2.8770    0.0000 C   0  0  0  0  0  0  0  0  0  0  0  0
    2.9450    4.3770    0.0000 C   0  0  0  0  0  0  0  0  0  0  0  0
    4.2440    5.1270    0.0000 C   0  0  0  0  0  0  0  0  0  0  0  0
    5.5430    4.3770    0.0000 C   0  0  0  0  0  0  0  0  0  0  0  0
    1.6460    5.1270    0.0000 C   0  0  0  0  0  0  0  0  0  0  0  0
    0.3470    4.3770    0.0000 C   0  0  0  0  0  0  0  0  0  0  0  0
    0.3470    2.8770    0.0000 C   0  0  0  0  0  0  0  0  0  0  0  0
    1.6460    2.1270    0.0000 C   0  0  0  0  0  0  0  0  0  0  0  0
  1  2  2  0  0  0  0
  2  3  1  0  0  0  0
  3  4  1  6  0  0  0
  3  5  1  0  0  0  0
  5  6  1  0  0  0  0
  6  7  2  0  0  0  0
  6 11  1  0  0  0  0
  7  8  1  0  0  0  0
  8  9  1  0  0  0  0
  8 15  2  0  0  0  0
  9 10  1  0  0  0  0
  9 12  2  0  0  0  0
 10 11  2  0  0  0  0
 12 13  1  0  0  0  0
 13 14  2  0  0  0  0
 14 15  1  0  0  0  0
M  END
>  <name>
O=[C;amide][C@@H]([N;amide])Cc1cc2c(cc1)cccc2

>  <apo>
2

>  <freq>
1

>  <freq0>
0

>  <freq1>
1

>  <freqA>
0.99700278

>  <a_count>
28

$$$$

  MOE2015           2D

 15 15  0  0  1  0  0  0  0  0999 V2000
   10.3000   -3.9840    0.0000 O   0  0  0  0  0  0  0  0  0  0  0  0
    8.8000   -3.9840    0.0000 C   0  0  0  0  0  0  0  0  0  0  0  0
    8.0500   -2.6850    0.0000 C   0  0  1  0  0  0  0  0  0  0  0  0
    8.8000   -1.3860    0.0000 N   0  0  0  0  0  0  0  0  0  0  0  0
    6.5500   -2.6850    0.0000 C   0  0  2  0  0  0  0  0  0  0  0  0
    5.8000   -3.9840    0.0000 O   0  0  0  0  0  0  0  0  0  0  0  0
    5.8000   -1.3860    0.0000 C   0  0  1  0  0  0  0  0  0  0  0  0
    6.5500   -0.0870    0.0000 O   0  0  0  0  0  0  0  0  0  0  0  0
    4.3000   -1.3860    0.0000 C   0  0  0  0  0  0  0  0  0  0  0  0
    3.5500   -2.6850    0.0000 C   0  0  0  0  0  0  0  0  0  0  0  0
    2.0500   -2.6850    0.0000 C   0  0  0  0  0  0  0  0  0  0  0  0
    1.3000   -1.3860    0.0000 C   0  0  0  0  0  0  0  0  0  0  0  0
   -0.2000   -1.3860    0.0000 O   0  0  0  0  0  0  0  0  0  0  0  0
    2.0500   -0.0870    0.0000 C   0  0  0  0  0  0  0  0  0  0  0  0
    3.5500   -0.0870    0.0000 C   0  0  0  0  0  0  0  0  0  0  0  0
  1  2  2  0  0  0  0
  2  3  1  0  0  0  0
  3  4  1  6  0  0  0
  3  5  1  0  0  0  0
  5  6  1  6  0  0  0
  5  7  1  0  0  0  0
  7  8  1  6  0  0  0
  7  9  1  0  0  0  0
  9 10  1  0  0  0  0
  9 15  2  0  0  0  0
 10 11  2  0  0  0  0
 11 12  1  0  0  0  0
 12 13  1  0  0  0  0
 12 14  2  0  0  0  0
 14 15  1  0  0  0  0
M  END
>  <name>
O=[C;amide][C@@H]([N;amide])[C@H](O)[C@@H](O)c1ccc(O)cc1

>  <apo>
2

>  <freq>
1

>  <freq0>
0

>  <freq1>
1

>  <freqA>
0.99700278

>  <a_count>
28

$$$$

  MOE2015           2D

 15 16  0  0  1  0  0  0  0  0999 V2000
   10.7390    2.8770    0.0000 O   0  0  0  0  0  0  0  0  0  0  0  0
    9.4400    2.1270    0.0000 C   0  0  0  0  0  0  0  0  0  0  0  0
    8.1410    2.8770    0.0000 C   0  0  2  0  0  0  0  0  0  0  0  0
    8.1410    4.3770    0.0000 N   0  0  0  0  0  0  0  0  0  0  0  0
    6.8420    2.1270    0.0000 C   0  0  0  0  0  0  0  0  0  0  0  0
    5.5430    2.8770    0.0000 C   0  0  0  0  0  0  0  0  0  0  0  0
    4.2440    2.1270    0.0000 C   0  0  0  0  0  0  0  0  0  0  0  0
    2.9450    2.8770    0.0000 C   0  0  0  0  0  0  0  0  0  0  0  0
    2.9450    4.3770    0.0000 C   0  0  0  0  0  0  0  0  0  0  0  0
    4.2440    5.1270    0.0000 C   0  0  0  0  0  0  0  0  0  0  0  0
    5.5430    4.3770    0.0000 C   0  0  0  0  0  0  0  0  0  0  0  0
    1.6460    5.1270    0.0000 C   0  0  0  0  0  0  0  0  0  0  0  0
    0.3470    4.3770    0.0000 C   0  0  0  0  0  0  0  0  0  0  0  0
    0.3470    2.8770    0.0000 C   0  0  0  0  0  0  0  0  0  0  0  0
    1.6460    2.1270    0.0000 C   0  0  0  0  0  0  0  0  0  0  0  0
  1  2  2  0  0  0  0
  2  3  1  0  0  0  0
  3  4  1  1  0  0  0
  3  5  1  0  0  0  0
  5  6  1  0  0  0  0
  6  7  2  0  0  0  0
  6 11  1  0  0  0  0
  7  8  1  0  0  0  0
  8  9  1  0  0  0  0
  8 15  2  0  0  0  0
  9 10  1  0  0  0  0
  9 12  2  0  0  0  0
 10 11  2  0  0  0  0
 12 13  1  0  0  0  0
 13 14  2  0  0  0  0
 14 15  1  0  0  0  0
M  END
>  <name>
O=[C;amide][C@H]([N;amide])Cc1cc2c(cc1)cccc2

>  <apo>
2

>  <freq>
1

>  <freq0>
0

>  <freq1>
1

>  <freqA>
0.99700278

>  <a_count>
28

$$$$

  MOE2015           2D

 16 16  0  0  1  0  0  0  0  0999 V2000
   -2.3550   -4.0780    0.0000 S   0  0  0  0  0  0  0  0  0  0  0  0
   -1.6050   -5.3770    0.0000 O   0  0  0  0  0  0  0  0  0  0  0  0
   -3.1050   -2.7790    0.0000 O   0  0  0  0  0  0  0  0  0  0  0  0
   -3.6540   -4.8280    0.0000 C   0  0  0  0  0  0  0  0  0  0  0  0
   -1.0550   -3.3280    0.0000 C   0  0  0  0  0  0  0  0  0  0  0  0
    0.2440   -4.0780    0.0000 C   0  0  0  0  0  0  0  0  0  0  0  0
    1.5430   -3.3280    0.0000 C   0  0  0  0  0  0  0  0  0  0  0  0
    2.8420   -4.0780    0.0000 C   0  0  0  0  0  0  0  0  0  0  0  0
    4.1410   -3.3280    0.0000 C   0  0  2  0  0  0  0  0  0  0  0  0
    4.1410   -1.8280    0.0000 N   0  0  0  0  0  0  0  0  0  0  0  0
    5.4400   -4.0780    0.0000 C   0  0  0  0  0  0  0  0  0  0  0  0
    6.7390   -3.3280    0.0000 O   0  0  0  0  0  0  0  0  0  0  0  0
    5.4400   -5.5780    0.0000 O   0  5  0  0  0  0  0  0  0  0  0  0
    1.5430   -1.8280    0.0000 C   0  0  0  0  0  0  0  0  0  0  0  0
    0.2440   -1.0780    0.0000 C   0  0  0  0  0  0  0  0  0  0  0  0
   -1.0550   -1.8280    0.0000 C   0  0  0  0  0  0  0  0  0  0  0  0
  1  2  2  0  0  0  0
  1  3  2  0  0  0  0
  1  4  1  0  0  0  0
  1  5  1  0  0  0  0
  5  6  2  0  0  0  0
  5 16  1  0  0  0  0
  6  7  1  0  0  0  0
  7  8  1  0  0  0  0
  7 14  2  0  0  0  0
  8  9  1  0  0  0  0
  9 10  1  6  0  0  0
  9 11  1  0  0  0  0
 11 12  2  0  0  0  0
 11 13  1  0  0  0  0
 14 15  1  0  0  0  0
 15 16  2  0  0  0  0
M  CHG  1  13  -1
M  END
>  <name>
S(=O)(=O)(C)c1cc(C[C@H]([N;amide])C(=O)[O-])ccc1

>  <apo>
1

>  <freq>
1

>  <freq0>
0

>  <freq1>
1

>  <freqA>
0.99700278

>  <a_count>
28

$$$$

  MOE2015           2D

 15 15  0  0  1  0  0  0  0  0999 V2000
   -1.6480    2.8030    0.0000 S   0  0  0  0  0  0  0  0  0  0  0  0
   -0.8980    1.5040    0.0000 O   0  0  0  0  0  0  0  0  0  0  0  0
   -2.3980    4.1020    0.0000 O   0  0  0  0  0  0  0  0  0  0  0  0
   -2.9470    2.0530    0.0000 O   0  5  0  0  0  0  0  0  0  0  0  0
   -0.3490    3.5530    0.0000 C   0  0  3  0  0  0  0  0  0  0  0  0
   -0.3490    5.0530    0.0000 O   0  0  0  0  0  0  0  0  0  0  0  0
    0.9500    2.8030    0.0000 C   0  0  1  0  0  0  0  0  0  0  0  0
    0.9500    1.3030    0.0000 N   0  0  0  0  0  0  0  0  0  0  0  0
    2.2490    3.5530    0.0000 C   0  0  0  0  0  0  0  0  0  0  0  0
    3.5480    2.8030    0.0000 C   0  0  3  0  0  0  0  0  0  0  0  0
    4.9180    3.4130    0.0000 C   0  0  0  0  0  0  0  0  0  0  0  0
    5.2300    4.8810    0.0000 O   0  0  0  0  0  0  0  0  0  0  0  0
    5.9220    2.2990    0.0000 N   0  0  0  0  0  0  0  0  0  0  0  0
    5.1720    1.0000    0.0000 C   0  0  0  0  0  0  0  0  0  0  0  0
    3.7050    1.3110    0.0000 C   0  0  0  0  0  0  0  0  0  0  0  0
  1  2  2  0  0  0  0
  1  3  2  0  0  0  0
  1  4  1  0  0  0  0
  1  5  1  0  0  0  0
  5  6  1  0  0  0  0
  5  7  1  0  0  0  0
  7  8  1  6  0  0  0
  7  9  1  0  0  0  0
  9 10  1  0  0  0  0
 10 11  1  0  0  0  0
 10 15  1  0  0  0  0
 11 12  2  0  0  0  0
 11 13  1  0  0  0  0
 13 14  1  0  0  0  0
 14 15  1  0  0  0  0
M  CHG  1   4  -1
M  END
>  <name>
S(=O)(=O)([O-])C(O)[C@@H]([N;amide])CC1C(=O)NCC1

>  <apo>
1

>  <freq>
1

>  <freq0>
0

>  <freq1>
1

>  <freqA>
0.99700278

>  <a_count>
28

$$$$

  MOE2015           2D

 15 15  0  0  1  0  0  0  0  0999 V2000
   -1.6480    2.8030    0.0000 S   0  0  0  0  0  0  0  0  0  0  0  0
   -0.8980    1.5040    0.0000 O   0  0  0  0  0  0  0  0  0  0  0  0
   -2.3980    4.1020    0.0000 O   0  0  0  0  0  0  0  0  0  0  0  0
   -2.9470    2.0530    0.0000 O   0  5  0  0  0  0  0  0  0  0  0  0
   -0.3490    3.5530    0.0000 C   0  0  3  0  0  0  0  0  0  0  0  0
   -0.3490    5.0530    0.0000 O   0  0  0  0  0  0  0  0  0  0  0  0
    0.9500    2.8030    0.0000 C   0  0  2  0  0  0  0  0  0  0  0  0
    0.9500    1.3030    0.0000 N   0  0  0  0  0  0  0  0  0  0  0  0
    2.2490    3.5530    0.0000 C   0  0  0  0  0  0  0  0  0  0  0  0
    3.5480    2.8030    0.0000 C   0  0  2  0  0  0  0  0  0  0  0  0
    4.9180    3.4130    0.0000 C   0  0  0  0  0  0  0  0  0  0  0  0
    5.2300    4.8810    0.0000 O   0  0  0  0  0  0  0  0  0  0  0  0
    5.9220    2.2990    0.0000 N   0  0  0  0  0  0  0  0  0  0  0  0
    5.1720    1.0000    0.0000 C   0  0  0  0  0  0  0  0  0  0  0  0
    3.7050    1.3110    0.0000 C   0  0  0  0  0  0  0  0  0  0  0  0
  1  2  2  0  0  0  0
  1  3  2  0  0  0  0
  1  4  1  0  0  0  0
  1  5  1  0  0  0  0
  5  6  1  0  0  0  0
  5  7  1  0  0  0  0
  7  8  1  1  0  0  0
  7  9  1  0  0  0  0
 10  9  1  6  0  0  0
 10 11  1  0  0  0  0
 10 15  1  0  0  0  0
 11 12  2  0  0  0  0
 11 13  1  0  0  0  0
 13 14  1  0  0  0  0
 14 15  1  0  0  0  0
M  CHG  1   4  -1
M  END
>  <name>
S(=O)(=O)([O-])C(O)[C@H]([N;amide])C[C@@H]1C(=O)NCC1

>  <apo>
1

>  <freq>
1

>  <freq0>
0

>  <freq1>
1

>  <freqA>
0.99700278

>  <a_count>
28

$$$$

  MOE2015           2D

 11 11  0  0  0  0  0  0  0  0999 V2000
   -2.0450   -2.0450    0.0000 C   0  0  0  0  0  0  0  0  0  0  0  0
   -2.0450   -0.5450    0.0000 C   0  0  0  0  0  0  0  0  0  0  0  0
   -2.0450   -3.5450    0.0000 C   0  0  0  0  0  0  0  0  0  0  0  0
   -3.5450   -2.0450    0.0000 C   0  0  0  0  0  0  0  0  0  0  0  0
   -0.5450   -2.0450    0.0000 C   0  0  0  0  0  0  0  0  0  0  0  0
    0.2050   -0.7460    0.0000 C   0  0  0  0  0  0  0  0  0  0  0  0
    1.7050   -0.7460    0.0000 C   0  0  0  0  0  0  0  0  0  0  0  0
    2.4550   -2.0450    0.0000 C   0  0  0  0  0  0  0  0  0  0  0  0
    3.9550   -2.0450    0.0000 C   0  0  0  0  0  0  0  0  0  0  0  0
    1.7050   -3.3440    0.0000 C   0  0  0  0  0  0  0  0  0  0  0  0
    0.2050   -3.3440    0.0000 C   0  0  0  0  0  0  0  0  0  0  0  0
  1  2  1  0  0  0  0
  1  3  1  0  0  0  0
  1  4  1  0  0  0  0
  1  5  1  0  0  0  0
  5  6  1  0  0  0  0
  5 11  2  0  0  0  0
  6  7  2  0  0  0  0
  7  8  1  0  0  0  0
  8  9  1  0  0  0  0
  8 10  2  0  0  0  0
 10 11  1  0  0  0  0
M  END
>  <name>
C(C)(C)(C)c1ccc([C;amine])cc1

>  <apo>
1

>  <freq>
1

>  <freq0>
0

>  <freq1>
1

>  <freqA>
0.99700278

>  <a_count>
27

$$$$

  MOE2015           2D

 13 14  0  0  0  0  0  0  0  0999 V2000
    6.7780   -3.9140    0.0000 C   0  0  0  0  0  0  0  0  0  0  0  0
    6.0280   -2.6140    0.0000 C   0  0  0  0  0  0  0  0  0  0  0  0
    4.5280   -2.6140    0.0000 C   0  0  0  0  0  0  0  0  0  0  0  0
    3.6470   -3.8280    0.0000 N   0  0  0  0  0  0  0  0  0  0  0  0
    2.2200   -3.3640    0.0000 C   0  0  0  0  0  0  0  0  0  0  0  0
    2.2200   -1.8640    0.0000 C   0  0  0  0  0  0  0  0  0  0  0  0
    0.9210   -1.1140    0.0000 C   0  0  0  0  0  0  0  0  0  0  0  0
    0.9210    0.3860    0.0000 C   0  0  0  0  0  0  0  0  0  0  0  0
   -0.3780   -1.8640    0.0000 C   0  0  0  0  0  0  0  0  0  0  0  0
   -0.3780   -3.3640    0.0000 C   0  0  0  0  0  0  0  0  0  0  0  0
    0.9210   -4.1140    0.0000 C   0  0  0  0  0  0  0  0  0  0  0  0
    3.6470   -1.4010    0.0000 N   0  0  0  0  0  0  0  0  0  0  0  0
    8.2780   -3.9140    0.0000 C   0  0  0  0  0  0  0  0  0  0  0  0
  1  2  1  0  0  0  0
  1 13  1  0  0  0  0
  2  3  1  0  0  0  0
  3  4  1  0  0  0  0
  3 12  2  0  0  0  0
  4  5  1  0  0  0  0
  5  6  1  0  0  0  0
  5 11  2  0  0  0  0
  6  7  2  0  0  0  0
  6 12  1  0  0  0  0
  7  8  1  0  0  0  0
  7  9  1  0  0  0  0
  9 10  2  0  0  0  0
 10 11  1  0  0  0  0
M  END
>  <name>
C(Cc1[nH;NaroC]c2c(c(C)c[c;biphenyl]c2)n1)C

>  <apo>
2

>  <freq>
1

>  <freq0>
0

>  <freq1>
1

>  <freqA>
0.99700278

>  <a_count>
27

$$$$

  MOE2015           2D

 15 16  0  0  0  0  0  0  0  0999 V2000
    0.0000    0.0000    0.0000 Cl  0  0  0  0  0  0  0  0  0  0  0  0
    1.5000    0.0000    0.0000 C   0  0  0  0  0  0  0  0  0  0  0  0
    2.2500   -1.2990    0.0000 C   0  0  0  0  0  0  0  0  0  0  0  0
    1.5000   -2.5980    0.0000 Cl  0  0  0  0  0  0  0  0  0  0  0  0
    3.7500   -1.2990    0.0000 C   0  0  0  0  0  0  0  0  0  0  0  0
    4.5000    0.0000    0.0000 C   0  0  0  0  0  0  0  0  0  0  0  0
    6.0000    0.0000    0.0000 C   0  0  0  0  0  0  0  0  0  0  0  0
    6.7500   -1.2990    0.0000 C   0  0  0  0  0  0  0  0  0  0  0  0
    8.2500   -1.2990    0.0000 C   0  0  0  0  0  0  0  0  0  0  0  0
    9.0000    0.0000    0.0000 N   0  0  0  0  0  0  0  0  0  0  0  0
    8.2500    1.2990    0.0000 C   0  0  0  0  0  0  0  0  0  0  0  0
    6.7500    1.2990    0.0000 C   0  0  0  0  0  0  0  0  0  0  0  0
    3.7500    1.2990    0.0000 C   0  0  0  0  0  0  0  0  0  0  0  0
    2.2500    1.2990    0.0000 C   0  0  0  0  0  0  0  0  0  0  0  0
    1.5000    2.5980    0.0000 Cl  0  0  0  0  0  0  0  0  0  0  0  0
  1  2  1  0  0  0  0
  2  3  1  0  0  0  0
  2 14  2  0  0  0  0
  3  4  1  0  0  0  0
  3  5  2  0  0  0  0
  5  6  1  0  0  0  0
  6  7  1  0  0  0  0
  6 13  2  0  0  0  0
  7  8  1  0  0  0  0
  7 12  1  0  0  0  0
  8  9  1  0  0  0  0
  9 10  1  0  0  0  0
 10 11  1  0  0  0  0
 11 12  1  0  0  0  0
 13 14  1  0  0  0  0
 14 15  1  0  0  0  0
M  END
>  <name>
Clc1c(Cl)cc(C2CC[N;amide]CC2)cc1Cl

>  <apo>
1

>  <freq>
1

>  <freq0>
0

>  <freq1>
1

>  <freqA>
0.99700278

>  <a_count>
27

$$$$

  MOE2015           2D

 19 22  0  0  0  0  0  0  0  0999 V2000
   11.4870    1.9850    0.0000 Cl  0  0  0  0  0  0  0  0  0  0  0  0
   10.1770    2.7160    0.0000 C   0  0  0  0  0  0  0  0  0  0  0  0
    8.8890    1.9470    0.0000 C   0  0  0  0  0  0  0  0  0  0  0  0
    7.5790    2.6770    0.0000 C   0  0  0  0  0  0  0  0  0  0  0  0
    6.2910    1.9080    0.0000 N   0  0  0  0  0  0  0  0  0  0  0  0
    4.9120    2.4980    0.0000 C   0  0  0  0  0  0  0  0  0  0  0  0
    4.4280    3.9180    0.0000 N   0  0  0  0  0  0  0  0  0  0  0  0
    2.9560    4.2080    0.0000 C   0  0  0  0  0  0  0  0  0  0  0  0
    1.9690    3.0780    0.0000 N   0  0  0  0  0  0  0  0  0  0  0  0
    2.4530    1.6590    0.0000 C   0  0  0  0  0  0  0  0  0  0  0  0
    1.2530    0.7590    0.0000 N   0  0  0  0  0  0  0  0  0  0  0  0
    0.0270    1.6230    0.0000 N   0  0  0  0  0  0  0  0  0  0  0  0
    0.4690    3.0560    0.0000 C   0  0  0  0  0  0  0  0  0  0  0  0
    3.9250    1.3690    0.0000 C   0  0  0  0  0  0  0  0  0  0  0  0
    4.6940    0.0810    0.0000 C   0  0  0  0  0  0  0  0  0  0  0  0
    6.1570    0.4140    0.0000 C   0  0  0  0  0  0  0  0  0  0  0  0
    7.5570    4.1770    0.0000 C   0  0  0  0  0  0  0  0  0  0  0  0
    8.8450    4.9460    0.0000 C   0  0  0  0  0  0  0  0  0  0  0  0
   10.1550    4.2160    0.0000 C   0  0  0  0  0  0  0  0  0  0  0  0
  1  2  1  0  0  0  0
  2  3  1  0  0  0  0
  2 19  2  0  0  0  0
  3  4  2  0  0  0  0
  4  5  1  0  0  0  0
  4 17  1  0  0  0  0
  5  6  1  0  0  0  0
  5 16  1  0  0  0  0
  6  7  1  0  0  0  0
  6 14  2  0  0  0  0
  7  8  2  0  0  0  0
  8  9  1  0  0  0  0
  9 10  1  0  0  0  0
  9 13  1  0  0  0  0
 10 11  2  0  0  0  0
 10 14  1  0  0  0  0
 11 12  1  0  0  0  0
 12 13  2  0  0  0  0
 14 15  1  0  0  0  0
 15 16  2  0  0  0  0
 17 18  2  0  0  0  0
 18 19  1  0  0  0  0
M  END
>  <name>
Clc1cc(-n2c3N=Cn4c(nnc4)-c3[c;biphenyl]c2)ccc1

>  <apo>
1

>  <freq>
1

>  <freq0>
0

>  <freq1>
1

>  <freqA>
0.99700278

>  <a_count>
27

$$$$

  MOE2015           2D

 20 23  0  0  0  0  0  0  0  0999 V2000
   12.8320   -0.8570    0.0000 Cl  0  0  0  0  0  0  0  0  0  0  0  0
   11.5280   -0.1160    0.0000 C   0  0  0  0  0  0  0  0  0  0  0  0
   10.2340   -0.8750    0.0000 C   0  0  0  0  0  0  0  0  0  0  0  0
    8.9300   -0.1340    0.0000 C   0  0  0  0  0  0  0  0  0  0  0  0
    8.9190    1.3660    0.0000 C   0  0  0  0  0  0  0  0  0  0  0  0
    7.6150    2.1070    0.0000 N   0  0  0  0  0  0  0  0  0  0  0  0
    6.2490    1.4870    0.0000 C   0  0  0  0  0  0  0  0  0  0  0  0
    5.7950    0.0580    0.0000 N   0  0  0  0  0  0  0  0  0  0  0  0
    4.3300   -0.2640    0.0000 C   0  0  0  0  0  0  0  0  0  0  0  0
    3.3190    0.8440    0.0000 N   0  0  0  0  0  0  0  0  0  0  0  0
    1.8190    0.8330    0.0000 C   0  0  0  0  0  0  0  0  0  0  0  0
    0.9460   -0.3860    0.0000 S   0  0  0  0  0  0  0  0  0  0  0  0
    1.3460    2.2570    0.0000 N   0  5  0  0  0  0  0  0  0  0  0  0
    2.5530    3.1470    0.0000 N   0  0  0  0  0  0  0  0  0  0  0  0
    3.7730    2.2730    0.0000 C   0  0  0  0  0  0  0  0  0  0  0  0
    5.2380    2.5950    0.0000 C   0  0  0  0  0  0  0  0  0  0  0  0
    5.9790    3.8990    0.0000 C   0  0  0  0  0  0  0  0  0  0  0  0
    7.4480    3.5980    0.0000 C   0  0  0  0  0  0  0  0  0  0  0  0
   10.2130    2.1250    0.0000 C   0  0  0  0  0  0  0  0  0  0  0  0
   11.5170    1.3840    0.0000 C   0  0  0  0  0  0  0  0  0  0  0  0
  1  2  1  0  0  0  0
  2  3  1  0  0  0  0
  2 20  2  0  0  0  0
  3  4  2  0  0  0  0
  4  5  1  0  0  0  0
  5  6  1  0  0  0  0
  5 19  2  0  0  0  0
  6  7  1  0  0  0  0
  6 18  1  0  0  0  0
  7  8  1  0  0  0  0
  7 16  2  0  0  0  0
  8  9  2  0  0  0  0
  9 10  1  0  0  0  0
 10 11  1  0  0  0  0
 10 15  1  0  0  0  0
 11 12  2  0  0  0  0
 11 13  1  0  0  0  0
 13 14  1  0  0  0  0
 14 15  2  0  0  0  0
 15 16  1  0  0  0  0
 16 17  1  0  0  0  0
 17 18  2  0  0  0  0
 19 20  1  0  0  0  0
M  CHG  1  13  -1
M  END
>  <name>
Clc1ccc(-n2c3N=CN4C(=S)[N-]N=C4c3[c;biphenyl]c2)cc1

>  <apo>
1

>  <freq>
1

>  <freq0>
0

>  <freq1>
1

>  <freqA>
0.99700278

>  <a_count>
27

$$$$

  MOE2015           2D

 16 17  0  0  0  0  0  0  0  0999 V2000
    0.3750   -4.5470    0.0000 F   0  0  0  0  0  0  0  0  0  0  0  0
    1.1250   -3.2480    0.0000 C   0  0  0  0  0  0  0  0  0  0  0  0
    2.6250   -3.2480    0.0000 C   0  0  0  0  0  0  0  0  0  0  0  0
    3.3750   -1.9490    0.0000 C   0  0  0  0  0  0  0  0  0  0  0  0
    4.8750   -1.9490    0.0000 C   0  0  0  0  0  0  0  0  0  0  0  0
    5.6250   -3.2480    0.0000 O   0  0  0  0  0  0  0  0  0  0  0  0
    7.1250   -3.2480    0.0000 C   0  0  0  0  0  0  0  0  0  0  0  0
    7.8750   -4.5470    0.0000 C   0  0  0  0  0  0  0  0  0  0  0  0
    9.3750   -4.5470    0.0000 C   0  0  0  0  0  0  0  0  0  0  0  0
    5.6250   -0.6500    0.0000 C   0  0  0  0  0  0  0  0  0  0  0  0
    4.8750    0.6500    0.0000 C   0  0  0  0  0  0  0  0  0  0  0  0
    5.6250    1.9490    0.0000 O   0  0  0  0  0  0  0  0  0  0  0  0
    3.3750    0.6500    0.0000 O   0  0  0  0  0  0  0  0  0  0  0  0
    2.6250   -0.6500    0.0000 C   0  0  0  0  0  0  0  0  0  0  0  0
    1.1250   -0.6500    0.0000 C   0  0  0  0  0  0  0  0  0  0  0  0
    0.3750   -1.9490    0.0000 C   0  0  0  0  0  0  0  0  0  0  0  0
  1  2  1  0  0  0  0
  2  3  1  0  0  0  0
  2 16  2  0  0  0  0
  3  4  2  0  0  0  0
  4  5  1  0  0  0  0
  4 14  1  0  0  0  0
  5  6  1  0  0  0  0
  5 10  2  0  0  0  0
  6  7  1  0  0  0  0
  7  8  1  0  0  0  0
  8  9  1  0  0  0  0
 10 11  1  0  0  0  0
 11 12  2  0  0  0  0
 11 13  1  0  0  0  0
 13 14  1  0  0  0  0
 14 15  2  0  0  0  0
 15 16  1  0  0  0  0
M  END
>  <name>
Fc1cc2C(OCC[C;ether])=CC(=O)Oc2cc1

>  <apo>
1

>  <freq>
1

>  <freq0>
0

>  <freq1>
1

>  <freqA>
0.99700278

>  <a_count>
27

$$$$

  MOE2015           2D

 17 17  0  0  0  0  0  0  0  0999 V2000
    1.6230    0.7860    0.0000 O   0  0  0  0  0  0  0  0  0  0  0  0
    0.8650    2.0800    0.0000 N   0  0  0  0  0  0  0  0  0  0  0  0
   -0.6350    2.0710    0.0000 C   0  0  0  0  0  0  0  0  0  0  0  0
   -1.3930    3.3660    0.0000 C   0  0  0  0  0  0  0  0  0  0  0  0
   -0.6510    4.6690    0.0000 O   0  0  0  0  0  0  0  0  0  0  0  0
   -1.3770    0.7680    0.0000 C   0  0  0  0  0  0  0  0  0  0  0  0
   -2.8680    0.6020    0.0000 N   0  0  0  0  0  0  0  0  0  0  0  0
   -3.1710   -0.8670    0.0000 C   0  0  0  0  0  0  0  0  0  0  0  0
   -4.5380   -1.4860    0.0000 N   0  0  0  0  0  0  0  0  0  0  0  0
   -1.8670   -1.6090    0.0000 S   0  0  0  0  0  0  0  0  0  0  0  0
   -0.7590   -0.5990    0.0000 C   0  0  0  0  0  0  0  0  0  0  0  0
    3.1230    0.7950    0.0000 C   0  0  0  0  0  0  0  0  0  0  0  0
    4.6230    0.8040    0.0000 C   0  0  0  0  0  0  0  0  0  0  0  0
    5.3650    2.1080    0.0000 O   0  0  0  0  0  0  0  0  0  0  0  0
    5.3800   -0.4900    0.0000 O   0  5  0  0  0  0  0  0  0  0  0  0
    3.1130    2.2950    0.0000 C   0  0  0  0  0  0  0  0  0  0  0  0
    3.1320   -0.7050    0.0000 C   0  0  0  0  0  0  0  0  0  0  0  0
  1  2  1  0  0  0  0
  1 12  1  0  0  0  0
  2  3  2  0  0  0  0
  3  4  1  0  0  0  0
  3  6  1  0  0  0  0
  4  5  2  0  0  0  0
  6  7  1  0  0  0  0
  6 11  2  0  0  0  0
  7  8  2  0  0  0  0
  8  9  1  0  0  0  0
  8 10  1  0  0  0  0
 10 11  1  0  0  0  0
 12 13  1  0  0  0  0
 12 16  1  0  0  0  0
 12 17  1  0  0  0  0
 13 14  2  0  0  0  0
 13 15  1  0  0  0  0
M  CHG  1  15  -1
M  END
>  <name>
O(/N=C(/[C;amide]=O)\c1nc(N)sc1)C(C(=O)[O-])(C)C

>  <apo>
1

>  <freq>
1

>  <freq0>
0

>  <freq1>
1

>  <freqA>
0.99700278

>  <a_count>
27

$$$$

  MOE2015           2D

 17 17  0  0  0  0  0  0  0  0999 V2000
    3.6760    0.9970    0.0000 O   0  0  0  0  0  0  0  0  0  0  0  0
    2.3820    0.2390    0.0000 N   0  0  0  0  0  0  0  0  0  0  0  0
    1.0780    0.9810    0.0000 C   0  0  0  0  0  0  0  0  0  0  0  0
    1.0690    2.4810    0.0000 C   0  0  0  0  0  0  0  0  0  0  0  0
   -0.2340    3.2230    0.0000 O   0  0  0  0  0  0  0  0  0  0  0  0
   -0.2160    0.2230    0.0000 C   0  0  0  0  0  0  0  0  0  0  0  0
   -1.5900    0.8250    0.0000 N   0  0  0  0  0  0  0  0  0  0  0  0
   -2.5870   -0.2960    0.0000 C   0  0  0  0  0  0  0  0  0  0  0  0
   -4.0800   -0.1480    0.0000 N   0  0  0  0  0  0  0  0  0  0  0  0
   -1.8290   -1.5900    0.0000 S   0  0  0  0  0  0  0  0  0  0  0  0
   -0.3640   -1.2690    0.0000 C   0  0  0  0  0  0  0  0  0  0  0  0
    4.9800    0.2550    0.0000 C   0  0  0  0  0  0  0  0  0  0  0  0
    6.2840   -0.4870    0.0000 C   0  0  0  0  0  0  0  0  0  0  0  0
    6.2930   -1.9870    0.0000 O   0  0  0  0  0  0  0  0  0  0  0  0
    7.5780    0.2710    0.0000 O   0  5  0  0  0  0  0  0  0  0  0  0
    4.2380   -1.0480    0.0000 C   0  0  0  0  0  0  0  0  0  0  0  0
    5.7220    1.5590    0.0000 C   0  0  0  0  0  0  0  0  0  0  0  0
  1  2  1  0  0  0  0
  1 12  1  0  0  0  0
  2  3  2  0  0  0  0
  3  4  1  0  0  0  0
  3  6  1  0  0  0  0
  4  5  2  0  0  0  0
  6  7  1  0  0  0  0
  6 11  2  0  0  0  0
  7  8  2  0  0  0  0
  8  9  1  0  0  0  0
  8 10  1  0  0  0  0
 10 11  1  0  0  0  0
 12 13  1  0  0  0  0
 12 16  1  0  0  0  0
 12 17  1  0  0  0  0
 13 14  2  0  0  0  0
 13 15  1  0  0  0  0
M  CHG  1  15  -1
M  END
>  <name>
O(N=C([C;amide]=O)c1nc(N)sc1)C(C(=O)[O-])(C)C

>  <apo>
1

>  <freq>
1

>  <freq0>
0

>  <freq1>
1

>  <freqA>
0.99700278

>  <a_count>
27

$$$$

  MOE2015           2D

 14 14  0  0  0  0  0  0  0  0999 V2000
    7.7110   -2.0660    0.0000 O   0  0  0  0  0  0  0  0  0  0  0  0
    6.4120   -1.3160    0.0000 C   0  0  0  0  0  0  0  0  0  0  0  0
    5.1130   -2.0660    0.0000 N   0  0  0  0  0  0  0  0  0  0  0  0
    5.1130   -3.5660    0.0000 O   0  0  0  0  0  0  0  0  0  0  0  0
    6.4120   -4.3160    0.0000 C   0  0  0  0  0  0  0  0  0  0  0  0
    3.8140   -1.3160    0.0000 C   0  0  0  0  0  0  0  0  0  0  0  0
    2.5150   -2.0660    0.0000 C   0  0  0  0  0  0  0  0  0  0  0  0
    1.2160   -1.3160    0.0000 C   0  0  0  0  0  0  0  0  0  0  0  0
    1.2160    0.1840    0.0000 O   0  0  0  0  0  0  0  0  0  0  0  0
   -0.0830   -2.0660    0.0000 C   0  0  0  0  0  0  0  0  0  0  0  0
   -0.0830   -3.5660    0.0000 C   0  0  0  0  0  0  0  0  0  0  0  0
    1.2160   -4.3160    0.0000 C   0  0  0  0  0  0  0  0  0  0  0  0
    2.5150   -3.5660    0.0000 C   0  0  0  0  0  0  0  0  0  0  0  0
    6.4120    0.1840    0.0000 C   0  0  0  0  0  0  0  0  0  0  0  0
  1  2  2  0  0  0  0
  2  3  1  0  0  0  0
  2 14  1  0  0  0  0
  3  4  1  0  0  0  0
  3  6  1  0  0  0  0
  4  5  1  0  0  0  0
  6  7  1  0  0  0  0
  7  8  1  0  0  0  0
  7 13  2  0  0  0  0
  8  9  1  0  0  0  0
  8 10  2  0  0  0  0
 10 11  1  0  0  0  0
 11 12  2  0  0  0  0
 12 13  1  0  0  0  0
M  END
>  <name>
O=C(N(OC)Cc1c([O;ether])cccc1)[C;thioether]

>  <apo>
2

>  <freq>
1

>  <freq0>
0

>  <freq1>
1

>  <freqA>
0.99700278

>  <a_count>
27

$$$$

  MOE2015           2D

 15 15  0  0  0  0  0  0  0  0999 V2000
    6.6570   -1.6570    0.0000 O   0  0  0  0  0  0  0  0  0  0  0  0
    6.6570   -3.1570    0.0000 C   0  0  0  0  0  0  0  0  0  0  0  0
    7.9560   -3.9070    0.0000 N   0  0  0  0  0  0  0  0  0  0  0  0
    5.3580   -3.9070    0.0000 C   0  0  0  0  0  0  0  0  0  0  0  0
    4.0590   -3.1570    0.0000 C   0  0  0  0  0  0  0  0  0  0  0  0
    2.7600   -3.9070    0.0000 C   0  0  0  0  0  0  0  0  0  0  0  0
    2.7600   -5.4070    0.0000 N   0  0  0  0  0  0  0  0  0  0  0  0
    1.4610   -6.1570    0.0000 C   0  0  0  0  0  0  0  0  0  0  0  0
    1.4610   -7.6570    0.0000 N   0  0  0  0  0  0  0  0  0  0  0  0
    0.1620   -5.4070    0.0000 C   0  0  0  0  0  0  0  0  0  0  0  0
   -1.1370   -6.1570    0.0000 C   0  0  0  0  0  0  0  0  0  0  0  0
    0.1620   -3.9070    0.0000 C   0  0  0  0  0  0  0  0  0  0  0  0
   -1.1370   -3.1570    0.0000 C   0  0  0  0  0  0  0  0  0  0  0  0
   -1.1370   -1.6570    0.0000 O   0  0  0  0  0  0  0  0  0  0  0  0
    1.4610   -3.1570    0.0000 N   0  0  0  0  0  0  0  0  0  0  0  0
  1  2  2  0  0  0  0
  2  3  1  0  0  0  0
  2  4  1  0  0  0  0
  4  5  1  0  0  0  0
  5  6  1  0  0  0  0
  6  7  1  0  0  0  0
  6 15  2  0  0  0  0
  7  8  2  0  0  0  0
  8  9  1  0  0  0  0
  8 10  1  0  0  0  0
 10 11  1  0  0  0  0
 10 12  2  0  0  0  0
 12 13  1  0  0  0  0
 12 15  1  0  0  0  0
 13 14  2  0  0  0  0
M  END
>  <name>
O=C(N)C[C;amine]c1nc(N)c(C)c([C;amide]=O)n1

>  <apo>
2

>  <freq>
1

>  <freq0>
0

>  <freq1>
1

>  <freqA>
0.99700278

>  <a_count>
27

$$$$

  MOE2015           2D

 12 11  0  0  1  0  0  0  0  0999 V2000
    3.4490   -0.4490    0.0000 O   0  0  0  0  0  0  0  0  0  0  0  0
    3.4490   -1.9490    0.0000 C   0  0  0  0  0  0  0  0  0  0  0  0
    4.7480   -2.6990    0.0000 O   0  0  0  0  0  0  0  0  0  0  0  0
    6.0470   -1.9490    0.0000 C   0  0  0  0  0  0  0  0  0  0  0  0
    2.1500   -2.6990    0.0000 N   0  0  0  0  0  0  0  0  0  0  0  0
    0.8500   -1.9490    0.0000 C   0  0  1  0  0  0  0  0  0  0  0  0
   -0.4490   -2.6990    0.0000 C   0  0  0  0  0  0  0  0  0  0  0  0
   -1.1990   -1.4000    0.0000 C   0  0  0  0  0  0  0  0  0  0  0  0
    0.3010   -3.9980    0.0000 C   0  0  0  0  0  0  0  0  0  0  0  0
   -1.7480   -3.4490    0.0000 C   0  0  0  0  0  0  0  0  0  0  0  0
    0.8500   -0.4490    0.0000 C   0  0  0  0  0  0  0  0  0  0  0  0
   -0.4490    0.3010    0.0000 O   0  0  0  0  0  0  0  0  0  0  0  0
  1  2  2  0  0  0  0
  2  3  1  0  0  0  0
  2  5  1  0  0  0  0
  3  4  1  0  0  0  0
  6  5  1  1  0  0  0
  6  7  1  0  0  0  0
  6 11  1  0  0  0  0
  7  8  1  0  0  0  0
  7  9  1  0  0  0  0
  7 10  1  0  0  0  0
 11 12  2  0  0  0  0
M  END
>  <name>
O=C(OC)N[C@@H](C(C)(C)C)[C;amide]=O

>  <apo>
1

>  <freq>
1

>  <freq0>
0

>  <freq1>
1

>  <freqA>
0.99700278

>  <a_count>
27

$$$$

  MOE2015           2D

 14 14  0  0  1  0  0  0  0  0999 V2000
   -1.8300   -1.8300    0.0000 O   0  0  0  0  0  0  0  0  0  0  0  0
   -1.8300   -3.3300    0.0000 C   0  0  0  0  0  0  0  0  0  0  0  0
   -0.5310   -4.0800    0.0000 O   0  0  0  0  0  0  0  0  0  0  0  0
    0.7680   -3.3300    0.0000 C   0  0  3  0  0  0  0  0  0  0  0  0
    2.0670   -4.0800    0.0000 C   0  0  3  0  0  0  0  0  0  0  0  0
    2.0670   -5.5800    0.0000 O   0  0  0  0  0  0  0  0  0  0  0  0
    3.3660   -3.3300    0.0000 C   0  0  3  0  0  0  0  0  0  0  0  0
    4.6650   -4.0800    0.0000 C   0  0  0  0  0  0  0  0  0  0  0  0
    5.9640   -3.3300    0.0000 O   0  0  0  0  0  0  0  0  0  0  0  0
    3.3660   -1.8300    0.0000 O   0  0  0  0  0  0  0  0  0  0  0  0
    2.0670   -1.0800    0.0000 C   0  0  0  0  0  0  0  0  0  0  0  0
    0.7680   -1.8300    0.0000 C   0  0  3  0  0  0  0  0  0  0  0  0
   -0.5310   -1.0800    0.0000 O   0  0  0  0  0  0  0  0  0  0  0  0
   -3.1290   -4.0800    0.0000 N   0  0  0  0  0  0  0  0  0  0  0  0
  1  2  2  0  0  0  0
  2  3  1  0  0  0  0
  2 14  1  0  0  0  0
  3  4  1  0  0  0  0
  4  5  1  0  0  0  0
  4 12  1  0  0  0  0
  5  6  1  0  0  0  0
  5  7  1  0  0  0  0
  7  8  1  0  0  0  0
  7 10  1  0  0  0  0
  8  9  1  0  0  0  0
 10 11  1  0  0  0  0
 11 12  1  0  0  0  0
 12 13  1  0  0  0  0
M  END
>  <name>
O=C(OC1C(O)C(CO)O[C;ether]C1O)N

>  <apo>
1

>  <freq>
1

>  <freq0>
0

>  <freq1>
1

>  <freqA>
0.99700278

>  <a_count>
27

$$$$

  MOE2015           2D

 13 13  0  0  1  0  0  0  0  0999 V2000
    4.5580    4.5580    0.0000 O   0  0  0  0  0  0  0  0  0  0  0  0
    4.5580    3.0580    0.0000 C   0  0  0  0  0  0  0  0  0  0  0  0
    3.2590    2.3080    0.0000 C   0  0  1  0  0  0  0  0  0  0  0  0
    3.2590    0.8080    0.0000 N   0  0  0  0  0  0  0  0  0  0  0  0
    1.9600    3.0580    0.0000 C   0  0  0  0  0  0  0  0  0  0  0  0
    0.6610    2.3080    0.0000 C   0  0  1  0  0  0  0  0  0  0  0  0
   -0.7100    2.9180    0.0000 C   0  0  0  0  0  0  0  0  0  0  0  0
   -1.0210    4.3850    0.0000 O   0  0  0  0  0  0  0  0  0  0  0  0
   -1.7130    1.8030    0.0000 N   0  0  0  0  0  0  0  0  0  0  0  0
   -0.9630    0.5040    0.0000 C   0  0  0  0  0  0  0  0  0  0  0  0
    0.5040    0.8160    0.0000 C   0  0  0  0  0  0  0  0  0  0  0  0
    5.8570    2.3080    0.0000 C   0  0  0  0  0  0  0  0  0  0  0  0
    7.1560    3.0580    0.0000 O   0  0  0  0  0  0  0  0  0  0  0  0
  1  2  2  0  0  0  0
  2  3  1  0  0  0  0
  2 12  1  0  0  0  0
  3  4  1  1  0  0  0
  3  5  1  0  0  0  0
  6  5  1  6  0  0  0
  6  7  1  0  0  0  0
  6 11  1  0  0  0  0
  7  8  2  0  0  0  0
  7  9  1  0  0  0  0
  9 10  1  0  0  0  0
 10 11  1  0  0  0  0
 12 13  1  0  0  0  0
M  END
>  <name>
O=C([C@@H]([N;amide])C[C@H]1C(=O)NCC1)CO

>  <apo>
1

>  <freq>
1

>  <freq0>
0

>  <freq1>
1

>  <freqA>
0.99700278

>  <a_count>
27

$$$$

  MOE2015           2D

 14 15  0  0  0  0  0  0  0  0999 V2000
    2.2360    3.8740    0.0000 O   0  0  0  0  0  0  0  0  0  0  0  0
    2.9860    2.5750    0.0000 C   0  0  0  0  0  0  0  0  0  0  0  0
    4.4860    2.5750    0.0000 O   0  5  0  0  0  0  0  0  0  0  0  0
    2.2360    1.2760    0.0000 C   0  0  0  0  0  0  0  0  0  0  0  0
    2.9860   -0.0230    0.0000 C   0  0  0  0  0  0  0  0  0  0  0  0
    4.4860   -0.0230    0.0000 C   0  0  0  0  0  0  0  0  0  0  0  0
    5.3680   -1.2370    0.0000 C   0  0  0  0  0  0  0  0  0  0  0  0
    6.7950   -0.7730    0.0000 C   0  0  0  0  0  0  0  0  0  0  0  0
    6.7950    0.7270    0.0000 C   0  0  0  0  0  0  0  0  0  0  0  0
    5.3680    1.1900    0.0000 C   0  0  0  0  0  0  0  0  0  0  0  0
    2.2360   -1.3230    0.0000 C   0  0  0  0  0  0  0  0  0  0  0  0
    0.7360   -1.3230    0.0000 C   0  0  0  0  0  0  0  0  0  0  0  0
   -0.0140   -0.0230    0.0000 C   0  0  0  0  0  0  0  0  0  0  0  0
    0.7360    1.2760    0.0000 C   0  0  0  0  0  0  0  0  0  0  0  0
  1  2  2  0  0  0  0
  2  3  1  0  0  0  0
  2  4  1  0  0  0  0
  4  5  1  0  0  0  0
  4 14  2  0  0  0  0
  5  6  1  0  0  0  0
  5 11  2  0  0  0  0
  6  7  1  0  0  0  0
  6 10  1  0  0  0  0
  7  8  1  0  0  0  0
  8  9  1  0  0  0  0
  9 10  1  0  0  0  0
 11 12  1  0  0  0  0
 12 13  2  0  0  0  0
 13 14  1  0  0  0  0
M  CHG  1   3  -1
M  END
>  <name>
O=C([O-])c1c(C2CCCC2)c[c;biphenyl]cc1

>  <apo>
1

>  <freq>
1

>  <freq0>
0

>  <freq1>
1

>  <freqA>
0.99700278

>  <a_count>
27

$$$$

  MOE2015           2D

 13 13  0  0  1  0  0  0  0  0999 V2000
    9.7280    2.6070    0.0000 O   0  0  0  0  0  0  0  0  0  0  0  0
    8.4290    1.8570    0.0000 C   0  0  0  0  0  0  0  0  0  0  0  0
    7.1300    2.6070    0.0000 C   0  0  3  0  0  0  0  0  0  0  0  0
    7.1300    4.1070    0.0000 O   0  0  0  0  0  0  0  0  0  0  0  0
    5.8310    1.8570    0.0000 C   0  0  3  0  0  0  0  0  0  0  0  0
    5.8310    0.3570    0.0000 N   0  0  0  0  0  0  0  0  0  0  0  0
    4.5320    2.6070    0.0000 C   0  0  0  0  0  0  0  0  0  0  0  0
    3.2330    1.8570    0.0000 C   0  0  3  0  0  0  0  0  0  0  0  0
    1.8620    2.4670    0.0000 C   0  0  0  0  0  0  0  0  0  0  0  0
    1.5500    3.9340    0.0000 O   0  0  0  0  0  0  0  0  0  0  0  0
    0.8590    1.3520    0.0000 N   0  0  0  0  0  0  0  0  0  0  0  0
    1.6090    0.0530    0.0000 C   0  0  0  0  0  0  0  0  0  0  0  0
    3.0760    0.3650    0.0000 C   0  0  0  0  0  0  0  0  0  0  0  0
  1  2  2  0  0  0  0
  2  3  1  0  0  0  0
  3  4  1  0  0  0  0
  3  5  1  0  0  0  0
  5  6  1  0  0  0  0
  5  7  1  0  0  0  0
  7  8  1  0  0  0  0
  8  9  1  0  0  0  0
  8 13  1  0  0  0  0
  9 10  2  0  0  0  0
  9 11  1  0  0  0  0
 11 12  1  0  0  0  0
 12 13  1  0  0  0  0
M  END
>  <name>
O=[C;amide]C(O)C([N;amide])CC1C(=O)NCC1

>  <apo>
2

>  <freq>
1

>  <freq0>
0

>  <freq1>
1

>  <freqA>
0.99700278

>  <a_count>
27

$$$$

  MOE2015           2D

 13 14  0  0  0  0  0  0  0  0999 V2000
    8.6910    2.3550    0.0000 O   0  0  0  0  0  0  0  0  0  0  0  0
    7.3970    1.5980    0.0000 C   0  0  0  0  0  0  0  0  0  0  0  0
    6.0930    2.3410    0.0000 C   0  0  0  0  0  0  0  0  0  0  0  0
    4.7260    1.7230    0.0000 S   0  0  0  0  0  0  0  0  0  0  0  0
    3.7160    2.8320    0.0000 C   0  0  0  0  0  0  0  0  0  0  0  0
    4.4590    4.1350    0.0000 N   0  0  0  0  0  0  0  0  0  0  0  0
    5.9280    3.8310    0.0000 N   0  0  0  0  0  0  0  0  0  0  0  0
    3.2090    1.4200    0.0000 C   0  0  0  0  0  0  0  0  0  0  0  0
    1.7880    0.9390    0.0000 C   0  0  0  0  0  0  0  0  0  0  0  0
    0.5260    1.7480    0.0000 C   0  0  0  0  0  0  0  0  0  0  0  0
    0.3710    3.2400    0.0000 C   0  0  0  0  0  0  0  0  0  0  0  0
    1.4410    4.2910    0.0000 C   0  0  0  0  0  0  0  0  0  0  0  0
    2.9300    4.1090    0.0000 C   0  0  0  0  0  0  0  0  0  0  0  0
  1  2  2  0  0  0  0
  2  3  1  0  0  0  0
  3  4  1  0  0  0  0
  3  7  2  0  0  0  0
  4  5  1  0  0  0  0
  5  6  1  0  0  0  0
  5  8  1  0  0  0  0
  5 13  1  0  0  0  0
  6  7  1  0  0  0  0
  8  9  1  0  0  0  0
  9 10  1  0  0  0  0
 10 11  1  0  0  0  0
 11 12  1  0  0  0  0
 12 13  1  0  0  0  0
M  END
>  <name>
O=[C;amide]C=1SC2(NN=1)CCCCCC2

>  <apo>
1

>  <freq>
1

>  <freq0>
0

>  <freq1>
1

>  <freqA>
0.99700278

>  <a_count>
27

$$$$

  MOE2015           2D

 15 16  0  0  1  0  0  0  0  0999 V2000
   12.1210   -4.1570    0.0000 O   0  0  0  0  0  0  0  0  0  0  0  0
   10.6210   -4.1570    0.0000 C   0  0  0  0  0  0  0  0  0  0  0  0
    9.8710   -2.8580    0.0000 C   0  0  1  0  0  0  0  0  0  0  0  0
   10.6210   -1.5590    0.0000 N   0  0  0  0  0  0  0  0  0  0  0  0
    8.3710   -2.8580    0.0000 C   0  0  0  0  0  0  0  0  0  0  0  0
    7.6210   -1.5590    0.0000 C   0  0  0  0  0  0  0  0  0  0  0  0
    6.1210   -1.5590    0.0000 C   0  0  0  0  0  0  0  0  0  0  0  0
    5.2390   -0.3450    0.0000 S   0  0  0  0  0  0  0  0  0  0  0  0
    3.8130   -0.8090    0.0000 C   0  0  0  0  0  0  0  0  0  0  0  0
    3.8130   -2.3090    0.0000 C   0  0  0  0  0  0  0  0  0  0  0  0
    5.2390   -2.7720    0.0000 N   0  0  0  0  0  0  0  0  0  0  0  0
    2.5140   -3.0590    0.0000 C   0  0  0  0  0  0  0  0  0  0  0  0
    1.2150   -2.3090    0.0000 C   0  0  0  0  0  0  0  0  0  0  0  0
    1.2150   -0.8090    0.0000 C   0  0  0  0  0  0  0  0  0  0  0  0
    2.5140   -0.0590    0.0000 C   0  0  0  0  0  0  0  0  0  0  0  0
  1  2  2  0  0  0  0
  2  3  1  0  0  0  0
  3  4  1  6  0  0  0
  3  5  1  0  0  0  0
  5  6  1  0  0  0  0
  6  7  1  0  0  0  0
  7  8  1  0  0  0  0
  7 11  2  0  0  0  0
  8  9  1  0  0  0  0
  9 10  2  0  0  0  0
  9 15  1  0  0  0  0
 10 11  1  0  0  0  0
 10 12  1  0  0  0  0
 12 13  2  0  0  0  0
 13 14  1  0  0  0  0
 14 15  2  0  0  0  0
M  END
>  <name>
O=[C;amide][C@@H]([N;amide])CCc1sc2c(n1)cccc2

>  <apo>
2

>  <freq>
1

>  <freq0>
0

>  <freq1>
1

>  <freqA>
0.99700278

>  <a_count>
27

$$$$

  MOE2015           2D

 11 12  0  0  1  0  0  0  0  0999 V2000
    7.3700   -1.9830    0.0000 O   0  0  0  0  0  0  0  0  0  0  0  0
    6.0720   -1.2300    0.0000 C   0  0  0  0  0  0  0  0  0  0  0  0
    4.7720   -1.9780    0.0000 C   0  0  1  0  0  0  0  0  0  0  0  0
    3.1530   -1.7650    0.0000 C   0  0  3  0  0  0  0  0  0  0  0  0
    2.3220   -0.5520    0.0000 C   0  0  0  0  0  0  0  0  0  0  0  0
    1.8580   -1.8600    0.0000 C   0  0  2  0  0  0  0  0  0  0  0  0
    0.3720   -2.0630    0.0000 C   0  0  0  0  0  0  0  0  0  0  0  0
    2.6910   -3.0430    0.0000 N   0  3  3  0  0  0  0  0  0  0  0  0
    4.2440   -3.2330    0.0000 C   0  0  0  0  0  0  0  0  0  0  0  0
    1.8120   -4.3820    0.0000 C   0  0  0  0  0  0  0  0  0  0  0  0
    1.9900   -3.2300    0.0000 C   0  0  0  0  0  0  0  0  0  0  0  0
  1  2  2  0  0  0  0
  3  2  1  6  0  0  0
  3  4  1  0  0  0  0
  3  9  1  0  0  0  0
  4  5  1  0  0  0  0
  4 11  1  0  0  0  0
  5  6  1  0  0  0  0
  6  7  1  1  0  0  0
  6  8  1  0  0  0  0
  8  9  1  0  0  0  0
  8 10  1  0  0  0  0
 10 11  1  0  0  0  0
M  CHG  1   8   1
M  END
>  <name>
O=[C;amide][C@H]1C2C[C@H]([C;NaroC])[N+](C1)CC2

>  <apo>
2

>  <freq>
1

>  <freq0>
0

>  <freq1>
1

>  <freqA>
0.99700278

>  <a_count>
27

$$$$

  MOE2015           2D

 11 10  0  0  0  0  0  0  0  0999 V2000
   11.7820   -2.7480    0.0000 O   0  0  0  0  0  0  0  0  0  0  0  0
   10.4830   -3.4980    0.0000 C   0  0  0  0  0  0  0  0  0  0  0  0
    9.1840   -2.7480    0.0000 C   0  0  0  0  0  0  0  0  0  0  0  0
    7.8850   -3.4980    0.0000 C   0  0  0  0  0  0  0  0  0  0  0  0
    6.5860   -2.7480    0.0000 C   0  0  0  0  0  0  0  0  0  0  0  0
    5.2870   -3.4980    0.0000 C   0  0  0  0  0  0  0  0  0  0  0  0
    3.9880   -2.7480    0.0000 C   0  0  0  0  0  0  0  0  0  0  0  0
    2.6880   -3.4980    0.0000 N   0  3  0  0  0  0  0  0  0  0  0  0
    1.3890   -2.7480    0.0000 C   0  0  0  0  0  0  0  0  0  0  0  0
    1.3890   -1.2480    0.0000 N   0  0  0  0  0  0  0  0  0  0  0  0
    0.0900   -3.4980    0.0000 N   0  0  0  0  0  0  0  0  0  0  0  0
  1  2  2  0  0  0  0
  2  3  1  0  0  0  0
  3  4  1  0  0  0  0
  4  5  1  0  0  0  0
  5  6  1  0  0  0  0
  6  7  1  0  0  0  0
  7  8  1  0  0  0  0
  8  9  2  0  0  0  0
  9 10  1  0  0  0  0
  9 11  1  0  0  0  0
M  CHG  1   8   1
M  END
>  <name>
O=[C;ester]CCCCC/[N+]=C(\N)/N

>  <apo>
1

>  <freq>
1

>  <freq0>
0

>  <freq1>
1

>  <freqA>
0.99700278

>  <a_count>
27

$$$$

  MOE2015           2D

 15 15  0  0  1  0  0  0  0  0999 V2000
   -0.8500    4.9360    0.0000 O   0  0  0  0  0  0  0  0  0  0  0  0
   -0.1000    3.6370    0.0000 N   0  3  0  0  0  0  0  0  0  0  0  0
   -0.8500    2.3380    0.0000 O   0  5  0  0  0  0  0  0  0  0  0  0
    1.4000    3.6370    0.0000 C   0  0  0  0  0  0  0  0  0  0  0  0
    2.1500    2.3380    0.0000 C   0  0  0  0  0  0  0  0  0  0  0  0
    3.6500    2.3380    0.0000 C   0  0  0  0  0  0  0  0  0  0  0  0
    4.4000    3.6370    0.0000 C   0  0  0  0  0  0  0  0  0  0  0  0
    5.9000    3.6370    0.0000 C   0  0  1  0  0  0  0  0  0  0  0  0
    6.6500    4.9360    0.0000 O   0  0  0  0  0  0  0  0  0  0  0  0
    6.6500    2.3380    0.0000 C   0  0  2  0  0  0  0  0  0  0  0  0
    5.9000    1.0390    0.0000 N   0  0  0  0  0  0  0  0  0  0  0  0
    8.1500    2.3380    0.0000 C   0  0  0  0  0  0  0  0  0  0  0  0
    8.9000    1.0390    0.0000 O   0  0  0  0  0  0  0  0  0  0  0  0
    3.6500    4.9360    0.0000 C   0  0  0  0  0  0  0  0  0  0  0  0
    2.1500    4.9360    0.0000 C   0  0  0  0  0  0  0  0  0  0  0  0
  1  2  2  0  0  0  0
  2  3  1  0  0  0  0
  2  4  1  0  0  0  0
  4  5  1  0  0  0  0
  4 15  2  0  0  0  0
  5  6  2  0  0  0  0
  6  7  1  0  0  0  0
  7  8  1  0  0  0  0
  7 14  2  0  0  0  0
  8  9  1  1  0  0  0
  8 10  1  0  0  0  0
 10 11  1  1  0  0  0
 10 12  1  0  0  0  0
 12 13  1  0  0  0  0
 14 15  1  0  0  0  0
M  CHG  1   2   1
M  CHG  1   3  -1
M  END
>  <name>
O=[N+]([O-])c1ccc([C@@H](O)[C@H]([N;amide])C[O;ester])cc1

>  <apo>
2

>  <freq>
1

>  <freq0>
0

>  <freq1>
1

>  <freqA>
0.99700278

>  <a_count>
27

$$$$

  MOE2015           2D

 12 12  0  0  1  0  0  0  0  0999 V2000
    7.7840   -2.4610    0.0000 O   0  0  0  0  0  0  0  0  0  0  0  0
    6.4850   -3.2110    0.0000 C   0  0  1  0  0  0  0  0  0  0  0  0
    5.1860   -2.4610    0.0000 C   0  0  1  0  0  0  0  0  0  0  0  0
    5.1860   -0.9610    0.0000 N   0  0  0  0  0  0  0  0  0  0  0  0
    3.8870   -3.2110    0.0000 C   0  0  0  0  0  0  0  0  0  0  0  0
    2.5880   -2.4610    0.0000 C   0  0  0  0  0  0  0  0  0  0  0  0
    1.2890   -3.2110    0.0000 C   0  0  0  0  0  0  0  0  0  0  0  0
   -0.0100   -2.4610    0.0000 C   0  0  0  0  0  0  0  0  0  0  0  0
   -0.0100   -0.9610    0.0000 C   0  0  0  0  0  0  0  0  0  0  0  0
    1.2890   -0.2110    0.0000 C   0  0  0  0  0  0  0  0  0  0  0  0
    2.5880   -0.9610    0.0000 C   0  0  0  0  0  0  0  0  0  0  0  0
    6.4850   -4.7110    0.0000 C   0  0  0  0  0  0  0  0  0  0  0  0
  2  1  1  6  0  0  0
  2  3  1  0  0  0  0
  2 12  1  0  0  0  0
  3  4  1  6  0  0  0
  3  5  1  0  0  0  0
  5  6  1  0  0  0  0
  6  7  1  0  0  0  0
  6 11  2  0  0  0  0
  7  8  2  0  0  0  0
  8  9  1  0  0  0  0
  9 10  2  0  0  0  0
 10 11  1  0  0  0  0
M  END
>  <name>
O[C@@H]([C@@H]([N;amide])Cc1ccccc1)[C;amine]

>  <apo>
2

>  <freq>
1

>  <freq0>
0

>  <freq1>
1

>  <freqA>
0.99700278

>  <a_count>
27

$$$$

  MOE2015           2D

 15 15  0  0  0  0  0  0  0  0999 V2000
    4.8780    1.3070    0.0000 S   0  0  0  0  0  0  0  0  0  0  0  0
    3.5790    0.5570    0.0000 O   0  0  0  0  0  0  0  0  0  0  0  0
    6.1770    2.0570    0.0000 O   0  0  0  0  0  0  0  0  0  0  0  0
    4.1280    2.6060    0.0000 O   0  0  0  0  0  0  0  0  0  0  0  0
    2.6280    2.6060    0.0000 C   0  0  0  0  0  0  0  0  0  0  0  0
    1.8780    3.9050    0.0000 C   0  0  0  0  0  0  0  0  0  0  0  0
    0.3780    3.9050    0.0000 C   0  0  0  0  0  0  0  0  0  0  0  0
   -0.3720    2.6060    0.0000 C   0  0  0  0  0  0  0  0  0  0  0  0
   -1.8720    2.6060    0.0000 C   0  0  0  0  0  0  0  0  0  0  0  0
   -2.6220    3.9050    0.0000 O   0  0  0  0  0  0  0  0  0  0  0  0
   -2.6220    1.3070    0.0000 C   0  0  0  0  0  0  0  0  0  0  0  0
    0.3780    1.3070    0.0000 C   0  0  0  0  0  0  0  0  0  0  0  0
    1.8780    1.3070    0.0000 C   0  0  0  0  0  0  0  0  0  0  0  0
    5.6280    0.0080    0.0000 C   0  0  0  0  0  0  0  0  0  0  0  0
    7.1280    0.0080    0.0000 C   0  0  0  0  0  0  0  0  0  0  0  0
  1  2  2  0  0  0  0
  1  3  2  0  0  0  0
  1  4  1  0  0  0  0
  1 14  1  0  0  0  0
  4  5  1  0  0  0  0
  5  6  1  0  0  0  0
  5 13  2  0  0  0  0
  6  7  2  0  0  0  0
  7  8  1  0  0  0  0
  8  9  1  0  0  0  0
  8 12  2  0  0  0  0
  9 10  2  0  0  0  0
  9 11  1  0  0  0  0
 12 13  1  0  0  0  0
 14 15  1  0  0  0  0
M  END
>  <name>
S(=O)(=O)(Oc1ccc(C(=O)[C;olefin])cc1)CC

>  <apo>
1

>  <freq>
1

>  <freq0>
0

>  <freq1>
1

>  <freqA>
0.99700278

>  <a_count>
27

$$$$

  MOE2015           2D

 14 15  0  0  1  0  0  0  0  0999 V2000
   -2.2670    0.7240    0.0000 S   0  0  0  0  0  0  0  0  0  0  0  0
   -2.2190   -0.7750    0.0000 O   0  0  0  0  0  0  0  0  0  0  0  0
   -2.3150    2.2230    0.0000 O   0  5  0  0  0  0  0  0  0  0  0  0
   -0.7680    0.7720    0.0000 N   0  0  0  0  0  0  0  0  0  0  0  0
   -0.0590    2.0940    0.0000 C   0  0  0  0  0  0  0  0  0  0  0  0
   -0.8500    3.3680    0.0000 O   0  0  0  0  0  0  0  0  0  0  0  0
    1.4400    2.1410    0.0000 C   0  0  2  0  0  0  0  0  0  0  0  0
    1.0060    3.5770    0.0000 N   0  0  0  0  0  0  0  0  0  0  0  0
    2.9330    1.9930    0.0000 C   0  0  1  0  0  0  0  0  0  0  0  0
    4.3000    2.6100    0.0000 C   0  0  0  0  0  0  0  0  0  0  0  0
    2.0580    0.7740    0.0000 C   0  0  0  0  0  0  0  0  0  0  0  0
   -3.7660    0.6760    0.0000 C   0  0  0  0  0  0  0  0  0  0  0  0
   -5.0410   -0.1140    0.0000 C   0  0  0  0  0  0  0  0  0  0  0  0
   -5.0880    1.3850    0.0000 C   0  0  0  0  0  0  0  0  0  0  0  0
  1  2  2  0  0  0  0
  1  3  1  0  0  0  0
  1  4  2  0  0  0  0
  1 12  1  0  0  0  0
  4  5  1  0  0  0  0
  5  6  2  0  0  0  0
  7  5  1  6  0  0  0
  7  8  1  1  0  0  0
  7  9  1  0  0  0  0
  7 11  1  0  0  0  0
  9 10  1  1  0  0  0
  9 11  1  0  0  0  0
 12 13  1  0  0  0  0
 12 14  1  0  0  0  0
 13 14  1  0  0  0  0
M  CHG  1   3  -1
M  END
>  <name>
S(=O)([O-])(=NC(=O)[C@]1([N;amide])[C@@H]([C;olefin])C1)C1CC1

>  <apo>
2

>  <freq>
1

>  <freq0>
0

>  <freq1>
1

>  <freqA>
0.99700278

>  <a_count>
27

$$$$

  MOE2015           2D

  9  8  0  0  0  0  0  0  0  0999 V2000
   -0.5290    1.9760    0.0000 O   0  0  0  0  0  0  0  0  0  0  0  0
    0.7700    2.7260    0.0000 C   0  0  0  0  0  0  0  0  0  0  0  0
    2.0690    1.9760    0.0000 C   0  0  0  0  0  0  0  0  0  0  0  0
    3.3680    2.7260    0.0000 C   0  0  0  0  0  0  0  0  0  0  0  0
    4.6670    1.9760    0.0000 C   0  0  0  0  0  0  0  0  0  0  0  0
    5.9660    2.7260    0.0000 C   0  0  0  0  0  0  0  0  0  0  0  0
    7.2650    1.9760    0.0000 C   0  0  0  0  0  0  0  0  0  0  0  0
    8.5640    2.7260    0.0000 C   0  0  0  0  0  0  0  0  0  0  0  0
    9.8630    1.9760    0.0000 C   0  0  0  0  0  0  0  0  0  0  0  0
  1  2  1  0  0  0  0
  2  3  1  0  0  0  0
  3  4  1  0  0  0  0
  4  5  1  0  0  0  0
  5  6  1  0  0  0  0
  6  7  1  0  0  0  0
  7  8  1  0  0  0  0
  8  9  1  0  0  0  0
M  END
>  <name>
[O;ester]CCCCCCCC

>  <apo>
1

>  <freq>
1

>  <freq0>
0

>  <freq1>
1

>  <freqA>
0.99700278

>  <a_count>
27

$$$$

  MOE2015           2D

 19 21  0  0  0  0  0  0  0  0999 V2000
    1.2240   -5.7510    0.0000 S   0  0  0  0  0  0  0  0  0  0  0  0
    1.9740   -4.4520    0.0000 C   0  0  0  0  0  0  0  0  0  0  0  0
    3.4650   -4.2950    0.0000 N   0  0  0  0  0  0  0  0  0  0  0  0
    3.7770   -2.8280    0.0000 C   0  0  0  0  0  0  0  0  0  0  0  0
    2.4780   -2.0780    0.0000 C   0  0  0  0  0  0  0  0  0  0  0  0
    1.3640   -3.0820    0.0000 N   0  0  0  0  0  0  0  0  0  0  0  0
    2.4780   -0.5780    0.0000 C   0  0  0  0  0  0  0  0  0  0  0  0
    3.7770    0.1720    0.0000 C   0  0  0  0  0  0  0  0  0  0  0  0
    3.7770    1.6720    0.0000 F   0  0  0  0  0  0  0  0  0  0  0  0
    5.0760   -0.5780    0.0000 C   0  0  0  0  0  0  0  0  0  0  0  0
    6.3750    0.1720    0.0000 O   0  0  0  0  0  0  0  0  0  0  0  0
    7.6740   -0.5780    0.0000 C   0  0  0  0  0  0  0  0  0  0  0  0
    7.6740   -2.0780    0.0000 C   0  0  0  0  0  0  0  0  0  0  0  0
    8.9730   -2.8280    0.0000 C   0  0  0  0  0  0  0  0  0  0  0  0
   10.2730   -2.0780    0.0000 C   0  0  0  0  0  0  0  0  0  0  0  0
   11.5720   -2.8280    0.0000 F   0  0  0  0  0  0  0  0  0  0  0  0
   10.2730   -0.5780    0.0000 C   0  0  0  0  0  0  0  0  0  0  0  0
    8.9730    0.1720    0.0000 C   0  0  0  0  0  0  0  0  0  0  0  0
    5.0760   -2.0780    0.0000 C   0  0  0  0  0  0  0  0  0  0  0  0
  1  2  1  0  0  0  0
  2  3  1  0  0  0  0
  2  6  2  0  0  0  0
  3  4  1  0  0  0  0
  4  5  1  0  0  0  0
  4 19  2  0  0  0  0
  5  6  1  0  0  0  0
  5  7  2  0  0  0  0
  7  8  1  0  0  0  0
  8  9  1  0  0  0  0
  8 10  2  0  0  0  0
 10 11  1  0  0  0  0
 10 19  1  0  0  0  0
 11 12  1  0  0  0  0
 12 13  1  0  0  0  0
 12 18  2  0  0  0  0
 13 14  2  0  0  0  0
 14 15  1  0  0  0  0
 15 16  1  0  0  0  0
 15 17  2  0  0  0  0
 17 18  1  0  0  0  0
M  END
>  <name>
[S;thioether]c1[nH]c2c(n1)cc(F)c(Oc1ccc(F)cc1)c2

>  <apo>
1

>  <freq>
1

>  <freq0>
0

>  <freq1>
1

>  <freqA>
0.99700278

>  <a_count>
27

$$$$

  MOE2015           2D

 17 19  0  0  0  0  0  0  0  0999 V2000
    0.0250   -1.3340    0.0000 C   0  0  0  0  0  0  0  0  0  0  0  0
    1.5250   -1.3220    0.0000 C   0  0  0  0  0  0  0  0  0  0  0  0
    3.0250   -1.3110    0.0000 C   0  0  0  0  0  0  0  0  0  0  0  0
    3.7650   -0.0060    0.0000 C   0  0  0  0  0  0  0  0  0  0  0  0
    5.2650    0.0050    0.0000 N   0  0  0  0  0  0  0  0  0  0  0  0
    6.0250   -1.2880    0.0000 C   0  0  0  0  0  0  0  0  0  0  0  0
    5.2850   -2.5930    0.0000 C   0  0  0  0  0  0  0  0  0  0  0  0
    3.7850   -2.6040    0.0000 C   0  0  0  0  0  0  0  0  0  0  0  0
   -1.4750   -1.3450    0.0000 C   0  0  0  0  0  0  0  0  0  0  0  0
   -2.3660   -0.1390    0.0000 C   0  0  0  0  0  0  0  0  0  0  0  0
   -3.7890   -0.6130    0.0000 C   0  0  0  0  0  0  0  0  0  0  0  0
   -3.7770   -2.1130    0.0000 N   0  0  0  0  0  0  0  0  0  0  0  0
   -2.3470   -2.5660    0.0000 C   0  0  0  0  0  0  0  0  0  0  0  0
   -4.9110    0.3820    0.0000 N   0  0  0  0  0  0  0  0  0  0  0  0
   -4.6110    1.8510    0.0000 C   0  0  0  0  0  0  0  0  0  0  0  0
   -3.1880    2.3260    0.0000 C   0  0  0  0  0  0  0  0  0  0  0  0
   -2.0650    1.3310    0.0000 C   0  0  0  0  0  0  0  0  0  0  0  0
  1  2  3  0  0  0  0
  1  9  1  0  0  0  0
  2  3  1  0  0  0  0
  3  4  1  0  0  0  0
  3  8  2  0  0  0  0
  4  5  2  0  0  0  0
  5  6  1  0  0  0  0
  6  7  2  0  0  0  0
  7  8  1  0  0  0  0
  9 10  1  0  0  0  0
  9 13  2  0  0  0  0
 10 11  1  0  0  0  0
 10 17  2  0  0  0  0
 11 12  1  0  0  0  0
 11 14  2  0  0  0  0
 12 13  1  0  0  0  0
 14 15  1  0  0  0  0
 15 16  2  0  0  0  0
 16 17  1  0  0  0  0
M  END
>  <name>
C(#Cc1cnccc1)c1c2c([nH]c1)nc[c;biphenyl]c2

>  <apo>
1

>  <freq>
1

>  <freq0>
0

>  <freq1>
1

>  <freqA>
0.99700278

>  <a_count>
26

$$$$

  MOE2015           2D

 12 12  0  0  1  0  0  0  0  0999 V2000
   -1.4560   -4.3520    0.0000 O   0  0  0  0  0  0  0  0  0  0  0  0
   -1.4560   -2.8520    0.0000 C   0  0  0  0  0  0  0  0  0  0  0  0
   -2.7550   -2.1020    0.0000 N   0  0  0  0  0  0  0  0  0  0  0  0
   -0.1570   -2.1020    0.0000 C   0  0  0  0  0  0  0  0  0  0  0  0
   -0.1570   -0.6020    0.0000 O   0  0  0  0  0  0  0  0  0  0  0  0
    1.1420   -2.8520    0.0000 C   0  0  3  0  0  0  0  0  0  0  0  0
    1.1420   -4.3520    0.0000 N   0  0  0  0  0  0  0  0  0  0  0  0
    2.4410   -2.1020    0.0000 C   0  0  0  0  0  0  0  0  0  0  0  0
    3.7400   -2.8520    0.0000 C   0  0  0  0  0  0  0  0  0  0  0  0
    5.1890   -2.4640    0.0000 C   0  0  0  0  0  0  0  0  0  0  0  0
    5.5770   -3.9130    0.0000 C   0  0  0  0  0  0  0  0  0  0  0  0
    4.1280   -4.3010    0.0000 C   0  0  0  0  0  0  0  0  0  0  0  0
  1  2  2  0  0  0  0
  2  3  1  0  0  0  0
  2  4  1  0  0  0  0
  4  5  2  0  0  0  0
  4  6  1  0  0  0  0
  6  7  1  0  0  0  0
  6  8  1  0  0  0  0
  8  9  1  0  0  0  0
  9 10  1  0  0  0  0
  9 12  1  0  0  0  0
 10 11  1  0  0  0  0
 11 12  1  0  0  0  0
M  END
>  <name>
O=C(N)C(=O)C([N;amide])CC1CCC1

>  <apo>
1

>  <freq>
1

>  <freq0>
0

>  <freq1>
1

>  <freqA>
0.99700278

>  <a_count>
26

$$$$

  MOE2015           2D

 12 11  0  0  1  0  0  0  0  0999 V2000
    2.1880   -3.7890    0.0000 O   0  0  0  0  0  0  0  0  0  0  0  0
    2.9380   -2.4900    0.0000 C   0  0  0  0  0  0  0  0  0  0  0  0
    4.4380   -2.4900    0.0000 N   0  0  0  0  0  0  0  0  0  0  0  0
    5.1880   -3.7890    0.0000 O   0  5  0  0  0  0  0  0  0  0  0  0
    2.1880   -1.1910    0.0000 C   0  0  0  0  0  0  0  0  0  0  0  0
    0.6880   -1.1910    0.0000 C   0  0  3  0  0  0  0  0  0  0  0  0
   -0.0620    0.1080    0.0000 C   0  0  0  0  0  0  0  0  0  0  0  0
    0.6880    1.4070    0.0000 O   0  0  0  0  0  0  0  0  0  0  0  0
   -0.0620   -2.4900    0.0000 C   0  0  0  0  0  0  0  0  0  0  0  0
   -1.5630   -2.4900    0.0000 C   0  0  0  0  0  0  0  0  0  0  0  0
   -2.3130   -1.1910    0.0000 C   0  0  0  0  0  0  0  0  0  0  0  0
   -2.3120   -3.7890    0.0000 C   0  0  0  0  0  0  0  0  0  0  0  0
  1  2  2  0  0  0  0
  2  3  1  0  0  0  0
  2  5  1  0  0  0  0
  3  4  1  0  0  0  0
  5  6  1  0  0  0  0
  6  7  1  0  0  0  0
  6  9  1  0  0  0  0
  7  8  2  0  0  0  0
  9 10  1  0  0  0  0
 10 11  1  0  0  0  0
 10 12  1  0  0  0  0
M  CHG  1   4  -1
M  END
>  <name>
O=C(N[O-])CC([C;amide]=O)CC(C)C

>  <apo>
1

>  <freq>
1

>  <freq0>
0

>  <freq1>
1

>  <freqA>
0.99700278

>  <a_count>
26

$$$$

  MOE2015           2D

 11 10  0  0  1  0  0  0  0  0999 V2000
   10.0870   -2.0210    0.0000 O   0  0  0  0  0  0  0  0  0  0  0  0
    8.7880   -2.7710    0.0000 C   0  0  0  0  0  0  0  0  0  0  0  0
    7.4890   -2.0210    0.0000 C   0  0  1  0  0  0  0  0  0  0  0  0
    7.4890   -0.5210    0.0000 N   0  0  0  0  0  0  0  0  0  0  0  0
    6.1900   -2.7710    0.0000 C   0  0  0  0  0  0  0  0  0  0  0  0
    4.8910   -2.0210    0.0000 C   0  0  0  0  0  0  0  0  0  0  0  0
    3.5920   -2.7710    0.0000 C   0  0  0  0  0  0  0  0  0  0  0  0
    2.2930   -2.0210    0.0000 N   0  3  0  0  0  0  0  0  0  0  0  0
    0.9940   -2.7710    0.0000 C   0  0  0  0  0  0  0  0  0  0  0  0
    0.9940   -4.2710    0.0000 N   0  0  0  0  0  0  0  0  0  0  0  0
   -0.3050   -2.0210    0.0000 N   0  0  0  0  0  0  0  0  0  0  0  0
  1  2  2  0  0  0  0
  2  3  1  0  0  0  0
  3  4  1  6  0  0  0
  3  5  1  0  0  0  0
  5  6  1  0  0  0  0
  6  7  1  0  0  0  0
  7  8  1  0  0  0  0
  8  9  2  0  0  0  0
  9 10  1  0  0  0  0
  9 11  1  0  0  0  0
M  CHG  1   8   1
M  END
>  <name>
O=C[C@@H]([N;amide])CCC/[N+]=C(\N)/N

>  <apo>
1

>  <freq>
1

>  <freq0>
0

>  <freq1>
1

>  <freqA>
0.99700278

>  <a_count>
26

$$$$

  MOE2015           2D

 14 15  0  0  0  0  0  0  0  0999 V2000
   12.7720    0.0000    0.0000 O   0  0  0  0  0  0  0  0  0  0  0  0
   11.2720    0.0000    0.0000 C   0  0  0  0  0  0  0  0  0  0  0  0
   10.5220   -1.2990    0.0000 C   0  0  0  0  0  0  0  0  0  0  0  0
    9.0220   -1.2990    0.0000 C   0  0  0  0  0  0  0  0  0  0  0  0
    8.2720   -2.5980    0.0000 C   0  0  0  0  0  0  0  0  0  0  0  0
    6.7720   -2.5980    0.0000 C   0  0  0  0  0  0  0  0  0  0  0  0
    5.8910   -3.8120    0.0000 N   0  0  0  0  0  0  0  0  0  0  0  0
    4.4640   -3.3480    0.0000 C   0  0  0  0  0  0  0  0  0  0  0  0
    4.4640   -1.8480    0.0000 C   0  0  0  0  0  0  0  0  0  0  0  0
    5.8910   -1.3850    0.0000 N   0  0  0  0  0  0  0  0  0  0  0  0
    3.1650   -1.0980    0.0000 C   0  0  0  0  0  0  0  0  0  0  0  0
    1.8660   -1.8480    0.0000 C   0  0  0  0  0  0  0  0  0  0  0  0
    1.8660   -3.3480    0.0000 C   0  0  0  0  0  0  0  0  0  0  0  0
    3.1650   -4.0980    0.0000 C   0  0  0  0  0  0  0  0  0  0  0  0
  1  2  2  0  0  0  0
  2  3  1  0  0  0  0
  3  4  1  0  0  0  0
  4  5  1  0  0  0  0
  5  6  1  0  0  0  0
  6  7  1  0  0  0  0
  6 10  2  0  0  0  0
  7  8  1  0  0  0  0
  8  9  1  0  0  0  0
  8 14  2  0  0  0  0
  9 10  1  0  0  0  0
  9 11  2  0  0  0  0
 11 12  1  0  0  0  0
 12 13  2  0  0  0  0
 13 14  1  0  0  0  0
M  END
>  <name>
O=[C;amide]CCCc1[nH]c2c(n1)cccc2

>  <apo>
1

>  <freq>
1

>  <freq0>
0

>  <freq1>
1

>  <freqA>
0.99700278

>  <a_count>
26

$$$$

  MOE2015           2D

 13 13  0  0  1  0  0  0  0  0999 V2000
   10.6150   -3.9970    0.0000 O   0  0  0  0  0  0  0  0  0  0  0  0
    9.1150   -3.9970    0.0000 C   0  0  0  0  0  0  0  0  0  0  0  0
    8.3650   -2.6980    0.0000 C   0  0  1  0  0  0  0  0  0  0  0  0
    9.1150   -1.3990    0.0000 N   0  0  0  0  0  0  0  0  0  0  0  0
    6.8650   -2.6980    0.0000 C   0  0  0  0  0  0  0  0  0  0  0  0
    6.1150   -1.3990    0.0000 C   0  0  0  0  0  0  0  0  0  0  0  0
    4.6150   -1.3990    0.0000 C   0  0  0  0  0  0  0  0  0  0  0  0
    3.8650   -2.6980    0.0000 C   0  0  0  0  0  0  0  0  0  0  0  0
    2.3650   -2.6980    0.0000 C   0  0  0  0  0  0  0  0  0  0  0  0
    1.6150   -1.3990    0.0000 C   0  0  0  0  0  0  0  0  0  0  0  0
    0.1150   -1.3990    0.0000 O   0  0  0  0  0  0  0  0  0  0  0  0
    2.3650   -0.1000    0.0000 C   0  0  0  0  0  0  0  0  0  0  0  0
    3.8650   -0.1000    0.0000 C   0  0  0  0  0  0  0  0  0  0  0  0
  1  2  2  0  0  0  0
  2  3  1  0  0  0  0
  3  4  1  6  0  0  0
  3  5  1  0  0  0  0
  5  6  1  0  0  0  0
  6  7  1  0  0  0  0
  7  8  1  0  0  0  0
  7 13  2  0  0  0  0
  8  9  2  0  0  0  0
  9 10  1  0  0  0  0
 10 11  1  0  0  0  0
 10 12  2  0  0  0  0
 12 13  1  0  0  0  0
M  END
>  <name>
O=[C;amide][C@@H]([N;amide])CCc1ccc(O)cc1

>  <apo>
2

>  <freq>
1

>  <freq0>
0

>  <freq1>
1

>  <freqA>
0.99700278

>  <a_count>
26

$$$$

  MOE2015           2D

 14 15  0  0  0  0  0  0  0  0999 V2000
    0.6830    1.1830    0.0000 N   0  0  0  0  0  0  0  0  0  0  0  0
    1.4330   -0.1160    0.0000 C   0  0  0  0  0  0  0  0  0  0  0  0
    2.9330   -0.1160    0.0000 C   0  0  0  0  0  0  0  0  0  0  0  0
    3.8150   -1.3300    0.0000 C   0  0  0  0  0  0  0  0  0  0  0  0
    5.2410   -0.8660    0.0000 S   0  0  0  0  0  0  0  0  0  0  0  0
    5.2410    0.6340    0.0000 C   0  0  0  0  0  0  0  0  0  0  0  0
    3.8150    1.0970    0.0000 C   0  0  0  0  0  0  0  0  0  0  0  0
   -0.8170    1.1830    0.0000 C   0  0  0  0  0  0  0  0  0  0  0  0
   -1.5670   -0.1160    0.0000 C   0  0  0  0  0  0  0  0  0  0  0  0
   -3.0670   -0.1160    0.0000 C   0  0  0  0  0  0  0  0  0  0  0  0
   -3.8170    1.1830    0.0000 C   0  0  0  0  0  0  0  0  0  0  0  0
   -5.3170    1.1830    0.0000 N   0  0  0  0  0  0  0  0  0  0  0  0
   -3.0670    2.4820    0.0000 C   0  0  0  0  0  0  0  0  0  0  0  0
   -1.5670    2.4820    0.0000 C   0  0  0  0  0  0  0  0  0  0  0  0
  1  2  1  0  0  0  0
  1  8  1  0  0  0  0
  2  3  1  0  0  0  0
  3  4  2  0  0  0  0
  3  7  1  0  0  0  0
  4  5  1  0  0  0  0
  5  6  1  0  0  0  0
  6  7  2  0  0  0  0
  8  9  1  0  0  0  0
  8 14  2  0  0  0  0
  9 10  2  0  0  0  0
 10 11  1  0  0  0  0
 11 12  1  0  0  0  0
 11 13  2  0  0  0  0
 13 14  1  0  0  0  0
M  END
>  <name>
[N;amide](Cc1cscc1)c1ccc([N;amide])cc1

>  <apo>
2

>  <freq>
1

>  <freq0>
0

>  <freq1>
1

>  <freqA>
0.99700278

>  <a_count>
26

$$$$

  MOE2015           2D

 14 16  0  0  0  0  0  0  0  0999 V2000
   -0.7010   -0.8950    0.0000 N   0  0  0  0  0  0  0  0  0  0  0  0
   -0.3430   -2.3520    0.0000 C   0  0  0  0  0  0  0  0  0  0  0  0
    0.9710   -1.6280    0.0000 C   0  0  0  0  0  0  0  0  0  0  0  0
    2.2550   -2.4050    0.0000 C   0  0  0  0  0  0  0  0  0  0  0  0
    3.5690   -1.6810    0.0000 C   0  0  0  0  0  0  0  0  0  0  0  0
    3.5990   -0.1820    0.0000 N   0  0  0  0  0  0  0  0  0  0  0  0
    2.3160    0.5950    0.0000 C   0  0  0  0  0  0  0  0  0  0  0  0
    1.0020   -0.1290    0.0000 C   0  0  0  0  0  0  0  0  0  0  0  0
    4.8520   -2.4580    0.0000 C   0  0  0  0  0  0  0  0  0  0  0  0
    4.8220   -3.9570    0.0000 C   0  0  0  0  0  0  0  0  0  0  0  0
    3.5080   -4.6810    0.0000 C   0  0  0  0  0  0  0  0  0  0  0  0
    2.2240   -3.9040    0.0000 C   0  0  0  0  0  0  0  0  0  0  0  0
   -1.5510   -3.2400    0.0000 C   0  0  0  0  0  0  0  0  0  0  0  0
   -0.1770   -3.8420    0.0000 C   0  0  0  0  0  0  0  0  0  0  0  0
  1  2  1  0  0  0  0
  2  3  1  0  0  0  0
  2 13  1  0  0  0  0
  2 14  1  0  0  0  0
  3  4  1  0  0  0  0
  3  8  2  0  0  0  0
  4  5  1  0  0  0  0
  4 12  2  0  0  0  0
  5  6  1  0  0  0  0
  5  9  2  0  0  0  0
  6  7  2  0  0  0  0
  7  8  1  0  0  0  0
  9 10  1  0  0  0  0
 10 11  2  0  0  0  0
 11 12  1  0  0  0  0
 13 14  1  0  0  0  0
M  END
>  <name>
[N;amide]C1(c2c3c(n[c;biphenyl]c2)cccc3)CC1

>  <apo>
2

>  <freq>
1

>  <freq0>
0

>  <freq1>
1

>  <freqA>
0.99700278

>  <a_count>
26

$$$$

  MOE2015           2D

 13 14  0  0  1  0  0  0  0  0999 V2000
    6.9230    0.0000    0.0000 N   0  0  0  0  0  0  0  0  0  0  0  0
    5.4230    0.0000    0.0000 C   0  0  2  0  0  0  0  0  0  0  0  0
    4.6730   -1.2990    0.0000 C   0  0  0  0  0  0  0  0  0  0  0  0
    4.6730    1.2990    0.0000 C   0  0  0  0  0  0  0  0  0  0  0  0
    3.1730    1.2990    0.0000 C   0  0  0  0  0  0  0  0  0  0  0  0
    2.4230    2.5980    0.0000 C   0  0  0  0  0  0  0  0  0  0  0  0
    3.1730    3.8970    0.0000 C   0  0  0  0  0  0  0  0  0  0  0  0
    4.6730    3.8970    0.0000 C   0  0  0  0  0  0  0  0  0  0  0  0
    5.4230    2.5980    0.0000 C   0  0  0  0  0  0  0  0  0  0  0  0
    0.9230    2.5980    0.0000 C   0  0  0  0  0  0  0  0  0  0  0  0
    0.1730    1.2990    0.0000 C   0  0  0  0  0  0  0  0  0  0  0  0
    0.9230    0.0000    0.0000 C   0  0  0  0  0  0  0  0  0  0  0  0
    2.4230    0.0000    0.0000 C   0  0  0  0  0  0  0  0  0  0  0  0
  2  1  1  6  0  0  0
  2  3  1  0  0  0  0
  2  4  1  0  0  0  0
  4  5  1  0  0  0  0
  4  9  2  0  0  0  0
  5  6  1  0  0  0  0
  5 13  2  0  0  0  0
  6  7  1  0  0  0  0
  6 10  2  0  0  0  0
  7  8  2  0  0  0  0
  8  9  1  0  0  0  0
 10 11  1  0  0  0  0
 11 12  2  0  0  0  0
 12 13  1  0  0  0  0
M  END
>  <name>
[N;amide][C@H](C)c1c2c(ccc1)cccc2

>  <apo>
1

>  <freq>
1

>  <freq0>
0

>  <freq1>
1

>  <freqA>
0.99700278

>  <a_count>
26

$$$$

  MOE2015           2D

 16 17  0  0  0  0  0  0  0  0999 V2000
    5.5170    1.8030    0.0000 Cl  0  0  0  0  0  0  0  0  0  0  0  0
    4.2180    1.0530    0.0000 C   0  0  0  0  0  0  0  0  0  0  0  0
    4.2180   -0.4470    0.0000 C   0  0  0  0  0  0  0  0  0  0  0  0
    5.5170   -1.1970    0.0000 N   0  0  0  0  0  0  0  0  0  0  0  0
    6.8160   -0.4470    0.0000 C   0  0  0  0  0  0  0  0  0  0  0  0
    8.1150   -1.1970    0.0000 C   0  0  0  0  0  0  0  0  0  0  0  0
    2.9190   -1.1970    0.0000 C   0  0  0  0  0  0  0  0  0  0  0  0
    2.9190   -2.6970    0.0000 O   0  0  0  0  0  0  0  0  0  0  0  0
    1.6200   -0.4470    0.0000 C   0  0  0  0  0  0  0  0  0  0  0  0
    0.3210   -1.1970    0.0000 N   0  0  0  0  0  0  0  0  0  0  0  0
   -0.9780   -0.4470    0.0000 C   0  0  0  0  0  0  0  0  0  0  0  0
   -0.9780    1.0530    0.0000 C   0  0  0  0  0  0  0  0  0  0  0  0
    0.3210    1.8030    0.0000 C   0  0  0  0  0  0  0  0  0  0  0  0
    1.6200    1.0530    0.0000 C   0  0  0  0  0  0  0  0  0  0  0  0
    2.9190    1.8030    0.0000 C   0  0  0  0  0  0  0  0  0  0  0  0
    2.9190    3.3030    0.0000 O   0  0  0  0  0  0  0  0  0  0  0  0
  1  2  1  0  0  0  0
  2  3  2  0  0  0  0
  2 15  1  0  0  0  0
  3  4  1  0  0  0  0
  3  7  1  0  0  0  0
  4  5  1  0  0  0  0
  5  6  1  0  0  0  0
  7  8  2  0  0  0  0
  7  9  1  0  0  0  0
  9 10  1  0  0  0  0
  9 14  2  0  0  0  0
 10 11  2  0  0  0  0
 11 12  1  0  0  0  0
 12 13  2  0  0  0  0
 13 14  1  0  0  0  0
 14 15  1  0  0  0  0
 15 16  2  0  0  0  0
M  END
>  <name>
ClC1=C(NC[C;amine])C(=O)c2ncccc2C1=O

>  <apo>
1

>  <freq>
1

>  <freq0>
0

>  <freq1>
1

>  <freqA>
0.99700278

>  <a_count>
25

$$$$

  MOE2015           2D

 15 16  0  0  1  0  0  0  0  0999 V2000
    6.5270    1.0760    0.0000 Cl  0  0  0  0  0  0  0  0  0  0  0  0
    5.7770   -0.2230    0.0000 C   0  0  0  0  0  0  0  0  0  0  0  0
    6.5270   -1.5230    0.0000 C   0  0  0  0  0  0  0  0  0  0  0  0
    8.0270   -1.5230    0.0000 O   0  0  0  0  0  0  0  0  0  0  0  0
    5.7770   -2.8220    0.0000 N   0  0  0  0  0  0  0  0  0  0  0  0
    4.2770   -2.8220    0.0000 C   0  0  0  0  0  0  0  0  0  0  0  0
    3.5270   -4.1210    0.0000 O   0  0  0  0  0  0  0  0  0  0  0  0
    3.5270   -1.5230    0.0000 N   0  0  0  0  0  0  0  0  0  0  0  0
    2.0270   -1.5230    0.0000 C   0  0  3  0  0  0  0  0  0  0  0  0
    1.1460   -0.3090    0.0000 C   0  0  3  0  0  0  0  0  0  0  0  0
    1.6090    1.1180    0.0000 O   0  0  0  0  0  0  0  0  0  0  0  0
   -0.2810   -0.7730    0.0000 C   0  0  0  0  0  0  0  0  0  0  0  0
   -0.2810   -2.2730    0.0000 N   0  0  0  0  0  0  0  0  0  0  0  0
    1.1460   -2.7360    0.0000 C   0  0  0  0  0  0  0  0  0  0  0  0
    4.2770   -0.2230    0.0000 C   0  0  0  0  0  0  0  0  0  0  0  0
  1  2  1  0  0  0  0
  2  3  1  0  0  0  0
  2 15  2  0  0  0  0
  3  4  2  0  0  0  0
  3  5  1  0  0  0  0
  5  6  1  0  0  0  0
  6  7  2  0  0  0  0
  6  8  1  0  0  0  0
  8  9  1  0  0  0  0
  8 15  1  0  0  0  0
  9 10  1  0  0  0  0
  9 14  1  0  0  0  0
 10 11  1  0  0  0  0
 10 12  1  0  0  0  0
 12 13  1  0  0  0  0
 13 14  1  0  0  0  0
M  END
>  <name>
ClC=1C(=O)NC(=O)N(C2C(O)C[N;amide]C2)C=1

>  <apo>
1

>  <freq>
1

>  <freq0>
0

>  <freq1>
1

>  <freqA>
0.99700278

>  <a_count>
25

$$$$

  MOE2015           2D

 15 15  0  0  0  0  0  0  0  0999 V2000
   -0.0970    2.0620    0.0000 Cl  0  0  0  0  0  0  0  0  0  0  0  0
    1.2020    1.3120    0.0000 C   0  0  0  0  0  0  0  0  0  0  0  0
    2.5010    2.0620    0.0000 C   0  0  0  0  0  0  0  0  0  0  0  0
    2.5010    3.5620    0.0000 Cl  0  0  0  0  0  0  0  0  0  0  0  0
    3.8000    1.3120    0.0000 C   0  0  0  0  0  0  0  0  0  0  0  0
    5.0990    2.0620    0.0000 C   0  0  0  0  0  0  0  0  0  0  0  0
    5.0990    3.5620    0.0000 O   0  0  0  0  0  0  0  0  0  0  0  0
    6.3980    1.3120    0.0000 C   0  0  0  0  0  0  0  0  0  0  0  0
    6.3980   -0.1880    0.0000 C   0  0  0  0  0  0  0  0  0  0  0  0
    7.6970    2.0620    0.0000 C   0  0  0  0  0  0  0  0  0  0  0  0
    8.9960    1.3120    0.0000 C   0  0  0  0  0  0  0  0  0  0  0  0
    3.8000   -0.1880    0.0000 C   0  0  0  0  0  0  0  0  0  0  0  0
    2.5010   -0.9380    0.0000 C   0  0  0  0  0  0  0  0  0  0  0  0
    1.2020   -0.1880    0.0000 C   0  0  0  0  0  0  0  0  0  0  0  0
   -0.0970   -0.9380    0.0000 O   0  0  0  0  0  0  0  0  0  0  0  0
  1  2  1  0  0  0  0
  2  3  1  0  0  0  0
  2 14  2  0  0  0  0
  3  4  1  0  0  0  0
  3  5  2  0  0  0  0
  5  6  1  0  0  0  0
  5 12  1  0  0  0  0
  6  7  2  0  0  0  0
  6  8  1  0  0  0  0
  8  9  2  0  0  0  0
  8 10  1  0  0  0  0
 10 11  1  0  0  0  0
 12 13  2  0  0  0  0
 13 14  1  0  0  0  0
 14 15  1  0  0  0  0
M  END
>  <name>
Clc1c(Cl)c(C(=O)C(=C)CC)ccc1[O;ether]

>  <apo>
1

>  <freq>
1

>  <freq0>
0

>  <freq1>
1

>  <freqA>
0.99700278

>  <a_count>
25

$$$$

  MOE2015           2D

 15 16  0  0  0  0  0  0  0  0999 V2000
    0.0040   -0.0140    0.0000 F   0  0  0  0  0  0  0  0  0  0  0  0
    1.3030    0.7360    0.0000 C   0  0  0  0  0  0  0  0  0  0  0  0
    2.6020   -0.0140    0.0000 C   0  0  0  0  0  0  0  0  0  0  0  0
    3.9010    0.7360    0.0000 C   0  0  0  0  0  0  0  0  0  0  0  0
    3.9010    2.2360    0.0000 C   0  0  0  0  0  0  0  0  0  0  0  0
    5.2000    2.9860    0.0000 C   0  0  0  0  0  0  0  0  0  0  0  0
    6.4990    2.2360    0.0000 C   0  0  0  0  0  0  0  0  0  0  0  0
    6.4990    0.7360    0.0000 C   0  0  0  0  0  0  0  0  0  0  0  0
    7.7980   -0.0140    0.0000 C   0  0  0  0  0  0  0  0  0  0  0  0
    9.0970    0.7360    0.0000 C   0  0  0  0  0  0  0  0  0  0  0  0
   10.3960   -0.0140    0.0000 F   0  0  0  0  0  0  0  0  0  0  0  0
    9.0970    2.2360    0.0000 C   0  0  0  0  0  0  0  0  0  0  0  0
    7.7980    2.9860    0.0000 C   0  0  0  0  0  0  0  0  0  0  0  0
    2.6020    2.9860    0.0000 C   0  0  0  0  0  0  0  0  0  0  0  0
    1.3030    2.2360    0.0000 C   0  0  0  0  0  0  0  0  0  0  0  0
  1  2  1  0  0  0  0
  2  3  1  0  0  0  0
  2 15  2  0  0  0  0
  3  4  2  0  0  0  0
  4  5  1  0  0  0  0
  5  6  1  0  0  0  0
  5 14  2  0  0  0  0
  6  7  1  0  0  0  0
  7  8  1  0  0  0  0
  7 13  2  0  0  0  0
  8  9  2  0  0  0  0
  9 10  1  0  0  0  0
 10 11  1  0  0  0  0
 10 12  2  0  0  0  0
 12 13  1  0  0  0  0
 14 15  1  0  0  0  0
M  END
>  <name>
Fc1ccc([C;amine]c2ccc(F)cc2)cc1

>  <apo>
1

>  <freq>
1

>  <freq0>
0

>  <freq1>
1

>  <freqA>
0.99700278

>  <a_count>
25

$$$$

  MOE2015           2D

 16 18  0  0  0  0  0  0  0  0999 V2000
    0.4020    4.2410    0.0000 N   0  0  0  0  0  0  0  0  0  0  0  0
    1.8750    3.9590    0.0000 C   0  0  0  0  0  0  0  0  0  0  0  0
    2.3680    2.5420    0.0000 C   0  0  0  0  0  0  0  0  0  0  0  0
    3.8040    2.1080    0.0000 C   0  0  0  0  0  0  0  0  0  0  0  0
    3.8340    0.6080    0.0000 C   0  0  0  0  0  0  0  0  0  0  0  0
    2.4170    0.1160    0.0000 N   0  0  0  0  0  0  0  0  0  0  0  0
    1.5110    1.3110    0.0000 C   0  0  0  0  0  0  0  0  0  0  0  0
    5.1480   -0.1150    0.0000 C   0  0  0  0  0  0  0  0  0  0  0  0
    6.4320    0.6610    0.0000 C   0  0  0  0  0  0  0  0  0  0  0  0
    6.4010    2.1610    0.0000 C   0  0  0  0  0  0  0  0  0  0  0  0
    5.0870    2.8840    0.0000 C   0  0  0  0  0  0  0  0  0  0  0  0
   -0.5790    3.1060    0.0000 N   0  0  0  0  0  0  0  0  0  0  0  0
   -0.2370    1.6450    0.0000 C   0  0  0  0  0  0  0  0  0  0  0  0
   -1.5200    0.8690    0.0000 N   0  0  0  0  0  0  0  0  0  0  0  0
   -2.6550    1.8500    0.0000 N   0  0  0  0  0  0  0  0  0  0  0  0
   -2.0730    3.2320    0.0000 C   0  0  0  0  0  0  0  0  0  0  0  0
  1  2  2  0  0  0  0
  1 12  1  0  0  0  0
  2  3  1  0  0  0  0
  3  4  1  0  0  0  0
  3  7  2  0  0  0  0
  4  5  2  0  0  0  0
  4 11  1  0  0  0  0
  5  6  1  0  0  0  0
  5  8  1  0  0  0  0
  6  7  1  0  0  0  0
  8  9  2  0  0  0  0
  9 10  1  0  0  0  0
 10 11  2  0  0  0  0
 12 13  1  0  0  0  0
 12 16  1  0  0  0  0
 13 14  2  0  0  0  0
 14 15  1  0  0  0  0
 15 16  2  0  0  0  0
M  END
>  <name>
N(=C\c1c2c([nH][c;biphenyl]1)cccc2)\n1cnnc1

>  <apo>
1

>  <freq>
1

>  <freq0>
0

>  <freq1>
1

>  <freqA>
0.99700278

>  <a_count>
25

$$$$

  MOE2015           2D

 14 15  0  0  0  0  0  0  0  0999 V2000
    0.7600    0.1320    0.0000 N   0  0  0  0  0  0  0  0  0  0  0  0
    2.0590    0.8820    0.0000 C   0  0  0  0  0  0  0  0  0  0  0  0
    2.2160    2.3740    0.0000 S   0  0  0  0  0  0  0  0  0  0  0  0
    3.6830    2.6850    0.0000 C   0  0  0  0  0  0  0  0  0  0  0  0
    4.4330    1.3860    0.0000 C   0  0  0  0  0  0  0  0  0  0  0  0
    3.4300    0.2720    0.0000 N   0  0  0  0  0  0  0  0  0  0  0  0
   -0.5390    0.8820    0.0000 C   0  0  0  0  0  0  0  0  0  0  0  0
   -1.8380    0.1320    0.0000 C   0  0  0  0  0  0  0  0  0  0  0  0
   -1.8380   -1.3680    0.0000 C   0  0  0  0  0  0  0  0  0  0  0  0
   -3.1370    0.8820    0.0000 C   0  0  0  0  0  0  0  0  0  0  0  0
   -3.1370    2.3820    0.0000 C   0  0  0  0  0  0  0  0  0  0  0  0
   -1.8380    3.1320    0.0000 C   0  0  0  0  0  0  0  0  0  0  0  0
   -1.8380    4.6320    0.0000 N   0  0  0  0  0  0  0  0  0  0  0  0
   -0.5390    2.3820    0.0000 C   0  0  0  0  0  0  0  0  0  0  0  0
  1  2  1  0  0  0  0
  1  7  1  0  0  0  0
  2  3  1  0  0  0  0
  2  6  2  0  0  0  0
  3  4  1  0  0  0  0
  4  5  2  0  0  0  0
  5  6  1  0  0  0  0
  7  8  1  0  0  0  0
  7 14  2  0  0  0  0
  8  9  1  0  0  0  0
  8 10  2  0  0  0  0
 10 11  1  0  0  0  0
 11 12  2  0  0  0  0
 12 13  1  0  0  0  0
 12 14  1  0  0  0  0
M  END
>  <name>
N(c1sc[c;biphenyl]n1)c1c(C)ccc([N;amide])c1

>  <apo>
2

>  <freq>
1

>  <freq0>
0

>  <freq1>
1

>  <freqA>
0.99700278

>  <a_count>
25

$$$$

  MOE2015           2D

 15 16  0  0  0  0  0  0  0  0999 V2000
   -0.9810    1.9600    0.0000 O   0  0  0  0  0  0  0  0  0  0  0  0
    0.3180    1.2100    0.0000 C   0  0  0  0  0  0  0  0  0  0  0  0
    0.3180   -0.2900    0.0000 N   0  0  0  0  0  0  0  0  0  0  0  0
    1.6170    1.9600    0.0000 C   0  0  0  0  0  0  0  0  0  0  0  0
    1.6170    3.4600    0.0000 C   0  0  0  0  0  0  0  0  0  0  0  0
    2.9160    4.2100    0.0000 C   0  0  0  0  0  0  0  0  0  0  0  0
    2.9160    5.7100    0.0000 O   0  0  0  0  0  0  0  0  0  0  0  0
    1.6170    6.4600    0.0000 C   0  0  0  0  0  0  0  0  0  0  0  0
    4.2150    3.4600    0.0000 C   0  0  0  0  0  0  0  0  0  0  0  0
    5.6420    3.9240    0.0000 N   0  0  0  0  0  0  0  0  0  0  0  0
    6.5240    2.7100    0.0000 C   0  0  0  0  0  0  0  0  0  0  0  0
    8.0240    2.7100    0.0000 N   0  0  0  0  0  0  0  0  0  0  0  0
    5.6420    1.4970    0.0000 N   0  0  0  0  0  0  0  0  0  0  0  0
    4.2150    1.9600    0.0000 C   0  0  0  0  0  0  0  0  0  0  0  0
    2.9160    1.2100    0.0000 C   0  0  0  0  0  0  0  0  0  0  0  0
  1  2  2  0  0  0  0
  2  3  1  0  0  0  0
  2  4  1  0  0  0  0
  4  5  1  0  0  0  0
  4 15  2  0  0  0  0
  5  6  2  0  0  0  0
  6  7  1  0  0  0  0
  6  9  1  0  0  0  0
  7  8  1  0  0  0  0
  9 10  1  0  0  0  0
  9 14  2  0  0  0  0
 10 11  1  0  0  0  0
 11 12  1  0  0  0  0
 11 13  2  0  0  0  0
 13 14  1  0  0  0  0
 14 15  1  0  0  0  0
M  END
>  <name>
O=C(N)c1cc(OC)c2[nH;NaroC]c([N;amide])nc2c1

>  <apo>
2

>  <freq>
1

>  <freq0>
0

>  <freq1>
1

>  <freqA>
0.99700278

>  <a_count>
25

$$$$

  MOE2015           2D

 16 17  0  0  0  0  0  0  0  0999 V2000
    5.5670    5.5670    0.0000 O   0  0  0  0  0  0  0  0  0  0  0  0
    5.5670    4.0670    0.0000 C   0  0  0  0  0  0  0  0  0  0  0  0
    6.8660    3.3170    0.0000 O   0  0  0  0  0  0  0  0  0  0  0  0
    8.1650    4.0670    0.0000 C   0  0  0  0  0  0  0  0  0  0  0  0
    4.2680    3.3170    0.0000 C   0  0  0  0  0  0  0  0  0  0  0  0
    2.9690    4.0670    0.0000 C   0  0  0  0  0  0  0  0  0  0  0  0
    1.6700    3.3170    0.0000 C   0  0  0  0  0  0  0  0  0  0  0  0
    0.2430    3.7810    0.0000 C   0  0  0  0  0  0  0  0  0  0  0  0
   -0.2200    5.2070    0.0000 O   0  0  0  0  0  0  0  0  0  0  0  0
   -0.6380    2.5670    0.0000 C   0  0  0  0  0  0  0  0  0  0  0  0
   -2.1380    2.5670    0.0000 O   0  0  0  0  0  0  0  0  0  0  0  0
    0.2430    1.3540    0.0000 N   0  0  0  0  0  0  0  0  0  0  0  0
   -0.2200   -0.0730    0.0000 C   0  0  0  0  0  0  0  0  0  0  0  0
    1.6700    1.8170    0.0000 C   0  0  0  0  0  0  0  0  0  0  0  0
    2.9690    1.0670    0.0000 C   0  0  0  0  0  0  0  0  0  0  0  0
    4.2680    1.8170    0.0000 C   0  0  0  0  0  0  0  0  0  0  0  0
  1  2  2  0  0  0  0
  2  3  1  0  0  0  0
  2  5  1  0  0  0  0
  3  4  1  0  0  0  0
  5  6  1  0  0  0  0
  5 16  2  0  0  0  0
  6  7  2  0  0  0  0
  7  8  1  0  0  0  0
  7 14  1  0  0  0  0
  8  9  2  0  0  0  0
  8 10  1  0  0  0  0
 10 11  2  0  0  0  0
 10 12  1  0  0  0  0
 12 13  1  0  0  0  0
 12 14  1  0  0  0  0
 14 15  2  0  0  0  0
 15 16  1  0  0  0  0
M  END
>  <name>
O=C(OC)c1cc2C(=O)C(=O)N([C;amine])c2cc1

>  <apo>
1

>  <freq>
1

>  <freq0>
0

>  <freq1>
1

>  <freqA>
0.99700278

>  <a_count>
25

$$$$

  MOE2015           2D

 16 17  0  0  0  0  0  0  0  0999 V2000
    8.6550    4.9590    0.0000 O   0  0  0  0  0  0  0  0  0  0  0  0
    7.8970    3.6650    0.0000 C   0  0  0  0  0  0  0  0  0  0  0  0
    8.6380    2.3610    0.0000 O   0  5  0  0  0  0  0  0  0  0  0  0
    6.3970    3.6750    0.0000 C   0  0  0  0  0  0  0  0  0  0  0  0
    5.6380    2.3810    0.0000 C   0  0  0  0  0  0  0  0  0  0  0  0
    4.1380    2.3910    0.0000 C   0  0  0  0  0  0  0  0  0  0  0  0
    3.3970    3.6950    0.0000 C   0  0  0  0  0  0  0  0  0  0  0  0
    1.8970    3.7050    0.0000 N   0  0  0  0  0  0  0  0  0  0  0  0
    1.0230    4.9240    0.0000 C   0  0  0  0  0  0  0  0  0  0  0  0
    1.4960    6.3480    0.0000 O   0  0  0  0  0  0  0  0  0  0  0  0
   -0.4060    4.4700    0.0000 C   0  0  0  0  0  0  0  0  0  0  0  0
   -0.4160    2.9700    0.0000 C   0  0  0  0  0  0  0  0  0  0  0  0
   -1.6360    2.0960    0.0000 C   0  0  0  0  0  0  0  0  0  0  0  0
    1.0070    2.4970    0.0000 N   0  0  0  0  0  0  0  0  0  0  0  0
    4.1550    4.9890    0.0000 C   0  0  0  0  0  0  0  0  0  0  0  0
    5.6550    4.9790    0.0000 C   0  0  0  0  0  0  0  0  0  0  0  0
  1  2  2  0  0  0  0
  2  3  1  0  0  0  0
  2  4  1  0  0  0  0
  4  5  1  0  0  0  0
  4 16  2  0  0  0  0
  5  6  2  0  0  0  0
  6  7  1  0  0  0  0
  7  8  1  0  0  0  0
  7 15  2  0  0  0  0
  8  9  1  0  0  0  0
  8 14  1  0  0  0  0
  9 10  2  0  0  0  0
  9 11  1  0  0  0  0
 11 12  1  0  0  0  0
 12 13  1  0  0  0  0
 12 14  2  0  0  0  0
 15 16  1  0  0  0  0
M  CHG  1   3  -1
M  END
>  <name>
O=C([O-])c1ccc(N2C(=O)[C;olefin]C(C)=N2)cc1

>  <apo>
1

>  <freq>
1

>  <freq0>
0

>  <freq1>
1

>  <freqA>
0.99700278

>  <a_count>
25

$$$$

  MOE2015           2D

 14 15  0  0  1  0  0  0  0  0999 V2000
    9.3520   -3.8920    0.0000 O   0  0  0  0  0  0  0  0  0  0  0  0
    7.9980   -4.5370    0.0000 C   0  0  0  0  0  0  0  0  0  0  0  0
    6.7620   -3.6870    0.0000 C   0  0  3  0  0  0  0  0  0  0  0  0
    5.3480   -4.1880    0.0000 C   0  0  0  0  0  0  0  0  0  0  0  0
    4.4350   -2.9970    0.0000 N   0  0  0  0  0  0  0  0  0  0  0  0
    2.9360   -3.0360    0.0000 C   0  0  0  0  0  0  0  0  0  0  0  0
    2.2190   -4.3540    0.0000 C   0  0  0  0  0  0  0  0  0  0  0  0
    0.7200   -4.3920    0.0000 C   0  0  0  0  0  0  0  0  0  0  0  0
   -0.0630   -3.1130    0.0000 C   0  0  0  0  0  0  0  0  0  0  0  0
    0.6530   -1.7950    0.0000 C   0  0  0  0  0  0  0  0  0  0  0  0
    2.1520   -1.7570    0.0000 C   0  0  0  0  0  0  0  0  0  0  0  0
    5.2850   -1.7610    0.0000 C   0  0  0  0  0  0  0  0  0  0  0  0
    4.7850   -0.3470    0.0000 O   0  0  0  0  0  0  0  0  0  0  0  0
    6.7230   -2.1880    0.0000 C   0  0  0  0  0  0  0  0  0  0  0  0
  1  2  2  0  0  0  0
  2  3  1  0  0  0  0
  3  4  1  0  0  0  0
  3 14  1  0  0  0  0
  4  5  1  0  0  0  0
  5  6  1  0  0  0  0
  5 12  1  0  0  0  0
  6  7  1  0  0  0  0
  6 11  2  0  0  0  0
  7  8  2  0  0  0  0
  8  9  1  0  0  0  0
  9 10  2  0  0  0  0
 10 11  1  0  0  0  0
 12 13  2  0  0  0  0
 12 14  1  0  0  0  0
M  END
>  <name>
O=[C;amide]C1CN(c2ccccc2)C(=O)C1

>  <apo>
1

>  <freq>
1

>  <freq0>
0

>  <freq1>
1

>  <freqA>
0.99700278

>  <a_count>
25

$$$$

  MOE2015           2D

  9  8  0  0  1  0  0  0  0  0999 V2000
    9.1800    1.2930    0.0000 O   0  0  0  0  0  0  0  0  0  0  0  0
    7.8810    2.0430    0.0000 C   0  0  0  0  0  0  0  0  0  0  0  0
    6.5820    1.2930    0.0000 C   0  0  0  0  0  0  0  0  0  0  0  0
    5.2830    2.0430    0.0000 C   0  0  0  0  0  0  0  0  0  0  0  0
    3.9840    1.2930    0.0000 C   0  0  0  0  0  0  0  0  0  0  0  0
    2.6850    2.0430    0.0000 C   0  0  3  0  0  0  0  0  0  0  0  0
    1.3860    1.2930    0.0000 C   0  0  0  0  0  0  0  0  0  0  0  0
    0.0870    2.0430    0.0000 C   0  0  0  0  0  0  0  0  0  0  0  0
    2.6850    3.5430    0.0000 C   0  0  0  0  0  0  0  0  0  0  0  0
  1  2  2  0  0  0  0
  2  3  1  0  0  0  0
  3  4  1  0  0  0  0
  4  5  1  0  0  0  0
  5  6  1  0  0  0  0
  6  7  1  0  0  0  0
  6  9  1  0  0  0  0
  7  8  1  0  0  0  0
M  END
>  <name>
O=[C;amide]CCCC(CC)C

>  <apo>
1

>  <freq>
1

>  <freq0>
0

>  <freq1>
1

>  <freqA>
0.99700278

>  <a_count>
25

$$$$

  MOE2015           2D

 10 10  0  0  1  0  0  0  0  0999 V2000
    7.3500   -2.3380    0.0000 O   0  0  0  0  0  0  0  0  0  0  0  0
    5.8500   -2.3380    0.0000 C   0  0  0  0  0  0  0  0  0  0  0  0
    5.1000   -1.0390    0.0000 C   0  0  1  0  0  0  0  0  0  0  0  0
    5.8500    0.2600    0.0000 N   0  0  0  0  0  0  0  0  0  0  0  0
    3.6000   -1.0390    0.0000 C   0  0  0  0  0  0  0  0  0  0  0  0
    2.8500   -2.3380    0.0000 C   0  0  0  0  0  0  0  0  0  0  0  0
    1.3500   -2.3380    0.0000 C   0  0  0  0  0  0  0  0  0  0  0  0
    0.6000   -1.0390    0.0000 C   0  0  0  0  0  0  0  0  0  0  0  0
    1.3500    0.2600    0.0000 C   0  0  0  0  0  0  0  0  0  0  0  0
    2.8500    0.2600    0.0000 C   0  0  0  0  0  0  0  0  0  0  0  0
  1  2  2  0  0  0  0
  2  3  1  0  0  0  0
  3  4  1  6  0  0  0
  3  5  1  0  0  0  0
  5  6  1  0  0  0  0
  5 10  1  0  0  0  0
  6  7  1  0  0  0  0
  7  8  1  0  0  0  0
  8  9  1  0  0  0  0
  9 10  1  0  0  0  0
M  END
>  <name>
O=[C;amide][C@@H]([N;amide])C1CCCCC1

>  <apo>
2

>  <freq>
1

>  <freq0>
0

>  <freq1>
1

>  <freqA>
0.99700278

>  <a_count>
25

$$$$

  MOE2015           2D

 12 12  0  0  1  0  0  0  0  0999 V2000
   10.0710   -1.1990    0.0000 O   0  0  0  0  0  0  0  0  0  0  0  0
    8.7720   -1.9490    0.0000 C   0  0  0  0  0  0  0  0  0  0  0  0
    7.4730   -1.1990    0.0000 C   0  0  1  0  0  0  0  0  0  0  0  0
    7.4730    0.3010    0.0000 N   0  0  0  0  0  0  0  0  0  0  0  0
    6.1740   -1.9490    0.0000 C   0  0  0  0  0  0  0  0  0  0  0  0
    4.8750   -1.1990    0.0000 C   0  0  0  0  0  0  0  0  0  0  0  0
    3.5760   -1.9490    0.0000 C   0  0  0  0  0  0  0  0  0  0  0  0
    3.5760   -3.4490    0.0000 C   0  0  0  0  0  0  0  0  0  0  0  0
    2.2770   -4.1990    0.0000 C   0  0  0  0  0  0  0  0  0  0  0  0
    0.9780   -3.4490    0.0000 C   0  0  0  0  0  0  0  0  0  0  0  0
    0.9780   -1.9490    0.0000 C   0  0  0  0  0  0  0  0  0  0  0  0
    2.2770   -1.1990    0.0000 C   0  0  0  0  0  0  0  0  0  0  0  0
  1  2  2  0  0  0  0
  2  3  1  0  0  0  0
  3  4  1  6  0  0  0
  3  5  1  0  0  0  0
  5  6  1  0  0  0  0
  6  7  1  0  0  0  0
  7  8  1  0  0  0  0
  7 12  2  0  0  0  0
  8  9  2  0  0  0  0
  9 10  1  0  0  0  0
 10 11  2  0  0  0  0
 11 12  1  0  0  0  0
M  END
>  <name>
O=[C;amide][C@@H]([N;amide])CCc1ccccc1

>  <apo>
2

>  <freq>
1

>  <freq0>
0

>  <freq1>
1

>  <freqA>
0.99700278

>  <a_count>
25

$$$$

  MOE2015           2D

 14 15  0  0  0  0  0  0  0  0999 V2000
    2.5900    4.4370    0.0000 O   0  0  0  0  0  0  0  0  0  0  0  0
    3.3280    3.1310    0.0000 C   0  0  0  0  0  0  0  0  0  0  0  0
    2.5650    1.8390    0.0000 C   0  0  0  0  0  0  0  0  0  0  0  0
    3.3030    0.5330    0.0000 C   0  0  0  0  0  0  0  0  0  0  0  0
    4.7670    0.2070    0.0000 C   0  0  0  0  0  0  0  0  0  0  0  0
    5.8910    1.2000    0.0000 C   0  0  0  0  0  0  0  0  0  0  0  0
    7.3130    0.7230    0.0000 C   0  0  0  0  0  0  0  0  0  0  0  0
    8.4380    1.7160    0.0000 C   0  0  0  0  0  0  0  0  0  0  0  0
    4.9100   -1.2860    0.0000 C   0  0  0  0  0  0  0  0  0  0  0  0
    3.5340   -1.8830    0.0000 N   0  0  0  0  0  0  0  0  0  0  0  0
    2.5410   -0.7590    0.0000 C   0  0  0  0  0  0  0  0  0  0  0  0
    1.0410   -0.7450    0.0000 C   0  0  0  0  0  0  0  0  0  0  0  0
    0.3030    0.5620    0.0000 C   0  0  0  0  0  0  0  0  0  0  0  0
    1.0650    1.8530    0.0000 C   0  0  0  0  0  0  0  0  0  0  0  0
  1  2  2  0  0  0  0
  2  3  1  0  0  0  0
  3  4  1  0  0  0  0
  3 14  2  0  0  0  0
  4  5  1  0  0  0  0
  4 11  2  0  0  0  0
  5  6  1  0  0  0  0
  5  9  2  0  0  0  0
  6  7  1  0  0  0  0
  7  8  2  0  0  0  0
  9 10  1  0  0  0  0
 10 11  1  0  0  0  0
 11 12  1  0  0  0  0
 12 13  2  0  0  0  0
 13 14  1  0  0  0  0
M  END
>  <name>
O=[C;ester]c1c2c(CC=C)c[nH;NaroC]c2ccc1

>  <apo>
2

>  <freq>
1

>  <freq0>
0

>  <freq1>
1

>  <freqA>
0.99700278

>  <a_count>
25

$$$$

  MOE2015           2D

 13 14  0  0  1  0  0  0  0  0999 V2000
    6.1620   -0.7600    0.0000 O   0  0  0  0  0  0  0  0  0  0  0  0
    5.4120   -2.0590    0.0000 C   0  0  3  0  0  0  0  0  0  0  0  0
    6.1620   -3.3580    0.0000 C   0  0  0  0  0  0  0  0  0  0  0  0
    7.6620   -3.3580    0.0000 C   0  0  0  0  0  0  0  0  0  0  0  0
    3.9120   -2.0590    0.0000 C   0  0  0  0  0  0  0  0  0  0  0  0
    3.0310   -3.2720    0.0000 N   0  0  0  0  0  0  0  0  0  0  0  0
    1.6040   -2.8090    0.0000 C   0  0  0  0  0  0  0  0  0  0  0  0
    1.6040   -1.3090    0.0000 C   0  0  0  0  0  0  0  0  0  0  0  0
    3.0310   -0.8450    0.0000 N   0  0  0  0  0  0  0  0  0  0  0  0
    0.3050   -0.5590    0.0000 C   0  0  0  0  0  0  0  0  0  0  0  0
   -0.9940   -1.3090    0.0000 C   0  0  0  0  0  0  0  0  0  0  0  0
   -0.9940   -2.8090    0.0000 C   0  0  0  0  0  0  0  0  0  0  0  0
    0.3050   -3.5590    0.0000 C   0  0  0  0  0  0  0  0  0  0  0  0
  1  2  1  0  0  0  0
  2  3  1  0  0  0  0
  2  5  1  0  0  0  0
  3  4  1  0  0  0  0
  5  6  1  0  0  0  0
  5  9  2  0  0  0  0
  6  7  1  0  0  0  0
  7  8  1  0  0  0  0
  7 13  2  0  0  0  0
  8  9  1  0  0  0  0
  8 10  2  0  0  0  0
 10 11  1  0  0  0  0
 11 12  2  0  0  0  0
 12 13  1  0  0  0  0
M  END
>  <name>
OC(CC)c1[nH;NaroC]c2c(n1)cccc2

>  <apo>
1

>  <freq>
1

>  <freq0>
0

>  <freq1>
1

>  <freqA>
0.99700278

>  <a_count>
25

$$$$

  MOE2015           2D

 13 14  0  0  0  0  0  0  0  0999 V2000
    0.6920   -2.5840    0.0000 C   0  0  0  0  0  0  0  0  0  0  0  0
   -0.6070   -1.8340    0.0000 C   0  0  0  0  0  0  0  0  0  0  0  0
   -1.9060   -2.5840    0.0000 C   0  0  0  0  0  0  0  0  0  0  0  0
   -3.2050   -1.8340    0.0000 C   0  0  0  0  0  0  0  0  0  0  0  0
   -3.2050   -0.3340    0.0000 C   0  0  0  0  0  0  0  0  0  0  0  0
   -1.9060    0.4160    0.0000 C   0  0  0  0  0  0  0  0  0  0  0  0
   -0.6070   -0.3340    0.0000 C   0  0  0  0  0  0  0  0  0  0  0  0
    1.9910   -1.8340    0.0000 C   0  0  0  0  0  0  0  0  0  0  0  0
    1.9910   -0.3340    0.0000 C   0  0  0  0  0  0  0  0  0  0  0  0
    3.2900    0.4160    0.0000 C   0  0  0  0  0  0  0  0  0  0  0  0
    4.5890   -0.3340    0.0000 C   0  0  0  0  0  0  0  0  0  0  0  0
    4.5890   -1.8340    0.0000 C   0  0  0  0  0  0  0  0  0  0  0  0
    3.2900   -2.5840    0.0000 C   0  0  0  0  0  0  0  0  0  0  0  0
  1  2  1  0  0  0  0
  1  8  1  0  0  0  0
  2  3  1  0  0  0  0
  2  7  2  0  0  0  0
  3  4  2  0  0  0  0
  4  5  1  0  0  0  0
  5  6  2  0  0  0  0
  6  7  1  0  0  0  0
  8  9  1  0  0  0  0
  8 13  2  0  0  0  0
  9 10  2  0  0  0  0
 10 11  1  0  0  0  0
 11 12  2  0  0  0  0
 12 13  1  0  0  0  0
M  END
>  <name>
[C;amine](c1ccccc1)c1ccccc1

>  <apo>
1

>  <freq>
1

>  <freq0>
0

>  <freq1>
1

>  <freqA>
0.99700278

>  <a_count>
25

$$$$

  MOE2015           2D

 11 11  0  0  0  0  0  0  0  0999 V2000
    6.5490   -2.4150    0.0000 N   0  0  0  0  0  0  0  0  0  0  0  0
    5.2130   -3.0960    0.0000 C   0  0  0  0  0  0  0  0  0  0  0  0
    3.9550   -2.2790    0.0000 C   0  0  0  0  0  0  0  0  0  0  0  0
    2.5540   -2.8170    0.0000 N   0  0  0  0  0  0  0  0  0  0  0  0
    1.6100   -1.6510    0.0000 C   0  0  0  0  0  0  0  0  0  0  0  0
    0.1120   -1.7290    0.0000 C   0  0  0  0  0  0  0  0  0  0  0  0
   -0.5690   -3.0660    0.0000 C   0  0  0  0  0  0  0  0  0  0  0  0
   -0.7040   -0.4710    0.0000 C   0  0  0  0  0  0  0  0  0  0  0  0
    2.4270   -0.3930    0.0000 S   0  0  0  0  0  0  0  0  0  0  0  0
    3.8760   -0.7810    0.0000 C   0  0  0  0  0  0  0  0  0  0  0  0
    7.8070   -3.2320    0.0000 C   0  0  0  0  0  0  0  0  0  0  0  0
  1  2  1  0  0  0  0
  1 11  1  0  0  0  0
  2  3  1  0  0  0  0
  3  4  1  0  0  0  0
  3 10  2  0  0  0  0
  4  5  2  0  0  0  0
  5  6  1  0  0  0  0
  5  9  1  0  0  0  0
  6  7  1  0  0  0  0
  6  8  1  0  0  0  0
  9 10  1  0  0  0  0
M  END
>  <name>
[N;urea](Cc1nc(C(C)C)sc1)C

>  <apo>
1

>  <freq>
1

>  <freq0>
0

>  <freq1>
1

>  <freqA>
0.99700278

>  <a_count>
25

$$$$

  MOE2015           2D

 14 15  0  0  0  0  0  0  0  0999 V2000
    0.0000    1.4850    0.0000 O   0  0  0  0  0  0  0  0  0  0  0  0
    1.5000    1.4850    0.0000 C   0  0  0  0  0  0  0  0  0  0  0  0
    2.2500    0.1860    0.0000 C   0  0  0  0  0  0  0  0  0  0  0  0
    3.7500    0.1860    0.0000 C   0  0  0  0  0  0  0  0  0  0  0  0
    4.5000    1.4850    0.0000 C   0  0  0  0  0  0  0  0  0  0  0  0
    6.0000    1.4850    0.0000 C   0  0  0  0  0  0  0  0  0  0  0  0
    6.7500    0.1860    0.0000 C   0  0  0  0  0  0  0  0  0  0  0  0
    8.2500    0.1860    0.0000 C   0  0  0  0  0  0  0  0  0  0  0  0
    9.0000    1.4850    0.0000 N   0  3  0  0  0  0  0  0  0  0  0  0
    9.0000   -1.1130    0.0000 N   0  0  0  0  0  0  0  0  0  0  0  0
    6.0000   -1.1130    0.0000 C   0  0  0  0  0  0  0  0  0  0  0  0
    4.5000   -1.1130    0.0000 C   0  0  0  0  0  0  0  0  0  0  0  0
    3.7500    2.7840    0.0000 C   0  0  0  0  0  0  0  0  0  0  0  0
    2.2500    2.7840    0.0000 C   0  0  0  0  0  0  0  0  0  0  0  0
  1  2  1  0  0  0  0
  2  3  2  0  0  0  0
  2 14  1  0  0  0  0
  3  4  1  0  0  0  0
  4  5  1  0  0  0  0
  4 12  2  0  0  0  0
  5  6  2  0  0  0  0
  5 13  1  0  0  0  0
  6  7  1  0  0  0  0
  7  8  1  0  0  0  0
  7 11  2  0  0  0  0
  8  9  2  0  0  0  0
  8 10  1  0  0  0  0
 11 12  1  0  0  0  0
 13 14  2  0  0  0  0
M  CHG  1   9   1
M  END
>  <name>
[O;ester]c1cc2c(cc(C(=[N+])N)cc2)cc1

>  <apo>
1

>  <freq>
1

>  <freq0>
0

>  <freq1>
1

>  <freqA>
0.99700278

>  <a_count>
25

$$$$

  MOE2015           2D

 14 15  0  0  0  0  0  0  0  0999 V2000
    7.6440   -0.9520    0.0000 S   0  0  0  0  0  0  0  0  0  0  0  0
    6.3450   -0.2020    0.0000 C   0  0  0  0  0  0  0  0  0  0  0  0
    6.3450    1.2980    0.0000 C   0  0  0  0  0  0  0  0  0  0  0  0
    7.6440    2.0480    0.0000 N   0  0  0  0  0  0  0  0  0  0  0  0
    5.0460    2.0480    0.0000 C   0  0  0  0  0  0  0  0  0  0  0  0
    3.7470    1.2980    0.0000 C   0  0  0  0  0  0  0  0  0  0  0  0
    2.3200    1.7620    0.0000 N   0  0  0  0  0  0  0  0  0  0  0  0
    1.8570    3.1880    0.0000 C   0  0  0  0  0  0  0  0  0  0  0  0
    1.4380    0.5480    0.0000 C   0  0  0  0  0  0  0  0  0  0  0  0
   -0.0620    0.5480    0.0000 O   0  0  0  0  0  0  0  0  0  0  0  0
    2.3200   -0.6650    0.0000 N   0  0  0  0  0  0  0  0  0  0  0  0
    1.8570   -2.0920    0.0000 C   0  0  0  0  0  0  0  0  0  0  0  0
    3.7470   -0.2020    0.0000 C   0  0  0  0  0  0  0  0  0  0  0  0
    5.0460   -0.9520    0.0000 C   0  0  0  0  0  0  0  0  0  0  0  0
  1  2  1  0  0  0  0
  2  3  1  0  0  0  0
  2 14  2  0  0  0  0
  3  4  1  0  0  0  0
  3  5  2  0  0  0  0
  5  6  1  0  0  0  0
  6  7  1  0  0  0  0
  6 13  2  0  0  0  0
  7  8  1  0  0  0  0
  7  9  1  0  0  0  0
  9 10  2  0  0  0  0
  9 11  1  0  0  0  0
 11 12  1  0  0  0  0
 11 13  1  0  0  0  0
 13 14  1  0  0  0  0
M  END
>  <name>
[S;thioether]c1c([N;amide])cc2N(C)C(=O)N(C)c2c1

>  <apo>
2

>  <freq>
1

>  <freq0>
0

>  <freq1>
1

>  <freqA>
0.99700278

>  <a_count>
25

$$$$

  MOE2015           2D

  8  8  0  0  0  0  0  0  0  0999 V2000
    0.0000    0.0000    0.0000 C   0  0  0  0  0  0  0  0  0  0  0  0
    1.5000    0.0000    0.0000 N   0  3  0  0  0  0  0  0  0  0  0  0
    2.2500   -1.2990    0.0000 C   0  0  0  0  0  0  0  0  0  0  0  0
    3.7500   -1.2990    0.0000 C   0  0  0  0  0  0  0  0  0  0  0  0
    4.5000    0.0000    0.0000 C   0  0  0  0  0  0  0  0  0  0  0  0
    6.0000    0.0000    0.0000 C   0  0  0  0  0  0  0  0  0  0  0  0
    3.7500    1.2990    0.0000 C   0  0  0  0  0  0  0  0  0  0  0  0
    2.2500    1.2990    0.0000 C   0  0  0  0  0  0  0  0  0  0  0  0
  1  2  1  0  0  0  0
  2  3  1  0  0  0  0
  2  8  1  0  0  0  0
  3  4  1  0  0  0  0
  4  5  1  0  0  0  0
  5  6  1  0  0  0  0
  5  7  1  0  0  0  0
  7  8  1  0  0  0  0
M  CHG  1   2   1
M  END
>  <name>
C[N+]1CCC([C;ether])CC1

>  <apo>
1

>  <freq>
1

>  <freq0>
0

>  <freq1>
1

>  <freqA>
0.99700278

>  <a_count>
24

$$$$

  MOE2015           2D

 14 15  0  0  0  0  0  0  0  0999 V2000
    1.9920    3.4530    0.0000 Cl  0  0  0  0  0  0  0  0  0  0  0  0
    2.7430    2.1540    0.0000 C   0  0  0  0  0  0  0  0  0  0  0  0
    1.9930    0.8540    0.0000 C   0  0  0  0  0  0  0  0  0  0  0  0
    0.4930    0.8540    0.0000 C   0  0  0  0  0  0  0  0  0  0  0  0
    1.1980   -0.4700    0.0000 C   0  0  0  0  0  0  0  0  0  0  0  0
    0.3100    2.3420    0.0000 O   0  0  0  0  0  0  0  0  0  0  0  0
   -1.1630    2.6280    0.0000 C   0  0  0  0  0  0  0  0  0  0  0  0
   -1.8890    1.3160    0.0000 C   0  0  0  0  0  0  0  0  0  0  0  0
   -0.8660    0.2190    0.0000 O   0  0  0  0  0  0  0  0  0  0  0  0
    2.7440   -0.4440    0.0000 C   0  0  0  0  0  0  0  0  0  0  0  0
    4.2440   -0.4430    0.0000 C   0  0  0  0  0  0  0  0  0  0  0  0
    4.9930    0.8560    0.0000 C   0  0  0  0  0  0  0  0  0  0  0  0
    6.4930    0.8570    0.0000 Cl  0  0  0  0  0  0  0  0  0  0  0  0
    4.2430    2.1550    0.0000 C   0  0  0  0  0  0  0  0  0  0  0  0
  1  2  1  0  0  0  0
  2  3  1  0  0  0  0
  2 14  2  0  0  0  0
  3  4  1  0  0  0  0
  3 10  2  0  0  0  0
  4  5  1  0  0  0  0
  4  6  1  0  0  0  0
  4  9  1  0  0  0  0
  6  7  1  0  0  0  0
  7  8  1  0  0  0  0
  8  9  1  0  0  0  0
 10 11  1  0  0  0  0
 11 12  2  0  0  0  0
 12 13  1  0  0  0  0
 12 14  1  0  0  0  0
M  END
>  <name>
Clc1c(C2([C;NaroC])O[C;ether]CO2)ccc(Cl)c1

>  <apo>
2

>  <freq>
1

>  <freq0>
0

>  <freq1>
1

>  <freqA>
0.99700278

>  <a_count>
24

$$$$

  MOE2015           2D

 16 18  0  0  0  0  0  0  0  0999 V2000
    9.4120    2.4840    0.0000 F   0  0  0  0  0  0  0  0  0  0  0  0
    8.1080    1.7440    0.0000 C   0  0  0  0  0  0  0  0  0  0  0  0
    9.3590    0.9170    0.0000 F   0  0  0  0  0  0  0  0  0  0  0  0
    7.1850    0.5610    0.0000 O   0  0  0  0  0  0  0  0  0  0  0  0
    5.7750    1.0720    0.0000 C   0  0  0  0  0  0  0  0  0  0  0  0
    5.8260    2.5710    0.0000 C   0  0  0  0  0  0  0  0  0  0  0  0
    7.2670    2.9860    0.0000 O   0  0  0  0  0  0  0  0  0  0  0  0
    4.5530    3.3650    0.0000 C   0  0  0  0  0  0  0  0  0  0  0  0
    3.2290    2.6590    0.0000 C   0  0  0  0  0  0  0  0  0  0  0  0
    3.1790    1.1600    0.0000 C   0  0  0  0  0  0  0  0  0  0  0  0
    1.8550    0.4540    0.0000 C   0  0  0  0  0  0  0  0  0  0  0  0
    1.5160    1.9150    0.0000 C   0  0  0  0  0  0  0  0  0  0  0  0
    0.0810    2.3520    0.0000 O   0  0  0  0  0  0  0  0  0  0  0  0
    2.0010   -1.0390    0.0000 C   0  0  0  0  0  0  0  0  0  0  0  0
    0.6350   -0.4180    0.0000 C   0  0  0  0  0  0  0  0  0  0  0  0
    4.4520    0.3660    0.0000 C   0  0  0  0  0  0  0  0  0  0  0  0
  1  2  1  0  0  0  0
  2  3  1  0  0  0  0
  2  4  1  0  0  0  0
  2  7  1  0  0  0  0
  4  5  1  0  0  0  0
  5  6  1  0  0  0  0
  5 16  2  0  0  0  0
  6  7  1  0  0  0  0
  6  8  2  0  0  0  0
  8  9  1  0  0  0  0
  9 10  2  0  0  0  0
 10 11  1  0  0  0  0
 10 16  1  0  0  0  0
 11 12  1  0  0  0  0
 11 14  1  0  0  0  0
 11 15  1  0  0  0  0
 12 13  2  0  0  0  0
 14 15  1  0  0  0  0
M  END
>  <name>
FC1(F)Oc2c(O1)ccc(C1([C;amide]=O)CC1)c2

>  <apo>
1

>  <freq>
1

>  <freq0>
0

>  <freq1>
1

>  <freqA>
0.99700278

>  <a_count>
24

$$$$

  MOE2015           2D

 11 11  0  0  0  0  0  0  0  0999 V2000
   -2.7860    3.3440    0.0000 O   0  0  0  0  0  0  0  0  0  0  0  0
   -4.0850    4.0940    0.0000 C   0  0  0  0  0  0  0  0  0  0  0  0
   -2.7860    1.8440    0.0000 C   0  0  0  0  0  0  0  0  0  0  0  0
   -1.4870    1.0940    0.0000 C   0  0  0  0  0  0  0  0  0  0  0  0
   -0.1880    1.8440    0.0000 C   0  0  0  0  0  0  0  0  0  0  0  0
    1.1110    1.0940    0.0000 N   0  0  0  0  0  0  0  0  0  0  0  0
    2.4100    1.8440    0.0000 C   0  0  0  0  0  0  0  0  0  0  0  0
   -1.4870   -0.4060    0.0000 C   0  0  0  0  0  0  0  0  0  0  0  0
   -2.7860   -1.1560    0.0000 C   0  0  0  0  0  0  0  0  0  0  0  0
   -4.0850   -0.4060    0.0000 C   0  0  0  0  0  0  0  0  0  0  0  0
   -4.0850    1.0940    0.0000 C   0  0  0  0  0  0  0  0  0  0  0  0
  1  2  1  0  0  0  0
  1  3  1  0  0  0  0
  3  4  1  0  0  0  0
  3 11  2  0  0  0  0
  4  5  1  0  0  0  0
  4  8  2  0  0  0  0
  5  6  1  0  0  0  0
  6  7  1  0  0  0  0
  8  9  1  0  0  0  0
  9 10  2  0  0  0  0
 10 11  1  0  0  0  0
M  END
>  <name>
O(C)c1c(C[N;amide]C)cccc1

>  <apo>
1

>  <freq>
1

>  <freq0>
0

>  <freq1>
1

>  <freqA>
0.99700278

>  <a_count>
24

$$$$

  MOE2015           2D

 14 15  0  0  0  0  0  0  0  0999 V2000
    0.6200   -2.3130    0.0000 O   0  0  0  0  0  0  0  0  0  0  0  0
    1.9190   -1.5630    0.0000 C   0  0  0  0  0  0  0  0  0  0  0  0
    3.2180   -2.3130    0.0000 C   0  0  0  0  0  0  0  0  0  0  0  0
   -0.6790   -1.5630    0.0000 C   0  0  0  0  0  0  0  0  0  0  0  0
   -1.9780   -2.3130    0.0000 C   0  0  0  0  0  0  0  0  0  0  0  0
   -3.2770   -1.5630    0.0000 C   0  0  0  0  0  0  0  0  0  0  0  0
   -3.2770   -0.0630    0.0000 O   0  0  0  0  0  0  0  0  0  0  0  0
   -1.9780    0.6870    0.0000 C   0  0  0  0  0  0  0  0  0  0  0  0
   -1.9780    2.1870    0.0000 O   0  0  0  0  0  0  0  0  0  0  0  0
   -0.6790   -0.0630    0.0000 C   0  0  0  0  0  0  0  0  0  0  0  0
   -4.5760   -2.3130    0.0000 C   0  0  0  0  0  0  0  0  0  0  0  0
   -4.5760   -3.8130    0.0000 C   0  0  0  0  0  0  0  0  0  0  0  0
   -3.2770   -4.5630    0.0000 C   0  0  0  0  0  0  0  0  0  0  0  0
   -1.9780   -3.8130    0.0000 C   0  0  0  0  0  0  0  0  0  0  0  0
  1  2  1  0  0  0  0
  1  4  1  0  0  0  0
  2  3  1  0  0  0  0
  4  5  1  0  0  0  0
  4 10  2  0  0  0  0
  5  6  1  0  0  0  0
  5 14  2  0  0  0  0
  6  7  1  0  0  0  0
  6 11  2  0  0  0  0
  7  8  1  0  0  0  0
  8  9  2  0  0  0  0
  8 10  1  0  0  0  0
 11 12  1  0  0  0  0
 12 13  2  0  0  0  0
 13 14  1  0  0  0  0
M  END
>  <name>
O(C[C;ether])C=1c2c(OC(=O)C=1)cccc2

>  <apo>
1

>  <freq>
1

>  <freq0>
0

>  <freq1>
1

>  <freqA>
0.99700278

>  <a_count>
24

$$$$

  MOE2015           2D

 12 12  0  0  1  0  0  0  0  0999 V2000
    7.7840    2.0860    0.0000 O   0  0  0  0  0  0  0  0  0  0  0  0
    6.4850    1.3360    0.0000 C   0  0  0  0  0  0  0  0  0  0  0  0
    6.4850   -0.1640    0.0000 N   0  0  0  0  0  0  0  0  0  0  0  0
    5.1860    2.0860    0.0000 C   0  0  1  0  0  0  0  0  0  0  0  0
    5.1860    3.5860    0.0000 N   0  0  0  0  0  0  0  0  0  0  0  0
    3.8870    1.3360    0.0000 C   0  0  0  0  0  0  0  0  0  0  0  0
    2.5880    2.0860    0.0000 C   0  0  0  0  0  0  0  0  0  0  0  0
    2.5880    3.5860    0.0000 C   0  0  0  0  0  0  0  0  0  0  0  0
    1.2890    4.3360    0.0000 C   0  0  0  0  0  0  0  0  0  0  0  0
   -0.0100    3.5860    0.0000 C   0  0  0  0  0  0  0  0  0  0  0  0
   -0.0100    2.0860    0.0000 C   0  0  0  0  0  0  0  0  0  0  0  0
    1.2890    1.3360    0.0000 C   0  0  0  0  0  0  0  0  0  0  0  0
  1  2  2  0  0  0  0
  2  3  1  0  0  0  0
  2  4  1  0  0  0  0
  4  5  1  6  0  0  0
  4  6  1  0  0  0  0
  6  7  1  0  0  0  0
  7  8  1  0  0  0  0
  7 12  2  0  0  0  0
  8  9  2  0  0  0  0
  9 10  1  0  0  0  0
 10 11  2  0  0  0  0
 11 12  1  0  0  0  0
M  END
>  <name>
O=C(N)[C@@H]([N;amide])Cc1ccccc1

>  <apo>
1

>  <freq>
1

>  <freq0>
0

>  <freq1>
1

>  <freqA>
0.99700278

>  <a_count>
24

$$$$

  MOE2015           2D

 15 16  0  0  1  0  0  0  0  0999 V2000
    1.4620    5.0230    0.0000 O   0  0  0  0  0  0  0  0  0  0  0  0
    0.7120    3.7240    0.0000 C   0  0  0  0  0  0  0  0  0  0  0  0
   -0.7880    3.7240    0.0000 O   0  5  0  0  0  0  0  0  0  0  0  0
    1.4620    2.4250    0.0000 C   0  0  0  0  0  0  0  0  0  0  0  0
    0.7120    1.1260    0.0000 C   0  0  0  0  0  0  0  0  0  0  0  0
   -0.7880    1.1260    0.0000 C   0  0  0  0  0  0  0  0  0  0  0  0
   -1.5380   -0.1730    0.0000 C   0  0  0  0  0  0  0  0  0  0  0  0
    1.4620   -0.1730    0.0000 C   0  0  0  0  0  0  0  0  0  0  0  0
    2.9620   -0.1730    0.0000 S   0  0  0  0  0  0  0  0  0  0  0  0
    3.7120    1.1260    0.0000 C   0  0  3  0  0  0  0  0  0  0  0  0
    5.0110    1.8760    0.0000 C   0  0  3  0  0  0  0  0  0  0  0  0
    6.4600    1.4880    0.0000 N   0  0  0  0  0  0  0  0  0  0  0  0
    4.2610    3.1750    0.0000 C   0  0  0  0  0  0  0  0  0  0  0  0
    4.6490    4.6240    0.0000 O   0  0  0  0  0  0  0  0  0  0  0  0
    2.9620    2.4250    0.0000 N   0  0  0  0  0  0  0  0  0  0  0  0
  1  2  2  0  0  0  0
  2  3  1  0  0  0  0
  2  4  1  0  0  0  0
  4  5  2  0  0  0  0
  4 15  1  0  0  0  0
  5  6  1  0  0  0  0
  5  8  1  0  0  0  0
  6  7  2  0  0  0  0
  8  9  1  0  0  0  0
  9 10  1  0  0  0  0
 10 11  1  0  0  0  0
 10 15  1  0  0  0  0
 11 12  1  0  0  0  0
 11 13  1  0  0  0  0
 13 14  2  0  0  0  0
 13 15  1  0  0  0  0
M  CHG  1   3  -1
M  END
>  <name>
O=C([O-])C1=C(C=C)CSC2C([N;amide])C(=O)N12

>  <apo>
1

>  <freq>
1

>  <freq0>
0

>  <freq1>
1

>  <freqA>
0.99700278

>  <a_count>
24

$$$$

  MOE2015           2D

  9  8  0  0  0  0  0  0  0  0999 V2000
   -0.5290   -2.6430    0.0000 O   0  0  0  0  0  0  0  0  0  0  0  0
    0.7700   -1.8930    0.0000 C   0  0  0  0  0  0  0  0  0  0  0  0
    2.0690   -2.6430    0.0000 C   0  0  0  0  0  0  0  0  0  0  0  0
    3.3680   -1.8930    0.0000 C   0  0  0  0  0  0  0  0  0  0  0  0
    4.6670   -2.6430    0.0000 C   0  0  0  0  0  0  0  0  0  0  0  0
    5.9660   -1.8930    0.0000 C   0  0  0  0  0  0  0  0  0  0  0  0
    7.2650   -2.6430    0.0000 C   0  0  0  0  0  0  0  0  0  0  0  0
    8.5640   -1.8930    0.0000 C   0  0  0  0  0  0  0  0  0  0  0  0
    9.8630   -2.6430    0.0000 N   0  0  0  0  0  0  0  0  0  0  0  0
  1  2  2  0  0  0  0
  2  3  1  0  0  0  0
  3  4  1  0  0  0  0
  4  5  1  0  0  0  0
  5  6  1  0  0  0  0
  6  7  1  0  0  0  0
  7  8  1  0  0  0  0
  8  9  1  0  0  0  0
M  END
>  <name>
O=[C;amide]CCCCCC[N;amide]

>  <apo>
2

>  <freq>
1

>  <freq0>
0

>  <freq1>
1

>  <freqA>
0.99700278

>  <a_count>
24

$$$$

  MOE2015           2D

 13 13  0  0  1  0  0  0  0  0999 V2000
    9.4650   -3.4590    0.0000 O   0  0  0  0  0  0  0  0  0  0  0  0
    8.1660   -4.2090    0.0000 C   0  0  0  0  0  0  0  0  0  0  0  0
    6.8670   -3.4590    0.0000 C   0  0  1  0  0  0  0  0  0  0  0  0
    6.8670   -1.9590    0.0000 N   0  0  0  0  0  0  0  0  0  0  0  0
    5.5680   -4.2090    0.0000 C   0  0  0  0  0  0  0  0  0  0  0  0
    4.2690   -3.4590    0.0000 C   0  0  0  0  0  0  0  0  0  0  0  0
    2.9700   -4.2090    0.0000 C   0  0  0  0  0  0  0  0  0  0  0  0
    1.6710   -3.4590    0.0000 C   0  0  0  0  0  0  0  0  0  0  0  0
    0.3720   -4.2090    0.0000 O   0  0  0  0  0  0  0  0  0  0  0  0
    1.6710   -1.9590    0.0000 C   0  0  0  0  0  0  0  0  0  0  0  0
    0.3720   -1.2090    0.0000 O   0  0  0  0  0  0  0  0  0  0  0  0
    2.9700   -1.2090    0.0000 C   0  0  0  0  0  0  0  0  0  0  0  0
    4.2690   -1.9590    0.0000 C   0  0  0  0  0  0  0  0  0  0  0  0
  1  2  2  0  0  0  0
  2  3  1  0  0  0  0
  3  4  1  6  0  0  0
  3  5  1  0  0  0  0
  5  6  1  0  0  0  0
  6  7  1  0  0  0  0
  6 13  2  0  0  0  0
  7  8  2  0  0  0  0
  8  9  1  0  0  0  0
  8 10  1  0  0  0  0
 10 11  1  0  0  0  0
 10 12  2  0  0  0  0
 12 13  1  0  0  0  0
M  END
>  <name>
O=[C;amide][C@@H]([N;amide])Cc1cc(O)c(O)cc1

>  <apo>
2

>  <freq>
1

>  <freq0>
0

>  <freq1>
1

>  <freqA>
0.99700278

>  <a_count>
24

$$$$

  MOE2015           2D

 10 10  0  0  1  0  0  0  0  0999 V2000
    6.7670   -1.8130    0.0000 O   0  0  0  0  0  0  0  0  0  0  0  0
    5.4680   -1.0630    0.0000 C   0  0  0  0  0  0  0  0  0  0  0  0
    4.1690   -1.8130    0.0000 C   0  0  2  0  0  0  0  0  0  0  0  0
    2.8700   -1.0630    0.0000 C   0  0  0  0  0  0  0  0  0  0  0  0
    1.5710   -1.8130    0.0000 C   0  0  1  0  0  0  0  0  0  0  0  0
    0.2720   -1.0630    0.0000 N   0  0  0  0  0  0  0  0  0  0  0  0
    1.5710   -3.3130    0.0000 C   0  0  1  0  0  0  0  0  0  0  0  0
    0.2720   -4.0630    0.0000 N   0  0  0  0  0  0  0  0  0  0  0  0
    2.8700   -4.0630    0.0000 C   0  0  0  0  0  0  0  0  0  0  0  0
    4.1690   -3.3130    0.0000 C   0  0  0  0  0  0  0  0  0  0  0  0
  1  2  2  0  0  0  0
  3  2  1  1  0  0  0
  3  4  1  0  0  0  0
  3 10  1  0  0  0  0
  4  5  1  0  0  0  0
  5  6  1  6  0  0  0
  5  7  1  0  0  0  0
  7  8  1  6  0  0  0
  7  9  1  0  0  0  0
  9 10  1  0  0  0  0
M  END
>  <name>
O=[C;amide][C@@H]1C[C@@H]([N;amide])[C@@H]([N;amide])CC1

>  <apo>
3

>  <freq>
1

>  <freq0>
0

>  <freq1>
1

>  <freqA>
0.99700278

>  <a_count>
24

$$$$

  MOE2015           2D

 10 10  0  0  1  0  0  0  0  0999 V2000
    2.4950   -2.4950    0.0000 O   0  0  0  0  0  0  0  0  0  0  0  0
    2.4950   -0.9950    0.0000 C   0  0  2  0  0  0  0  0  0  0  0  0
    3.7940   -0.2450    0.0000 C   0  0  1  0  0  0  0  0  0  0  0  0
    5.0930   -0.9950    0.0000 C   0  0  0  0  0  0  0  0  0  0  0  0
    3.7940    1.2550    0.0000 O   0  0  0  0  0  0  0  0  0  0  0  0
    2.4950    2.0050    0.0000 C   0  0  0  0  0  0  0  0  0  0  0  0
    1.1960    1.2550    0.0000 C   0  0  0  0  0  0  0  0  0  0  0  0
    1.1960   -0.2450    0.0000 C   0  0  2  0  0  0  0  0  0  0  0  0
   -0.3040   -0.2450    0.0000 O   0  0  0  0  0  0  0  0  0  0  0  0
    0.4460   -1.5440    0.0000 C   0  0  0  0  0  0  0  0  0  0  0  0
  2  1  1  1  0  0  0
  2  3  1  0  0  0  0
  2  8  1  0  0  0  0
  3  4  1  6  0  0  0
  3  5  1  0  0  0  0
  5  6  1  0  0  0  0
  6  7  1  0  0  0  0
  7  8  1  0  0  0  0
  8  9  1  1  0  0  0
  8 10  1  6  0  0  0
M  END
>  <name>
O[C@@H]1[C@@H](C)O[C;ether]C[C@@]1(O)C

>  <apo>
1

>  <freq>
1

>  <freq0>
0

>  <freq1>
1

>  <freqA>
0.99700278

>  <a_count>
24

$$$$

  MOE2015           2D

 10 10  0  0  1  0  0  0  0  0999 V2000
    1.0500    2.3380    0.0000 O   0  0  0  0  0  0  0  0  0  0  0  0
    1.8000    1.0390    0.0000 C   0  0  2  0  0  0  0  0  0  0  0  0
    3.3000    1.0390    0.0000 C   0  0  2  0  0  0  0  0  0  0  0  0
    4.0500    2.3380    0.0000 C   0  0  0  0  0  0  0  0  0  0  0  0
    4.0500   -0.2600    0.0000 C   0  0  1  0  0  0  0  0  0  0  0  0
    5.5500   -0.2600    0.0000 O   0  0  0  0  0  0  0  0  0  0  0  0
    3.3000   -1.5590    0.0000 C   0  0  0  0  0  0  0  0  0  0  0  0
    1.8000   -1.5590    0.0000 O   0  0  0  0  0  0  0  0  0  0  0  0
    1.0500   -0.2600    0.0000 C   0  0  1  0  0  0  0  0  0  0  0  0
   -0.4500   -0.2600    0.0000 C   0  0  0  0  0  0  0  0  0  0  0  0
  2  1  1  6  0  0  0
  2  3  1  0  0  0  0
  2  9  1  0  0  0  0
  3  4  1  6  0  0  0
  3  5  1  0  0  0  0
  5  6  1  1  0  0  0
  5  7  1  0  0  0  0
  7  8  1  0  0  0  0
  8  9  1  0  0  0  0
  9 10  1  1  0  0  0
M  END
>  <name>
O[C@@H]1[C@H](C)[C@@H](O)[C;ether]O[C@H]1C

>  <apo>
1

>  <freq>
1

>  <freq0>
0

>  <freq1>
1

>  <freqA>
0.99700278

>  <a_count>
24

$$$$

  MOE2015           2D

 13 13  0  0  1  0  0  0  0  0999 V2000
    3.5100   -3.3390    0.0000 P   0  0  0  0  0  0  0  0  0  0  0  0
    2.7650   -4.6410    0.0000 O   0  0  0  0  0  0  0  0  0  0  0  0
    4.2550   -2.0370    0.0000 O   0  5  0  0  0  0  0  0  0  0  0  0
    4.8120   -4.0840    0.0000 O   0  5  0  0  0  0  0  0  0  0  0  0
    2.2080   -2.5940    0.0000 C   0  0  0  0  0  0  0  0  0  0  0  0
    0.9120   -3.3490    0.0000 C   0  0  0  0  0  0  0  0  0  0  0  0
   -0.3900   -2.6040    0.0000 C   0  0  2  0  0  0  0  0  0  0  0  0
   -0.4360   -4.1040    0.0000 O   0  0  0  0  0  0  0  0  0  0  0  0
   -1.8720   -2.3750    0.0000 C   0  0  2  0  0  0  0  0  0  0  0  0
   -2.9290   -3.4400    0.0000 O   0  0  0  0  0  0  0  0  0  0  0  0
   -2.1130   -0.8950    0.0000 O   0  0  0  0  0  0  0  0  0  0  0  0
   -0.7790   -0.2090    0.0000 C   0  0  0  0  0  0  0  0  0  0  0  0
    0.2860   -1.2650    0.0000 C   0  0  0  0  0  0  0  0  0  0  0  0
  1  2  2  0  0  0  0
  1  3  1  0  0  0  0
  1  4  1  0  0  0  0
  1  5  1  0  0  0  0
  5  6  1  0  0  0  0
  7  6  1  6  0  0  0
  7  8  1  1  0  0  0
  7  9  1  0  0  0  0
  7 13  1  0  0  0  0
  9 10  1  6  0  0  0
  9 11  1  0  0  0  0
 11 12  1  0  0  0  0
 12 13  1  0  0  0  0
M  CHG  1   3  -1
M  CHG  1   4  -1
M  END
>  <name>
P(=O)([O-])([O-])CC[C@]1(O)[C@H](O)O[C;ether][C;ether]1

>  <apo>
2

>  <freq>
1

>  <freq0>
0

>  <freq1>
1

>  <freqA>
0.99700278

>  <a_count>
24

$$$$

  MOE2015           2D

 14 14  0  0  0  0  0  0  0  0999 V2000
   -0.8410    1.4680    0.0000 S   0  0  0  0  0  0  0  0  0  0  0  0
    0.4580    0.7180    0.0000 O   0  0  0  0  0  0  0  0  0  0  0  0
   -2.1400    2.2180    0.0000 O   0  0  0  0  0  0  0  0  0  0  0  0
   -0.0910    2.7680    0.0000 O   0  0  0  0  0  0  0  0  0  0  0  0
    1.4090    2.7680    0.0000 C   0  0  0  0  0  0  0  0  0  0  0  0
    2.1590    4.0670    0.0000 C   0  0  0  0  0  0  0  0  0  0  0  0
    3.6590    4.0670    0.0000 C   0  0  0  0  0  0  0  0  0  0  0  0
    4.4090    2.7680    0.0000 C   0  0  0  0  0  0  0  0  0  0  0  0
    5.9090    2.7680    0.0000 C   0  0  0  0  0  0  0  0  0  0  0  0
    6.6590    4.0670    0.0000 O   0  0  0  0  0  0  0  0  0  0  0  0
    6.6590    1.4680    0.0000 C   0  0  0  0  0  0  0  0  0  0  0  0
    3.6590    1.4680    0.0000 C   0  0  0  0  0  0  0  0  0  0  0  0
    2.1590    1.4680    0.0000 C   0  0  0  0  0  0  0  0  0  0  0  0
   -1.5910    0.1690    0.0000 C   0  0  0  0  0  0  0  0  0  0  0  0
  1  2  2  0  0  0  0
  1  3  2  0  0  0  0
  1  4  1  0  0  0  0
  1 14  1  0  0  0  0
  4  5  1  0  0  0  0
  5  6  1  0  0  0  0
  5 13  2  0  0  0  0
  6  7  2  0  0  0  0
  7  8  1  0  0  0  0
  8  9  1  0  0  0  0
  8 12  2  0  0  0  0
  9 10  2  0  0  0  0
  9 11  1  0  0  0  0
 12 13  1  0  0  0  0
M  END
>  <name>
S(=O)(=O)(Oc1ccc(C(=O)[C;olefin])cc1)C

>  <apo>
1

>  <freq>
1

>  <freq0>
0

>  <freq1>
1

>  <freqA>
0.99700278

>  <a_count>
24

$$$$

  MOE2015           2D

  9  8  0  0  0  0  0  0  0  0999 V2000
   -2.6710   -1.8820    0.0000 N   0  3  0  0  0  0  0  0  0  0  0  0
   -3.9700   -1.1320    0.0000 C   0  0  0  0  0  0  0  0  0  0  0  0
   -3.9700    0.3680    0.0000 N   0  0  0  0  0  0  0  0  0  0  0  0
   -5.2690   -1.8820    0.0000 N   0  0  0  0  0  0  0  0  0  0  0  0
   -1.3720   -1.1320    0.0000 C   0  0  0  0  0  0  0  0  0  0  0  0
   -0.0730   -1.8820    0.0000 C   0  0  0  0  0  0  0  0  0  0  0  0
    1.2260   -1.1320    0.0000 C   0  0  0  0  0  0  0  0  0  0  0  0
    2.5250   -1.8820    0.0000 C   0  0  0  0  0  0  0  0  0  0  0  0
    3.8240   -1.1320    0.0000 N   0  0  0  0  0  0  0  0  0  0  0  0
  1  2  2  0  0  0  0
  1  5  1  0  0  0  0
  2  3  1  0  0  0  0
  2  4  1  0  0  0  0
  5  6  1  0  0  0  0
  6  7  1  0  0  0  0
  7  8  1  0  0  0  0
  8  9  1  0  0  0  0
M  CHG  1   1   1
M  END
>  <name>
[N+](=C(\N)/N)\CCCC[N;amide]

>  <apo>
1

>  <freq>
1

>  <freq0>
0

>  <freq1>
1

>  <freqA>
0.99700278

>  <a_count>
24

$$$$

  MOE2015           2D

 15 16  0  0  0  0  0  0  0  0999 V2000
    0.0000    1.8060    0.0000 S   0  0  0  0  0  0  0  0  0  0  0  0
    1.5000    1.8060    0.0000 C   0  0  0  0  0  0  0  0  0  0  0  0
    2.2500    0.5070    0.0000 C   0  0  0  0  0  0  0  0  0  0  0  0
    3.7500    0.5070    0.0000 C   0  0  0  0  0  0  0  0  0  0  0  0
    4.7540   -0.6070    0.0000 N   0  0  0  0  0  0  0  0  0  0  0  0
    6.1240    0.0030    0.0000 C   0  0  0  0  0  0  0  0  0  0  0  0
    7.4230   -0.7470    0.0000 N   0  0  0  0  0  0  0  0  0  0  0  0
    8.7220    0.0030    0.0000 C   0  0  0  0  0  0  0  0  0  0  0  0
    8.7220    1.5030    0.0000 O   0  0  0  0  0  0  0  0  0  0  0  0
   10.0210   -0.7470    0.0000 O   0  0  0  0  0  0  0  0  0  0  0  0
   11.3200    0.0030    0.0000 C   0  0  0  0  0  0  0  0  0  0  0  0
    5.9670    1.4940    0.0000 N   0  0  0  0  0  0  0  0  0  0  0  0
    4.5000    1.8060    0.0000 C   0  0  0  0  0  0  0  0  0  0  0  0
    3.7500    3.1050    0.0000 C   0  0  0  0  0  0  0  0  0  0  0  0
    2.2500    3.1050    0.0000 C   0  0  0  0  0  0  0  0  0  0  0  0
  1  2  1  0  0  0  0
  2  3  1  0  0  0  0
  2 15  2  0  0  0  0
  3  4  2  0  0  0  0
  4  5  1  0  0  0  0
  4 13  1  0  0  0  0
  5  6  1  0  0  0  0
  6  7  2  0  0  0  0
  6 12  1  0  0  0  0
  7  8  1  0  0  0  0
  8  9  2  0  0  0  0
  8 10  1  0  0  0  0
 10 11  1  0  0  0  0
 12 13  1  0  0  0  0
 13 14  2  0  0  0  0
 14 15  1  0  0  0  0
M  END
>  <name>
[S;thioether]c1cc2NC(=NC(=O)OC)Nc2cc1

>  <apo>
1

>  <freq>
1

>  <freq0>
0

>  <freq1>
1

>  <freqA>
0.99700278

>  <a_count>
24

$$$$

  MOE2015           2D

 14 15  0  0  0  0  0  0  0  0999 V2000
    3.0110    3.0110    0.0000 Cl  0  0  0  0  0  0  0  0  0  0  0  0
    3.0110    1.5110    0.0000 C   0  0  0  0  0  0  0  0  0  0  0  0
    4.3100    0.7610    0.0000 C   0  0  0  0  0  0  0  0  0  0  0  0
    5.6090    1.5110    0.0000 C   0  0  0  0  0  0  0  0  0  0  0  0
    6.9080    0.7610    0.0000 O   0  0  0  0  0  0  0  0  0  0  0  0
    4.3100   -0.7390    0.0000 C   0  0  0  0  0  0  0  0  0  0  0  0
    5.6090   -1.4890    0.0000 Cl  0  0  0  0  0  0  0  0  0  0  0  0
    3.0110   -1.4890    0.0000 C   0  0  0  0  0  0  0  0  0  0  0  0
    1.7110   -0.7390    0.0000 C   0  0  0  0  0  0  0  0  0  0  0  0
    1.7110    0.7610    0.0000 C   0  0  0  0  0  0  0  0  0  0  0  0
    0.4120    1.5110    0.0000 C   0  0  0  0  0  0  0  0  0  0  0  0
   -0.8870    0.7610    0.0000 C   0  0  0  0  0  0  0  0  0  0  0  0
   -0.8870   -0.7390    0.0000 N   0  0  0  0  0  0  0  0  0  0  0  0
    0.4120   -1.4890    0.0000 C   0  0  0  0  0  0  0  0  0  0  0  0
  1  2  1  0  0  0  0
  2  3  1  0  0  0  0
  2 10  2  0  0  0  0
  3  4  1  0  0  0  0
  3  6  2  0  0  0  0
  4  5  2  0  0  0  0
  6  7  1  0  0  0  0
  6  8  1  0  0  0  0
  8  9  2  0  0  0  0
  9 10  1  0  0  0  0
  9 14  1  0  0  0  0
 10 11  1  0  0  0  0
 11 12  1  0  0  0  0
 12 13  1  0  0  0  0
 13 14  1  0  0  0  0
M  END
>  <name>
Clc1c([C;amide]=O)c(Cl)cc2c1CC[N;amide]C2

>  <apo>
2

>  <freq>
1

>  <freq0>
0

>  <freq1>
1

>  <freqA>
0.99700278

>  <a_count>
23

$$$$

  MOE2015           2D

 17 19  0  0  0  0  0  0  0  0999 V2000
    0.0000    1.3750    0.0000 Cl  0  0  0  0  0  0  0  0  0  0  0  0
    1.5000    1.3750    0.0000 C   0  0  0  0  0  0  0  0  0  0  0  0
    2.2500    0.0760    0.0000 C   0  0  0  0  0  0  0  0  0  0  0  0
    3.7500    0.0760    0.0000 C   0  0  0  0  0  0  0  0  0  0  0  0
    4.5000   -1.2230    0.0000 N   0  0  0  0  0  0  0  0  0  0  0  0
    6.0000   -1.2230    0.0000 C   0  0  0  0  0  0  0  0  0  0  0  0
    6.7500    0.0760    0.0000 C   0  0  0  0  0  0  0  0  0  0  0  0
    8.2500    0.0760    0.0000 C   0  0  0  0  0  0  0  0  0  0  0  0
    9.1320   -1.1370    0.0000 O   0  0  0  0  0  0  0  0  0  0  0  0
   10.5580   -0.6740    0.0000 C   0  0  0  0  0  0  0  0  0  0  0  0
   10.5580    0.8260    0.0000 N   0  0  0  0  0  0  0  0  0  0  0  0
    9.1320    1.2900    0.0000 N   0  0  0  0  0  0  0  0  0  0  0  0
    6.0000    1.3750    0.0000 C   0  0  0  0  0  0  0  0  0  0  0  0
    6.7500    2.6740    0.0000 O   0  0  0  0  0  0  0  0  0  0  0  0
    4.5000    1.3750    0.0000 C   0  0  0  0  0  0  0  0  0  0  0  0
    3.7500    2.6740    0.0000 C   0  0  0  0  0  0  0  0  0  0  0  0
    2.2500    2.6740    0.0000 C   0  0  0  0  0  0  0  0  0  0  0  0
  1  2  1  0  0  0  0
  2  3  1  0  0  0  0
  2 17  2  0  0  0  0
  3  4  2  0  0  0  0
  4  5  1  0  0  0  0
  4 15  1  0  0  0  0
  5  6  1  0  0  0  0
  6  7  2  0  0  0  0
  7  8  1  0  0  0  0
  7 13  1  0  0  0  0
  8  9  1  0  0  0  0
  8 12  2  0  0  0  0
  9 10  1  0  0  0  0
 10 11  2  0  0  0  0
 11 12  1  0  0  0  0
 13 14  2  0  0  0  0
 13 15  1  0  0  0  0
 15 16  2  0  0  0  0
 16 17  1  0  0  0  0
M  END
>  <name>
Clc1cc2NC=C(c3o[c;biphenyl]nn3)C(=O)c2cc1

>  <apo>
1

>  <freq>
1

>  <freq0>
0

>  <freq1>
1

>  <freqA>
0.99700278

>  <a_count>
23

$$$$

  MOE2015           2D

 11 11  0  0  0  0  0  0  0  0999 V2000
   -2.3180    4.0150    0.0000 O   0  0  0  0  0  0  0  0  0  0  0  0
   -1.5680    5.3140    0.0000 C   0  0  0  0  0  0  0  0  0  0  0  0
   -1.5680    2.7160    0.0000 C   0  0  0  0  0  0  0  0  0  0  0  0
   -2.3180    1.4170    0.0000 C   0  0  0  0  0  0  0  0  0  0  0  0
   -3.8180    1.4170    0.0000 O   0  0  0  0  0  0  0  0  0  0  0  0
   -4.5680    0.1180    0.0000 C   0  0  0  0  0  0  0  0  0  0  0  0
   -1.5680    0.1180    0.0000 C   0  0  0  0  0  0  0  0  0  0  0  0
   -0.0680    0.1180    0.0000 C   0  0  0  0  0  0  0  0  0  0  0  0
    0.6820    1.4170    0.0000 C   0  0  0  0  0  0  0  0  0  0  0  0
    2.1820    1.4170    0.0000 C   0  0  0  0  0  0  0  0  0  0  0  0
   -0.0680    2.7160    0.0000 C   0  0  0  0  0  0  0  0  0  0  0  0
  1  2  1  0  0  0  0
  1  3  1  0  0  0  0
  3  4  1  0  0  0  0
  3 11  2  0  0  0  0
  4  5  1  0  0  0  0
  4  7  2  0  0  0  0
  5  6  1  0  0  0  0
  7  8  1  0  0  0  0
  8  9  2  0  0  0  0
  9 10  1  0  0  0  0
  9 11  1  0  0  0  0
M  END
>  <name>
O(C)c1c(OC)ccc([C;olefin])c1

>  <apo>
1

>  <freq>
1

>  <freq0>
0

>  <freq1>
1

>  <freqA>
0.99700278

>  <a_count>
23

$$$$

  MOE2015           2D

 12 12  0  0  1  0  0  0  0  0999 V2000
    4.9760    2.0070    0.0000 O   0  0  0  0  0  0  0  0  0  0  0  0
    4.9760    3.5070    0.0000 C   0  0  0  0  0  0  0  0  0  0  0  0
    6.2750    4.2570    0.0000 N   0  0  0  0  0  0  0  0  0  0  0  0
    3.6770    4.2570    0.0000 N   0  5  0  0  0  0  0  0  0  0  0  0
    2.3780    3.5070    0.0000 N   0  0  0  0  0  0  0  0  0  0  0  0
    1.0790    4.2570    0.0000 C   0  0  0  0  0  0  0  0  0  0  0  0
    1.0790    5.7570    0.0000 O   0  0  0  0  0  0  0  0  0  0  0  0
   -0.2200    3.5070    0.0000 C   0  0  1  0  0  0  0  0  0  0  0  0
   -1.5910    4.1170    0.0000 N   0  0  0  0  0  0  0  0  0  0  0  0
   -2.5940    3.0030    0.0000 C   0  0  0  0  0  0  0  0  0  0  0  0
   -1.8440    1.7040    0.0000 C   0  0  0  0  0  0  0  0  0  0  0  0
   -0.3770    2.0160    0.0000 C   0  0  0  0  0  0  0  0  0  0  0  0
  1  2  2  0  0  0  0
  2  3  1  0  0  0  0
  2  4  1  0  0  0  0
  4  5  1  0  0  0  0
  5  6  1  0  0  0  0
  6  7  2  0  0  0  0
  8  6  1  6  0  0  0
  8  9  1  0  0  0  0
  8 12  1  0  0  0  0
  9 10  1  0  0  0  0
 10 11  1  0  0  0  0
 11 12  1  0  0  0  0
M  CHG  1   4  -1
M  END
>  <name>
O=C(N)[N-]NC(=O)[C@H]1[N;amide]CCC1

>  <apo>
1

>  <freq>
1

>  <freq0>
0

>  <freq1>
1

>  <freqA>
0.99700278

>  <a_count>
23

$$$$

  MOE2015           2D

 16 17  0  0  0  0  0  0  0  0999 V2000
    0.8120    2.9410    0.0000 O   0  0  0  0  0  0  0  0  0  0  0  0
    1.5620    1.6420    0.0000 C   0  0  0  0  0  0  0  0  0  0  0  0
    3.0620    1.6420    0.0000 N   0  0  0  0  0  0  0  0  0  0  0  0
    3.8120    2.9410    0.0000 N   0  0  0  0  0  0  0  0  0  0  0  0
    5.3120    2.9410    0.0000 C   0  0  0  0  0  0  0  0  0  0  0  0
    6.0620    1.6420    0.0000 C   0  0  0  0  0  0  0  0  0  0  0  0
    7.5540    1.4850    0.0000 O   0  0  0  0  0  0  0  0  0  0  0  0
    7.8650    0.0180    0.0000 C   0  0  0  0  0  0  0  0  0  0  0  0
    6.5660   -0.7320    0.0000 C   0  0  0  0  0  0  0  0  0  0  0  0
    5.4520    0.2710    0.0000 C   0  0  0  0  0  0  0  0  0  0  0  0
    0.8120    0.3430    0.0000 C   0  0  0  0  0  0  0  0  0  0  0  0
   -0.6800    0.1860    0.0000 C   0  0  0  0  0  0  0  0  0  0  0  0
   -1.6840    1.3010    0.0000 N   0  0  0  0  0  0  0  0  0  0  0  0
   -0.9920   -1.2810    0.0000 N   0  0  0  0  0  0  0  0  0  0  0  0
    0.3070   -2.0310    0.0000 O   0  0  0  0  0  0  0  0  0  0  0  0
    1.4220   -1.0280    0.0000 N   0  0  0  0  0  0  0  0  0  0  0  0
  1  2  2  0  0  0  0
  2  3  1  0  0  0  0
  2 11  1  0  0  0  0
  3  4  1  0  0  0  0
  4  5  2  0  0  0  0
  5  6  1  0  0  0  0
  6  7  1  0  0  0  0
  6 10  2  0  0  0  0
  7  8  1  0  0  0  0
  8  9  2  0  0  0  0
  9 10  1  0  0  0  0
 11 12  1  0  0  0  0
 11 16  2  0  0  0  0
 12 13  1  0  0  0  0
 12 14  2  0  0  0  0
 14 15  1  0  0  0  0
 15 16  1  0  0  0  0
M  END
>  <name>
O=C(N/N=C\c1o[c;biphenyl]cc1)c1c(N)non1

>  <apo>
1

>  <freq>
1

>  <freq0>
0

>  <freq1>
1

>  <freqA>
0.99700278

>  <a_count>
23

$$$$

  MOE2015           2D

 10  9  0  0  1  0  0  0  0  0999 V2000
    0.1860   -0.1860    0.0000 O   0  0  0  0  0  0  0  0  0  0  0  0
    0.1860    1.3140    0.0000 C   0  0  0  0  0  0  0  0  0  0  0  0
    1.4850    2.0640    0.0000 C   0  0  1  0  0  0  0  0  0  0  0  0
    1.4850    3.5640    0.0000 N   0  0  0  0  0  0  0  0  0  0  0  0
    2.7840    1.3140    0.0000 C   0  0  0  0  0  0  0  0  0  0  0  0
    4.0830    2.0640    0.0000 C   0  0  0  0  0  0  0  0  0  0  0  0
    5.3820    1.3140    0.0000 C   0  0  0  0  0  0  0  0  0  0  0  0
    6.6810    2.0640    0.0000 C   0  0  0  0  0  0  0  0  0  0  0  0
   -1.1130    2.0640    0.0000 C   0  0  0  0  0  0  0  0  0  0  0  0
   -2.4120    1.3140    0.0000 O   0  0  0  0  0  0  0  0  0  0  0  0
  1  2  2  0  0  0  0
  2  3  1  0  0  0  0
  2  9  1  0  0  0  0
  3  4  1  1  0  0  0
  3  5  1  0  0  0  0
  5  6  1  0  0  0  0
  6  7  1  0  0  0  0
  7  8  1  0  0  0  0
  9 10  2  0  0  0  0
M  END
>  <name>
O=C([C@@H]([N;amide])CCCC)[C;amide]=O

>  <apo>
2

>  <freq>
1

>  <freq0>
0

>  <freq1>
1

>  <freqA>
0.99700278

>  <a_count>
23

$$$$

  MOE2015           2D

 13 13  0  0  1  0  0  0  0  0999 V2000
    7.9620    0.6000    0.0000 O   0  0  0  0  0  0  0  0  0  0  0  0
    7.2120    1.8990    0.0000 C   0  0  0  0  0  0  0  0  0  0  0  0
    7.9620    3.1980    0.0000 O   0  5  0  0  0  0  0  0  0  0  0  0
    5.7120    1.8990    0.0000 C   0  0  3  0  0  0  0  0  0  0  0  0
    4.9620    0.6000    0.0000 N   0  0  0  0  0  0  0  0  0  0  0  0
    4.9620    3.1980    0.0000 C   0  0  0  0  0  0  0  0  0  0  0  0
    3.4620    3.1980    0.0000 C   0  0  0  0  0  0  0  0  0  0  0  0
    2.7120    1.8990    0.0000 C   0  0  0  0  0  0  0  0  0  0  0  0
    1.2120    1.8990    0.0000 C   0  0  0  0  0  0  0  0  0  0  0  0
    0.4620    3.1980    0.0000 C   0  0  0  0  0  0  0  0  0  0  0  0
   -1.0380    3.1980    0.0000 O   0  0  0  0  0  0  0  0  0  0  0  0
    1.2120    4.4970    0.0000 C   0  0  0  0  0  0  0  0  0  0  0  0
    2.7120    4.4970    0.0000 C   0  0  0  0  0  0  0  0  0  0  0  0
  1  2  2  0  0  0  0
  2  3  1  0  0  0  0
  2  4  1  0  0  0  0
  4  5  1  0  0  0  0
  4  6  1  0  0  0  0
  6  7  1  0  0  0  0
  7  8  1  0  0  0  0
  7 13  2  0  0  0  0
  8  9  2  0  0  0  0
  9 10  1  0  0  0  0
 10 11  1  0  0  0  0
 10 12  2  0  0  0  0
 12 13  1  0  0  0  0
M  CHG  1   3  -1
M  END
>  <name>
O=C([O-])C([N;amide])Cc1ccc(O)cc1

>  <apo>
1

>  <freq>
1

>  <freq0>
0

>  <freq1>
1

>  <freqA>
0.99700278

>  <a_count>
23

$$$$

  MOE2015           2D

 14 15  0  0  1  0  0  0  0  0999 V2000
    0.9240    5.0110    0.0000 O   0  0  0  0  0  0  0  0  0  0  0  0
    0.1740    3.7120    0.0000 C   0  0  0  0  0  0  0  0  0  0  0  0
   -1.3260    3.7120    0.0000 O   0  5  0  0  0  0  0  0  0  0  0  0
    0.9240    2.4120    0.0000 C   0  0  0  0  0  0  0  0  0  0  0  0
    0.1740    1.1130    0.0000 C   0  0  0  0  0  0  0  0  0  0  0  0
   -1.3260    1.1130    0.0000 C   0  0  0  0  0  0  0  0  0  0  0  0
    0.9240   -0.1860    0.0000 C   0  0  0  0  0  0  0  0  0  0  0  0
    2.4240   -0.1860    0.0000 S   0  0  0  0  0  0  0  0  0  0  0  0
    3.1740    1.1130    0.0000 C   0  0  2  0  0  0  0  0  0  0  0  0
    4.4730    1.8630    0.0000 C   0  0  2  0  0  0  0  0  0  0  0  0
    5.9220    1.4750    0.0000 N   0  0  0  0  0  0  0  0  0  0  0  0
    3.7230    3.1620    0.0000 C   0  0  0  0  0  0  0  0  0  0  0  0
    4.1110    4.6110    0.0000 O   0  0  0  0  0  0  0  0  0  0  0  0
    2.4240    2.4120    0.0000 N   0  0  0  0  0  0  0  0  0  0  0  0
  1  2  2  0  0  0  0
  2  3  1  0  0  0  0
  2  4  1  0  0  0  0
  4  5  2  0  0  0  0
  4 14  1  0  0  0  0
  5  6  1  0  0  0  0
  5  7  1  0  0  0  0
  7  8  1  0  0  0  0
  9  8  1  1  0  0  0
  9 10  1  0  0  0  0
  9 14  1  0  0  0  0
 10 11  1  1  0  0  0
 10 12  1  0  0  0  0
 12 13  2  0  0  0  0
 12 14  1  0  0  0  0
M  CHG  1   3  -1
M  END
>  <name>
O=C([O-])C1=C([C;quatN])CS[C@@H]2[C@H]([N;amide])C(=O)N12

>  <apo>
2

>  <freq>
1

>  <freq0>
0

>  <freq1>
1

>  <freqA>
0.99700278

>  <a_count>
23

$$$$

  MOE2015           2D

 14 15  0  0  1  0  0  0  0  0999 V2000
    0.9240    5.0110    0.0000 O   0  0  0  0  0  0  0  0  0  0  0  0
    0.1740    3.7120    0.0000 C   0  0  0  0  0  0  0  0  0  0  0  0
   -1.3260    3.7120    0.0000 O   0  5  0  0  0  0  0  0  0  0  0  0
    0.9240    2.4120    0.0000 C   0  0  0  0  0  0  0  0  0  0  0  0
    0.1740    1.1130    0.0000 C   0  0  0  0  0  0  0  0  0  0  0  0
   -1.3260    1.1130    0.0000 C   0  0  0  0  0  0  0  0  0  0  0  0
    0.9240   -0.1860    0.0000 C   0  0  0  0  0  0  0  0  0  0  0  0
    2.4240   -0.1860    0.0000 S   0  0  0  0  0  0  0  0  0  0  0  0
    3.1740    1.1130    0.0000 C   0  0  2  0  0  0  0  0  0  0  0  0
    4.4730    1.8630    0.0000 C   0  0  2  0  0  0  0  0  0  0  0  0
    5.9220    1.4750    0.0000 N   0  0  0  0  0  0  0  0  0  0  0  0
    3.7230    3.1620    0.0000 C   0  0  0  0  0  0  0  0  0  0  0  0
    4.1110    4.6110    0.0000 O   0  0  0  0  0  0  0  0  0  0  0  0
    2.4240    2.4120    0.0000 N   0  0  0  0  0  0  0  0  0  0  0  0
  1  2  2  0  0  0  0
  2  3  1  0  0  0  0
  2  4  1  0  0  0  0
  4  5  2  0  0  0  0
  4 14  1  0  0  0  0
  5  6  1  0  0  0  0
  5  7  1  0  0  0  0
  7  8  1  0  0  0  0
  9  8  1  1  0  0  0
  9 10  1  0  0  0  0
  9 14  1  0  0  0  0
 10 11  1  1  0  0  0
 10 12  1  0  0  0  0
 12 13  2  0  0  0  0
 12 14  1  0  0  0  0
M  CHG  1   3  -1
M  END
>  <name>
O=C([O-])C1=C([C;thioether])CS[C@@H]2[C@H]([N;amide])C(=O)N12

>  <apo>
2

>  <freq>
1

>  <freq0>
0

>  <freq1>
1

>  <freqA>
0.99700278

>  <a_count>
23

$$$$

  MOE2015           2D

 11 11  0  0  1  0  0  0  0  0999 V2000
    8.2240   -2.2040    0.0000 O   0  0  0  0  0  0  0  0  0  0  0  0
    6.9250   -1.4540    0.0000 C   0  0  0  0  0  0  0  0  0  0  0  0
    5.6260   -2.2040    0.0000 C   0  0  1  0  0  0  0  0  0  0  0  0
    5.6260   -3.7040    0.0000 N   0  0  0  0  0  0  0  0  0  0  0  0
    4.3270   -1.4540    0.0000 C   0  0  0  0  0  0  0  0  0  0  0  0
    3.0280   -2.2040    0.0000 C   0  0  3  0  0  0  0  0  0  0  0  0
    1.6570   -1.5930    0.0000 C   0  0  0  0  0  0  0  0  0  0  0  0
    1.3450   -0.1260    0.0000 O   0  0  0  0  0  0  0  0  0  0  0  0
    0.6540   -2.7080    0.0000 N   0  0  0  0  0  0  0  0  0  0  0  0
    1.4040   -4.0070    0.0000 C   0  0  0  0  0  0  0  0  0  0  0  0
    2.8710   -3.6950    0.0000 C   0  0  0  0  0  0  0  0  0  0  0  0
  1  2  2  0  0  0  0
  2  3  1  0  0  0  0
  3  4  1  1  0  0  0
  3  5  1  0  0  0  0
  5  6  1  0  0  0  0
  6  7  1  0  0  0  0
  6 11  1  0  0  0  0
  7  8  2  0  0  0  0
  7  9  1  0  0  0  0
  9 10  1  0  0  0  0
 10 11  1  0  0  0  0
M  END
>  <name>
O=C[C@@H]([N;amide])CC1C(=O)NCC1

>  <apo>
1

>  <freq>
1

>  <freq0>
0

>  <freq1>
1

>  <freqA>
0.99700278

>  <a_count>
23

$$$$

  MOE2015           2D

  9  8  0  0  1  0  0  0  0  0999 V2000
   -0.4970   -1.8540    0.0000 O   0  0  0  0  0  0  0  0  0  0  0  0
    0.8020   -2.6040    0.0000 C   0  0  0  0  0  0  0  0  0  0  0  0
    2.1010   -1.8540    0.0000 C   0  0  1  0  0  0  0  0  0  0  0  0
    2.1010   -0.3540    0.0000 N   0  0  0  0  0  0  0  0  0  0  0  0
    3.4000   -2.6040    0.0000 C   0  0  0  0  0  0  0  0  0  0  0  0
    4.6990   -1.8540    0.0000 C   0  0  0  0  0  0  0  0  0  0  0  0
    5.9980   -2.6040    0.0000 C   0  0  0  0  0  0  0  0  0  0  0  0
    7.2970   -1.8540    0.0000 C   0  0  0  0  0  0  0  0  0  0  0  0
    8.5960   -2.6040    0.0000 N   0  0  0  0  0  0  0  0  0  0  0  0
  1  2  2  0  0  0  0
  2  3  1  0  0  0  0
  3  4  1  1  0  0  0
  3  5  1  0  0  0  0
  5  6  1  0  0  0  0
  6  7  1  0  0  0  0
  7  8  1  0  0  0  0
  8  9  1  0  0  0  0
M  END
>  <name>
O=[C;amide][C@@H]([N;amide])CCCC[N;amide]

>  <apo>
3

>  <freq>
1

>  <freq0>
0

>  <freq1>
1

>  <freqA>
0.99700278

>  <a_count>
23

$$$$

  MOE2015           2D

 10 11  0  0  1  0  0  0  0  0999 V2000
    7.1600    1.4950    0.0000 O   0  0  0  0  0  0  0  0  0  0  0  0
    5.7850    0.8940    0.0000 C   0  0  0  0  0  0  0  0  0  0  0  0
    4.5780    1.7850    0.0000 C   0  0  2  0  0  0  0  0  0  0  0  0
    4.5890    3.2850    0.0000 N   0  0  0  0  0  0  0  0  0  0  0  0
    3.1650    3.7590    0.0000 C   0  0  0  0  0  0  0  0  0  0  0  0
    2.2740    2.5520    0.0000 C   0  0  2  0  0  0  0  0  0  0  0  0
    1.6540    1.1860    0.0000 C   0  0  0  0  0  0  0  0  0  0  0  0
    0.1550    1.1540    0.0000 C   0  0  0  0  0  0  0  0  0  0  0  0
    1.2650   -0.2630    0.0000 C   0  0  0  0  0  0  0  0  0  0  0  0
    3.1470    1.3320    0.0000 C   0  0  2  0  0  0  0  0  0  0  0  0
  1  2  2  0  0  0  0
  3  2  1  1  0  0  0
  3  4  1  0  0  0  0
  3 10  1  0  0  0  0
  4  5  1  0  0  0  0
  6  5  1  1  0  0  0
  6  7  1  0  0  0  0
  6 10  1  0  0  0  0
  7  8  1  0  0  0  0
  7  9  1  0  0  0  0
 10  7  1  1  0  0  0
M  END
>  <name>
O=[C;amide][C@@H]1[N;amide]C[C@@H]2C(C)(C)[C@H]12

>  <apo>
2

>  <freq>
1

>  <freq0>
0

>  <freq1>
1

>  <freqA>
0.99700278

>  <a_count>
23

$$$$

  MOE2015           2D

 10 11  0  0  1  0  0  0  0  0999 V2000
    6.9740   -1.6340    0.0000 O   0  0  0  0  0  0  0  0  0  0  0  0
    5.6750   -2.3840    0.0000 C   0  0  0  0  0  0  0  0  0  0  0  0
    4.3760   -1.6340    0.0000 C   0  0  1  0  0  0  0  0  0  0  0  0
    4.2190   -0.1430    0.0000 N   0  0  0  0  0  0  0  0  0  0  0  0
    2.7520    0.1690    0.0000 C   0  0  0  0  0  0  0  0  0  0  0  0
    2.0020   -1.1300    0.0000 C   0  0  1  0  0  0  0  0  0  0  0  0
    3.0060   -2.2440    0.0000 C   0  0  2  0  0  0  0  0  0  0  0  0
    2.2560   -3.5430    0.0000 C   0  0  0  0  0  0  0  0  0  0  0  0
    0.7890   -3.2320    0.0000 C   0  0  0  0  0  0  0  0  0  0  0  0
    0.6320   -1.7400    0.0000 C   0  0  0  0  0  0  0  0  0  0  0  0
  1  2  2  0  0  0  0
  3  2  1  6  0  0  0
  3  4  1  0  0  0  0
  3  7  1  0  0  0  0
  4  5  1  0  0  0  0
  6  5  1  1  0  0  0
  6  7  1  0  0  0  0
  6 10  1  0  0  0  0
  7  8  1  1  0  0  0
  8  9  1  0  0  0  0
  9 10  1  0  0  0  0
M  END
>  <name>
O=[C;amide][C@H]1[N;amide]C[C@H]2[C@@H]1CCC2

>  <apo>
2

>  <freq>
1

>  <freq0>
0

>  <freq1>
1

>  <freqA>
0.99700278

>  <a_count>
23

$$$$

  MOE2015           2D

 16 18  0  0  0  0  0  0  0  0999 V2000
    9.3440   -5.3950    0.0000 O   0  0  0  0  0  0  0  0  0  0  0  0
    8.5940   -4.0960    0.0000 C   0  0  0  0  0  0  0  0  0  0  0  0
    7.0940   -4.0960    0.0000 C   0  0  0  0  0  0  0  0  0  0  0  0
    6.2120   -5.3090    0.0000 N   0  0  0  0  0  0  0  0  0  0  0  0
    4.7850   -4.8460    0.0000 C   0  0  0  0  0  0  0  0  0  0  0  0
    3.4860   -5.5960    0.0000 N   0  0  0  0  0  0  0  0  0  0  0  0
    2.1870   -4.8460    0.0000 C   0  0  0  0  0  0  0  0  0  0  0  0
    2.1870   -3.3460    0.0000 N   0  0  0  0  0  0  0  0  0  0  0  0
    3.4860   -2.5960    0.0000 C   0  0  0  0  0  0  0  0  0  0  0  0
    3.4860   -1.0960    0.0000 O   0  0  0  0  0  0  0  0  0  0  0  0
    4.7850   -3.3460    0.0000 C   0  0  0  0  0  0  0  0  0  0  0  0
    6.2120   -2.8820    0.0000 C   0  0  0  0  0  0  0  0  0  0  0  0
    0.8880   -2.5960    0.0000 C   0  0  0  0  0  0  0  0  0  0  0  0
   -0.4110   -3.3460    0.0000 C   0  0  0  0  0  0  0  0  0  0  0  0
   -0.4110   -4.8460    0.0000 C   0  0  0  0  0  0  0  0  0  0  0  0
    0.8880   -5.5960    0.0000 C   0  0  0  0  0  0  0  0  0  0  0  0
  1  2  2  0  0  0  0
  2  3  1  0  0  0  0
  3  4  1  0  0  0  0
  3 12  2  0  0  0  0
  4  5  1  0  0  0  0
  5  6  1  0  0  0  0
  5 11  2  0  0  0  0
  6  7  2  0  0  0  0
  7  8  1  0  0  0  0
  7 16  1  0  0  0  0
  8  9  1  0  0  0  0
  8 13  1  0  0  0  0
  9 10  2  0  0  0  0
  9 11  1  0  0  0  0
 11 12  1  0  0  0  0
 13 14  2  0  0  0  0
 14 15  1  0  0  0  0
 15 16  2  0  0  0  0
M  END
>  <name>
O=[C;amide]c1[nH;NaroC]c2N=C3N(C(=O)c2c1)C=CC=C3

>  <apo>
2

>  <freq>
1

>  <freq0>
0

>  <freq1>
1

>  <freqA>
0.99700278

>  <a_count>
23

$$$$

  MOE2015           2D

 12 13  0  0  1  0  0  0  0  0999 V2000
    7.7470    4.4730    0.0000 O   0  0  0  0  0  0  0  0  0  0  0  0
    6.9970    3.1740    0.0000 C   0  0  0  0  0  0  0  0  0  0  0  0
    5.4970    3.1740    0.0000 C   0  0  0  0  0  0  0  0  0  0  0  0
    4.6160    1.9600    0.0000 S   0  0  0  0  0  0  0  0  0  0  0  0
    3.1890    2.4240    0.0000 C   0  0  0  0  0  0  0  0  0  0  0  0
    3.1890    3.9240    0.0000 C   0  0  0  0  0  0  0  0  0  0  0  0
    4.6160    4.3870    0.0000 N   0  0  0  0  0  0  0  0  0  0  0  0
    1.8900    4.6740    0.0000 C   0  0  0  0  0  0  0  0  0  0  0  0
    0.5910    3.9240    0.0000 C   0  0  0  0  0  0  0  0  0  0  0  0
    0.5910    2.4240    0.0000 N   0  3  2  0  0  0  0  0  0  0  0  0
   -0.7080    1.6740    0.0000 C   0  0  0  0  0  0  0  0  0  0  0  0
    1.8900    1.6740    0.0000 C   0  0  0  0  0  0  0  0  0  0  0  0
  1  2  2  0  0  0  0
  2  3  1  0  0  0  0
  3  4  1  0  0  0  0
  3  7  2  0  0  0  0
  4  5  1  0  0  0  0
  5  6  2  0  0  0  0
  5 12  1  0  0  0  0
  6  7  1  0  0  0  0
  6  8  1  0  0  0  0
  8  9  1  0  0  0  0
  9 10  1  0  0  0  0
 10 11  1  1  0  0  0
 10 12  1  0  0  0  0
M  CHG  1  10   1
M  END
>  <name>
O=[C;amide]c1sc2c(n1)CC[N+@H](C)C2

>  <apo>
1

>  <freq>
1

>  <freq0>
0

>  <freq1>
1

>  <freqA>
0.99700278

>  <a_count>
23

$$$$

  MOE2015           2D

 13 14  0  0  1  0  0  0  0  0999 V2000
    0.0000    0.0000    0.0000 O   0  0  0  0  0  0  0  0  0  0  0  0
    1.5000    0.0000    0.0000 C   0  0  0  0  0  0  0  0  0  0  0  0
    2.2500   -1.2990    0.0000 C   0  0  0  0  0  0  0  0  0  0  0  0
    1.5000   -2.5980    0.0000 C   0  0  0  0  0  0  0  0  0  0  0  0
    0.0000   -2.5980    0.0000 C   0  0  0  0  0  0  0  0  0  0  0  0
    2.2500   -3.8970    0.0000 C   0  0  0  0  0  0  0  0  0  0  0  0
    3.7500   -3.8970    0.0000 S   0  0  0  0  0  0  0  0  0  0  0  0
    4.5000   -2.5980    0.0000 C   0  0  2  0  0  0  0  0  0  0  0  0
    5.7990   -1.8480    0.0000 C   0  0  2  0  0  0  0  0  0  0  0  0
    7.2480   -2.2360    0.0000 N   0  0  0  0  0  0  0  0  0  0  0  0
    5.0490   -0.5490    0.0000 C   0  0  0  0  0  0  0  0  0  0  0  0
    5.4370    0.9000    0.0000 O   0  0  0  0  0  0  0  0  0  0  0  0
    3.7500   -1.2990    0.0000 N   0  0  0  0  0  0  0  0  0  0  0  0
  1  2  2  0  0  0  0
  2  3  1  0  0  0  0
  3  4  2  0  0  0  0
  3 13  1  0  0  0  0
  4  5  1  0  0  0  0
  4  6  1  0  0  0  0
  6  7  1  0  0  0  0
  8  7  1  1  0  0  0
  8  9  1  0  0  0  0
  8 13  1  0  0  0  0
  9 10  1  1  0  0  0
  9 11  1  0  0  0  0
 11 12  2  0  0  0  0
 11 13  1  0  0  0  0
M  END
>  <name>
O=[C;ester]C1=C([C;ether])CS[C@@H]2[C@H]([N;amide])C(=O)N12

>  <apo>
3

>  <freq>
1

>  <freq0>
0

>  <freq1>
1

>  <freqA>
0.99700278

>  <a_count>
23

$$$$

  MOE2015           2D

 10 10  0  0  1  0  0  0  0  0999 V2000
    6.7670    2.8630    0.0000 O   0  0  0  0  0  0  0  0  0  0  0  0
    5.4680    3.6130    0.0000 C   0  0  0  0  0  0  0  0  0  0  0  0
    4.1690    2.8630    0.0000 C   0  0  0  0  0  0  0  0  0  0  0  0
    4.1690    1.3630    0.0000 C   0  0  0  0  0  0  0  0  0  0  0  0
    2.8700    0.6130    0.0000 C   0  0  0  0  0  0  0  0  0  0  0  0
    1.5710    1.3630    0.0000 C   0  0  1  0  0  0  0  0  0  0  0  0
    0.2720    0.6130    0.0000 N   0  0  0  0  0  0  0  0  0  0  0  0
    1.5710    2.8630    0.0000 C   0  0  1  0  0  0  0  0  0  0  0  0
    0.2720    3.6130    0.0000 N   0  3  0  0  0  0  0  0  0  0  0  0
    2.8700    3.6130    0.0000 C   0  0  0  0  0  0  0  0  0  0  0  0
  1  2  2  0  0  0  0
  2  3  1  0  0  0  0
  3  4  2  0  0  0  0
  3 10  1  0  0  0  0
  4  5  1  0  0  0  0
  5  6  1  0  0  0  0
  6  7  1  1  0  0  0
  6  8  1  0  0  0  0
  8  9  1  1  0  0  0
  8 10  1  0  0  0  0
M  CHG  1   9   1
M  END
>  <name>
O=[C;ester]C1=C[C;ether][C@@H]([N;amide])[C@@H]([N+])C1

>  <apo>
3

>  <freq>
1

>  <freq0>
0

>  <freq1>
1

>  <freqA>
0.99700278

>  <a_count>
23

$$$$

  MOE2015           2D

 11 11  0  0  1  0  0  0  0  0999 V2000
    6.1300   -3.7570    0.0000 O   0  0  0  0  0  0  0  0  0  0  0  0
    5.4490   -2.4200    0.0000 C   0  0  0  0  0  0  0  0  0  0  0  0
    3.9510   -2.3420    0.0000 C   0  0  2  0  0  0  0  0  0  0  0  0
    3.1350   -1.0840    0.0000 C   0  0  1  0  0  0  0  0  0  0  0  0
    3.6720    0.3170    0.0000 O   0  0  0  0  0  0  0  0  0  0  0  0
    1.6860   -1.4720    0.0000 C   0  0  2  0  0  0  0  0  0  0  0  0
    0.5200   -0.5280    0.0000 O   0  0  0  0  0  0  0  0  0  0  0  0
    1.6070   -2.9700    0.0000 C   0  0  1  0  0  0  0  0  0  0  0  0
    0.3490   -3.7870    0.0000 C   0  0  0  0  0  0  0  0  0  0  0  0
    0.4280   -5.2850    0.0000 O   0  0  0  0  0  0  0  0  0  0  0  0
    3.0070   -3.5070    0.0000 O   0  0  0  0  0  0  0  0  0  0  0  0
  1  2  1  0  0  0  0
  3  2  1  1  0  0  0
  3  4  1  0  0  0  0
  3 11  1  0  0  0  0
  4  5  1  6  0  0  0
  4  6  1  0  0  0  0
  6  7  1  1  0  0  0
  6  8  1  0  0  0  0
  8  9  1  6  0  0  0
  8 11  1  0  0  0  0
  9 10  1  0  0  0  0
M  END
>  <name>
OC[C@@H;ether]1[C@@H](O)[C@H](O)[C@@H](CO)O1

>  <apo>
1

>  <freq>
1

>  <freq0>
0

>  <freq1>
1

>  <freqA>
0.99700278

>  <a_count>
23

$$$$

  MOE2015           2D

 11 11  0  0  1  0  0  0  0  0999 V2000
    6.5450    0.4720    0.0000 O   0  0  0  0  0  0  0  0  0  0  0  0
    5.7950    1.7710    0.0000 C   0  0  0  0  0  0  0  0  0  0  0  0
    4.2950    1.7710    0.0000 C   0  0  2  0  0  0  0  0  0  0  0  0
    3.5450    3.0700    0.0000 C   0  0  1  0  0  0  0  0  0  0  0  0
    4.2950    4.3690    0.0000 O   0  0  0  0  0  0  0  0  0  0  0  0
    2.0450    3.0700    0.0000 C   0  0  1  0  0  0  0  0  0  0  0  0
    1.2950    4.3690    0.0000 O   0  0  0  0  0  0  0  0  0  0  0  0
    1.2950    1.7710    0.0000 C   0  0  1  0  0  0  0  0  0  0  0  0
   -0.2050    1.7710    0.0000 O   0  0  0  0  0  0  0  0  0  0  0  0
    2.0450    0.4720    0.0000 C   0  0  0  0  0  0  0  0  0  0  0  0
    3.5450    0.4720    0.0000 O   0  0  0  0  0  0  0  0  0  0  0  0
  1  2  1  0  0  0  0
  3  2  1  1  0  0  0
  3  4  1  0  0  0  0
  3 11  1  0  0  0  0
  4  5  1  6  0  0  0
  4  6  1  0  0  0  0
  6  7  1  6  0  0  0
  6  8  1  0  0  0  0
  8  9  1  6  0  0  0
  8 10  1  0  0  0  0
 10 11  1  0  0  0  0
M  END
>  <name>
OC[C@@H]1[C@@H](O)[C@@H](O)[C@@H](O)[C;ether]O1

>  <apo>
1

>  <freq>
1

>  <freq0>
0

>  <freq1>
1

>  <freqA>
0.99700278

>  <a_count>
23

$$$$

  MOE2015           2D

  9  9  0  0  1  0  0  0  0  0999 V2000
    1.3330    2.3090    0.0000 O   0  0  0  0  0  0  0  0  0  0  0  0
    2.0830    1.0100    0.0000 C   0  0  2  0  0  0  0  0  0  0  0  0
    1.3330   -0.2890    0.0000 C   0  0  2  0  0  0  0  0  0  0  0  0
   -0.1670   -0.2890    0.0000 C   0  0  0  0  0  0  0  0  0  0  0  0
    2.0830   -1.5880    0.0000 C   0  0  0  0  0  0  0  0  0  0  0  0
    3.5830   -1.5880    0.0000 C   0  0  0  0  0  0  0  0  0  0  0  0
    4.3330   -0.2890    0.0000 C   0  0  1  0  0  0  0  0  0  0  0  0
    5.8330   -0.2890    0.0000 O   0  0  0  0  0  0  0  0  0  0  0  0
    3.5830    1.0100    0.0000 C   0  0  0  0  0  0  0  0  0  0  0  0
  2  1  1  1  0  0  0
  2  3  1  0  0  0  0
  2  9  1  0  0  0  0
  3  4  1  1  0  0  0
  3  5  1  0  0  0  0
  5  6  1  0  0  0  0
  6  7  1  0  0  0  0
  7  8  1  6  0  0  0
  7  9  1  0  0  0  0
M  END
>  <name>
O[C@@H]1[C@H]([C;ether])C[C;ether][C@@H](O)C1

>  <apo>
2

>  <freq>
1

>  <freq0>
0

>  <freq1>
1

>  <freqA>
0.99700278

>  <a_count>
23

$$$$

  MOE2015           2D

 15 16  0  0  1  0  0  0  0  0999 V2000
    1.3110   -1.1380    0.0000 O   0  0  0  0  0  0  0  0  0  0  0  0
    1.3110    0.3620    0.0000 C   0  0  2  0  0  0  0  0  0  0  0  0
    0.0120    1.1120    0.0000 C   0  0  1  0  0  0  0  0  0  0  0  0
    0.0120    2.6120    0.0000 O   0  0  0  0  0  0  0  0  0  0  0  0
   -1.2870    0.3620    0.0000 C   0  0  0  0  0  0  0  0  0  0  0  0
   -2.6570    0.9720    0.0000 O   0  0  0  0  0  0  0  0  0  0  0  0
   -3.6610   -0.1430    0.0000 C   0  0  0  0  0  0  0  0  0  0  0  0
   -2.9110   -1.4420    0.0000 N   0  0  0  0  0  0  0  0  0  0  0  0
   -1.4440   -1.1300    0.0000 N   0  0  0  0  0  0  0  0  0  0  0  0
    2.6100    1.1120    0.0000 C   0  0  0  0  0  0  0  0  0  0  0  0
    3.9090    0.3620    0.0000 C   0  0  0  0  0  0  0  0  0  0  0  0
    5.2800    0.9720    0.0000 O   0  0  0  0  0  0  0  0  0  0  0  0
    6.2830   -0.1430    0.0000 C   0  0  0  0  0  0  0  0  0  0  0  0
    5.5330   -1.4420    0.0000 N   0  0  0  0  0  0  0  0  0  0  0  0
    4.0660   -1.1300    0.0000 N   0  0  0  0  0  0  0  0  0  0  0  0
  2  1  1  6  0  0  0
  2  3  1  0  0  0  0
  2 10  1  0  0  0  0
  3  4  1  6  0  0  0
  3  5  1  0  0  0  0
  5  6  1  0  0  0  0
  5  9  2  0  0  0  0
  6  7  1  0  0  0  0
  7  8  2  0  0  0  0
  8  9  1  0  0  0  0
 10 11  1  0  0  0  0
 11 12  1  0  0  0  0
 11 15  2  0  0  0  0
 12 13  1  0  0  0  0
 13 14  2  0  0  0  0
 14 15  1  0  0  0  0
M  END
>  <name>
O[C@H]([C@@H](O)c1o[c;biphenyl]nn1)Cc1o[c;biphenyl]nn1

>  <apo>
2

>  <freq>
1

>  <freq0>
0

>  <freq1>
1

>  <freqA>
0.99700278

>  <a_count>
23

$$$$

  MOE2015           2D

 15 15  0  0  1  0  0  0  0  0999 V2000
   -0.9350    1.4110    0.0000 S   0  0  0  0  0  0  0  0  0  0  0  0
    0.3640    0.6610    0.0000 O   0  0  0  0  0  0  0  0  0  0  0  0
   -2.2340    2.1610    0.0000 O   0  0  0  0  0  0  0  0  0  0  0  0
   -0.1850    2.7100    0.0000 O   0  0  0  0  0  0  0  0  0  0  0  0
    1.3150    2.7100    0.0000 C   0  0  1  0  0  0  0  0  0  0  0  0
    2.0650    4.0090    0.0000 C   0  0  1  0  0  0  0  0  0  0  0  0
    1.3150    5.3080    0.0000 O   0  0  0  0  0  0  0  0  0  0  0  0
    3.5650    4.0090    0.0000 C   0  0  0  0  0  0  0  0  0  0  0  0
    4.3150    2.7100    0.0000 C   0  0  2  0  0  0  0  0  0  0  0  0
    5.8150    2.7100    0.0000 C   0  0  0  0  0  0  0  0  0  0  0  0
    6.5650    4.0090    0.0000 O   0  0  0  0  0  0  0  0  0  0  0  0
    6.5650    1.4110    0.0000 O   0  5  0  0  0  0  0  0  0  0  0  0
    3.5650    1.4110    0.0000 O   0  0  0  0  0  0  0  0  0  0  0  0
    2.0650    1.4110    0.0000 C   0  0  0  0  0  0  0  0  0  0  0  0
   -1.6850    0.1120    0.0000 O   0  5  0  0  0  0  0  0  0  0  0  0
  1  2  2  0  0  0  0
  1  3  2  0  0  0  0
  1  4  1  0  0  0  0
  1 15  1  0  0  0  0
  5  4  1  1  0  0  0
  5  6  1  0  0  0  0
  5 14  1  0  0  0  0
  6  7  1  1  0  0  0
  6  8  1  0  0  0  0
  8  9  1  0  0  0  0
  9 10  1  6  0  0  0
  9 13  1  0  0  0  0
 10 11  2  0  0  0  0
 10 12  1  0  0  0  0
 13 14  1  0  0  0  0
M  CHG  1  12  -1
M  CHG  1  15  -1
M  END
>  <name>
S(=O)(=O)(O[C@H]1[C@@H](O)[C;ether][C@H](C(=O)[O-])O[C;ether]1)[O-]

>  <apo>
2

>  <freq>
1

>  <freq0>
0

>  <freq1>
1

>  <freqA>
0.99700278

>  <a_count>
23

$$$$

  MOE2015           2D

 15 16  0  0  0  0  0  0  0  0999 V2000
    3.4460    3.4460    0.0000 S   0  0  0  0  0  0  0  0  0  0  0  0
    3.4460    1.9460    0.0000 O   0  0  0  0  0  0  0  0  0  0  0  0
    3.4460    4.9460    0.0000 O   0  0  0  0  0  0  0  0  0  0  0  0
    4.9460    3.4460    0.0000 O   0  5  0  0  0  0  0  0  0  0  0  0
    1.9460    3.4460    0.0000 C   0  0  0  0  0  0  0  0  0  0  0  0
    1.1960    2.1470    0.0000 C   0  0  0  0  0  0  0  0  0  0  0  0
   -0.3040    2.1470    0.0000 C   0  0  0  0  0  0  0  0  0  0  0  0
   -1.0540    3.4460    0.0000 C   0  0  0  0  0  0  0  0  0  0  0  0
   -2.5540    3.4460    0.0000 C   0  0  0  0  0  0  0  0  0  0  0  0
   -3.3040    4.7450    0.0000 N   0  0  0  0  0  0  0  0  0  0  0  0
   -3.3040    2.1470    0.0000 C   0  0  0  0  0  0  0  0  0  0  0  0
   -2.5540    0.8480    0.0000 C   0  0  0  0  0  0  0  0  0  0  0  0
   -1.0540    0.8480    0.0000 C   0  0  0  0  0  0  0  0  0  0  0  0
   -0.3040    4.7450    0.0000 C   0  0  0  0  0  0  0  0  0  0  0  0
    1.1960    4.7450    0.0000 C   0  0  0  0  0  0  0  0  0  0  0  0
  1  2  2  0  0  0  0
  1  3  2  0  0  0  0
  1  4  1  0  0  0  0
  1  5  1  0  0  0  0
  5  6  2  0  0  0  0
  5 15  1  0  0  0  0
  6  7  1  0  0  0  0
  7  8  1  0  0  0  0
  7 13  2  0  0  0  0
  8  9  2  0  0  0  0
  8 14  1  0  0  0  0
  9 10  1  0  0  0  0
  9 11  1  0  0  0  0
 11 12  2  0  0  0  0
 12 13  1  0  0  0  0
 14 15  2  0  0  0  0
M  CHG  1   4  -1
M  END
>  <name>
S(=O)(=O)([O-])c1cc2c(c([N;amide])ccc2)cc1

>  <apo>
1

>  <freq>
1

>  <freq0>
0

>  <freq1>
1

>  <freqA>
0.99700278

>  <a_count>
23

$$$$

  MOE2015           2D

 11 11  0  0  0  0  0  0  0  0999 V2000
   -0.4770   -0.8270    0.0000 N   0  3  0  0  0  0  0  0  0  0  0  0
    0.2730   -2.1260    0.0000 C   0  0  0  0  0  0  0  0  0  0  0  0
   -0.4770   -3.4250    0.0000 N   0  0  0  0  0  0  0  0  0  0  0  0
    1.7730   -2.1260    0.0000 C   0  0  0  0  0  0  0  0  0  0  0  0
    2.5230   -3.4250    0.0000 C   0  0  0  0  0  0  0  0  0  0  0  0
    4.0230   -3.4250    0.0000 C   0  0  0  0  0  0  0  0  0  0  0  0
    4.7730   -2.1260    0.0000 C   0  0  0  0  0  0  0  0  0  0  0  0
    6.2730   -2.1260    0.0000 C   0  0  0  0  0  0  0  0  0  0  0  0
    7.0230   -3.4250    0.0000 N   0  0  0  0  0  0  0  0  0  0  0  0
    4.0230   -0.8270    0.0000 C   0  0  0  0  0  0  0  0  0  0  0  0
    2.5230   -0.8270    0.0000 C   0  0  0  0  0  0  0  0  0  0  0  0
  1  2  2  0  0  0  0
  2  3  1  0  0  0  0
  2  4  1  0  0  0  0
  4  5  1  0  0  0  0
  4 11  2  0  0  0  0
  5  6  2  0  0  0  0
  6  7  1  0  0  0  0
  7  8  1  0  0  0  0
  7 10  2  0  0  0  0
  8  9  1  0  0  0  0
 10 11  1  0  0  0  0
M  CHG  1   1   1
M  END
>  <name>
[N+]=C(N)c1ccc(C[N;amide])cc1

>  <apo>
1

>  <freq>
1

>  <freq0>
0

>  <freq1>
1

>  <freqA>
0.99700278

>  <a_count>
23

$$$$

  MOE2015           2D

 10 10  0  0  0  0  0  0  0  0999 V2000
    8.7000   -2.0780    0.0000 N   0  3  0  0  0  0  0  0  0  0  0  0
    7.2000   -2.0780    0.0000 C   0  0  0  0  0  0  0  0  0  0  0  0
    6.4500   -0.7790    0.0000 C   0  0  0  0  0  0  0  0  0  0  0  0
    4.9500   -0.7790    0.0000 C   0  0  0  0  0  0  0  0  0  0  0  0
    4.2000   -2.0780    0.0000 C   0  0  0  0  0  0  0  0  0  0  0  0
    2.7000   -2.0780    0.0000 C   0  0  0  0  0  0  0  0  0  0  0  0
    1.9500   -0.7790    0.0000 C   0  0  0  0  0  0  0  0  0  0  0  0
    0.4500   -0.7790    0.0000 N   0  0  0  0  0  0  0  0  0  0  0  0
    2.7000    0.5200    0.0000 C   0  0  0  0  0  0  0  0  0  0  0  0
    4.2000    0.5200    0.0000 C   0  0  0  0  0  0  0  0  0  0  0  0
  1  2  1  0  0  0  0
  2  3  1  0  0  0  0
  3  4  1  0  0  0  0
  4  5  1  0  0  0  0
  4 10  2  0  0  0  0
  5  6  2  0  0  0  0
  6  7  1  0  0  0  0
  7  8  1  0  0  0  0
  7  9  2  0  0  0  0
  9 10  1  0  0  0  0
M  CHG  1   1   1
M  END
>  <name>
[N+]CCc1ccc([N;amide])cc1

>  <apo>
1

>  <freq>
1

>  <freq0>
0

>  <freq1>
1

>  <freqA>
0.99700278

>  <a_count>
23

$$$$

  MOE2015           2D

  8  8  0  0  0  0  0  0  0  0999 V2000
    5.6490    0.0000    0.0000 N   0  0  0  0  0  0  0  0  0  0  0  0
    4.1490    0.0000    0.0000 C   0  0  0  0  0  0  0  0  0  0  0  0
    3.4990    1.3520    0.0000 C   0  0  0  0  0  0  0  0  0  0  0  0
    2.0360    1.6840    0.0000 C   0  0  0  0  0  0  0  0  0  0  0  0
    0.8640    0.7480    0.0000 C   0  0  0  0  0  0  0  0  0  0  0  0
    0.8640   -0.7520    0.0000 C   0  0  0  0  0  0  0  0  0  0  0  0
    2.0370   -1.6860    0.0000 C   0  0  0  0  0  0  0  0  0  0  0  0
    3.4990   -1.3520    0.0000 C   0  0  0  0  0  0  0  0  0  0  0  0
  1  2  1  0  0  0  0
  2  3  1  0  0  0  0
  2  8  1  0  0  0  0
  3  4  1  0  0  0  0
  4  5  1  0  0  0  0
  5  6  1  0  0  0  0
  6  7  1  0  0  0  0
  7  8  1  0  0  0  0
M  END
>  <name>
[N;amide]C1CCCCCC1

>  <apo>
1

>  <freq>
1

>  <freq0>
0

>  <freq1>
1

>  <freqA>
0.99700278

>  <a_count>
23

$$$$

  MOE2015           2D

 11 12  0  0  0  0  0  0  0  0999 V2000
    0.4500   -2.7300    0.0000 C   0  0  0  0  0  0  0  0  0  0  0  0
    1.8710   -2.2490    0.0000 C   0  0  0  0  0  0  0  0  0  0  0  0
   -0.6770   -1.7410    0.0000 C   0  0  0  0  0  0  0  0  0  0  0  0
   -2.1400   -2.0710    0.0000 C   0  0  0  0  0  0  0  0  0  0  0  0
   -2.9070   -0.7810    0.0000 C   0  0  0  0  0  0  0  0  0  0  0  0
   -1.9170    0.3460    0.0000 N   0  0  0  0  0  0  0  0  0  0  0  0
   -0.5390   -0.2470    0.0000 C   0  0  0  0  0  0  0  0  0  0  0  0
   -4.4060   -0.8000    0.0000 C   0  0  0  0  0  0  0  0  0  0  0  0
   -5.1400   -2.1080    0.0000 C   0  0  0  0  0  0  0  0  0  0  0  0
   -4.3740   -3.3980    0.0000 C   0  0  0  0  0  0  0  0  0  0  0  0
   -2.8740   -3.3790    0.0000 C   0  0  0  0  0  0  0  0  0  0  0  0
  1  2  1  0  0  0  0
  1  3  1  0  0  0  0
  3  4  1  0  0  0  0
  3  7  2  0  0  0  0
  4  5  1  0  0  0  0
  4 11  2  0  0  0  0
  5  6  1  0  0  0  0
  5  8  2  0  0  0  0
  6  7  1  0  0  0  0
  8  9  1  0  0  0  0
  9 10  2  0  0  0  0
 10 11  1  0  0  0  0
M  END
>  <name>
C([C;amine])c1c2c([nH]c1)cccc2

>  <apo>
1

>  <freq>
1

>  <freq0>
0

>  <freq1>
1

>  <freqA>
0.99700278

>  <a_count>
22

$$$$

  MOE2015           2D

 12 12  0  0  1  0  0  0  0  0999 V2000
    0.2780   -1.0380    0.0000 F   0  0  0  0  0  0  0  0  0  0  0  0
    1.5770   -0.2880    0.0000 C   0  0  0  0  0  0  0  0  0  0  0  0
    2.8760   -1.0380    0.0000 C   0  0  0  0  0  0  0  0  0  0  0  0
    4.1750   -0.2880    0.0000 C   0  0  0  0  0  0  0  0  0  0  0  0
    4.1750    1.2120    0.0000 C   0  0  0  0  0  0  0  0  0  0  0  0
    5.4740    1.9620    0.0000 C   0  0  0  0  0  0  0  0  0  0  0  0
    6.7730    1.2120    0.0000 C   0  0  2  0  0  0  0  0  0  0  0  0
    6.7730   -0.2880    0.0000 N   0  0  0  0  0  0  0  0  0  0  0  0
    8.0720    1.9620    0.0000 C   0  0  0  0  0  0  0  0  0  0  0  0
    9.3710    1.2120    0.0000 O   0  0  0  0  0  0  0  0  0  0  0  0
    2.8760    1.9620    0.0000 C   0  0  0  0  0  0  0  0  0  0  0  0
    1.5770    1.2120    0.0000 C   0  0  0  0  0  0  0  0  0  0  0  0
  1  2  1  0  0  0  0
  2  3  1  0  0  0  0
  2 12  2  0  0  0  0
  3  4  2  0  0  0  0
  4  5  1  0  0  0  0
  5  6  1  0  0  0  0
  5 11  2  0  0  0  0
  6  7  1  0  0  0  0
  7  8  1  1  0  0  0
  7  9  1  0  0  0  0
  9 10  2  0  0  0  0
 11 12  1  0  0  0  0
M  END
>  <name>
Fc1ccc(C[C@H]([N;amide])[C;amide]=O)cc1

>  <apo>
2

>  <freq>
1

>  <freq0>
0

>  <freq1>
1

>  <freqA>
0.99700278

>  <a_count>
22

$$$$

  MOE2015           2D

 14 15  0  0  0  0  0  0  0  0999 V2000
    5.8000    0.1210    0.0000 O   0  0  0  0  0  0  0  0  0  0  0  0
    5.8000    1.6210    0.0000 C   0  0  0  0  0  0  0  0  0  0  0  0
    7.0990    2.3710    0.0000 N   0  0  0  0  0  0  0  0  0  0  0  0
    4.5010    2.3710    0.0000 C   0  0  0  0  0  0  0  0  0  0  0  0
    4.5010    3.8710    0.0000 C   0  0  0  0  0  0  0  0  0  0  0  0
    3.2020    4.6210    0.0000 C   0  0  0  0  0  0  0  0  0  0  0  0
    3.2020    6.1210    0.0000 O   0  0  0  0  0  0  0  0  0  0  0  0
    1.9030    3.8710    0.0000 C   0  0  0  0  0  0  0  0  0  0  0  0
    0.4760    4.3350    0.0000 N   0  0  0  0  0  0  0  0  0  0  0  0
   -0.4060    3.1210    0.0000 C   0  0  0  0  0  0  0  0  0  0  0  0
   -1.9060    3.1210    0.0000 N   0  0  0  0  0  0  0  0  0  0  0  0
    0.4760    1.9080    0.0000 N   0  0  0  0  0  0  0  0  0  0  0  0
    1.9030    2.3710    0.0000 C   0  0  0  0  0  0  0  0  0  0  0  0
    3.2020    1.6210    0.0000 C   0  0  0  0  0  0  0  0  0  0  0  0
  1  2  2  0  0  0  0
  2  3  1  0  0  0  0
  2  4  1  0  0  0  0
  4  5  1  0  0  0  0
  4 14  2  0  0  0  0
  5  6  2  0  0  0  0
  6  7  1  0  0  0  0
  6  8  1  0  0  0  0
  8  9  1  0  0  0  0
  8 13  2  0  0  0  0
  9 10  1  0  0  0  0
 10 11  1  0  0  0  0
 10 12  2  0  0  0  0
 12 13  1  0  0  0  0
 13 14  1  0  0  0  0
M  END
>  <name>
O=C(N)c1cc([O;ether])c2[nH;NaroC]c([N;amide])nc2c1

>  <apo>
3

>  <freq>
1

>  <freq0>
0

>  <freq1>
1

>  <freqA>
0.99700278

>  <a_count>
22

$$$$

  MOE2015           2D

 10  9  0  0  1  0  0  0  0  0999 V2000
    1.3500    1.3500    0.0000 O   0  0  0  0  0  0  0  0  0  0  0  0
    1.3500   -0.1500    0.0000 C   0  0  0  0  0  0  0  0  0  0  0  0
    2.6490   -0.9000    0.0000 O   0  0  0  0  0  0  0  0  0  0  0  0
    3.9480   -0.1500    0.0000 C   0  0  3  0  0  0  0  0  0  0  0  0
    3.9480    1.3500    0.0000 O   0  0  0  0  0  0  0  0  0  0  0  0
    5.2470   -0.9000    0.0000 C   0  0  0  0  0  0  0  0  0  0  0  0
    0.0510   -0.9000    0.0000 O   0  0  0  0  0  0  0  0  0  0  0  0
   -1.2480   -0.1500    0.0000 C   0  0  0  0  0  0  0  0  0  0  0  0
   -1.2480    1.3500    0.0000 C   0  0  0  0  0  0  0  0  0  0  0  0
   -2.5470   -0.9000    0.0000 C   0  0  0  0  0  0  0  0  0  0  0  0
  1  2  2  0  0  0  0
  2  3  1  0  0  0  0
  2  7  1  0  0  0  0
  3  4  1  0  0  0  0
  4  5  1  0  0  0  0
  4  6  1  0  0  0  0
  7  8  1  0  0  0  0
  8  9  1  0  0  0  0
  8 10  1  0  0  0  0
M  END
>  <name>
O=C(OC([O;ester])C)OC(C)C

>  <apo>
1

>  <freq>
1

>  <freq0>
0

>  <freq1>
1

>  <freqA>
0.99700278

>  <a_count>
22

$$$$

  MOE2015           2D

 11 10  0  0  1  0  0  0  0  0999 V2000
    0.1560   -3.9350    0.0000 O   0  0  0  0  0  0  0  0  0  0  0  0
    0.1560   -2.4350    0.0000 C   0  0  0  0  0  0  0  0  0  0  0  0
   -1.1430   -1.6850    0.0000 O   0  0  0  0  0  0  0  0  0  0  0  0
   -2.4420   -2.4350    0.0000 C   0  0  0  0  0  0  0  0  0  0  0  0
    1.4550   -1.6850    0.0000 C   0  0  1  0  0  0  0  0  0  0  0  0
    1.4550   -0.1850    0.0000 N   0  0  0  0  0  0  0  0  0  0  0  0
    2.7540   -2.4350    0.0000 C   0  0  0  0  0  0  0  0  0  0  0  0
    4.0530   -1.6850    0.0000 C   0  0  0  0  0  0  0  0  0  0  0  0
    4.0530   -0.1850    0.0000 O   0  0  0  0  0  0  0  0  0  0  0  0
    5.3520   -2.4350    0.0000 O   0  0  0  0  0  0  0  0  0  0  0  0
    6.6510   -1.6850    0.0000 C   0  0  0  0  0  0  0  0  0  0  0  0
  1  2  2  0  0  0  0
  2  3  1  0  0  0  0
  2  5  1  0  0  0  0
  3  4  1  0  0  0  0
  5  6  1  1  0  0  0
  5  7  1  0  0  0  0
  7  8  1  0  0  0  0
  8  9  2  0  0  0  0
  8 10  1  0  0  0  0
 10 11  1  0  0  0  0
M  END
>  <name>
O=C(OC)[C@@H]([N;amide])CC(=O)OC

>  <apo>
1

>  <freq>
1

>  <freq0>
0

>  <freq1>
1

>  <freqA>
0.99700278

>  <a_count>
22

$$$$

  MOE2015           2D

 11 11  0  0  1  0  0  0  0  0999 V2000
    0.0620    4.0080    0.0000 O   0  0  0  0  0  0  0  0  0  0  0  0
    0.3730    2.5410    0.0000 C   0  0  0  0  0  0  0  0  0  0  0  0
    1.7440    1.9310    0.0000 C   0  0  2  0  0  0  0  0  0  0  0  0
    3.0430    2.6810    0.0000 C   0  0  0  0  0  0  0  0  0  0  0  0
    4.3420    1.9310    0.0000 C   0  0  2  0  0  0  0  0  0  0  0  0
    4.3420    0.4310    0.0000 N   0  0  0  0  0  0  0  0  0  0  0  0
    5.6410    2.6810    0.0000 C   0  0  0  0  0  0  0  0  0  0  0  0
    6.9400    3.4310    0.0000 N   0  0  0  0  0  0  0  0  0  0  0  0
    1.5870    0.4390    0.0000 C   0  0  0  0  0  0  0  0  0  0  0  0
    0.1200    0.1270    0.0000 C   0  0  0  0  0  0  0  0  0  0  0  0
   -0.6300    1.4260    0.0000 N   0  0  0  0  0  0  0  0  0  0  0  0
  1  2  2  0  0  0  0
  2  3  1  0  0  0  0
  2 11  1  0  0  0  0
  3  4  1  6  0  0  0
  3  9  1  0  0  0  0
  4  5  1  0  0  0  0
  5  6  1  1  0  0  0
  5  7  1  0  0  0  0
  7  8  3  0  0  0  0
  9 10  1  0  0  0  0
 10 11  1  0  0  0  0
M  END
>  <name>
O=C1[C@H](C[C@H]([N;amide])C#N)CCN1

>  <apo>
1

>  <freq>
1

>  <freq0>
0

>  <freq1>
1

>  <freqA>
0.99700278

>  <a_count>
22

$$$$

  MOE2015           2D

 10 10  0  0  0  0  0  0  0  0999 V2000
   -0.7500   -1.2990    0.0000 O   0  0  0  0  0  0  0  0  0  0  0  0
    0.0000   -2.5980    0.0000 C   0  0  0  0  0  0  0  0  0  0  0  0
    1.5000   -2.5980    0.0000 C   0  0  0  0  0  0  0  0  0  0  0  0
    2.2500   -3.8970    0.0000 C   0  0  0  0  0  0  0  0  0  0  0  0
    3.7500   -3.8970    0.0000 C   0  0  0  0  0  0  0  0  0  0  0  0
    4.5000   -2.5980    0.0000 C   0  0  0  0  0  0  0  0  0  0  0  0
    6.0000   -2.5980    0.0000 C   0  0  0  0  0  0  0  0  0  0  0  0
    6.7500   -3.8970    0.0000 O   0  0  0  0  0  0  0  0  0  0  0  0
    3.7500   -1.2990    0.0000 C   0  0  0  0  0  0  0  0  0  0  0  0
    2.2500   -1.2990    0.0000 C   0  0  0  0  0  0  0  0  0  0  0  0
  1  2  2  0  0  0  0
  2  3  1  0  0  0  0
  3  4  1  0  0  0  0
  3 10  1  0  0  0  0
  4  5  1  0  0  0  0
  5  6  1  0  0  0  0
  6  7  1  0  0  0  0
  6  9  1  0  0  0  0
  7  8  2  0  0  0  0
  9 10  1  0  0  0  0
M  END
>  <name>
O=[C;amide]C1CCC([C;ester]=O)CC1

>  <apo>
2

>  <freq>
1

>  <freq0>
0

>  <freq1>
1

>  <freqA>
0.99700278

>  <a_count>
22

$$$$

  MOE2015           2D

  9  8  0  0  1  0  0  0  0  0999 V2000
    6.5470   -1.4210    0.0000 O   0  0  0  0  0  0  0  0  0  0  0  0
    5.2480   -2.1710    0.0000 C   0  0  0  0  0  0  0  0  0  0  0  0
    3.9490   -1.4210    0.0000 C   0  0  2  0  0  0  0  0  0  0  0  0
    2.6500   -2.1710    0.0000 C   0  0  2  0  0  0  0  0  0  0  0  0
    2.6500   -3.6710    0.0000 O   0  0  0  0  0  0  0  0  0  0  0  0
    1.3510   -1.4210    0.0000 C   0  0  2  0  0  0  0  0  0  0  0  0
    1.3510    0.0790    0.0000 N   0  0  0  0  0  0  0  0  0  0  0  0
    0.0520   -2.1710    0.0000 C   0  0  0  0  0  0  0  0  0  0  0  0
    3.9490    0.0790    0.0000 C   0  0  0  0  0  0  0  0  0  0  0  0
  1  2  2  0  0  0  0
  2  3  1  0  0  0  0
  3  4  1  0  0  0  0
  3  9  1  6  0  0  0
  4  5  1  6  0  0  0
  4  6  1  0  0  0  0
  6  7  1  1  0  0  0
  6  8  1  0  0  0  0
M  END
>  <name>
O=[C;amide][C@H]([C@H](O)[C@H]([N;amide])C)C

>  <apo>
2

>  <freq>
1

>  <freq0>
0

>  <freq1>
1

>  <freqA>
0.99700278

>  <a_count>
22

$$$$

  MOE2015           2D

 11 11  0  0  1  0  0  0  0  0999 V2000
    8.1690   -3.0070    0.0000 O   0  0  0  0  0  0  0  0  0  0  0  0
    6.8700   -3.7570    0.0000 C   0  0  0  0  0  0  0  0  0  0  0  0
    5.5710   -3.0070    0.0000 C   0  0  2  0  0  0  0  0  0  0  0  0
    5.5710   -1.5070    0.0000 N   0  0  0  0  0  0  0  0  0  0  0  0
    4.2720   -3.7570    0.0000 C   0  0  0  0  0  0  0  0  0  0  0  0
    2.9730   -3.0070    0.0000 C   0  0  0  0  0  0  0  0  0  0  0  0
    1.6740   -3.7570    0.0000 C   0  0  0  0  0  0  0  0  0  0  0  0
    0.3750   -3.0070    0.0000 C   0  0  0  0  0  0  0  0  0  0  0  0
    0.3750   -1.5070    0.0000 C   0  0  0  0  0  0  0  0  0  0  0  0
    1.6740   -0.7570    0.0000 C   0  0  0  0  0  0  0  0  0  0  0  0
    2.9730   -1.5070    0.0000 C   0  0  0  0  0  0  0  0  0  0  0  0
  1  2  2  0  0  0  0
  2  3  1  0  0  0  0
  3  4  1  1  0  0  0
  3  5  1  0  0  0  0
  5  6  1  0  0  0  0
  6  7  1  0  0  0  0
  6 11  2  0  0  0  0
  7  8  2  0  0  0  0
  8  9  1  0  0  0  0
  9 10  2  0  0  0  0
 10 11  1  0  0  0  0
M  END
>  <name>
O=[C;amide][C@H]([N;amide])Cc1ccccc1

>  <apo>
2

>  <freq>
1

>  <freq0>
0

>  <freq1>
1

>  <freqA>
0.99700278

>  <a_count>
22

$$$$

  MOE2015           2D

 13 14  0  0  0  0  0  0  0  0999 V2000
    8.4130   -2.1130    0.0000 O   0  0  0  0  0  0  0  0  0  0  0  0
    7.6630   -3.4120    0.0000 C   0  0  0  0  0  0  0  0  0  0  0  0
    6.1630   -3.4120    0.0000 C   0  0  0  0  0  0  0  0  0  0  0  0
    5.2820   -2.1990    0.0000 N   0  0  0  0  0  0  0  0  0  0  0  0
    3.8550   -2.6620    0.0000 C   0  0  0  0  0  0  0  0  0  0  0  0
    3.8550   -4.1620    0.0000 C   0  0  0  0  0  0  0  0  0  0  0  0
    5.2820   -4.6260    0.0000 C   0  0  0  0  0  0  0  0  0  0  0  0
    2.5560   -4.9120    0.0000 C   0  0  0  0  0  0  0  0  0  0  0  0
    1.2570   -4.1620    0.0000 C   0  0  0  0  0  0  0  0  0  0  0  0
   -0.0420   -4.9120    0.0000 O   0  0  0  0  0  0  0  0  0  0  0  0
   -1.3410   -4.1620    0.0000 C   0  0  0  0  0  0  0  0  0  0  0  0
    1.2570   -2.6620    0.0000 C   0  0  0  0  0  0  0  0  0  0  0  0
    2.5560   -1.9120    0.0000 C   0  0  0  0  0  0  0  0  0  0  0  0
  1  2  2  0  0  0  0
  2  3  1  0  0  0  0
  3  4  1  0  0  0  0
  3  7  2  0  0  0  0
  4  5  1  0  0  0  0
  5  6  1  0  0  0  0
  5 13  2  0  0  0  0
  6  7  1  0  0  0  0
  6  8  2  0  0  0  0
  8  9  1  0  0  0  0
  9 10  1  0  0  0  0
  9 12  2  0  0  0  0
 10 11  1  0  0  0  0
 12 13  1  0  0  0  0
M  END
>  <name>
O=[C;amide]c1[nH;NaroC]c2c(c1)cc(OC)cc2

>  <apo>
2

>  <freq>
1

>  <freq0>
0

>  <freq1>
1

>  <freqA>
0.99700278

>  <a_count>
22

$$$$

  MOE2015           2D

 13 14  0  0  0  0  0  0  0  0999 V2000
    8.3810   -3.6860    0.0000 O   0  0  0  0  0  0  0  0  0  0  0  0
    7.0820   -4.4360    0.0000 C   0  0  0  0  0  0  0  0  0  0  0  0
    5.7830   -3.6860    0.0000 C   0  0  0  0  0  0  0  0  0  0  0  0
    5.6260   -2.1950    0.0000 N   0  0  0  0  0  0  0  0  0  0  0  0
    4.1590   -1.8830    0.0000 C   0  0  0  0  0  0  0  0  0  0  0  0
    3.4090   -3.1820    0.0000 C   0  0  0  0  0  0  0  0  0  0  0  0
    1.9090   -3.1820    0.0000 C   0  0  0  0  0  0  0  0  0  0  0  0
    1.1590   -4.4810    0.0000 O   0  0  0  0  0  0  0  0  0  0  0  0
   -0.3410   -4.4810    0.0000 C   0  0  0  0  0  0  0  0  0  0  0  0
    1.1590   -1.8830    0.0000 C   0  0  0  0  0  0  0  0  0  0  0  0
    1.9090   -0.5840    0.0000 C   0  0  0  0  0  0  0  0  0  0  0  0
    3.4090   -0.5840    0.0000 C   0  0  0  0  0  0  0  0  0  0  0  0
    4.4130   -4.2970    0.0000 C   0  0  0  0  0  0  0  0  0  0  0  0
  1  2  2  0  0  0  0
  2  3  1  0  0  0  0
  3  4  1  0  0  0  0
  3 13  2  0  0  0  0
  4  5  1  0  0  0  0
  5  6  1  0  0  0  0
  5 12  2  0  0  0  0
  6  7  2  0  0  0  0
  6 13  1  0  0  0  0
  7  8  1  0  0  0  0
  7 10  1  0  0  0  0
  8  9  1  0  0  0  0
 10 11  2  0  0  0  0
 11 12  1  0  0  0  0
M  END
>  <name>
O=[C;ester]c1[nH]c2c(c(OC)ccc2)c1

>  <apo>
1

>  <freq>
1

>  <freq0>
0

>  <freq1>
1

>  <freqA>
0.99700278

>  <a_count>
22

$$$$

  MOE2015           2D

  8  8  0  0  0  0  0  0  0  0999 V2000
    5.6490    0.0000    0.0000 O   0  0  0  0  0  0  0  0  0  0  0  0
    4.1490    0.0000    0.0000 C   0  0  0  0  0  0  0  0  0  0  0  0
    3.4990    1.3520    0.0000 C   0  0  0  0  0  0  0  0  0  0  0  0
    2.0360    1.6840    0.0000 C   0  0  0  0  0  0  0  0  0  0  0  0
    0.8640    0.7480    0.0000 C   0  0  0  0  0  0  0  0  0  0  0  0
    0.8640   -0.7520    0.0000 C   0  0  0  0  0  0  0  0  0  0  0  0
    2.0370   -1.6860    0.0000 C   0  0  0  0  0  0  0  0  0  0  0  0
    3.4990   -1.3520    0.0000 C   0  0  0  0  0  0  0  0  0  0  0  0
  1  2  1  0  0  0  0
  2  3  1  0  0  0  0
  2  8  1  0  0  0  0
  3  4  1  0  0  0  0
  4  5  1  0  0  0  0
  5  6  1  0  0  0  0
  6  7  1  0  0  0  0
  7  8  1  0  0  0  0
M  END
>  <name>
OC1[C;NaroC]CCCC[C;amine]1

>  <apo>
2

>  <freq>
1

>  <freq0>
0

>  <freq1>
1

>  <freqA>
0.99700278

>  <a_count>
22

$$$$

  MOE2015           2D

 10 10  0  0  1  0  0  0  0  0999 V2000
    6.5070    1.7440    0.0000 O   0  0  0  0  0  0  0  0  0  0  0  0
    5.2080    0.9940    0.0000 C   0  0  0  0  0  0  0  0  0  0  0  0
    3.9090    1.7440    0.0000 C   0  0  3  0  0  0  0  0  0  0  0  0
    2.6100    0.9940    0.0000 C   0  0  3  0  0  0  0  0  0  0  0  0
    2.6100   -0.5060    0.0000 O   0  0  0  0  0  0  0  0  0  0  0  0
    1.3110    1.7440    0.0000 C   0  0  3  0  0  0  0  0  0  0  0  0
    0.0120    0.9940    0.0000 O   0  0  0  0  0  0  0  0  0  0  0  0
    1.3110    3.2440    0.0000 C   0  0  0  0  0  0  0  0  0  0  0  0
    2.6100    3.9940    0.0000 C   0  0  0  0  0  0  0  0  0  0  0  0
    3.9090    3.2440    0.0000 O   0  0  0  0  0  0  0  0  0  0  0  0
  1  2  1  0  0  0  0
  2  3  1  0  0  0  0
  3  4  1  0  0  0  0
  3 10  1  0  0  0  0
  4  5  1  0  0  0  0
  4  6  1  0  0  0  0
  6  7  1  0  0  0  0
  6  8  1  0  0  0  0
  8  9  1  0  0  0  0
  9 10  1  0  0  0  0
M  END
>  <name>
OCC1C(O)C(O)[C;ether][C;ether]O1

>  <apo>
2

>  <freq>
1

>  <freq0>
0

>  <freq1>
1

>  <freqA>
0.99700278

>  <a_count>
22

$$$$

  MOE2015           2D

 10 10  0  0  1  0  0  0  0  0999 V2000
    6.5070    1.7440    0.0000 O   0  0  0  0  0  0  0  0  0  0  0  0
    5.2080    0.9940    0.0000 C   0  0  0  0  0  0  0  0  0  0  0  0
    3.9090    1.7440    0.0000 C   0  0  1  0  0  0  0  0  0  0  0  0
    2.6100    0.9940    0.0000 C   0  0  2  0  0  0  0  0  0  0  0  0
    2.6100   -0.5060    0.0000 O   0  0  0  0  0  0  0  0  0  0  0  0
    1.3110    1.7440    0.0000 C   0  0  1  0  0  0  0  0  0  0  0  0
    0.0120    0.9940    0.0000 O   0  0  0  0  0  0  0  0  0  0  0  0
    1.3110    3.2440    0.0000 C   0  0  0  0  0  0  0  0  0  0  0  0
    2.6100    3.9940    0.0000 C   0  0  0  0  0  0  0  0  0  0  0  0
    3.9090    3.2440    0.0000 O   0  0  0  0  0  0  0  0  0  0  0  0
  1  2  1  0  0  0  0
  3  2  1  1  0  0  0
  3  4  1  0  0  0  0
  3 10  1  0  0  0  0
  4  5  1  6  0  0  0
  4  6  1  0  0  0  0
  6  7  1  1  0  0  0
  6  8  1  0  0  0  0
  8  9  1  0  0  0  0
  9 10  1  0  0  0  0
M  END
>  <name>
OC[C@H]1[C@H](O)[C@@H](O)[C;amine][C;ether]O1

>  <apo>
2

>  <freq>
1

>  <freq0>
0

>  <freq1>
1

>  <freqA>
0.99700278

>  <a_count>
22

$$$$

  MOE2015           2D

 11 12  0  0  1  0  0  0  0  0999 V2000
    7.0590   -0.4800    0.0000 O   0  0  0  0  0  0  0  0  0  0  0  0
    5.5590   -0.4800    0.0000 C   0  0  1  0  0  0  0  0  0  0  0  0
    4.6770    0.7340    0.0000 C   0  0  1  0  0  0  0  0  0  0  0  0
    5.1410    2.1600    0.0000 N   0  0  0  0  0  0  0  0  0  0  0  0
    3.2510    0.2700    0.0000 C   0  0  0  0  0  0  0  0  0  0  0  0
    3.2510   -1.2300    0.0000 C   0  0  0  0  0  0  0  0  0  0  0  0
    1.9520   -1.9800    0.0000 C   0  0  0  0  0  0  0  0  0  0  0  0
    0.6530   -1.2300    0.0000 C   0  0  0  0  0  0  0  0  0  0  0  0
    0.6530    0.2700    0.0000 C   0  0  0  0  0  0  0  0  0  0  0  0
    1.9520    1.0200    0.0000 C   0  0  0  0  0  0  0  0  0  0  0  0
    4.6770   -1.6940    0.0000 C   0  0  0  0  0  0  0  0  0  0  0  0
  2  1  1  6  0  0  0
  2  3  1  0  0  0  0
  2 11  1  0  0  0  0
  3  4  1  6  0  0  0
  3  5  1  0  0  0  0
  5  6  2  0  0  0  0
  5 10  1  0  0  0  0
  6  7  1  0  0  0  0
  6 11  1  0  0  0  0
  7  8  2  0  0  0  0
  8  9  1  0  0  0  0
  9 10  2  0  0  0  0
M  END
>  <name>
O[C@H]1[C@@H]([N;amide])c2c(cccc2)C1

>  <apo>
1

>  <freq>
1

>  <freq0>
0

>  <freq1>
1

>  <freqA>
0.99700278

>  <a_count>
22

$$$$

  MOE2015           2D

 13 13  0  0  1  0  0  0  0  0999 V2000
    2.0170    3.5340    0.0000 P   0  0  0  0  0  0  0  0  0  0  0  0
    2.7800    2.2420    0.0000 O   0  0  0  0  0  0  0  0  0  0  0  0
    0.7250    2.7710    0.0000 O   0  0  0  0  0  0  0  0  0  0  0  0
   -0.5810    3.5080    0.0000 C   0  0  0  0  0  0  0  0  0  0  0  0
   -1.8730    2.7450    0.0000 C   0  0  2  0  0  0  0  0  0  0  0  0
   -3.2490    3.3410    0.0000 C   0  0  1  0  0  0  0  0  0  0  0  0
   -3.5750    4.8050    0.0000 O   0  0  0  0  0  0  0  0  0  0  0  0
   -4.2420    2.2170    0.0000 C   0  0  2  0  0  0  0  0  0  0  0  0
   -5.7350    2.3590    0.0000 O   0  0  0  0  0  0  0  0  0  0  0  0
   -3.4790    0.9250    0.0000 C   0  0  0  0  0  0  0  0  0  0  0  0
   -2.0150    1.2520    0.0000 O   0  0  0  0  0  0  0  0  0  0  0  0
    1.2540    4.8250    0.0000 O   0  5  0  0  0  0  0  0  0  0  0  0
    3.3080    4.2970    0.0000 O   0  5  0  0  0  0  0  0  0  0  0  0
  1  2  2  0  0  0  0
  1  3  1  0  0  0  0
  1 12  1  0  0  0  0
  1 13  1  0  0  0  0
  3  4  1  0  0  0  0
  5  4  1  1  0  0  0
  5  6  1  0  0  0  0
  5 11  1  0  0  0  0
  6  7  1  6  0  0  0
  6  8  1  0  0  0  0
  8  9  1  1  0  0  0
  8 10  1  0  0  0  0
 10 11  1  0  0  0  0
M  CHG  1  12  -1
M  CHG  1  13  -1
M  END
>  <name>
P(=O)(OC[C@@H]1[C@@H](O)[C@H](O)[C;NaroC]O1)([O-])[O-]

>  <apo>
1

>  <freq>
1

>  <freq0>
0

>  <freq1>
1

>  <freqA>
0.99700278

>  <a_count>
22

$$$$

  MOE2015           2D

  7  6  0  0  0  0  0  0  0  0999 V2000
    0.2140    0.0570    0.0000 N   0  0  0  0  0  0  0  0  0  0  0  0
   -1.0850   -0.6930    0.0000 C   0  0  0  0  0  0  0  0  0  0  0  0
   -2.3840    0.0570    0.0000 C   0  0  0  0  0  0  0  0  0  0  0  0
   -3.6830   -0.6930    0.0000 C   0  0  0  0  0  0  0  0  0  0  0  0
    1.5130   -0.6930    0.0000 C   0  0  0  0  0  0  0  0  0  0  0  0
    2.8120    0.0570    0.0000 C   0  0  0  0  0  0  0  0  0  0  0  0
    4.1110   -0.6930    0.0000 C   0  0  0  0  0  0  0  0  0  0  0  0
  1  2  1  0  0  0  0
  1  5  1  0  0  0  0
  2  3  1  0  0  0  0
  3  4  1  0  0  0  0
  5  6  1  0  0  0  0
  6  7  1  0  0  0  0
M  END
>  <name>
[N;so2amide](CCC)CCC

>  <apo>
1

>  <freq>
1

>  <freq0>
0

>  <freq1>
1

>  <freqA>
0.99700278

>  <a_count>
22

$$$$

  MOE2015           2D

  7  6  0  0  0  0  0  0  0  0999 V2000
   -0.3610   -1.9920    0.0000 N   0  0  0  0  0  0  0  0  0  0  0  0
    0.9380   -1.2420    0.0000 C   0  0  0  0  0  0  0  0  0  0  0  0
    2.2370   -1.9920    0.0000 C   0  0  0  0  0  0  0  0  0  0  0  0
    3.5360   -1.2420    0.0000 C   0  0  0  0  0  0  0  0  0  0  0  0
    4.8350   -1.9920    0.0000 C   0  0  0  0  0  0  0  0  0  0  0  0
    6.1340   -1.2420    0.0000 C   0  0  0  0  0  0  0  0  0  0  0  0
    7.4330   -1.9920    0.0000 C   0  0  0  0  0  0  0  0  0  0  0  0
  1  2  1  0  0  0  0
  2  3  1  0  0  0  0
  3  4  1  0  0  0  0
  4  5  1  0  0  0  0
  5  6  1  0  0  0  0
  6  7  1  0  0  0  0
M  END
>  <name>
[N;urea]CCCCCC

>  <apo>
1

>  <freq>
1

>  <freq0>
0

>  <freq1>
1

>  <freqA>
0.99700278

>  <a_count>
22

$$$$

  MOE2015           2D

 10 10  0  0  0  0  0  0  0  0999 V2000
    7.4000   -2.9030    0.0000 N   0  0  0  0  0  0  0  0  0  0  0  0
    6.0580   -3.5720    0.0000 C   0  0  0  0  0  0  0  0  0  0  0  0
    4.8070   -2.7450    0.0000 C   0  0  0  0  0  0  0  0  0  0  0  0
    3.4020   -3.2700    0.0000 N   0  0  0  0  0  0  0  0  0  0  0  0
    2.4680   -2.0960    0.0000 C   0  0  0  0  0  0  0  0  0  0  0  0
    0.9700   -2.1620    0.0000 C   0  0  0  0  0  0  0  0  0  0  0  0
    0.2770   -3.4930    0.0000 C   0  0  0  0  0  0  0  0  0  0  0  0
    0.1630   -0.8970    0.0000 C   0  0  0  0  0  0  0  0  0  0  0  0
    3.2960   -0.8450    0.0000 S   0  0  0  0  0  0  0  0  0  0  0  0
    4.7410   -1.2460    0.0000 C   0  0  0  0  0  0  0  0  0  0  0  0
  1  2  1  0  0  0  0
  2  3  1  0  0  0  0
  3  4  1  0  0  0  0
  3 10  2  0  0  0  0
  4  5  2  0  0  0  0
  5  6  1  0  0  0  0
  5  9  1  0  0  0  0
  6  7  1  0  0  0  0
  6  8  1  0  0  0  0
  9 10  1  0  0  0  0
M  END
>  <name>
[N;urea]Cc1nc(C(C)C)sc1

>  <apo>
1

>  <freq>
1

>  <freq0>
0

>  <freq1>
1

>  <freqA>
0.99700278

>  <a_count>
22

$$$$

  MOE2015           2D

 11 12  0  0  0  0  0  0  0  0999 V2000
    0.3550    1.6760    0.0000 C   0  0  0  0  0  0  0  0  0  0  0  0
    1.6540    0.9260    0.0000 C   0  0  0  0  0  0  0  0  0  0  0  0
    1.6540   -0.5740    0.0000 C   0  0  0  0  0  0  0  0  0  0  0  0
    0.3550   -1.3240    0.0000 C   0  0  0  0  0  0  0  0  0  0  0  0
    2.9530   -1.3240    0.0000 C   0  0  0  0  0  0  0  0  0  0  0  0
    4.2520   -0.5740    0.0000 C   0  0  0  0  0  0  0  0  0  0  0  0
    5.6790   -1.0380    0.0000 N   0  0  0  0  0  0  0  0  0  0  0  0
    6.5600    0.1760    0.0000 C   0  0  0  0  0  0  0  0  0  0  0  0
    5.6790    1.3890    0.0000 N   0  0  0  0  0  0  0  0  0  0  0  0
    4.2520    0.9260    0.0000 C   0  0  0  0  0  0  0  0  0  0  0  0
    2.9530    1.6760    0.0000 C   0  0  0  0  0  0  0  0  0  0  0  0
  1  2  1  0  0  0  0
  2  3  1  0  0  0  0
  2 11  2  0  0  0  0
  3  4  1  0  0  0  0
  3  5  2  0  0  0  0
  5  6  1  0  0  0  0
  6  7  1  0  0  0  0
  6 10  2  0  0  0  0
  7  8  2  0  0  0  0
  8  9  1  0  0  0  0
  9 10  1  0  0  0  0
 10 11  1  0  0  0  0
M  END
>  <name>
Cc1c(C)cc2nc[nH;NaroC]c2c1

>  <apo>
1

>  <freq>
1

>  <freq0>
0

>  <freq1>
1

>  <freqA>
0.99700278

>  <a_count>
21

$$$$

  MOE2015           2D

 14 14  0  0  0  0  0  0  0  0999 V2000
    1.7280    0.4630    0.0000 F   0  0  0  0  0  0  0  0  0  0  0  0
    0.4290   -0.2870    0.0000 C   0  0  0  0  0  0  0  0  0  0  0  0
   -0.3210    1.0120    0.0000 F   0  0  0  0  0  0  0  0  0  0  0  0
   -0.8700   -1.0370    0.0000 F   0  0  0  0  0  0  0  0  0  0  0  0
    1.1790   -1.5860    0.0000 C   0  0  0  0  0  0  0  0  0  0  0  0
    0.4290   -2.8850    0.0000 C   0  0  0  0  0  0  0  0  0  0  0  0
   -1.0710   -2.8850    0.0000 C   0  0  0  0  0  0  0  0  0  0  0  0
   -1.8210   -4.1840    0.0000 N   0  0  0  0  0  0  0  0  0  0  0  0
    1.1790   -4.1840    0.0000 C   0  0  0  0  0  0  0  0  0  0  0  0
    2.6790   -4.1840    0.0000 C   0  0  0  0  0  0  0  0  0  0  0  0
    3.4290   -2.8850    0.0000 C   0  0  0  0  0  0  0  0  0  0  0  0
    4.9290   -2.8850    0.0000 C   0  0  0  0  0  0  0  0  0  0  0  0
    6.4290   -2.8850    0.0000 N   0  0  0  0  0  0  0  0  0  0  0  0
    2.6790   -1.5860    0.0000 C   0  0  0  0  0  0  0  0  0  0  0  0
  1  2  1  0  0  0  0
  2  3  1  0  0  0  0
  2  4  1  0  0  0  0
  2  5  1  0  0  0  0
  5  6  1  0  0  0  0
  5 14  2  0  0  0  0
  6  7  1  0  0  0  0
  6  9  2  0  0  0  0
  7  8  1  0  0  0  0
  9 10  1  0  0  0  0
 10 11  2  0  0  0  0
 11 12  1  0  0  0  0
 11 14  1  0  0  0  0
 12 13  3  0  0  0  0
M  END
>  <name>
FC(F)(F)c1c(C[N;amide])ccc(C#N)c1

>  <apo>
1

>  <freq>
1

>  <freq0>
0

>  <freq1>
1

>  <freqA>
0.99700278

>  <a_count>
21

$$$$

  MOE2015           2D

 15 16  0  0  0  0  0  0  0  0999 V2000
   -1.4960   -5.7350    0.0000 F   0  0  0  0  0  0  0  0  0  0  0  0
   -2.2460   -4.4360    0.0000 C   0  0  0  0  0  0  0  0  0  0  0  0
   -3.5450   -5.1860    0.0000 F   0  0  0  0  0  0  0  0  0  0  0  0
   -2.9960   -3.1370    0.0000 F   0  0  0  0  0  0  0  0  0  0  0  0
   -0.9470   -3.6860    0.0000 C   0  0  0  0  0  0  0  0  0  0  0  0
    0.3520   -4.4360    0.0000 C   0  0  0  0  0  0  0  0  0  0  0  0
    1.6510   -3.6860    0.0000 C   0  0  0  0  0  0  0  0  0  0  0  0
    1.6510   -2.1860    0.0000 C   0  0  0  0  0  0  0  0  0  0  0  0
    3.0780   -1.7220    0.0000 N   0  0  0  0  0  0  0  0  0  0  0  0
    3.9590   -2.9360    0.0000 C   0  0  0  0  0  0  0  0  0  0  0  0
    5.4590   -2.9360    0.0000 C   0  0  0  0  0  0  0  0  0  0  0  0
    6.2090   -1.6370    0.0000 O   0  0  0  0  0  0  0  0  0  0  0  0
    3.0780   -4.1490    0.0000 C   0  0  0  0  0  0  0  0  0  0  0  0
    0.3520   -1.4360    0.0000 C   0  0  0  0  0  0  0  0  0  0  0  0
   -0.9470   -2.1860    0.0000 C   0  0  0  0  0  0  0  0  0  0  0  0
  1  2  1  0  0  0  0
  2  3  1  0  0  0  0
  2  4  1  0  0  0  0
  2  5  1  0  0  0  0
  5  6  1  0  0  0  0
  5 15  2  0  0  0  0
  6  7  2  0  0  0  0
  7  8  1  0  0  0  0
  7 13  1  0  0  0  0
  8  9  1  0  0  0  0
  8 14  2  0  0  0  0
  9 10  1  0  0  0  0
 10 11  1  0  0  0  0
 10 13  2  0  0  0  0
 11 12  2  0  0  0  0
 14 15  1  0  0  0  0
M  END
>  <name>
FC(F)(F)c1cc2c([nH;NaroC]c([C;amide]=O)c2)cc1

>  <apo>
2

>  <freq>
1

>  <freq0>
0

>  <freq1>
1

>  <freqA>
0.99700278

>  <a_count>
21

$$$$

  MOE2015           2D

 11 10  0  0  1  0  0  0  0  0999 V2000
   -0.3280    1.2260    0.0000 F   0  0  0  0  0  0  0  0  0  0  0  0
    0.9710    1.9760    0.0000 C   0  0  0  0  0  0  0  0  0  0  0  0
    2.2700    1.2260    0.0000 C   0  0  0  0  0  0  0  0  0  0  0  0
    2.2700   -0.2740    0.0000 O   0  0  0  0  0  0  0  0  0  0  0  0
    3.5690    1.9760    0.0000 C   0  0  3  0  0  0  0  0  0  0  0  0
    3.5690    3.4760    0.0000 N   0  0  0  0  0  0  0  0  0  0  0  0
    4.8680    1.2260    0.0000 C   0  0  0  0  0  0  0  0  0  0  0  0
    6.1670    1.9760    0.0000 C   0  0  0  0  0  0  0  0  0  0  0  0
    6.1670    3.4760    0.0000 O   0  0  0  0  0  0  0  0  0  0  0  0
    7.4660    1.2260    0.0000 O   0  0  0  0  0  0  0  0  0  0  0  0
    8.7650    1.9760    0.0000 C   0  0  0  0  0  0  0  0  0  0  0  0
  1  2  1  0  0  0  0
  2  3  1  0  0  0  0
  3  4  2  0  0  0  0
  3  5  1  0  0  0  0
  5  6  1  0  0  0  0
  5  7  1  0  0  0  0
  7  8  1  0  0  0  0
  8  9  2  0  0  0  0
  8 10  1  0  0  0  0
 10 11  1  0  0  0  0
M  END
>  <name>
FCC(=O)C([N;amide])CC(=O)OC

>  <apo>
1

>  <freq>
1

>  <freq0>
0

>  <freq1>
1

>  <freqA>
0.99700278

>  <a_count>
21

$$$$

  MOE2015           2D

 11 10  0  0  1  0  0  0  0  0999 V2000
   -0.3280    1.2260    0.0000 F   0  0  0  0  0  0  0  0  0  0  0  0
    0.9710    1.9760    0.0000 C   0  0  0  0  0  0  0  0  0  0  0  0
    2.2700    1.2260    0.0000 C   0  0  0  0  0  0  0  0  0  0  0  0
    2.2700   -0.2740    0.0000 O   0  0  0  0  0  0  0  0  0  0  0  0
    3.5690    1.9760    0.0000 C   0  0  2  0  0  0  0  0  0  0  0  0
    3.5690    3.4760    0.0000 N   0  0  0  0  0  0  0  0  0  0  0  0
    4.8680    1.2260    0.0000 C   0  0  0  0  0  0  0  0  0  0  0  0
    6.1670    1.9760    0.0000 C   0  0  0  0  0  0  0  0  0  0  0  0
    6.1670    3.4760    0.0000 O   0  0  0  0  0  0  0  0  0  0  0  0
    7.4660    1.2260    0.0000 O   0  0  0  0  0  0  0  0  0  0  0  0
    8.7650    1.9760    0.0000 C   0  0  0  0  0  0  0  0  0  0  0  0
  1  2  1  0  0  0  0
  2  3  1  0  0  0  0
  3  4  2  0  0  0  0
  3  5  1  0  0  0  0
  5  6  1  6  0  0  0
  5  7  1  0  0  0  0
  7  8  1  0  0  0  0
  8  9  2  0  0  0  0
  8 10  1  0  0  0  0
 10 11  1  0  0  0  0
M  END
>  <name>
FCC(=O)[C@H]([N;amide])CC(=O)OC

>  <apo>
1

>  <freq>
1

>  <freq0>
0

>  <freq1>
1

>  <freqA>
0.99700278

>  <a_count>
21

$$$$

  MOE2015           2D

 11 11  0  0  1  0  0  0  0  0999 V2000
    7.2850   -2.1230    0.0000 O   0  0  0  0  0  0  0  0  0  0  0  0
    5.9860   -2.8730    0.0000 C   0  0  0  0  0  0  0  0  0  0  0  0
    5.9860   -4.3730    0.0000 N   0  0  0  0  0  0  0  0  0  0  0  0
    4.6870   -2.1230    0.0000 C   0  0  2  0  0  0  0  0  0  0  0  0
    4.6870   -0.6230    0.0000 N   0  0  0  0  0  0  0  0  0  0  0  0
    3.3880   -2.8730    0.0000 C   0  0  0  0  0  0  0  0  0  0  0  0
    2.0890   -2.1230    0.0000 C   0  0  0  0  0  0  0  0  0  0  0  0
    0.7190   -2.7330    0.0000 N   0  0  0  0  0  0  0  0  0  0  0  0
   -0.2850   -1.6180    0.0000 C   0  0  0  0  0  0  0  0  0  0  0  0
    0.4650   -0.3190    0.0000 N   0  0  0  0  0  0  0  0  0  0  0  0
    1.9320   -0.6310    0.0000 C   0  0  0  0  0  0  0  0  0  0  0  0
  1  2  2  0  0  0  0
  2  3  1  0  0  0  0
  2  4  1  0  0  0  0
  4  5  1  1  0  0  0
  4  6  1  0  0  0  0
  6  7  1  0  0  0  0
  7  8  1  0  0  0  0
  7 11  2  0  0  0  0
  8  9  2  0  0  0  0
  9 10  1  0  0  0  0
 10 11  1  0  0  0  0
M  END
>  <name>
O=C(N)[C@H]([N;amide])Cc1nc[nH]c1

>  <apo>
1

>  <freq>
1

>  <freq0>
0

>  <freq1>
1

>  <freqA>
0.99700278

>  <a_count>
21

$$$$

  MOE2015           2D

 10  9  0  0  1  0  0  0  0  0999 V2000
    3.8240   -0.0740    0.0000 O   0  0  0  0  0  0  0  0  0  0  0  0
    3.8240   -1.5740    0.0000 C   0  0  0  0  0  0  0  0  0  0  0  0
    5.1230   -2.3240    0.0000 O   0  0  0  0  0  0  0  0  0  0  0  0
    6.4220   -1.5740    0.0000 C   0  0  0  0  0  0  0  0  0  0  0  0
    2.5250   -2.3240    0.0000 C   0  0  0  0  0  0  0  0  0  0  0  0
    1.2250   -1.5740    0.0000 C   0  0  0  0  0  0  0  0  0  0  0  0
   -0.0740   -2.3240    0.0000 C   0  0  1  0  0  0  0  0  0  0  0  0
   -0.0740   -3.8240    0.0000 N   0  0  0  0  0  0  0  0  0  0  0  0
   -1.3730   -1.5740    0.0000 C   0  0  0  0  0  0  0  0  0  0  0  0
   -2.6720   -2.3240    0.0000 O   0  0  0  0  0  0  0  0  0  0  0  0
  1  2  2  0  0  0  0
  2  3  1  0  0  0  0
  2  5  1  0  0  0  0
  3  4  1  0  0  0  0
  5  6  1  0  0  0  0
  6  7  1  0  0  0  0
  7  8  1  1  0  0  0
  7  9  1  0  0  0  0
  9 10  2  0  0  0  0
M  END
>  <name>
O=C(OC)CC[C@@H]([N;amide])[C;amide]=O

>  <apo>
2

>  <freq>
1

>  <freq0>
0

>  <freq1>
1

>  <freqA>
0.99700278

>  <a_count>
21

$$$$

  MOE2015           2D

 12 12  0  0  0  0  0  0  0  0999 V2000
    8.2500    0.4330    0.0000 O   0  0  0  0  0  0  0  0  0  0  0  0
    7.5000    1.7320    0.0000 C   0  0  0  0  0  0  0  0  0  0  0  0
    8.2500    3.0310    0.0000 O   0  5  0  0  0  0  0  0  0  0  0  0
    6.0000    1.7320    0.0000 C   0  0  0  0  0  0  0  0  0  0  0  0
    5.2500    3.0310    0.0000 C   0  0  0  0  0  0  0  0  0  0  0  0
    3.7500    3.0310    0.0000 C   0  0  0  0  0  0  0  0  0  0  0  0
    3.0000    4.3300    0.0000 C   0  0  0  0  0  0  0  0  0  0  0  0
    1.5000    4.3300    0.0000 C   0  0  0  0  0  0  0  0  0  0  0  0
    0.7500    3.0310    0.0000 C   0  0  0  0  0  0  0  0  0  0  0  0
   -0.7500    3.0310    0.0000 O   0  0  0  0  0  0  0  0  0  0  0  0
    1.5000    1.7320    0.0000 C   0  0  0  0  0  0  0  0  0  0  0  0
    3.0000    1.7320    0.0000 C   0  0  0  0  0  0  0  0  0  0  0  0
  1  2  2  0  0  0  0
  2  3  1  0  0  0  0
  2  4  1  0  0  0  0
  4  5  1  0  0  0  0
  5  6  1  0  0  0  0
  6  7  1  0  0  0  0
  6 12  2  0  0  0  0
  7  8  2  0  0  0  0
  8  9  1  0  0  0  0
  9 10  1  0  0  0  0
  9 11  2  0  0  0  0
 11 12  1  0  0  0  0
M  CHG  1   3  -1
M  END
>  <name>
O=C([O-])CCc1c[c;biphenyl]c([O;ether])cc1

>  <apo>
2

>  <freq>
1

>  <freq0>
0

>  <freq1>
1

>  <freqA>
0.99700278

>  <a_count>
21

$$$$

  MOE2015           2D

 13 13  0  0  1  0  0  0  0  0999 V2000
    8.0770    1.9990    0.0000 O   0  0  0  0  0  0  0  0  0  0  0  0
    6.5770    1.9990    0.0000 C   0  0  0  0  0  0  0  0  0  0  0  0
    5.8270    3.2980    0.0000 O   0  5  0  0  0  0  0  0  0  0  0  0
    5.8270    0.6990    0.0000 C   0  0  1  0  0  0  0  0  0  0  0  0
    6.5770   -0.6000    0.0000 N   0  0  0  0  0  0  0  0  0  0  0  0
    4.3270    0.6990    0.0000 C   0  0  0  0  0  0  0  0  0  0  0  0
    3.5770   -0.6000    0.0000 C   0  0  0  0  0  0  0  0  0  0  0  0
    2.0770   -0.6000    0.0000 C   0  0  0  0  0  0  0  0  0  0  0  0
    1.3270   -1.8990    0.0000 O   0  0  0  0  0  0  0  0  0  0  0  0
    1.3270    0.6990    0.0000 C   0  0  0  0  0  0  0  0  0  0  0  0
    2.0770    1.9990    0.0000 C   0  0  0  0  0  0  0  0  0  0  0  0
    1.3270    3.2980    0.0000 O   0  0  0  0  0  0  0  0  0  0  0  0
    3.5770    1.9990    0.0000 C   0  0  0  0  0  0  0  0  0  0  0  0
  1  2  2  0  0  0  0
  2  3  1  0  0  0  0
  2  4  1  0  0  0  0
  4  5  1  1  0  0  0
  4  6  1  0  0  0  0
  6  7  2  0  0  0  0
  6 13  1  0  0  0  0
  7  8  1  0  0  0  0
  8  9  1  0  0  0  0
  8 10  2  0  0  0  0
 10 11  1  0  0  0  0
 11 12  1  0  0  0  0
 11 13  2  0  0  0  0
M  CHG  1   3  -1
M  END
>  <name>
O=C([O-])[C@@H]([N;amide])c1[c;biphenyl]c([O;ether])cc(O)c1

>  <apo>
3

>  <freq>
1

>  <freq0>
0

>  <freq1>
1

>  <freqA>
0.99700278

>  <a_count>
21

$$$$

  MOE2015           2D

 12 13  0  0  0  0  0  0  0  0999 V2000
    4.0470    2.9400    0.0000 O   0  0  0  0  0  0  0  0  0  0  0  0
    3.5840    1.5140    0.0000 C   0  0  0  0  0  0  0  0  0  0  0  0
    4.4650    0.3000    0.0000 N   0  0  0  0  0  0  0  0  0  0  0  0
    5.9650    0.3000    0.0000 C   0  0  0  0  0  0  0  0  0  0  0  0
    6.7150   -0.9990    0.0000 C   0  0  0  0  0  0  0  0  0  0  0  0
    3.5840   -0.9130    0.0000 Se  0  0  0  0  0  0  0  0  0  0  0  0
    2.1570   -0.4500    0.0000 C   0  0  0  0  0  0  0  0  0  0  0  0
    2.1570    1.0500    0.0000 C   0  0  0  0  0  0  0  0  0  0  0  0
    0.8580    1.8000    0.0000 C   0  0  0  0  0  0  0  0  0  0  0  0
   -0.4410    1.0500    0.0000 C   0  0  0  0  0  0  0  0  0  0  0  0
   -0.4410   -0.4500    0.0000 C   0  0  0  0  0  0  0  0  0  0  0  0
    0.8580   -1.2000    0.0000 C   0  0  0  0  0  0  0  0  0  0  0  0
  1  2  2  0  0  0  0
  2  3  1  0  0  0  0
  2  8  1  0  0  0  0
  3  4  1  0  0  0  0
  3  6  1  0  0  0  0
  4  5  1  0  0  0  0
  6  7  1  0  0  0  0
  7  8  1  0  0  0  0
  7 12  2  0  0  0  0
  8  9  2  0  0  0  0
  9 10  1  0  0  0  0
 10 11  2  0  0  0  0
 11 12  1  0  0  0  0
M  END
>  <name>
O=C1N(C[C;amine])[Se]c2c1cccc2

>  <apo>
1

>  <freq>
1

>  <freq0>
0

>  <freq1>
1

>  <freqA>
0.99700278

>  <a_count>
21

$$$$

  MOE2015           2D

 11 11  0  0  1  0  0  0  0  0999 V2000
    8.1820   -2.3620    0.0000 O   0  0  0  0  0  0  0  0  0  0  0  0
    6.6820   -2.3620    0.0000 C   0  0  0  0  0  0  0  0  0  0  0  0
    5.9320   -1.0630    0.0000 C   0  0  3  0  0  0  0  0  0  0  0  0
    6.6820    0.2360    0.0000 N   0  3  0  0  0  0  0  0  0  0  0  0
    4.4320   -1.0630    0.0000 C   0  0  0  0  0  0  0  0  0  0  0  0
    3.6820   -2.3620    0.0000 C   0  0  0  0  0  0  0  0  0  0  0  0
    2.1820   -2.3620    0.0000 C   0  0  0  0  0  0  0  0  0  0  0  0
    1.4320   -1.0630    0.0000 C   0  0  0  0  0  0  0  0  0  0  0  0
   -0.0680   -1.0630    0.0000 O   0  0  0  0  0  0  0  0  0  0  0  0
    2.1820    0.2360    0.0000 C   0  0  0  0  0  0  0  0  0  0  0  0
    3.6820    0.2360    0.0000 C   0  0  0  0  0  0  0  0  0  0  0  0
  1  2  2  0  0  0  0
  2  3  1  0  0  0  0
  3  4  1  0  0  0  0
  3  5  1  0  0  0  0
  5  6  1  0  0  0  0
  5 11  2  0  0  0  0
  6  7  2  0  0  0  0
  7  8  1  0  0  0  0
  8  9  1  0  0  0  0
  8 10  2  0  0  0  0
 10 11  1  0  0  0  0
M  CHG  1   4   1
M  END
>  <name>
O=[C;amide]C([N+])c1ccc(O)cc1

>  <apo>
1

>  <freq>
1

>  <freq0>
0

>  <freq1>
1

>  <freqA>
0.99700278

>  <a_count>
21

$$$$

  MOE2015           2D

  8  7  0  0  0  0  0  0  0  0999 V2000
   -0.4220    1.5740    0.0000 O   0  0  0  0  0  0  0  0  0  0  0  0
    0.8770    2.3240    0.0000 C   0  0  0  0  0  0  0  0  0  0  0  0
    2.1760    1.5740    0.0000 C   0  0  0  0  0  0  0  0  0  0  0  0
    3.4750    2.3240    0.0000 C   0  0  0  0  0  0  0  0  0  0  0  0
    4.7750    1.5740    0.0000 C   0  0  0  0  0  0  0  0  0  0  0  0
    6.0740    2.3240    0.0000 C   0  0  0  0  0  0  0  0  0  0  0  0
    7.3730    1.5740    0.0000 C   0  0  0  0  0  0  0  0  0  0  0  0
    8.6720    2.3240    0.0000 N   0  0  0  0  0  0  0  0  0  0  0  0
  1  2  2  0  0  0  0
  2  3  1  0  0  0  0
  3  4  1  0  0  0  0
  4  5  1  0  0  0  0
  5  6  1  0  0  0  0
  6  7  1  0  0  0  0
  7  8  1  0  0  0  0
M  END
>  <name>
O=[C;amide]CCCCC[N;amide]

>  <apo>
2

>  <freq>
1

>  <freq0>
0

>  <freq1>
1

>  <freqA>
0.99700278

>  <a_count>
21

$$$$

  MOE2015           2D

  8  7  0  0  1  0  0  0  0  0999 V2000
   -0.4530   -1.6920    0.0000 O   0  0  0  0  0  0  0  0  0  0  0  0
    0.8460   -2.4420    0.0000 C   0  0  0  0  0  0  0  0  0  0  0  0
    2.1450   -1.6920    0.0000 C   0  0  2  0  0  0  0  0  0  0  0  0
    2.1450   -0.1920    0.0000 N   0  0  0  0  0  0  0  0  0  0  0  0
    3.4440   -2.4420    0.0000 C   0  0  0  0  0  0  0  0  0  0  0  0
    4.7430   -1.6920    0.0000 C   0  0  0  0  0  0  0  0  0  0  0  0
    6.0420   -2.4420    0.0000 C   0  0  0  0  0  0  0  0  0  0  0  0
    7.3410   -1.6920    0.0000 N   0  3  0  0  0  0  0  0  0  0  0  0
  1  2  2  0  0  0  0
  2  3  1  0  0  0  0
  3  4  1  6  0  0  0
  3  5  1  0  0  0  0
  5  6  1  0  0  0  0
  6  7  1  0  0  0  0
  7  8  1  0  0  0  0
M  CHG  1   8   1
M  END
>  <name>
O=[C;amide][C@H]([N;amide])CCC[N+]

>  <apo>
2

>  <freq>
1

>  <freq0>
0

>  <freq1>
1

>  <freqA>
0.99700278

>  <a_count>
21

$$$$

  MOE2015           2D

  8  7  0  0  1  0  0  0  0  0999 V2000
   -0.2480   -1.6740    0.0000 O   0  0  0  0  0  0  0  0  0  0  0  0
    1.0510   -0.9240    0.0000 C   0  0  0  0  0  0  0  0  0  0  0  0
    2.3500   -1.6740    0.0000 C   0  0  2  0  0  0  0  0  0  0  0  0
    2.3500   -3.1740    0.0000 N   0  0  0  0  0  0  0  0  0  0  0  0
    3.6500   -0.9240    0.0000 C   0  0  2  0  0  0  0  0  0  0  0  0
    4.9490   -1.6740    0.0000 C   0  0  0  0  0  0  0  0  0  0  0  0
    6.2480   -0.9240    0.0000 C   0  0  0  0  0  0  0  0  0  0  0  0
    3.6500    0.5760    0.0000 C   0  0  0  0  0  0  0  0  0  0  0  0
  1  2  2  0  0  0  0
  2  3  1  0  0  0  0
  3  4  1  1  0  0  0
  3  5  1  0  0  0  0
  5  6  1  0  0  0  0
  5  8  1  1  0  0  0
  6  7  1  0  0  0  0
M  END
>  <name>
O=[C;amide][C@H]([N;amide])[C@H](CC)C

>  <apo>
2

>  <freq>
1

>  <freq0>
0

>  <freq1>
1

>  <freqA>
0.99700278

>  <a_count>
21

$$$$

  MOE2015           2D

 12 13  0  0  0  0  0  0  0  0999 V2000
    7.7470   -1.8410    0.0000 O   0  0  0  0  0  0  0  0  0  0  0  0
    6.9970   -3.1400    0.0000 C   0  0  0  0  0  0  0  0  0  0  0  0
    5.4970   -3.1400    0.0000 C   0  0  0  0  0  0  0  0  0  0  0  0
    4.6160   -1.9270    0.0000 N   0  0  0  0  0  0  0  0  0  0  0  0
    3.1890   -2.3900    0.0000 C   0  0  0  0  0  0  0  0  0  0  0  0
    3.1890   -3.8900    0.0000 C   0  0  0  0  0  0  0  0  0  0  0  0
    4.6160   -4.3540    0.0000 C   0  0  0  0  0  0  0  0  0  0  0  0
    1.8900   -4.6400    0.0000 C   0  0  0  0  0  0  0  0  0  0  0  0
    0.5910   -3.8900    0.0000 C   0  0  0  0  0  0  0  0  0  0  0  0
   -0.7080   -4.6400    0.0000 C   0  0  0  0  0  0  0  0  0  0  0  0
    0.5910   -2.3900    0.0000 C   0  0  0  0  0  0  0  0  0  0  0  0
    1.8900   -1.6400    0.0000 C   0  0  0  0  0  0  0  0  0  0  0  0
  1  2  2  0  0  0  0
  2  3  1  0  0  0  0
  3  4  1  0  0  0  0
  3  7  2  0  0  0  0
  4  5  1  0  0  0  0
  5  6  1  0  0  0  0
  5 12  2  0  0  0  0
  6  7  1  0  0  0  0
  6  8  2  0  0  0  0
  8  9  1  0  0  0  0
  9 10  1  0  0  0  0
  9 11  2  0  0  0  0
 11 12  1  0  0  0  0
M  END
>  <name>
O=[C;amide]c1[nH;NaroC]c2c(c1)cc(C)cc2

>  <apo>
2

>  <freq>
1

>  <freq0>
0

>  <freq1>
1

>  <freqA>
0.99700278

>  <a_count>
21

$$$$

  MOE2015           2D

 10 10  0  0  0  0  0  0  0  0999 V2000
    5.8330   -1.4370    0.0000 O   0  0  0  0  0  0  0  0  0  0  0  0
    4.5040   -0.7400    0.0000 C   0  0  0  0  0  0  0  0  0  0  0  0
    3.2370   -1.5420    0.0000 C   0  0  0  0  0  0  0  0  0  0  0  0
    1.8430   -0.9880    0.0000 C   0  0  0  0  0  0  0  0  0  0  0  0
    1.4720    0.4660    0.0000 C   0  0  0  0  0  0  0  0  0  0  0  0
    0.8850   -2.1420    0.0000 C   0  0  0  0  0  0  0  0  0  0  0  0
   -0.6120   -2.0460    0.0000 C   0  0  0  0  0  0  0  0  0  0  0  0
    1.6870   -3.4100    0.0000 N   0  0  0  0  0  0  0  0  0  0  0  0
    3.1400   -3.0390    0.0000 C   0  0  0  0  0  0  0  0  0  0  0  0
    4.2940   -3.9970    0.0000 C   0  0  0  0  0  0  0  0  0  0  0  0
  1  2  2  0  0  0  0
  2  3  1  0  0  0  0
  3  4  1  0  0  0  0
  3  9  2  0  0  0  0
  4  5  1  0  0  0  0
  4  6  2  0  0  0  0
  6  7  1  0  0  0  0
  6  8  1  0  0  0  0
  8  9  1  0  0  0  0
  9 10  1  0  0  0  0
M  END
>  <name>
O=[C;amide]c1c(C)c([C;olefin])[nH]c1C

>  <apo>
2

>  <freq>
1

>  <freq0>
0

>  <freq1>
1

>  <freqA>
0.99700278

>  <a_count>
21

$$$$

  MOE2015           2D

 12 13  0  0  0  0  0  0  0  0999 V2000
    7.1060    1.2810    0.0000 O   0  0  0  0  0  0  0  0  0  0  0  0
    6.3560    2.5800    0.0000 C   0  0  0  0  0  0  0  0  0  0  0  0
    4.8560    2.5800    0.0000 C   0  0  0  0  0  0  0  0  0  0  0  0
    3.9750    3.7940    0.0000 N   0  0  0  0  0  0  0  0  0  0  0  0
    4.4380    5.2200    0.0000 C   0  0  0  0  0  0  0  0  0  0  0  0
    2.5480    3.3300    0.0000 C   0  0  0  0  0  0  0  0  0  0  0  0
    2.5480    1.8300    0.0000 C   0  0  0  0  0  0  0  0  0  0  0  0
    3.9750    1.3670    0.0000 C   0  0  0  0  0  0  0  0  0  0  0  0
    1.2490    1.0800    0.0000 C   0  0  0  0  0  0  0  0  0  0  0  0
   -0.0500    1.8300    0.0000 C   0  0  0  0  0  0  0  0  0  0  0  0
   -0.0500    3.3300    0.0000 C   0  0  0  0  0  0  0  0  0  0  0  0
    1.2490    4.0800    0.0000 C   0  0  0  0  0  0  0  0  0  0  0  0
  1  2  2  0  0  0  0
  2  3  1  0  0  0  0
  3  4  1  0  0  0  0
  3  8  2  0  0  0  0
  4  5  1  0  0  0  0
  4  6  1  0  0  0  0
  6  7  1  0  0  0  0
  6 12  2  0  0  0  0
  7  8  1  0  0  0  0
  7  9  2  0  0  0  0
  9 10  1  0  0  0  0
 10 11  2  0  0  0  0
 11 12  1  0  0  0  0
M  END
>  <name>
O=[C;amide]c1n(C)c2c(c1)cccc2

>  <apo>
1

>  <freq>
1

>  <freq0>
0

>  <freq1>
1

>  <freqA>
0.99700278

>  <a_count>
21

$$$$

  MOE2015           2D

 12 13  0  0  0  0  0  0  0  0999 V2000
    6.0570   -3.5750    0.0000 O   0  0  0  0  0  0  0  0  0  0  0  0
    4.5570   -3.5750    0.0000 C   0  0  0  0  0  0  0  0  0  0  0  0
    3.8070   -2.2760    0.0000 C   0  0  0  0  0  0  0  0  0  0  0  0
    4.5570   -0.9770    0.0000 C   0  0  0  0  0  0  0  0  0  0  0  0
    6.0570   -0.9770    0.0000 C   0  0  0  0  0  0  0  0  0  0  0  0
    3.8070    0.3220    0.0000 C   0  0  0  0  0  0  0  0  0  0  0  0
    2.3070    0.3220    0.0000 C   0  0  0  0  0  0  0  0  0  0  0  0
    1.5570   -0.9770    0.0000 C   0  0  0  0  0  0  0  0  0  0  0  0
    0.0900   -1.2890    0.0000 N   0  0  0  0  0  0  0  0  0  0  0  0
   -0.0670   -2.7810    0.0000 C   0  0  0  0  0  0  0  0  0  0  0  0
    1.3040   -3.3910    0.0000 C   0  0  0  0  0  0  0  0  0  0  0  0
    2.3070   -2.2760    0.0000 C   0  0  0  0  0  0  0  0  0  0  0  0
  1  2  2  0  0  0  0
  2  3  1  0  0  0  0
  3  4  1  0  0  0  0
  3 12  2  0  0  0  0
  4  5  1  0  0  0  0
  4  6  2  0  0  0  0
  6  7  1  0  0  0  0
  7  8  2  0  0  0  0
  8  9  1  0  0  0  0
  8 12  1  0  0  0  0
  9 10  1  0  0  0  0
 10 11  2  0  0  0  0
 11 12  1  0  0  0  0
M  END
>  <name>
O=[C;ester]c1c(C)ccc2[nH]ccc12

>  <apo>
1

>  <freq>
1

>  <freq0>
0

>  <freq1>
1

>  <freqA>
0.99700278

>  <a_count>
21

$$$$

  MOE2015           2D

 12 13  0  0  0  0  0  0  0  0999 V2000
    6.7980    0.0000    0.0000 O   0  0  0  0  0  0  0  0  0  0  0  0
    5.2980    0.0000    0.0000 C   0  0  0  0  0  0  0  0  0  0  0  0
    4.5480    1.2990    0.0000 C   0  0  0  0  0  0  0  0  0  0  0  0
    3.0480    1.2990    0.0000 C   0  0  0  0  0  0  0  0  0  0  0  0
    2.0440    0.1840    0.0000 C   0  0  0  0  0  0  0  0  0  0  0  0
    2.3560   -1.2830    0.0000 C   0  0  0  0  0  0  0  0  0  0  0  0
    0.6740    0.7940    0.0000 C   0  0  0  0  0  0  0  0  0  0  0  0
    0.8310    2.2860    0.0000 N   0  0  0  0  0  0  0  0  0  0  0  0
    2.2980    2.5980    0.0000 C   0  0  0  0  0  0  0  0  0  0  0  0
    3.0480    3.8970    0.0000 C   0  0  0  0  0  0  0  0  0  0  0  0
    4.5480    3.8970    0.0000 C   0  0  0  0  0  0  0  0  0  0  0  0
    5.2980    2.5980    0.0000 C   0  0  0  0  0  0  0  0  0  0  0  0
  1  2  2  0  0  0  0
  2  3  1  0  0  0  0
  3  4  1  0  0  0  0
  3 12  2  0  0  0  0
  4  5  1  0  0  0  0
  4  9  2  0  0  0  0
  5  6  1  0  0  0  0
  5  7  2  0  0  0  0
  7  8  1  0  0  0  0
  8  9  1  0  0  0  0
  9 10  1  0  0  0  0
 10 11  2  0  0  0  0
 11 12  1  0  0  0  0
M  END
>  <name>
O=[C;ester]c1c2c(C)c[nH]c2ccc1

>  <apo>
1

>  <freq>
1

>  <freq0>
0

>  <freq1>
1

>  <freqA>
0.99700278

>  <a_count>
21

$$$$

  MOE2015           2D

 12 13  0  0  0  0  0  0  0  0999 V2000
    0.0000    0.0000    0.0000 O   0  0  0  0  0  0  0  0  0  0  0  0
    1.5000    0.0000    0.0000 C   0  0  0  0  0  0  0  0  0  0  0  0
    2.2500    1.2990    0.0000 C   0  0  0  0  0  0  0  0  0  0  0  0
    3.7500    1.2990    0.0000 C   0  0  0  0  0  0  0  0  0  0  0  0
    4.5000    2.5980    0.0000 C   0  0  0  0  0  0  0  0  0  0  0  0
    5.9670    2.2860    0.0000 N   0  0  0  0  0  0  0  0  0  0  0  0
    6.1240    0.7940    0.0000 C   0  0  0  0  0  0  0  0  0  0  0  0
    4.7540    0.1840    0.0000 C   0  0  0  0  0  0  0  0  0  0  0  0
    3.7500    3.8970    0.0000 C   0  0  0  0  0  0  0  0  0  0  0  0
    2.2500    3.8970    0.0000 C   0  0  0  0  0  0  0  0  0  0  0  0
    1.5000    5.1960    0.0000 C   0  0  0  0  0  0  0  0  0  0  0  0
    1.5000    2.5980    0.0000 C   0  0  0  0  0  0  0  0  0  0  0  0
  1  2  2  0  0  0  0
  2  3  1  0  0  0  0
  3  4  1  0  0  0  0
  3 12  2  0  0  0  0
  4  5  2  0  0  0  0
  4  8  1  0  0  0  0
  5  6  1  0  0  0  0
  5  9  1  0  0  0  0
  6  7  1  0  0  0  0
  7  8  2  0  0  0  0
  9 10  2  0  0  0  0
 10 11  1  0  0  0  0
 10 12  1  0  0  0  0
M  END
>  <name>
O=[C;ester]c1c2c([nH]cc2)cc(C)c1

>  <apo>
1

>  <freq>
1

>  <freq0>
0

>  <freq1>
1

>  <freqA>
0.99700278

>  <a_count>
21

$$$$

  MOE2015           2D

 15 16  0  0  0  0  0  0  0  0999 V2000
    8.4970    3.0770    0.0000 O   0  0  0  0  0  0  0  0  0  0  0  0
    7.1980    3.8270    0.0000 N   0  3  0  0  0  0  0  0  0  0  0  0
    7.1980    5.3270    0.0000 O   0  5  0  0  0  0  0  0  0  0  0  0
    5.8990    3.0770    0.0000 C   0  0  0  0  0  0  0  0  0  0  0  0
    4.6000    3.8270    0.0000 C   0  0  0  0  0  0  0  0  0  0  0  0
    3.3000    3.0770    0.0000 C   0  0  0  0  0  0  0  0  0  0  0  0
    1.8740    3.5400    0.0000 C   0  0  0  0  0  0  0  0  0  0  0  0
    1.4100    4.9670    0.0000 O   0  0  0  0  0  0  0  0  0  0  0  0
    0.9920    2.3270    0.0000 C   0  0  0  0  0  0  0  0  0  0  0  0
   -0.5080    2.3270    0.0000 O   0  0  0  0  0  0  0  0  0  0  0  0
    1.8740    1.1130    0.0000 N   0  0  0  0  0  0  0  0  0  0  0  0
    1.4100   -0.3130    0.0000 C   0  0  0  0  0  0  0  0  0  0  0  0
    3.3000    1.5770    0.0000 C   0  0  0  0  0  0  0  0  0  0  0  0
    4.6000    0.8270    0.0000 C   0  0  0  0  0  0  0  0  0  0  0  0
    5.8990    1.5770    0.0000 C   0  0  0  0  0  0  0  0  0  0  0  0
  1  2  2  0  0  0  0
  2  3  1  0  0  0  0
  2  4  1  0  0  0  0
  4  5  1  0  0  0  0
  4 15  2  0  0  0  0
  5  6  2  0  0  0  0
  6  7  1  0  0  0  0
  6 13  1  0  0  0  0
  7  8  2  0  0  0  0
  7  9  1  0  0  0  0
  9 10  2  0  0  0  0
  9 11  1  0  0  0  0
 11 12  1  0  0  0  0
 11 13  1  0  0  0  0
 13 14  2  0  0  0  0
 14 15  1  0  0  0  0
M  CHG  1   2   1
M  CHG  1   3  -1
M  END
>  <name>
O=[N+]([O-])c1cc2C(=O)C(=O)N([C;amine])c2cc1

>  <apo>
1

>  <freq>
1

>  <freq0>
0

>  <freq1>
1

>  <freqA>
0.99700278

>  <a_count>
21

$$$$

  MOE2015           2D

  8  8  0  0  0  0  0  0  0  0999 V2000
    4.2920    1.1500    0.0000 O   0  0  0  0  0  0  0  0  0  0  0  0
    2.9930    0.4000    0.0000 C   0  0  0  0  0  0  0  0  0  0  0  0
    4.2920   -0.3500    0.0000 C   0  0  0  0  0  0  0  0  0  0  0  0
    2.2430    1.6990    0.0000 C   0  0  0  0  0  0  0  0  0  0  0  0
    0.7430    1.6990    0.0000 C   0  0  0  0  0  0  0  0  0  0  0  0
   -0.0070    0.4000    0.0000 N   0  0  0  0  0  0  0  0  0  0  0  0
    0.7430   -0.8990    0.0000 C   0  0  0  0  0  0  0  0  0  0  0  0
    2.2430   -0.8990    0.0000 C   0  0  0  0  0  0  0  0  0  0  0  0
  1  2  1  0  0  0  0
  2  3  1  0  0  0  0
  2  4  1  0  0  0  0
  2  8  1  0  0  0  0
  4  5  1  0  0  0  0
  5  6  1  0  0  0  0
  6  7  1  0  0  0  0
  7  8  1  0  0  0  0
M  END
>  <name>
OC1(C)[C;NaroC]C[N;amide]CC1

>  <apo>
2

>  <freq>
1

>  <freq0>
0

>  <freq1>
1

>  <freqA>
0.99700278

>  <a_count>
21

$$$$

  MOE2015           2D

  9  9  0  0  1  0  0  0  0  0999 V2000
    4.6350   -3.4090    0.0000 O   0  0  0  0  0  0  0  0  0  0  0  0
    3.1350   -3.4090    0.0000 C   0  0  0  0  0  0  0  0  0  0  0  0
    2.3850   -2.1100    0.0000 C   0  0  3  0  0  0  0  0  0  0  0  0
    0.8930   -1.9540    0.0000 C   0  0  0  0  0  0  0  0  0  0  0  0
   -0.1100   -3.0680    0.0000 C   0  0  0  0  0  0  0  0  0  0  0  0
    0.5810   -0.4860    0.0000 C   0  0  0  0  0  0  0  0  0  0  0  0
    1.8810    0.2640    0.0000 C   0  0  0  0  0  0  0  0  0  0  0  0
    2.9950   -0.7400    0.0000 C   0  0  3  0  0  0  0  0  0  0  0  0
    4.4620   -0.4280    0.0000 O   0  0  0  0  0  0  0  0  0  0  0  0
  1  2  1  0  0  0  0
  2  3  1  0  0  0  0
  3  4  1  0  0  0  0
  3  8  1  0  0  0  0
  4  5  2  0  0  0  0
  4  6  1  0  0  0  0
  6  7  1  0  0  0  0
  7  8  1  0  0  0  0
  8  9  1  0  0  0  0
M  END
>  <name>
OCC1C(=C)[C;NaroC]CC1O

>  <apo>
1

>  <freq>
1

>  <freq0>
0

>  <freq1>
1

>  <freqA>
0.99700278

>  <a_count>
21

$$$$

  MOE2015           2D

  9  9  0  0  1  0  0  0  0  0999 V2000
    2.3330   -2.3330    0.0000 O   0  0  0  0  0  0  0  0  0  0  0  0
    2.3330   -0.8330    0.0000 C   0  0  2  0  0  0  0  0  0  0  0  0
    3.6320   -0.0830    0.0000 C   0  0  1  0  0  0  0  0  0  0  0  0
    4.9310   -0.8330    0.0000 C   0  0  0  0  0  0  0  0  0  0  0  0
    3.6320    1.4170    0.0000 O   0  0  0  0  0  0  0  0  0  0  0  0
    2.3330    2.1670    0.0000 C   0  0  0  0  0  0  0  0  0  0  0  0
    1.0340    1.4170    0.0000 C   0  0  0  0  0  0  0  0  0  0  0  0
    1.0340   -0.0830    0.0000 C   0  0  1  0  0  0  0  0  0  0  0  0
   -0.2650   -0.8330    0.0000 O   0  0  0  0  0  0  0  0  0  0  0  0
  2  1  1  1  0  0  0
  2  3  1  0  0  0  0
  2  8  1  0  0  0  0
  3  4  1  6  0  0  0
  3  5  1  0  0  0  0
  5  6  1  0  0  0  0
  6  7  1  0  0  0  0
  7  8  1  0  0  0  0
  8  9  1  6  0  0  0
M  END
>  <name>
O[C@@H]1[C@@H](C)O[C;ether]C[C@H]1O

>  <apo>
1

>  <freq>
1

>  <freq0>
0

>  <freq1>
1

>  <freqA>
0.99700278

>  <a_count>
21

$$$$

  MOE2015           2D

 11 12  0  0  0  0  0  0  0  0999 V2000
    1.5460    1.5460    0.0000 C   0  0  0  0  0  0  0  0  0  0  0  0
    1.5460    0.0460    0.0000 C   0  0  0  0  0  0  0  0  0  0  0  0
    2.8450   -0.7040    0.0000 C   0  0  0  0  0  0  0  0  0  0  0  0
    2.8450   -2.2040    0.0000 C   0  0  0  0  0  0  0  0  0  0  0  0
    1.5460   -2.9540    0.0000 C   0  0  0  0  0  0  0  0  0  0  0  0
    0.2470   -2.2040    0.0000 C   0  0  0  0  0  0  0  0  0  0  0  0
    0.2470   -0.7040    0.0000 C   0  0  0  0  0  0  0  0  0  0  0  0
    4.1440   -2.9540    0.0000 C   0  0  0  0  0  0  0  0  0  0  0  0
    5.4430   -2.2040    0.0000 C   0  0  0  0  0  0  0  0  0  0  0  0
    5.4430   -0.7040    0.0000 C   0  0  0  0  0  0  0  0  0  0  0  0
    4.1440    0.0460    0.0000 C   0  0  0  0  0  0  0  0  0  0  0  0
  1  2  1  0  0  0  0
  2  3  1  0  0  0  0
  2  7  2  0  0  0  0
  3  4  1  0  0  0  0
  3 11  2  0  0  0  0
  4  5  1  0  0  0  0
  4  8  2  0  0  0  0
  5  6  2  0  0  0  0
  6  7  1  0  0  0  0
  8  9  1  0  0  0  0
  9 10  2  0  0  0  0
 10 11  1  0  0  0  0
M  END
>  <name>
[C;amine]c1c2c(ccc1)cccc2

>  <apo>
1

>  <freq>
1

>  <freq0>
0

>  <freq1>
1

>  <freqA>
0.99700278

>  <a_count>
21

$$$$

  MOE2015           2D

 11 12  0  0  0  0  0  0  0  0999 V2000
    8.1110    0.2730    0.0000 C   0  0  0  0  0  0  0  0  0  0  0  0
    6.6110    0.2730    0.0000 C   0  0  0  0  0  0  0  0  0  0  0  0
    5.7300    1.4860    0.0000 N   0  0  0  0  0  0  0  0  0  0  0  0
    4.3030    1.0230    0.0000 C   0  0  0  0  0  0  0  0  0  0  0  0
    4.3030   -0.4770    0.0000 C   0  0  0  0  0  0  0  0  0  0  0  0
    5.7300   -0.9410    0.0000 N   0  0  0  0  0  0  0  0  0  0  0  0
    3.0040   -1.2270    0.0000 C   0  0  0  0  0  0  0  0  0  0  0  0
    1.7050   -0.4770    0.0000 C   0  0  0  0  0  0  0  0  0  0  0  0
    0.4060   -1.2270    0.0000 C   0  0  0  0  0  0  0  0  0  0  0  0
    1.7050    1.0230    0.0000 C   0  0  0  0  0  0  0  0  0  0  0  0
    3.0040    1.7730    0.0000 C   0  0  0  0  0  0  0  0  0  0  0  0
  1  2  1  0  0  0  0
  2  3  1  0  0  0  0
  2  6  2  0  0  0  0
  3  4  1  0  0  0  0
  4  5  1  0  0  0  0
  4 11  2  0  0  0  0
  5  6  1  0  0  0  0
  5  7  2  0  0  0  0
  7  8  1  0  0  0  0
  8  9  1  0  0  0  0
  8 10  2  0  0  0  0
 10 11  1  0  0  0  0
M  END
>  <name>
[C;ether]c1[nH]c2c(n1)cc(C)cc2

>  <apo>
1

>  <freq>
1

>  <freq0>
0

>  <freq1>
1

>  <freqA>
0.99700278

>  <a_count>
21

$$$$

  MOE2015           2D

 10 11  0  0  0  0  0  0  0  0999 V2000
   -2.7990   -0.2010    0.0000 N   0  0  0  0  0  0  0  0  0  0  0  0
   -1.5000    0.5490    0.0000 C   0  0  0  0  0  0  0  0  0  0  0  0
   -1.5000    2.0490    0.0000 C   0  0  0  0  0  0  0  0  0  0  0  0
   -0.2010    2.7990    0.0000 C   0  0  0  0  0  0  0  0  0  0  0  0
    1.0980    2.0490    0.0000 C   0  0  0  0  0  0  0  0  0  0  0  0
    1.0980    0.5490    0.0000 C   0  0  0  0  0  0  0  0  0  0  0  0
   -0.2010   -0.2010    0.0000 C   0  0  0  0  0  0  0  0  0  0  0  0
   -2.7990    2.7990    0.0000 C   0  0  0  0  0  0  0  0  0  0  0  0
   -4.0980    2.0490    0.0000 C   0  0  0  0  0  0  0  0  0  0  0  0
   -4.0980    0.5490    0.0000 C   0  0  0  0  0  0  0  0  0  0  0  0
  1  2  1  0  0  0  0
  1 10  1  0  0  0  0
  2  3  1  0  0  0  0
  2  7  2  0  0  0  0
  3  4  2  0  0  0  0
  3  8  1  0  0  0  0
  4  5  1  0  0  0  0
  5  6  2  0  0  0  0
  6  7  1  0  0  0  0
  8  9  1  0  0  0  0
  9 10  1  0  0  0  0
M  END
>  <name>
[N;amide]1c2c(cccc2)CCC1

>  <apo>
1

>  <freq>
1

>  <freq0>
0

>  <freq1>
1

>  <freqA>
0.99700278

>  <a_count>
21

$$$$

  MOE2015           2D

  7  6  0  0  0  0  0  0  0  0999 V2000
    0.0000   -2.5980    0.0000 O   0  0  0  0  0  0  0  0  0  0  0  0
    1.5000   -2.5980    0.0000 C   0  0  0  0  0  0  0  0  0  0  0  0
    2.2500   -1.2990    0.0000 C   0  0  0  0  0  0  0  0  0  0  0  0
    3.7500   -1.2990    0.0000 C   0  0  0  0  0  0  0  0  0  0  0  0
    4.5000   -2.5980    0.0000 C   0  0  0  0  0  0  0  0  0  0  0  0
    1.5000    0.0000    0.0000 C   0  0  0  0  0  0  0  0  0  0  0  0
    2.2500    1.2990    0.0000 C   0  0  0  0  0  0  0  0  0  0  0  0
  1  2  1  0  0  0  0
  2  3  1  0  0  0  0
  3  4  1  0  0  0  0
  3  6  1  0  0  0  0
  4  5  1  0  0  0  0
  6  7  1  0  0  0  0
M  END
>  <name>
[O;ester]CC(CC)CC

>  <apo>
1

>  <freq>
1

>  <freq0>
0

>  <freq1>
1

>  <freqA>
0.99700278

>  <a_count>
21

$$$$

  MOE2015           2D

  7  6  0  0  0  0  0  0  0  0999 V2000
   -0.3610   -1.9920    0.0000 O   0  0  0  0  0  0  0  0  0  0  0  0
    0.9380   -1.2420    0.0000 C   0  0  0  0  0  0  0  0  0  0  0  0
    2.2370   -1.9920    0.0000 C   0  0  0  0  0  0  0  0  0  0  0  0
    3.5360   -1.2420    0.0000 C   0  0  0  0  0  0  0  0  0  0  0  0
    4.8350   -1.9920    0.0000 C   0  0  0  0  0  0  0  0  0  0  0  0
    6.1340   -1.2420    0.0000 C   0  0  0  0  0  0  0  0  0  0  0  0
    7.4330   -1.9920    0.0000 C   0  0  0  0  0  0  0  0  0  0  0  0
  1  2  1  0  0  0  0
  2  3  1  0  0  0  0
  3  4  1  0  0  0  0
  4  5  1  0  0  0  0
  5  6  1  0  0  0  0
  6  7  1  0  0  0  0
M  END
>  <name>
[O;ester]CCCCCC

>  <apo>
1

>  <freq>
1

>  <freq0>
0

>  <freq1>
1

>  <freqA>
0.99700278

>  <a_count>
21

$$$$

  MOE2015           2D

  7  6  0  0  0  0  0  0  0  0999 V2000
   -0.1700   -0.6350    0.0000 S   0  3  0  0  0  0  0  0  0  0  0  0
    1.1290   -1.3850    0.0000 C   0  0  0  0  0  0  0  0  0  0  0  0
    2.4280   -0.6350    0.0000 C   0  0  0  0  0  0  0  0  0  0  0  0
    3.7270   -1.3850    0.0000 C   0  0  0  0  0  0  0  0  0  0  0  0
    5.0260   -0.6350    0.0000 N   0  0  0  0  0  0  0  0  0  0  0  0
   -1.4690   -1.3850    0.0000 C   0  0  0  0  0  0  0  0  0  0  0  0
   -0.1700    0.8650    0.0000 C   0  0  0  0  0  0  0  0  0  0  0  0
  1  2  1  0  0  0  0
  1  6  1  0  0  0  0
  1  7  1  0  0  0  0
  2  3  1  0  0  0  0
  3  4  1  0  0  0  0
  4  5  1  0  0  0  0
M  CHG  1   1   1
M  END
>  <name>
[S+](CCC[N;amide])(C)C

>  <apo>
1

>  <freq>
1

>  <freq0>
0

>  <freq1>
1

>  <freqA>
0.99700278

>  <a_count>
21

$$$$

  MOE2015           2D

 11 11  0  0  0  0  0  0  0  0999 V2000
   -3.4770    1.5350    0.0000 S   0  0  0  0  0  0  0  0  0  0  0  0
   -4.2270    0.2360    0.0000 O   0  0  0  0  0  0  0  0  0  0  0  0
   -4.2270    2.8340    0.0000 O   0  0  0  0  0  0  0  0  0  0  0  0
   -1.9770    1.5350    0.0000 C   0  0  0  0  0  0  0  0  0  0  0  0
   -1.2270    2.8340    0.0000 C   0  0  0  0  0  0  0  0  0  0  0  0
   -1.9770    4.1330    0.0000 C   0  0  0  0  0  0  0  0  0  0  0  0
    0.2730    2.8340    0.0000 C   0  0  0  0  0  0  0  0  0  0  0  0
    1.0230    1.5350    0.0000 C   0  0  0  0  0  0  0  0  0  0  0  0
    2.5230    1.5350    0.0000 C   0  0  0  0  0  0  0  0  0  0  0  0
    0.2730    0.2360    0.0000 C   0  0  0  0  0  0  0  0  0  0  0  0
   -1.2270    0.2360    0.0000 C   0  0  0  0  0  0  0  0  0  0  0  0
  1  2  2  0  0  0  0
  1  3  2  0  0  0  0
  1  4  1  0  0  0  0
  4  5  1  0  0  0  0
  4 11  2  0  0  0  0
  5  6  1  0  0  0  0
  5  7  2  0  0  0  0
  7  8  1  0  0  0  0
  8  9  1  0  0  0  0
  8 10  2  0  0  0  0
 10 11  1  0  0  0  0
M  END
>  <name>
[SH;so2amide](=O)(=O)c1c(C)cc(C)cc1

>  <apo>
1

>  <freq>
1

>  <freq0>
0

>  <freq1>
1

>  <freqA>
0.99700278

>  <a_count>
21

$$$$

  MOE2015           2D

 14 15  0  0  0  0  0  0  0  0999 V2000
   11.9740    0.6390    0.0000 Br  0  0  0  0  0  0  0  0  0  0  0  0
   10.4810    0.7800    0.0000 C   0  0  0  0  0  0  0  0  0  0  0  0
    9.4890   -0.3450    0.0000 S   0  0  0  0  0  0  0  0  0  0  0  0
    8.1120    0.2510    0.0000 C   0  0  0  0  0  0  0  0  0  0  0  0
    6.8210   -0.5130    0.0000 C   0  0  0  0  0  0  0  0  0  0  0  0
    5.5140    0.2240    0.0000 N   0  0  0  0  0  0  0  0  0  0  0  0
    4.2230   -0.5400    0.0000 N   0  0  0  0  0  0  0  0  0  0  0  0
    2.9160    0.1970    0.0000 C   0  0  0  0  0  0  0  0  0  0  0  0
    2.7440    1.6870    0.0000 S   0  0  0  0  0  0  0  0  0  0  0  0
    1.2730    1.9830    0.0000 C   0  0  0  0  0  0  0  0  0  0  0  0
    0.5370    0.6760    0.0000 C   0  0  0  0  0  0  0  0  0  0  0  0
    1.5520   -0.4280    0.0000 N   0  0  0  0  0  0  0  0  0  0  0  0
    8.2530    1.7440    0.0000 C   0  0  0  0  0  0  0  0  0  0  0  0
    9.7170    2.0710    0.0000 C   0  0  0  0  0  0  0  0  0  0  0  0
  1  2  1  0  0  0  0
  2  3  1  0  0  0  0
  2 14  2  0  0  0  0
  3  4  1  0  0  0  0
  4  5  1  0  0  0  0
  4 13  2  0  0  0  0
  5  6  2  0  0  0  0
  6  7  1  0  0  0  0
  7  8  1  0  0  0  0
  8  9  1  0  0  0  0
  8 12  2  0  0  0  0
  9 10  1  0  0  0  0
 10 11  2  0  0  0  0
 11 12  1  0  0  0  0
 13 14  1  0  0  0  0
M  END
>  <name>
Brc1sc(/C=N/Nc2sc[c;biphenyl]n2)cc1

>  <apo>
1

>  <freq>
1

>  <freq0>
0

>  <freq1>
1

>  <freqA>
0.99700278

>  <a_count>
20

$$$$

  MOE2015           2D

  7  7  0  0  0  0  0  0  0  0999 V2000
    5.1430    0.0000    0.0000 C   0  0  0  0  0  0  0  0  0  0  0  0
    3.6430    0.0000    0.0000 C   0  0  0  0  0  0  0  0  0  0  0  0
    2.8930    1.2990    0.0000 C   0  0  0  0  0  0  0  0  0  0  0  0
    1.3930    1.2990    0.0000 C   0  0  0  0  0  0  0  0  0  0  0  0
    0.6430    0.0000    0.0000 N   0  0  0  0  0  0  0  0  0  0  0  0
    1.3930   -1.2990    0.0000 C   0  0  0  0  0  0  0  0  0  0  0  0
    2.8930   -1.2990    0.0000 C   0  0  0  0  0  0  0  0  0  0  0  0
  1  2  1  0  0  0  0
  2  3  1  0  0  0  0
  2  7  1  0  0  0  0
  3  4  1  0  0  0  0
  4  5  1  0  0  0  0
  5  6  1  0  0  0  0
  6  7  1  0  0  0  0
M  END
>  <name>
CC1[C;amine]C[N;amide]CC1

>  <apo>
2

>  <freq>
1

>  <freq0>
0

>  <freq1>
1

>  <freqA>
0.99700278

>  <a_count>
20

$$$$

  MOE2015           2D

 13 14  0  0  0  0  0  0  0  0999 V2000
    0.2030   -0.7580    0.0000 Cl  0  0  0  0  0  0  0  0  0  0  0  0
    1.5020   -0.0080    0.0000 C   0  0  0  0  0  0  0  0  0  0  0  0
    2.8010   -0.7580    0.0000 C   0  0  0  0  0  0  0  0  0  0  0  0
    4.1000   -0.0080    0.0000 C   0  0  0  0  0  0  0  0  0  0  0  0
    4.1000    1.4920    0.0000 C   0  0  0  0  0  0  0  0  0  0  0  0
    5.3990    2.2420    0.0000 N   0  0  0  0  0  0  0  0  0  0  0  0
    6.6980    1.4920    0.0000 C   0  0  0  0  0  0  0  0  0  0  0  0
    7.9970    2.2420    0.0000 O   0  0  0  0  0  0  0  0  0  0  0  0
    9.2960    1.4920    0.0000 C   0  0  0  0  0  0  0  0  0  0  0  0
    6.6980   -0.0080    0.0000 N   0  0  0  0  0  0  0  0  0  0  0  0
    5.3990   -0.7580    0.0000 C   0  0  0  0  0  0  0  0  0  0  0  0
    2.8010    2.2420    0.0000 C   0  0  0  0  0  0  0  0  0  0  0  0
    1.5020    1.4920    0.0000 C   0  0  0  0  0  0  0  0  0  0  0  0
  1  2  1  0  0  0  0
  2  3  2  0  0  0  0
  2 13  1  0  0  0  0
  3  4  1  0  0  0  0
  4  5  1  0  0  0  0
  4 11  2  0  0  0  0
  5  6  2  0  0  0  0
  5 12  1  0  0  0  0
  6  7  1  0  0  0  0
  7  8  1  0  0  0  0
  7 10  2  0  0  0  0
  8  9  1  0  0  0  0
 10 11  1  0  0  0  0
 12 13  2  0  0  0  0
M  END
>  <name>
Clc1cc2c(nc(OC)n[c;biphenyl]2)cc1

>  <apo>
1

>  <freq>
1

>  <freq0>
0

>  <freq1>
1

>  <freqA>
0.99700278

>  <a_count>
20

$$$$

  MOE2015           2D

 12 13  0  0  0  0  0  0  0  0999 V2000
    0.1030   -0.3840    0.0000 Cl  0  0  0  0  0  0  0  0  0  0  0  0
    1.4020    0.3660    0.0000 C   0  0  0  0  0  0  0  0  0  0  0  0
    2.7010   -0.3840    0.0000 C   0  0  0  0  0  0  0  0  0  0  0  0
    4.0000    0.3660    0.0000 C   0  0  0  0  0  0  0  0  0  0  0  0
    5.2990   -0.3840    0.0000 N   0  0  0  0  0  0  0  0  0  0  0  0
    6.5980    0.3660    0.0000 C   0  0  0  0  0  0  0  0  0  0  0  0
    7.8970   -0.3840    0.0000 C   0  0  0  0  0  0  0  0  0  0  0  0
    6.5980    1.8660    0.0000 C   0  0  0  0  0  0  0  0  0  0  0  0
    5.2990    2.6160    0.0000 C   0  0  0  0  0  0  0  0  0  0  0  0
    4.0000    1.8660    0.0000 C   0  0  0  0  0  0  0  0  0  0  0  0
    2.7010    2.6160    0.0000 C   0  0  0  0  0  0  0  0  0  0  0  0
    1.4020    1.8660    0.0000 C   0  0  0  0  0  0  0  0  0  0  0  0
  1  2  1  0  0  0  0
  2  3  1  0  0  0  0
  2 12  2  0  0  0  0
  3  4  2  0  0  0  0
  4  5  1  0  0  0  0
  4 10  1  0  0  0  0
  5  6  2  0  0  0  0
  6  7  1  0  0  0  0
  6  8  1  0  0  0  0
  8  9  2  0  0  0  0
  9 10  1  0  0  0  0
 10 11  2  0  0  0  0
 11 12  1  0  0  0  0
M  END
>  <name>
Clc1cc2nc([C;olefin])ccc2cc1

>  <apo>
1

>  <freq>
1

>  <freq0>
0

>  <freq1>
1

>  <freqA>
0.99700278

>  <a_count>
20

$$$$

  MOE2015           2D

 13 13  0  0  0  0  0  0  0  0999 V2000
    0.0520   -4.4140    0.0000 F   0  0  0  0  0  0  0  0  0  0  0  0
   -0.6980   -3.1150    0.0000 C   0  0  0  0  0  0  0  0  0  0  0  0
   -1.4480   -1.8160    0.0000 F   0  0  0  0  0  0  0  0  0  0  0  0
   -1.9970   -3.8650    0.0000 F   0  0  0  0  0  0  0  0  0  0  0  0
    0.6010   -2.3650    0.0000 C   0  0  0  0  0  0  0  0  0  0  0  0
    0.6010   -0.8650    0.0000 C   0  0  0  0  0  0  0  0  0  0  0  0
   -0.6980   -0.1150    0.0000 C   0  0  0  0  0  0  0  0  0  0  0  0
    1.9000   -0.1150    0.0000 C   0  0  0  0  0  0  0  0  0  0  0  0
    3.1990   -0.8650    0.0000 C   0  0  0  0  0  0  0  0  0  0  0  0
    3.1990   -2.3650    0.0000 C   0  0  0  0  0  0  0  0  0  0  0  0
    4.4980   -3.1150    0.0000 C   0  0  0  0  0  0  0  0  0  0  0  0
    5.7970   -2.3650    0.0000 O   0  0  0  0  0  0  0  0  0  0  0  0
    1.9000   -3.1150    0.0000 C   0  0  0  0  0  0  0  0  0  0  0  0
  1  2  1  0  0  0  0
  2  3  1  0  0  0  0
  2  4  1  0  0  0  0
  2  5  1  0  0  0  0
  5  6  1  0  0  0  0
  5 13  2  0  0  0  0
  6  7  1  0  0  0  0
  6  8  2  0  0  0  0
  8  9  1  0  0  0  0
  9 10  2  0  0  0  0
 10 11  1  0  0  0  0
 10 13  1  0  0  0  0
 11 12  2  0  0  0  0
M  END
>  <name>
FC(F)(F)c1c([C;amine])ccc([C;amide]=O)c1

>  <apo>
2

>  <freq>
1

>  <freq0>
0

>  <freq1>
1

>  <freqA>
0.99700278

>  <a_count>
20

$$$$

  MOE2015           2D

 12 12  0  0  0  0  0  0  0  0999 V2000
   -0.8290   -0.8290    0.0000 F   0  0  0  0  0  0  0  0  0  0  0  0
   -0.8290   -2.3290    0.0000 C   0  0  0  0  0  0  0  0  0  0  0  0
   -0.8290   -3.8290    0.0000 F   0  0  0  0  0  0  0  0  0  0  0  0
   -2.3290   -2.3290    0.0000 F   0  0  0  0  0  0  0  0  0  0  0  0
    0.6710   -2.3290    0.0000 C   0  0  0  0  0  0  0  0  0  0  0  0
    1.4210   -3.6280    0.0000 C   0  0  0  0  0  0  0  0  0  0  0  0
    2.9210   -3.6280    0.0000 C   0  0  0  0  0  0  0  0  0  0  0  0
    3.6710   -2.3290    0.0000 C   0  0  0  0  0  0  0  0  0  0  0  0
    5.1710   -2.3290    0.0000 C   0  0  0  0  0  0  0  0  0  0  0  0
    5.9210   -3.6280    0.0000 N   0  0  0  0  0  0  0  0  0  0  0  0
    2.9210   -1.0300    0.0000 C   0  0  0  0  0  0  0  0  0  0  0  0
    1.4210   -1.0300    0.0000 C   0  0  0  0  0  0  0  0  0  0  0  0
  1  2  1  0  0  0  0
  2  3  1  0  0  0  0
  2  4  1  0  0  0  0
  2  5  1  0  0  0  0
  5  6  1  0  0  0  0
  5 12  2  0  0  0  0
  6  7  2  0  0  0  0
  7  8  1  0  0  0  0
  8  9  1  0  0  0  0
  8 11  2  0  0  0  0
  9 10  1  0  0  0  0
 11 12  1  0  0  0  0
M  END
>  <name>
FC(F)(F)c1ccc(C[N;amide])cc1

>  <apo>
1

>  <freq>
1

>  <freq0>
0

>  <freq1>
1

>  <freqA>
0.99700278

>  <a_count>
20

$$$$

  MOE2015           2D

 10 10  0  0  0  0  0  0  0  0999 V2000
    0.0000    0.5200    0.0000 F   0  0  0  0  0  0  0  0  0  0  0  0
    1.5000    0.5200    0.0000 C   0  0  0  0  0  0  0  0  0  0  0  0
    2.2500   -0.7790    0.0000 C   0  0  0  0  0  0  0  0  0  0  0  0
    3.7500   -0.7790    0.0000 C   0  0  0  0  0  0  0  0  0  0  0  0
    4.5000    0.5200    0.0000 C   0  0  0  0  0  0  0  0  0  0  0  0
    6.0000    0.5200    0.0000 C   0  0  0  0  0  0  0  0  0  0  0  0
    6.7500   -0.7790    0.0000 C   0  0  0  0  0  0  0  0  0  0  0  0
    8.2500   -0.7790    0.0000 N   0  0  0  0  0  0  0  0  0  0  0  0
    3.7500    1.8190    0.0000 C   0  0  0  0  0  0  0  0  0  0  0  0
    2.2500    1.8190    0.0000 C   0  0  0  0  0  0  0  0  0  0  0  0
  1  2  1  0  0  0  0
  2  3  1  0  0  0  0
  2 10  2  0  0  0  0
  3  4  2  0  0  0  0
  4  5  1  0  0  0  0
  5  6  1  0  0  0  0
  5  9  2  0  0  0  0
  6  7  1  0  0  0  0
  7  8  1  0  0  0  0
  9 10  1  0  0  0  0
M  END
>  <name>
Fc1ccc(CC[N;amide])cc1

>  <apo>
1

>  <freq>
1

>  <freq0>
0

>  <freq1>
1

>  <freqA>
0.99700278

>  <a_count>
20

$$$$

  MOE2015           2D

 10 10  0  0  0  0  0  0  0  0999 V2000
    0.8730    1.1580    0.0000 O   0  0  0  0  0  0  0  0  0  0  0  0
    2.1720    1.9080    0.0000 C   0  0  0  0  0  0  0  0  0  0  0  0
   -0.4260    1.9080    0.0000 C   0  0  0  0  0  0  0  0  0  0  0  0
   -1.7250    1.1580    0.0000 C   0  0  0  0  0  0  0  0  0  0  0  0
   -3.0240    1.9080    0.0000 C   0  0  0  0  0  0  0  0  0  0  0  0
   -4.3230    1.1580    0.0000 O   0  0  0  0  0  0  0  0  0  0  0  0
   -5.6220    1.9080    0.0000 C   0  0  0  0  0  0  0  0  0  0  0  0
   -3.0240    3.4080    0.0000 C   0  0  0  0  0  0  0  0  0  0  0  0
   -1.7250    4.1580    0.0000 C   0  0  0  0  0  0  0  0  0  0  0  0
   -0.4260    3.4080    0.0000 C   0  0  0  0  0  0  0  0  0  0  0  0
  1  2  1  0  0  0  0
  1  3  1  0  0  0  0
  3  4  1  0  0  0  0
  3 10  2  0  0  0  0
  4  5  2  0  0  0  0
  5  6  1  0  0  0  0
  5  8  1  0  0  0  0
  6  7  1  0  0  0  0
  8  9  2  0  0  0  0
  9 10  1  0  0  0  0
M  END
>  <name>
O(C)c1cc(OC)[c;biphenyl]cc1

>  <apo>
1

>  <freq>
1

>  <freq0>
0

>  <freq1>
1

>  <freqA>
0.99700278

>  <a_count>
20

$$$$

  MOE2015           2D

 10  9  0  0  1  0  0  0  0  0999 V2000
   -0.7430    4.1930    0.0000 O   0  0  0  0  0  0  0  0  0  0  0  0
   -0.7430    2.6930    0.0000 C   0  0  0  0  0  0  0  0  0  0  0  0
   -2.0420    1.9430    0.0000 N   0  0  0  0  0  0  0  0  0  0  0  0
    0.5560    1.9430    0.0000 C   0  0  0  0  0  0  0  0  0  0  0  0
    1.8550    2.6930    0.0000 C   0  0  1  0  0  0  0  0  0  0  0  0
    1.8550    4.1930    0.0000 O   0  0  0  0  0  0  0  0  0  0  0  0
    3.1540    1.9430    0.0000 C   0  0  2  0  0  0  0  0  0  0  0  0
    3.1540    0.4430    0.0000 N   0  0  0  0  0  0  0  0  0  0  0  0
    4.4530    2.6930    0.0000 C   0  0  0  0  0  0  0  0  0  0  0  0
    5.7520    1.9430    0.0000 O   0  0  0  0  0  0  0  0  0  0  0  0
  1  2  2  0  0  0  0
  2  3  1  0  0  0  0
  2  4  1  0  0  0  0
  4  5  1  0  0  0  0
  5  6  1  1  0  0  0
  5  7  1  0  0  0  0
  7  8  1  1  0  0  0
  7  9  1  0  0  0  0
  9 10  2  0  0  0  0
M  END
>  <name>
O=C(N)C[C@@H](O)[C@H]([N;amide])[C;amide]=O

>  <apo>
2

>  <freq>
1

>  <freq0>
0

>  <freq1>
1

>  <freqA>
0.99700278

>  <a_count>
20

$$$$

  MOE2015           2D

  8  7  0  0  1  0  0  0  0  0999 V2000
   -0.0670   -1.3740    0.0000 O   0  0  0  0  0  0  0  0  0  0  0  0
    1.2320   -0.6240    0.0000 C   0  0  0  0  0  0  0  0  0  0  0  0
    1.2320    0.8760    0.0000 N   0  0  0  0  0  0  0  0  0  0  0  0
    2.5310   -1.3740    0.0000 C   0  0  1  0  0  0  0  0  0  0  0  0
    2.5310   -2.8740    0.0000 N   0  0  0  0  0  0  0  0  0  0  0  0
    3.8300   -0.6240    0.0000 C   0  0  0  0  0  0  0  0  0  0  0  0
    5.1290   -1.3740    0.0000 C   0  0  0  0  0  0  0  0  0  0  0  0
    3.8300    0.8760    0.0000 C   0  0  0  0  0  0  0  0  0  0  0  0
  1  2  2  0  0  0  0
  2  3  1  0  0  0  0
  2  4  1  0  0  0  0
  4  5  1  6  0  0  0
  4  6  1  0  0  0  0
  6  7  1  0  0  0  0
  6  8  1  0  0  0  0
M  END
>  <name>
O=C(N)[C@@H]([N;amide])C(C)C

>  <apo>
1

>  <freq>
1

>  <freq0>
0

>  <freq1>
1

>  <freqA>
0.99700278

>  <a_count>
20

$$$$

  MOE2015           2D

 11 11  0  0  1  0  0  0  0  0999 V2000
    5.7270    3.3070    0.0000 O   0  0  0  0  0  0  0  0  0  0  0  0
    4.9770    2.0080    0.0000 C   0  0  0  0  0  0  0  0  0  0  0  0
    5.7270    0.7090    0.0000 O   0  5  0  0  0  0  0  0  0  0  0  0
    3.4770    2.0080    0.0000 C   0  0  1  0  0  0  0  0  0  0  0  0
    2.7270    0.7090    0.0000 O   0  0  0  0  0  0  0  0  0  0  0  0
    1.2270    0.7090    0.0000 C   0  0  0  0  0  0  0  0  0  0  0  0
    0.4770    2.0080    0.0000 C   0  0  1  0  0  0  0  0  0  0  0  0
   -1.0230    2.0080    0.0000 O   0  0  0  0  0  0  0  0  0  0  0  0
    1.2270    3.3070    0.0000 C   0  0  2  0  0  0  0  0  0  0  0  0
    0.4770    4.6060    0.0000 O   0  0  0  0  0  0  0  0  0  0  0  0
    2.7270    3.3070    0.0000 C   0  0  0  0  0  0  0  0  0  0  0  0
  1  2  2  0  0  0  0
  2  3  1  0  0  0  0
  4  2  1  1  0  0  0
  4  5  1  0  0  0  0
  4 11  1  0  0  0  0
  5  6  1  0  0  0  0
  6  7  1  0  0  0  0
  7  8  1  1  0  0  0
  7  9  1  0  0  0  0
  9 10  1  6  0  0  0
  9 11  1  0  0  0  0
M  CHG  1   3  -1
M  END
>  <name>
O=C([O-])[C@H]1O[C;ether][C@@H](O)[C@H](O)[C;ether]1

>  <apo>
2

>  <freq>
1

>  <freq0>
0

>  <freq1>
1

>  <freqA>
0.99700278

>  <a_count>
20

$$$$

  MOE2015           2D

 13 14  0  0  0  0  0  0  0  0999 V2000
    1.5700    3.9680    0.0000 O   0  0  0  0  0  0  0  0  0  0  0  0
    1.5700    2.4680    0.0000 C   0  0  0  0  0  0  0  0  0  0  0  0
    0.2710    1.7180    0.0000 N   0  0  0  0  0  0  0  0  0  0  0  0
    0.2710    0.2180    0.0000 C   0  0  0  0  0  0  0  0  0  0  0  0
   -1.0280   -0.5320    0.0000 N   0  0  0  0  0  0  0  0  0  0  0  0
    1.5700   -0.5320    0.0000 N   0  0  0  0  0  0  0  0  0  0  0  0
    2.8690    0.2180    0.0000 C   0  0  0  0  0  0  0  0  0  0  0  0
    4.1680   -0.5320    0.0000 N   0  0  0  0  0  0  0  0  0  0  0  0
    5.4670    0.2180    0.0000 C   0  0  0  0  0  0  0  0  0  0  0  0
    5.4670    1.7180    0.0000 C   0  0  0  0  0  0  0  0  0  0  0  0
    6.7660    2.4680    0.0000 C   0  0  0  0  0  0  0  0  0  0  0  0
    4.1680    2.4680    0.0000 N   0  0  0  0  0  0  0  0  0  0  0  0
    2.8690    1.7180    0.0000 C   0  0  0  0  0  0  0  0  0  0  0  0
  1  2  2  0  0  0  0
  2  3  1  0  0  0  0
  2 13  1  0  0  0  0
  3  4  1  0  0  0  0
  4  5  1  0  0  0  0
  4  6  2  0  0  0  0
  6  7  1  0  0  0  0
  7  8  1  0  0  0  0
  7 13  2  0  0  0  0
  8  9  2  0  0  0  0
  9 10  1  0  0  0  0
 10 11  1  0  0  0  0
 10 12  2  0  0  0  0
 12 13  1  0  0  0  0
M  END
>  <name>
O=C1NC(N)=Nc2ncc([C;amine])nc12

>  <apo>
1

>  <freq>
1

>  <freq0>
0

>  <freq1>
1

>  <freqA>
0.99700278

>  <a_count>
20

$$$$

  MOE2015           2D

 13 13  0  0  0  0  0  0  0  0999 V2000
    2.9390    5.0390    0.0000 O   0  0  0  0  0  0  0  0  0  0  0  0
    3.6780    3.7340    0.0000 C   0  0  0  0  0  0  0  0  0  0  0  0
    2.9160    2.4410    0.0000 C   0  0  0  0  0  0  0  0  0  0  0  0
    3.6550    1.1360    0.0000 N   0  0  0  0  0  0  0  0  0  0  0  0
    5.1550    1.1230    0.0000 O   0  0  0  0  0  0  0  0  0  0  0  0
    5.8930   -0.1830    0.0000 C   0  0  0  0  0  0  0  0  0  0  0  0
    7.3930   -0.1960    0.0000 O   0  0  0  0  0  0  0  0  0  0  0  0
    1.4160    2.4550    0.0000 C   0  0  0  0  0  0  0  0  0  0  0  0
    0.5240    1.2490    0.0000 N   0  0  0  0  0  0  0  0  0  0  0  0
   -0.8980    1.7250    0.0000 C   0  0  0  0  0  0  0  0  0  0  0  0
   -2.1200    0.8540    0.0000 N   0  0  0  0  0  0  0  0  0  0  0  0
   -0.8850    3.2250    0.0000 S   0  0  0  0  0  0  0  0  0  0  0  0
    0.5450    3.6760    0.0000 C   0  0  0  0  0  0  0  0  0  0  0  0
  1  2  2  0  0  0  0
  2  3  1  0  0  0  0
  3  4  2  0  0  0  0
  3  8  1  0  0  0  0
  4  5  1  0  0  0  0
  5  6  1  0  0  0  0
  6  7  1  0  0  0  0
  8  9  1  0  0  0  0
  8 13  2  0  0  0  0
  9 10  2  0  0  0  0
 10 11  1  0  0  0  0
 10 12  1  0  0  0  0
 12 13  1  0  0  0  0
M  END
>  <name>
O=[C;amide]C(=NOC[O;ester])c1nc(N)sc1

>  <apo>
2

>  <freq>
1

>  <freq0>
0

>  <freq1>
1

>  <freqA>
0.99700278

>  <a_count>
20

$$$$

  MOE2015           2D

  8  8  0  0  0  0  0  0  0  0999 V2000
    5.3440   -0.8120    0.0000 O   0  0  0  0  0  0  0  0  0  0  0  0
    4.5940   -2.1110    0.0000 C   0  0  0  0  0  0  0  0  0  0  0  0
    3.0940   -2.1110    0.0000 C   0  0  0  0  0  0  0  0  0  0  0  0
    2.3440   -3.4100    0.0000 C   0  0  0  0  0  0  0  0  0  0  0  0
    0.8440   -3.4100    0.0000 C   0  0  0  0  0  0  0  0  0  0  0  0
    0.0940   -2.1110    0.0000 C   0  0  0  0  0  0  0  0  0  0  0  0
    0.8440   -0.8120    0.0000 C   0  0  0  0  0  0  0  0  0  0  0  0
    2.3440   -0.8120    0.0000 C   0  0  0  0  0  0  0  0  0  0  0  0
  1  2  2  0  0  0  0
  2  3  1  0  0  0  0
  3  4  1  0  0  0  0
  3  8  1  0  0  0  0
  4  5  1  0  0  0  0
  5  6  1  0  0  0  0
  6  7  1  0  0  0  0
  7  8  1  0  0  0  0
M  END
>  <name>
O=[C;amide]C1C[C;amine]CCC1

>  <apo>
2

>  <freq>
1

>  <freq0>
0

>  <freq1>
1

>  <freqA>
0.99700278

>  <a_count>
20

$$$$

  MOE2015           2D

 14 15  0  0  0  0  0  0  0  0999 V2000
    7.8750    4.5470    0.0000 O   0  0  0  0  0  0  0  0  0  0  0  0
    7.1250    3.2480    0.0000 C   0  0  0  0  0  0  0  0  0  0  0  0
    5.6250    3.2480    0.0000 C   0  0  0  0  0  0  0  0  0  0  0  0
    4.8750    1.9490    0.0000 O   0  0  0  0  0  0  0  0  0  0  0  0
    3.3750    1.9490    0.0000 C   0  0  0  0  0  0  0  0  0  0  0  0
    2.6250    3.2480    0.0000 C   0  0  0  0  0  0  0  0  0  0  0  0
    1.1250    3.2480    0.0000 C   0  0  0  0  0  0  0  0  0  0  0  0
    0.3750    4.5470    0.0000 O   0  0  0  0  0  0  0  0  0  0  0  0
    0.3750    1.9490    0.0000 C   0  0  0  0  0  0  0  0  0  0  0  0
    1.1250    0.6500    0.0000 C   0  0  0  0  0  0  0  0  0  0  0  0
    2.6250    0.6500    0.0000 C   0  0  0  0  0  0  0  0  0  0  0  0
    3.3750    4.5470    0.0000 C   0  0  0  0  0  0  0  0  0  0  0  0
    2.6250    5.8460    0.0000 O   0  0  0  0  0  0  0  0  0  0  0  0
    4.8750    4.5470    0.0000 C   0  0  0  0  0  0  0  0  0  0  0  0
  1  2  2  0  0  0  0
  2  3  1  0  0  0  0
  3  4  1  0  0  0  0
  3 14  2  0  0  0  0
  4  5  1  0  0  0  0
  5  6  1  0  0  0  0
  5 11  2  0  0  0  0
  6  7  2  0  0  0  0
  6 12  1  0  0  0  0
  7  8  1  0  0  0  0
  7  9  1  0  0  0  0
  9 10  2  0  0  0  0
 10 11  1  0  0  0  0
 12 13  2  0  0  0  0
 12 14  1  0  0  0  0
M  END
>  <name>
O=[C;amide]C=1Oc2c(c(O)ccc2)C(=O)C=1

>  <apo>
1

>  <freq>
1

>  <freq0>
0

>  <freq1>
1

>  <freqA>
0.99700278

>  <a_count>
20

$$$$

  MOE2015           2D

 10 10  0  0  1  0  0  0  0  0999 V2000
    7.6590   -2.6900    0.0000 O   0  0  0  0  0  0  0  0  0  0  0  0
    6.3600   -3.4400    0.0000 C   0  0  0  0  0  0  0  0  0  0  0  0
    5.0610   -2.6900    0.0000 C   0  0  1  0  0  0  0  0  0  0  0  0
    5.0610   -1.1900    0.0000 N   0  3  0  0  0  0  0  0  0  0  0  0
    3.7620   -3.4400    0.0000 C   0  0  0  0  0  0  0  0  0  0  0  0
    2.4630   -2.6900    0.0000 C   0  0  0  0  0  0  0  0  0  0  0  0
    1.0920   -3.3000    0.0000 N   0  0  0  0  0  0  0  0  0  0  0  0
    0.0890   -2.1860    0.0000 C   0  0  0  0  0  0  0  0  0  0  0  0
    0.8390   -0.8870    0.0000 N   0  0  0  0  0  0  0  0  0  0  0  0
    2.3060   -1.1980    0.0000 C   0  0  0  0  0  0  0  0  0  0  0  0
  1  2  2  0  0  0  0
  2  3  1  0  0  0  0
  3  4  1  6  0  0  0
  3  5  1  0  0  0  0
  5  6  1  0  0  0  0
  6  7  1  0  0  0  0
  6 10  2  0  0  0  0
  7  8  1  0  0  0  0
  8  9  2  0  0  0  0
  9 10  1  0  0  0  0
M  CHG  1   4   1
M  END
>  <name>
O=[C;amide][C@@H]([N+])Cc1[nH]cnc1

>  <apo>
1

>  <freq>
1

>  <freq0>
0

>  <freq1>
1

>  <freqA>
0.99700278

>  <a_count>
20

$$$$

  MOE2015           2D

 11 11  0  0  1  0  0  0  0  0999 V2000
    8.1820   -2.3620    0.0000 O   0  0  0  0  0  0  0  0  0  0  0  0
    6.6820   -2.3620    0.0000 C   0  0  0  0  0  0  0  0  0  0  0  0
    5.9320   -1.0630    0.0000 C   0  0  2  0  0  0  0  0  0  0  0  0
    6.6820    0.2360    0.0000 N   0  0  0  0  0  0  0  0  0  0  0  0
    4.4320   -1.0630    0.0000 C   0  0  0  0  0  0  0  0  0  0  0  0
    3.6820   -2.3620    0.0000 C   0  0  0  0  0  0  0  0  0  0  0  0
    2.1820   -2.3620    0.0000 C   0  0  0  0  0  0  0  0  0  0  0  0
    1.4320   -1.0630    0.0000 C   0  0  0  0  0  0  0  0  0  0  0  0
   -0.0680   -1.0630    0.0000 O   0  0  0  0  0  0  0  0  0  0  0  0
    2.1820    0.2360    0.0000 C   0  0  0  0  0  0  0  0  0  0  0  0
    3.6820    0.2360    0.0000 C   0  0  0  0  0  0  0  0  0  0  0  0
  1  2  2  0  0  0  0
  2  3  1  0  0  0  0
  3  4  1  1  0  0  0
  3  5  1  0  0  0  0
  5  6  1  0  0  0  0
  5 11  2  0  0  0  0
  6  7  2  0  0  0  0
  7  8  1  0  0  0  0
  8  9  1  0  0  0  0
  8 10  2  0  0  0  0
 10 11  1  0  0  0  0
M  END
>  <name>
O=[C;amide][C@H]([N;amide])c1c[c;biphenyl]c(O)cc1

>  <apo>
3

>  <freq>
1

>  <freq0>
0

>  <freq1>
1

>  <freqA>
0.99700278

>  <a_count>
20

$$$$

  MOE2015           2D

  8  8  0  0  1  0  0  0  0  0999 V2000
    5.3440   -0.8120    0.0000 O   0  0  0  0  0  0  0  0  0  0  0  0
    4.5940   -2.1110    0.0000 C   0  0  0  0  0  0  0  0  0  0  0  0
    3.0940   -2.1110    0.0000 C   0  0  1  0  0  0  0  0  0  0  0  0
    2.3440   -3.4100    0.0000 N   0  3  0  0  0  0  0  0  0  0  0  0
    0.8440   -3.4100    0.0000 C   0  0  0  0  0  0  0  0  0  0  0  0
    0.0940   -2.1110    0.0000 C   0  0  0  0  0  0  0  0  0  0  0  0
    0.8440   -0.8120    0.0000 N   0  3  0  0  0  0  0  0  0  0  0  0
    2.3440   -0.8120    0.0000 C   0  0  0  0  0  0  0  0  0  0  0  0
  1  2  2  0  0  0  0
  3  2  1  1  0  0  0
  3  4  1  0  0  0  0
  3  8  1  0  0  0  0
  4  5  1  0  0  0  0
  5  6  1  0  0  0  0
  6  7  1  0  0  0  0
  7  8  1  0  0  0  0
M  CHG  1   4   1
M  CHG  1   7   1
M  END
>  <name>
O=[C;amide][C@H]1[N+;amine]CC[N+;amine]C1

>  <apo>
3

>  <freq>
1

>  <freq0>
0

>  <freq1>
1

>  <freqA>
0.99700278

>  <a_count>
20

$$$$

  MOE2015           2D

 11 12  0  0  0  0  0  0  0  0999 V2000
    6.6080    0.0000    0.0000 O   0  0  0  0  0  0  0  0  0  0  0  0
    5.1080    0.0000    0.0000 C   0  0  0  0  0  0  0  0  0  0  0  0
    4.3580    1.2990    0.0000 C   0  0  0  0  0  0  0  0  0  0  0  0
    2.8580    1.2990    0.0000 C   0  0  0  0  0  0  0  0  0  0  0  0
    2.1080    2.5980    0.0000 C   0  0  0  0  0  0  0  0  0  0  0  0
    0.6410    2.2860    0.0000 N   0  0  0  0  0  0  0  0  0  0  0  0
    0.4840    0.7940    0.0000 C   0  0  0  0  0  0  0  0  0  0  0  0
    1.8540    0.1840    0.0000 C   0  0  0  0  0  0  0  0  0  0  0  0
    2.8580    3.8970    0.0000 C   0  0  0  0  0  0  0  0  0  0  0  0
    4.3580    3.8970    0.0000 C   0  0  0  0  0  0  0  0  0  0  0  0
    5.1080    2.5980    0.0000 C   0  0  0  0  0  0  0  0  0  0  0  0
  1  2  2  0  0  0  0
  2  3  1  0  0  0  0
  3  4  1  0  0  0  0
  3 11  2  0  0  0  0
  4  5  2  0  0  0  0
  4  8  1  0  0  0  0
  5  6  1  0  0  0  0
  5  9  1  0  0  0  0
  6  7  1  0  0  0  0
  7  8  1  0  0  0  0
  9 10  2  0  0  0  0
 10 11  1  0  0  0  0
M  END
>  <name>
O=[C;ester]c1c2c(NCC2)ccc1

>  <apo>
1

>  <freq>
1

>  <freq0>
0

>  <freq1>
1

>  <freqA>
0.99700278

>  <a_count>
20

$$$$

  MOE2015           2D

  8  8  0  0  1  0  0  0  0  0999 V2000
    0.4890   -1.1750    0.0000 O   0  0  0  0  0  0  0  0  0  0  0  0
    1.7880   -0.4250    0.0000 C   0  0  2  0  0  0  0  0  0  0  0  0
    1.7880    1.0750    0.0000 C   0  0  1  0  0  0  0  0  0  0  0  0
    0.4890    1.8250    0.0000 C   0  0  0  0  0  0  0  0  0  0  0  0
    3.0870    1.8250    0.0000 O   0  0  0  0  0  0  0  0  0  0  0  0
    4.3860    1.0750    0.0000 C   0  0  0  0  0  0  0  0  0  0  0  0
    4.3860   -0.4250    0.0000 C   0  0  0  0  0  0  0  0  0  0  0  0
    3.0870   -1.1750    0.0000 C   0  0  0  0  0  0  0  0  0  0  0  0
  2  1  1  6  0  0  0
  2  3  1  0  0  0  0
  2  8  1  0  0  0  0
  3  4  1  1  0  0  0
  3  5  1  0  0  0  0
  5  6  1  0  0  0  0
  6  7  1  0  0  0  0
  7  8  1  0  0  0  0
M  END
>  <name>
O[C@@H]1[C@@H](C)O[C;ether]C[C;ether]1

>  <apo>
2

>  <freq>
1

>  <freq0>
0

>  <freq1>
1

>  <freqA>
0.99700278

>  <a_count>
20

$$$$

  MOE2015           2D

 12 12  0  0  0  0  0  0  0  0999 V2000
    7.6590    2.9270    0.0000 S   0  0  0  0  0  0  0  0  0  0  0  0
    6.3600    3.6770    0.0000 C   0  0  0  0  0  0  0  0  0  0  0  0
    6.3600    5.1770    0.0000 N   0  0  0  0  0  0  0  0  0  0  0  0
    5.0610    2.9270    0.0000 N   0  5  0  0  0  0  0  0  0  0  0  0
    5.0610    1.4270    0.0000 N   0  0  0  0  0  0  0  0  0  0  0  0
    3.7620    0.6770    0.0000 C   0  0  0  0  0  0  0  0  0  0  0  0
    2.4630    1.4270    0.0000 C   0  0  0  0  0  0  0  0  0  0  0  0
    1.1640    0.6770    0.0000 C   0  0  0  0  0  0  0  0  0  0  0  0
   -0.1350    1.4270    0.0000 C   0  0  0  0  0  0  0  0  0  0  0  0
   -0.1350    2.9270    0.0000 C   0  0  0  0  0  0  0  0  0  0  0  0
    1.1640    3.6770    0.0000 C   0  0  0  0  0  0  0  0  0  0  0  0
    2.4630    2.9270    0.0000 C   0  0  0  0  0  0  0  0  0  0  0  0
  1  2  2  0  0  0  0
  2  3  1  0  0  0  0
  2  4  1  0  0  0  0
  4  5  1  0  0  0  0
  5  6  2  0  0  0  0
  6  7  1  0  0  0  0
  7  8  1  0  0  0  0
  7 12  2  0  0  0  0
  8  9  2  0  0  0  0
  9 10  1  0  0  0  0
 10 11  2  0  0  0  0
 11 12  1  0  0  0  0
M  CHG  1   4  -1
M  END
>  <name>
S=C(N)[N-]/N=C\c1ccc[c;biphenyl]c1

>  <apo>
1

>  <freq>
1

>  <freq0>
0

>  <freq1>
1

>  <freqA>
0.99700278

>  <a_count>
20

$$$$

  MOE2015           2D

  6  5  0  0  0  0  0  0  0  0999 V2000
   -0.2480   -1.6740    0.0000 N   0  3  0  0  0  0  0  0  0  0  0  0
    1.0510   -0.9240    0.0000 C   0  0  0  0  0  0  0  0  0  0  0  0
    2.3500   -1.6740    0.0000 C   0  0  0  0  0  0  0  0  0  0  0  0
    3.6500   -0.9240    0.0000 C   0  0  0  0  0  0  0  0  0  0  0  0
    4.9490   -1.6740    0.0000 C   0  0  0  0  0  0  0  0  0  0  0  0
    6.2480   -0.9240    0.0000 C   0  0  0  0  0  0  0  0  0  0  0  0
  1  2  1  0  0  0  0
  2  3  1  0  0  0  0
  3  4  1  0  0  0  0
  4  5  1  0  0  0  0
  5  6  1  0  0  0  0
M  CHG  1   1   1
M  END
>  <name>
[N+]CCC[C;amine]C

>  <apo>
1

>  <freq>
1

>  <freq0>
0

>  <freq1>
1

>  <freqA>
0.99700278

>  <a_count>
20

$$$$

  MOE2015           2D

  7  7  0  0  0  0  0  0  0  0999 V2000
    0.0000    2.7020    0.0000 N   0  0  0  0  0  0  0  0  0  0  0  0
    0.6520    1.3510    0.0000 C   0  0  0  0  0  0  0  0  0  0  0  0
    0.0000    0.0000    0.0000 C   0  0  0  0  0  0  0  0  0  0  0  0
   -1.4620   -0.3330    0.0000 C   0  0  0  0  0  0  0  0  0  0  0  0
   -2.6350    0.6010    0.0000 C   0  0  0  0  0  0  0  0  0  0  0  0
   -2.6350    2.1010    0.0000 C   0  0  0  0  0  0  0  0  0  0  0  0
   -1.4620    3.0360    0.0000 C   0  0  0  0  0  0  0  0  0  0  0  0
  1  2  1  0  0  0  0
  1  7  1  0  0  0  0
  2  3  1  0  0  0  0
  3  4  1  0  0  0  0
  4  5  1  0  0  0  0
  5  6  1  0  0  0  0
  6  7  1  0  0  0  0
M  END
>  <name>
[N;amide]1CCCCCC1

>  <apo>
1

>  <freq>
1

>  <freq0>
0

>  <freq1>
1

>  <freqA>
0.99700278

>  <a_count>
20

$$$$

  MOE2015           2D

  7  7  0  0  0  0  0  0  0  0999 V2000
    5.1430    0.0000    0.0000 N   0  0  0  0  0  0  0  0  0  0  0  0
    3.6430    0.0000    0.0000 C   0  0  0  0  0  0  0  0  0  0  0  0
    2.8930    1.2990    0.0000 C   0  0  0  0  0  0  0  0  0  0  0  0
    1.3930    1.2990    0.0000 C   0  0  0  0  0  0  0  0  0  0  0  0
    0.6430    0.0000    0.0000 C   0  0  0  0  0  0  0  0  0  0  0  0
    1.3930   -1.2990    0.0000 C   0  0  0  0  0  0  0  0  0  0  0  0
    2.8930   -1.2990    0.0000 C   0  0  0  0  0  0  0  0  0  0  0  0
  1  2  1  0  0  0  0
  2  3  1  0  0  0  0
  2  7  1  0  0  0  0
  3  4  1  0  0  0  0
  4  5  1  0  0  0  0
  5  6  1  0  0  0  0
  6  7  1  0  0  0  0
M  END
>  <name>
[N;amide]C1CCCCC1

>  <apo>
1

>  <freq>
1

>  <freq0>
0

>  <freq1>
1

>  <freqA>
0.99700278

>  <a_count>
20

$$$$

  MOE2015           2D

  9  9  0  0  1  0  0  0  0  0999 V2000
    5.0000    0.2890    0.0000 N   0  0  0  0  0  0  0  0  0  0  0  0
    4.2500    1.5880    0.0000 C   0  0  1  0  0  0  0  0  0  0  0  0
    5.0000    2.8870    0.0000 C   0  0  0  0  0  0  0  0  0  0  0  0
    2.7500    1.5880    0.0000 C   0  0  0  0  0  0  0  0  0  0  0  0
    2.0000    2.8870    0.0000 C   0  0  0  0  0  0  0  0  0  0  0  0
    0.5000    2.8870    0.0000 C   0  0  0  0  0  0  0  0  0  0  0  0
   -0.2500    1.5880    0.0000 C   0  0  0  0  0  0  0  0  0  0  0  0
    0.5000    0.2890    0.0000 C   0  0  0  0  0  0  0  0  0  0  0  0
    2.0000    0.2890    0.0000 C   0  0  0  0  0  0  0  0  0  0  0  0
  2  1  1  6  0  0  0
  2  3  1  0  0  0  0
  2  4  1  0  0  0  0
  4  5  1  0  0  0  0
  4  9  2  0  0  0  0
  5  6  2  0  0  0  0
  6  7  1  0  0  0  0
  7  8  2  0  0  0  0
  8  9  1  0  0  0  0
M  END
>  <name>
[N;amide][C@@H](C)c1ccccc1

>  <apo>
1

>  <freq>
1

>  <freq0>
0

>  <freq1>
1

>  <freqA>
0.99700278

>  <a_count>
20

$$$$

  MOE2015           2D

  9  9  0  0  1  0  0  0  0  0999 V2000
    5.0000    0.2890    0.0000 N   0  0  0  0  0  0  0  0  0  0  0  0
    4.2500    1.5880    0.0000 C   0  0  2  0  0  0  0  0  0  0  0  0
    5.0000    2.8870    0.0000 C   0  0  0  0  0  0  0  0  0  0  0  0
    2.7500    1.5880    0.0000 C   0  0  0  0  0  0  0  0  0  0  0  0
    2.0000    2.8870    0.0000 C   0  0  0  0  0  0  0  0  0  0  0  0
    0.5000    2.8870    0.0000 C   0  0  0  0  0  0  0  0  0  0  0  0
   -0.2500    1.5880    0.0000 C   0  0  0  0  0  0  0  0  0  0  0  0
    0.5000    0.2890    0.0000 C   0  0  0  0  0  0  0  0  0  0  0  0
    2.0000    0.2890    0.0000 C   0  0  0  0  0  0  0  0  0  0  0  0
  2  1  1  1  0  0  0
  2  3  1  0  0  0  0
  2  4  1  0  0  0  0
  4  5  1  0  0  0  0
  4  9  2  0  0  0  0
  5  6  2  0  0  0  0
  6  7  1  0  0  0  0
  7  8  2  0  0  0  0
  8  9  1  0  0  0  0
M  END
>  <name>
[N;amide][C@H](C)c1ccccc1

>  <apo>
1

>  <freq>
1

>  <freq0>
0

>  <freq1>
1

>  <freqA>
0.99700278

>  <a_count>
20

$$$$

  MOE2015           2D

 11 12  0  0  0  0  0  0  0  0999 V2000
    7.2930   -0.7730    0.0000 N   0  0  0  0  0  0  0  0  0  0  0  0
    5.9940   -0.0230    0.0000 C   0  0  0  0  0  0  0  0  0  0  0  0
    4.6950   -0.7730    0.0000 C   0  0  0  0  0  0  0  0  0  0  0  0
    3.3960   -0.0230    0.0000 C   0  0  0  0  0  0  0  0  0  0  0  0
    2.0970   -0.7730    0.0000 O   0  0  0  0  0  0  0  0  0  0  0  0
    0.7980   -0.0230    0.0000 C   0  0  0  0  0  0  0  0  0  0  0  0
    0.7980    1.4770    0.0000 C   0  0  0  0  0  0  0  0  0  0  0  0
    2.0970    2.2270    0.0000 O   0  0  0  0  0  0  0  0  0  0  0  0
    3.3960    1.4770    0.0000 C   0  0  0  0  0  0  0  0  0  0  0  0
    4.6950    2.2270    0.0000 C   0  0  0  0  0  0  0  0  0  0  0  0
    5.9940    1.4770    0.0000 C   0  0  0  0  0  0  0  0  0  0  0  0
  1  2  1  0  0  0  0
  2  3  1  0  0  0  0
  2 11  2  0  0  0  0
  3  4  2  0  0  0  0
  4  5  1  0  0  0  0
  4  9  1  0  0  0  0
  5  6  1  0  0  0  0
  6  7  1  0  0  0  0
  7  8  1  0  0  0  0
  8  9  1  0  0  0  0
  9 10  2  0  0  0  0
 10 11  1  0  0  0  0
M  END
>  <name>
[N;amide]c1cc2OCCOc2cc1

>  <apo>
1

>  <freq>
1

>  <freq0>
0

>  <freq1>
1

>  <freqA>
0.99700278

>  <a_count>
20

$$$$

  MOE2015           2D

  9  9  0  0  0  0  0  0  0  0999 V2000
    0.0000    0.0000    0.0000 N   0  0  0  0  0  0  0  0  0  0  0  0
    1.5000    0.0000    0.0000 C   0  0  0  0  0  0  0  0  0  0  0  0
    2.2500    1.2990    0.0000 C   0  0  0  0  0  0  0  0  0  0  0  0
    3.7500    1.2990    0.0000 C   0  0  0  0  0  0  0  0  0  0  0  0
    4.5000    0.0000    0.0000 C   0  0  0  0  0  0  0  0  0  0  0  0
    6.0000    0.0000    0.0000 C   0  0  0  0  0  0  0  0  0  0  0  0
    6.7500   -1.2990    0.0000 C   0  0  0  0  0  0  0  0  0  0  0  0
    3.7500   -1.2990    0.0000 C   0  0  0  0  0  0  0  0  0  0  0  0
    2.2500   -1.2990    0.0000 C   0  0  0  0  0  0  0  0  0  0  0  0
  1  2  1  0  0  0  0
  2  3  1  0  0  0  0
  2  9  2  0  0  0  0
  3  4  2  0  0  0  0
  4  5  1  0  0  0  0
  5  6  1  0  0  0  0
  5  8  2  0  0  0  0
  6  7  1  0  0  0  0
  8  9  1  0  0  0  0
M  END
>  <name>
[N;amide]c1ccc(CC)cc1

>  <apo>
1

>  <freq>
1

>  <freq0>
0

>  <freq1>
1

>  <freqA>
0.99700278

>  <a_count>
20

$$$$

  MOE2015           2D

 11 12  0  0  0  0  0  0  0  0999 V2000
    7.2930   -0.7730    0.0000 N   0  0  0  0  0  0  0  0  0  0  0  0
    5.9940   -0.0230    0.0000 C   0  0  0  0  0  0  0  0  0  0  0  0
    4.6950   -0.7730    0.0000 C   0  0  0  0  0  0  0  0  0  0  0  0
    3.3960   -0.0230    0.0000 C   0  0  0  0  0  0  0  0  0  0  0  0
    3.3960    1.4770    0.0000 C   0  0  0  0  0  0  0  0  0  0  0  0
    4.6950    2.2270    0.0000 C   0  0  0  0  0  0  0  0  0  0  0  0
    5.9940    1.4770    0.0000 C   0  0  0  0  0  0  0  0  0  0  0  0
    2.0970    2.2270    0.0000 C   0  0  0  0  0  0  0  0  0  0  0  0
    0.7980    1.4770    0.0000 C   0  0  0  0  0  0  0  0  0  0  0  0
    0.7980   -0.0230    0.0000 C   0  0  0  0  0  0  0  0  0  0  0  0
    2.0970   -0.7730    0.0000 C   0  0  0  0  0  0  0  0  0  0  0  0
  1  2  1  0  0  0  0
  2  3  1  0  0  0  0
  2  7  2  0  0  0  0
  3  4  2  0  0  0  0
  4  5  1  0  0  0  0
  4 11  1  0  0  0  0
  5  6  2  0  0  0  0
  5  8  1  0  0  0  0
  6  7  1  0  0  0  0
  8  9  2  0  0  0  0
  9 10  1  0  0  0  0
 10 11  2  0  0  0  0
M  END
>  <name>
[N;so2amide]c1cc2c(cc1)c[c;biphenyl]cc2

>  <apo>
2

>  <freq>
1

>  <freq0>
0

>  <freq1>
1

>  <freqA>
0.99700278

>  <a_count>
20

$$$$

  MOE2015           2D

  7  7  0  0  0  0  0  0  0  0999 V2000
    5.1430    0.0000    0.0000 N   0  0  0  0  0  0  0  0  0  0  0  0
    3.6430    0.0000    0.0000 C   0  0  0  0  0  0  0  0  0  0  0  0
    2.8930    1.2990    0.0000 C   0  0  0  0  0  0  0  0  0  0  0  0
    1.3930    1.2990    0.0000 C   0  0  0  0  0  0  0  0  0  0  0  0
    0.6430    0.0000    0.0000 C   0  0  0  0  0  0  0  0  0  0  0  0
    1.3930   -1.2990    0.0000 C   0  0  0  0  0  0  0  0  0  0  0  0
    2.8930   -1.2990    0.0000 C   0  0  0  0  0  0  0  0  0  0  0  0
  1  2  1  0  0  0  0
  2  3  1  0  0  0  0
  2  7  1  0  0  0  0
  3  4  1  0  0  0  0
  4  5  1  0  0  0  0
  5  6  1  0  0  0  0
  6  7  1  0  0  0  0
M  END
>  <name>
[N;urea]C1CCCCC1

>  <apo>
1

>  <freq>
1

>  <freq0>
0

>  <freq1>
1

>  <freqA>
0.99700278

>  <a_count>
20

$$$$

  MOE2015           2D

 11 12  0  0  0  0  0  0  0  0999 V2000
    4.3920    3.1910    0.0000 S   0  0  0  0  0  0  0  0  0  0  0  0
    3.9280    1.7640    0.0000 C   0  0  0  0  0  0  0  0  0  0  0  0
    4.8100    0.5510    0.0000 C   0  0  0  0  0  0  0  0  0  0  0  0
    6.3100    0.5510    0.0000 C   0  0  0  0  0  0  0  0  0  0  0  0
    3.9280   -0.6630    0.0000 N   0  0  0  0  0  0  0  0  0  0  0  0
    2.5020   -0.1990    0.0000 C   0  0  0  0  0  0  0  0  0  0  0  0
    2.5020    1.3010    0.0000 C   0  0  0  0  0  0  0  0  0  0  0  0
    1.2030    2.0510    0.0000 C   0  0  0  0  0  0  0  0  0  0  0  0
   -0.0960    1.3010    0.0000 C   0  0  0  0  0  0  0  0  0  0  0  0
   -0.0960   -0.1990    0.0000 C   0  0  0  0  0  0  0  0  0  0  0  0
    1.2030   -0.9490    0.0000 C   0  0  0  0  0  0  0  0  0  0  0  0
  1  2  1  0  0  0  0
  2  3  2  0  0  0  0
  2  7  1  0  0  0  0
  3  4  1  0  0  0  0
  3  5  1  0  0  0  0
  5  6  1  0  0  0  0
  6  7  1  0  0  0  0
  6 11  2  0  0  0  0
  7  8  2  0  0  0  0
  8  9  1  0  0  0  0
  9 10  2  0  0  0  0
 10 11  1  0  0  0  0
M  END
>  <name>
[S;thioether]c1c(C)[nH]c2c1cccc2

>  <apo>
1

>  <freq>
1

>  <freq0>
0

>  <freq1>
1

>  <freqA>
0.99700278

>  <a_count>
20

$$$$

  MOE2015           2D

 13 14  0  0  0  0  0  0  0  0999 V2000
    8.1160    2.1750    0.0000 Cl  0  0  0  0  0  0  0  0  0  0  0  0
    6.8170    1.4250    0.0000 C   0  0  0  0  0  0  0  0  0  0  0  0
    5.5180    2.1750    0.0000 C   0  0  0  0  0  0  0  0  0  0  0  0
    4.2190    1.4250    0.0000 C   0  0  0  0  0  0  0  0  0  0  0  0
    2.7930    1.8880    0.0000 C   0  0  0  0  0  0  0  0  0  0  0  0
    2.3290    3.3150    0.0000 O   0  0  0  0  0  0  0  0  0  0  0  0
    1.9110    0.6750    0.0000 C   0  0  0  0  0  0  0  0  0  0  0  0
    0.4110    0.6750    0.0000 O   0  0  0  0  0  0  0  0  0  0  0  0
    2.7930   -0.5390    0.0000 N   0  0  0  0  0  0  0  0  0  0  0  0
    2.3290   -1.9650    0.0000 C   0  0  0  0  0  0  0  0  0  0  0  0
    4.2190   -0.0750    0.0000 C   0  0  0  0  0  0  0  0  0  0  0  0
    5.5180   -0.8250    0.0000 C   0  0  0  0  0  0  0  0  0  0  0  0
    6.8170   -0.0750    0.0000 C   0  0  0  0  0  0  0  0  0  0  0  0
  1  2  1  0  0  0  0
  2  3  1  0  0  0  0
  2 13  2  0  0  0  0
  3  4  2  0  0  0  0
  4  5  1  0  0  0  0
  4 11  1  0  0  0  0
  5  6  2  0  0  0  0
  5  7  1  0  0  0  0
  7  8  2  0  0  0  0
  7  9  1  0  0  0  0
  9 10  1  0  0  0  0
  9 11  1  0  0  0  0
 11 12  2  0  0  0  0
 12 13  1  0  0  0  0
M  END
>  <name>
Clc1cc2C(=O)C(=O)N([C;amine])c2cc1

>  <apo>
1

>  <freq>
1

>  <freq0>
0

>  <freq1>
1

>  <freqA>
0.99700278

>  <a_count>
19

$$$$

  MOE2015           2D

 10 10  0  0  0  0  0  0  0  0999 V2000
    1.0080    0.9130    0.0000 N   0  0  0  0  0  0  0  0  0  0  0  0
    2.3070    1.6630    0.0000 C   0  0  0  0  0  0  0  0  0  0  0  0
   -0.2910    1.6630    0.0000 C   0  0  0  0  0  0  0  0  0  0  0  0
   -1.5900    0.9130    0.0000 N   0  0  0  0  0  0  0  0  0  0  0  0
   -2.8890    1.6630    0.0000 C   0  0  0  0  0  0  0  0  0  0  0  0
   -4.1880    0.9130    0.0000 N   0  0  0  0  0  0  0  0  0  0  0  0
   -2.8890    3.1630    0.0000 N   0  0  0  0  0  0  0  0  0  0  0  0
   -1.5900    3.9130    0.0000 C   0  0  0  0  0  0  0  0  0  0  0  0
   -1.5900    5.4130    0.0000 C   0  0  0  0  0  0  0  0  0  0  0  0
   -0.2910    3.1630    0.0000 N   0  0  0  0  0  0  0  0  0  0  0  0
  1  2  1  0  0  0  0
  1  3  1  0  0  0  0
  3  4  1  0  0  0  0
  3 10  2  0  0  0  0
  4  5  2  0  0  0  0
  5  6  1  0  0  0  0
  5  7  1  0  0  0  0
  7  8  2  0  0  0  0
  8  9  1  0  0  0  0
  8 10  1  0  0  0  0
M  END
>  <name>
N(C)c1nc([N;amine])nc(C)n1

>  <apo>
1

>  <freq>
1

>  <freq0>
0

>  <freq1>
1

>  <freqA>
0.99700278

>  <a_count>
19

$$$$

  MOE2015           2D

 10 10  0  0  0  0  0  0  0  0999 V2000
    5.6250    3.2480    0.0000 O   0  0  0  0  0  0  0  0  0  0  0  0
    4.8750    1.9490    0.0000 C   0  0  0  0  0  0  0  0  0  0  0  0
    5.6250    0.6500    0.0000 C   0  0  0  0  0  0  0  0  0  0  0  0
    3.3750    1.9490    0.0000 C   0  0  0  0  0  0  0  0  0  0  0  0
    2.6250    0.6500    0.0000 C   0  0  0  0  0  0  0  0  0  0  0  0
    1.1250    0.6500    0.0000 C   0  0  0  0  0  0  0  0  0  0  0  0
    0.3750   -0.6500    0.0000 N   0  0  0  0  0  0  0  0  0  0  0  0
    0.3750    1.9490    0.0000 C   0  0  0  0  0  0  0  0  0  0  0  0
    1.1250    3.2480    0.0000 C   0  0  0  0  0  0  0  0  0  0  0  0
    2.6250    3.2480    0.0000 C   0  0  0  0  0  0  0  0  0  0  0  0
  1  2  2  0  0  0  0
  2  3  1  0  0  0  0
  2  4  1  0  0  0  0
  4  5  1  0  0  0  0
  4 10  2  0  0  0  0
  5  6  2  0  0  0  0
  6  7  1  0  0  0  0
  6  8  1  0  0  0  0
  8  9  2  0  0  0  0
  9 10  1  0  0  0  0
M  END
>  <name>
O=C(C)c1cc([N;amide])ccc1

>  <apo>
1

>  <freq>
1

>  <freq0>
0

>  <freq1>
1

>  <freqA>
0.99700278

>  <a_count>
19

$$$$

  MOE2015           2D

 12 13  0  0  0  0  0  0  0  0999 V2000
    6.7330    1.8040    0.0000 O   0  0  0  0  0  0  0  0  0  0  0  0
    5.4340    1.0540    0.0000 C   0  0  0  0  0  0  0  0  0  0  0  0
    5.4340   -0.4460    0.0000 N   0  0  0  0  0  0  0  0  0  0  0  0
    4.1350    1.8040    0.0000 C   0  0  0  0  0  0  0  0  0  0  0  0
    2.8360    1.0540    0.0000 C   0  0  0  0  0  0  0  0  0  0  0  0
    1.5370    1.8040    0.0000 C   0  0  0  0  0  0  0  0  0  0  0  0
    0.4220    0.8000    0.0000 N   0  0  0  0  0  0  0  0  0  0  0  0
    1.0320   -0.5700    0.0000 C   0  0  0  0  0  0  0  0  0  0  0  0
    2.5240   -0.4130    0.0000 C   0  0  0  0  0  0  0  0  0  0  0  0
    1.5370    3.3040    0.0000 N   0  0  0  0  0  0  0  0  0  0  0  0
    2.8360    4.0540    0.0000 C   0  0  0  0  0  0  0  0  0  0  0  0
    4.1350    3.3040    0.0000 C   0  0  0  0  0  0  0  0  0  0  0  0
  1  2  2  0  0  0  0
  2  3  1  0  0  0  0
  2  4  1  0  0  0  0
  4  5  1  0  0  0  0
  4 12  2  0  0  0  0
  5  6  2  0  0  0  0
  5  9  1  0  0  0  0
  6  7  1  0  0  0  0
  6 10  1  0  0  0  0
  7  8  1  0  0  0  0
  8  9  2  0  0  0  0
 10 11  2  0  0  0  0
 11 12  1  0  0  0  0
M  END
>  <name>
O=C(N)c1c2c([nH;NaroC]cc2)ncc1

>  <apo>
1

>  <freq>
1

>  <freq0>
0

>  <freq1>
1

>  <freqA>
0.99700278

>  <a_count>
19

$$$$

  MOE2015           2D

 11 11  0  0  0  0  0  0  0  0999 V2000
    6.3410    3.6610    0.0000 O   0  0  0  0  0  0  0  0  0  0  0  0
    5.5910    2.3620    0.0000 C   0  0  0  0  0  0  0  0  0  0  0  0
    4.0910    2.3620    0.0000 N   0  0  0  0  0  0  0  0  0  0  0  0
    3.3410    1.0630    0.0000 N   0  0  0  0  0  0  0  0  0  0  0  0
    1.8410    1.0630    0.0000 C   0  0  0  0  0  0  0  0  0  0  0  0
    1.0910    2.3620    0.0000 C   0  0  0  0  0  0  0  0  0  0  0  0
    1.7010    3.7320    0.0000 O   0  0  0  0  0  0  0  0  0  0  0  0
    0.5860    4.7360    0.0000 C   0  0  0  0  0  0  0  0  0  0  0  0
   -0.7130    3.9860    0.0000 C   0  0  0  0  0  0  0  0  0  0  0  0
   -0.4010    2.5190    0.0000 C   0  0  0  0  0  0  0  0  0  0  0  0
    6.3410    1.0630    0.0000 C   0  0  0  0  0  0  0  0  0  0  0  0
  1  2  2  0  0  0  0
  2  3  1  0  0  0  0
  2 11  1  0  0  0  0
  3  4  1  0  0  0  0
  4  5  2  0  0  0  0
  5  6  1  0  0  0  0
  6  7  1  0  0  0  0
  6 10  2  0  0  0  0
  7  8  1  0  0  0  0
  8  9  2  0  0  0  0
  9 10  1  0  0  0  0
M  END
>  <name>
O=C(N/N=C\c1o[c;biphenyl]cc1)[C;NaroC]

>  <apo>
2

>  <freq>
1

>  <freq0>
0

>  <freq1>
1

>  <freqA>
0.99700278

>  <a_count>
19

$$$$

  MOE2015           2D

 12 13  0  0  0  0  0  0  0  0999 V2000
    0.0000    0.0000    0.0000 O   0  0  0  0  0  0  0  0  0  0  0  0
    1.5000    0.0000    0.0000 C   0  0  0  0  0  0  0  0  0  0  0  0
    2.3820   -1.2140    0.0000 N   0  0  0  0  0  0  0  0  0  0  0  0
    1.9180   -2.6400    0.0000 C   0  0  0  0  0  0  0  0  0  0  0  0
    3.8080   -0.7500    0.0000 C   0  0  0  0  0  0  0  0  0  0  0  0
    3.8080    0.7500    0.0000 C   0  0  0  0  0  0  0  0  0  0  0  0
    2.3820    1.2140    0.0000 C   0  0  0  0  0  0  0  0  0  0  0  0
    1.9180    2.6400    0.0000 O   0  0  0  0  0  0  0  0  0  0  0  0
    5.1070    1.5000    0.0000 C   0  0  0  0  0  0  0  0  0  0  0  0
    6.4060    0.7500    0.0000 C   0  0  0  0  0  0  0  0  0  0  0  0
    6.4060   -0.7500    0.0000 C   0  0  0  0  0  0  0  0  0  0  0  0
    5.1070   -1.5000    0.0000 C   0  0  0  0  0  0  0  0  0  0  0  0
  1  2  2  0  0  0  0
  2  3  1  0  0  0  0
  2  7  1  0  0  0  0
  3  4  1  0  0  0  0
  3  5  1  0  0  0  0
  5  6  1  0  0  0  0
  5 12  2  0  0  0  0
  6  7  1  0  0  0  0
  6  9  2  0  0  0  0
  7  8  2  0  0  0  0
  9 10  1  0  0  0  0
 10 11  2  0  0  0  0
 11 12  1  0  0  0  0
M  END
>  <name>
O=C1N([C;amine])c2c(C1=O)cccc2

>  <apo>
1

>  <freq>
1

>  <freq0>
0

>  <freq1>
1

>  <freqA>
0.99700278

>  <a_count>
19

$$$$

  MOE2015           2D

 12 12  0  0  0  0  0  0  0  0999 V2000
    1.2910    1.5330    0.0000 O   0  0  0  0  0  0  0  0  0  0  0  0
    2.5830    0.7700    0.0000 C   0  0  0  0  0  0  0  0  0  0  0  0
    2.5680   -0.7300    0.0000 C   0  0  0  0  0  0  0  0  0  0  0  0
    1.2610   -1.4670    0.0000 N   0  0  0  0  0  0  0  0  0  0  0  0
    1.2470   -2.9670    0.0000 O   0  0  0  0  0  0  0  0  0  0  0  0
   -0.0600   -3.7040    0.0000 C   0  0  0  0  0  0  0  0  0  0  0  0
    3.8590   -1.4930    0.0000 C   0  0  0  0  0  0  0  0  0  0  0  0
    5.2360   -0.8960    0.0000 N   0  0  0  0  0  0  0  0  0  0  0  0
    6.2280   -2.0210    0.0000 C   0  0  0  0  0  0  0  0  0  0  0  0
    7.7220   -1.8790    0.0000 N   0  0  0  0  0  0  0  0  0  0  0  0
    5.4650   -3.3130    0.0000 S   0  0  0  0  0  0  0  0  0  0  0  0
    4.0010   -2.9860    0.0000 C   0  0  0  0  0  0  0  0  0  0  0  0
  1  2  2  0  0  0  0
  2  3  1  0  0  0  0
  3  4  2  0  0  0  0
  3  7  1  0  0  0  0
  4  5  1  0  0  0  0
  5  6  1  0  0  0  0
  7  8  1  0  0  0  0
  7 12  2  0  0  0  0
  8  9  2  0  0  0  0
  9 10  1  0  0  0  0
  9 11  1  0  0  0  0
 11 12  1  0  0  0  0
M  END
>  <name>
O=[C;amide]/C(=N/OC)/c1nc(N)sc1

>  <apo>
1

>  <freq>
1

>  <freq0>
0

>  <freq1>
1

>  <freqA>
0.99700278

>  <a_count>
19

$$$$

  MOE2015           2D

 12 13  0  0  0  0  0  0  0  0999 V2000
    8.1840    2.1930    0.0000 O   0  0  0  0  0  0  0  0  0  0  0  0
    6.8850    1.4430    0.0000 C   0  0  0  0  0  0  0  0  0  0  0  0
    5.5860    2.1930    0.0000 C   0  0  0  0  0  0  0  0  0  0  0  0
    4.2870    1.4430    0.0000 C   0  0  0  0  0  0  0  0  0  0  0  0
    2.9880    2.1930    0.0000 N   0  0  0  0  0  0  0  0  0  0  0  0
    1.5610    1.7290    0.0000 N   0  0  0  0  0  0  0  0  0  0  0  0
    0.6790    2.9430    0.0000 C   0  0  0  0  0  0  0  0  0  0  0  0
   -0.8210    2.9430    0.0000 C   0  0  0  0  0  0  0  0  0  0  0  0
    1.5610    4.1560    0.0000 C   0  0  0  0  0  0  0  0  0  0  0  0
    2.9880    3.6930    0.0000 C   0  0  0  0  0  0  0  0  0  0  0  0
    4.2870    4.4430    0.0000 N   0  0  0  0  0  0  0  0  0  0  0  0
    5.5860    3.6930    0.0000 C   0  0  0  0  0  0  0  0  0  0  0  0
  1  2  2  0  0  0  0
  2  3  1  0  0  0  0
  3  4  2  0  0  0  0
  3 12  1  0  0  0  0
  4  5  1  0  0  0  0
  5  6  1  0  0  0  0
  5 10  1  0  0  0  0
  6  7  2  0  0  0  0
  7  8  1  0  0  0  0
  7  9  1  0  0  0  0
  9 10  2  0  0  0  0
 10 11  1  0  0  0  0
 11 12  2  0  0  0  0
M  END
>  <name>
O=[C;amide]C1=Cn2nc(C)cc2N=C1

>  <apo>
1

>  <freq>
1

>  <freq0>
0

>  <freq1>
1

>  <freqA>
0.99700278

>  <a_count>
19

$$$$

  MOE2015           2D

  8  8  0  0  0  0  0  0  0  0999 V2000
    5.3440   -0.8120    0.0000 O   0  0  0  0  0  0  0  0  0  0  0  0
    4.5940   -2.1110    0.0000 C   0  0  0  0  0  0  0  0  0  0  0  0
    3.0940   -2.1110    0.0000 C   0  0  0  0  0  0  0  0  0  0  0  0
    2.3440   -3.4100    0.0000 C   0  0  0  0  0  0  0  0  0  0  0  0
    0.8440   -3.4100    0.0000 C   0  0  0  0  0  0  0  0  0  0  0  0
    0.0940   -2.1110    0.0000 N   0  0  0  0  0  0  0  0  0  0  0  0
    0.8440   -0.8120    0.0000 C   0  0  0  0  0  0  0  0  0  0  0  0
    2.3440   -0.8120    0.0000 C   0  0  0  0  0  0  0  0  0  0  0  0
  1  2  2  0  0  0  0
  2  3  1  0  0  0  0
  3  4  1  0  0  0  0
  3  8  1  0  0  0  0
  4  5  1  0  0  0  0
  5  6  1  0  0  0  0
  6  7  1  0  0  0  0
  7  8  1  0  0  0  0
M  END
>  <name>
O=[C;amide]C1CC[N;so2amide]CC1

>  <apo>
2

>  <freq>
1

>  <freq0>
0

>  <freq1>
1

>  <freqA>
0.99700278

>  <a_count>
19

$$$$

  MOE2015           2D

  8  8  0  0  1  0  0  0  0  0999 V2000
    5.3440   -0.8120    0.0000 O   0  0  0  0  0  0  0  0  0  0  0  0
    4.5940   -2.1110    0.0000 C   0  0  0  0  0  0  0  0  0  0  0  0
    3.0940   -2.1110    0.0000 C   0  0  3  0  0  0  0  0  0  0  0  0
    2.3440   -3.4100    0.0000 C   0  0  0  0  0  0  0  0  0  0  0  0
    0.8440   -3.4100    0.0000 N   0  0  0  0  0  0  0  0  0  0  0  0
    0.0940   -2.1110    0.0000 C   0  0  0  0  0  0  0  0  0  0  0  0
    0.8440   -0.8120    0.0000 C   0  0  0  0  0  0  0  0  0  0  0  0
    2.3440   -0.8120    0.0000 C   0  0  0  0  0  0  0  0  0  0  0  0
  1  2  2  0  0  0  0
  2  3  1  0  0  0  0
  3  4  1  0  0  0  0
  3  8  1  0  0  0  0
  4  5  1  0  0  0  0
  5  6  1  0  0  0  0
  6  7  1  0  0  0  0
  7  8  1  0  0  0  0
M  END
>  <name>
O=[C;amide]C1C[N;amide]CCC1

>  <apo>
2

>  <freq>
1

>  <freq0>
0

>  <freq1>
1

>  <freqA>
0.99700278

>  <a_count>
19

$$$$

  MOE2015           2D

  7  6  0  0  0  0  0  0  0  0999 V2000
   -0.3610    1.3490    0.0000 O   0  0  0  0  0  0  0  0  0  0  0  0
    0.9380    2.0990    0.0000 C   0  0  0  0  0  0  0  0  0  0  0  0
    2.2370    1.3490    0.0000 C   0  0  0  0  0  0  0  0  0  0  0  0
    3.5360    2.0990    0.0000 C   0  0  0  0  0  0  0  0  0  0  0  0
    4.8350    1.3490    0.0000 C   0  0  0  0  0  0  0  0  0  0  0  0
    6.1340    2.0990    0.0000 C   0  0  0  0  0  0  0  0  0  0  0  0
    7.4330    1.3490    0.0000 N   0  3  0  0  0  0  0  0  0  0  0  0
  1  2  2  0  0  0  0
  2  3  1  0  0  0  0
  3  4  1  0  0  0  0
  4  5  1  0  0  0  0
  5  6  1  0  0  0  0
  6  7  1  0  0  0  0
M  CHG  1   7   1
M  END
>  <name>
O=[C;amide]CCCC[N+]

>  <apo>
1

>  <freq>
1

>  <freq0>
0

>  <freq1>
1

>  <freqA>
0.99700278

>  <a_count>
19

$$$$

  MOE2015           2D

 10 10  0  0  1  0  0  0  0  0999 V2000
    7.6590   -2.6900    0.0000 O   0  0  0  0  0  0  0  0  0  0  0  0
    6.3600   -3.4400    0.0000 C   0  0  0  0  0  0  0  0  0  0  0  0
    5.0610   -2.6900    0.0000 C   0  0  1  0  0  0  0  0  0  0  0  0
    5.0610   -1.1900    0.0000 N   0  0  0  0  0  0  0  0  0  0  0  0
    3.7620   -3.4400    0.0000 C   0  0  0  0  0  0  0  0  0  0  0  0
    2.4630   -2.6900    0.0000 C   0  0  0  0  0  0  0  0  0  0  0  0
    1.0920   -3.3000    0.0000 N   0  0  0  0  0  0  0  0  0  0  0  0
    0.0890   -2.1860    0.0000 C   0  0  0  0  0  0  0  0  0  0  0  0
    0.8390   -0.8870    0.0000 C   0  0  0  0  0  0  0  0  0  0  0  0
    2.3060   -1.1980    0.0000 N   0  0  0  0  0  0  0  0  0  0  0  0
  1  2  2  0  0  0  0
  2  3  1  0  0  0  0
  3  4  1  6  0  0  0
  3  5  1  0  0  0  0
  5  6  1  0  0  0  0
  6  7  1  0  0  0  0
  6 10  2  0  0  0  0
  7  8  1  0  0  0  0
  8  9  2  0  0  0  0
  9 10  1  0  0  0  0
M  END
>  <name>
O=[C;amide][C@@H]([N;amide])Cc1[nH]ccn1

>  <apo>
2

>  <freq>
1

>  <freq0>
0

>  <freq1>
1

>  <freqA>
0.99700278

>  <a_count>
19

$$$$

  MOE2015           2D

 10 10  0  0  1  0  0  0  0  0999 V2000
    7.6590   -2.6900    0.0000 O   0  0  0  0  0  0  0  0  0  0  0  0
    6.3600   -3.4400    0.0000 C   0  0  0  0  0  0  0  0  0  0  0  0
    5.0610   -2.6900    0.0000 C   0  0  1  0  0  0  0  0  0  0  0  0
    5.0610   -1.1900    0.0000 N   0  0  0  0  0  0  0  0  0  0  0  0
    3.7620   -3.4400    0.0000 C   0  0  0  0  0  0  0  0  0  0  0  0
    2.4630   -2.6900    0.0000 C   0  0  0  0  0  0  0  0  0  0  0  0
    1.0920   -3.3000    0.0000 N   0  0  0  0  0  0  0  0  0  0  0  0
    0.0890   -2.1860    0.0000 C   0  0  0  0  0  0  0  0  0  0  0  0
    0.8390   -0.8870    0.0000 N   0  0  0  0  0  0  0  0  0  0  0  0
    2.3060   -1.1980    0.0000 C   0  0  0  0  0  0  0  0  0  0  0  0
  1  2  2  0  0  0  0
  2  3  1  0  0  0  0
  3  4  1  6  0  0  0
  3  5  1  0  0  0  0
  5  6  1  0  0  0  0
  6  7  1  0  0  0  0
  6 10  2  0  0  0  0
  7  8  1  0  0  0  0
  8  9  2  0  0  0  0
  9 10  1  0  0  0  0
M  END
>  <name>
O=[C;amide][C@@H]([N;amide])[C;ether]c1[nH]cnc1

>  <apo>
3

>  <freq>
1

>  <freq0>
0

>  <freq1>
1

>  <freqA>
0.99700278

>  <a_count>
19

$$$$

  MOE2015           2D

  8  8  0  0  1  0  0  0  0  0999 V2000
    6.5040   -2.0670    0.0000 O   0  0  0  0  0  0  0  0  0  0  0  0
    5.2050   -2.8170    0.0000 C   0  0  0  0  0  0  0  0  0  0  0  0
    3.9060   -2.0670    0.0000 C   0  0  1  0  0  0  0  0  0  0  0  0
    3.9060   -0.5670    0.0000 N   0  0  0  0  0  0  0  0  0  0  0  0
    2.6070   -2.8170    0.0000 C   0  0  0  0  0  0  0  0  0  0  0  0
    1.3080   -2.0670    0.0000 C   0  0  0  0  0  0  0  0  0  0  0  0
    0.5580   -0.7680    0.0000 C   0  0  0  0  0  0  0  0  0  0  0  0
   -0.1920   -2.0670    0.0000 C   0  0  0  0  0  0  0  0  0  0  0  0
  1  2  2  0  0  0  0
  2  3  1  0  0  0  0
  3  4  1  6  0  0  0
  3  5  1  0  0  0  0
  5  6  1  0  0  0  0
  6  7  1  0  0  0  0
  6  8  1  0  0  0  0
  7  8  1  0  0  0  0
M  END
>  <name>
O=[C;amide][C@@H]([N;urea])CC1CC1

>  <apo>
2

>  <freq>
1

>  <freq0>
0

>  <freq1>
1

>  <freqA>
0.99700278

>  <a_count>
19

$$$$

  MOE2015           2D

  8  8  0  0  1  0  0  0  0  0999 V2000
    5.5980   -1.5700    0.0000 O   0  0  0  0  0  0  0  0  0  0  0  0
    4.3170   -0.7900    0.0000 C   0  0  0  0  0  0  0  0  0  0  0  0
    3.0000   -1.5100    0.0000 C   0  0  1  0  0  0  0  0  0  0  0  0
    1.6450   -0.8680    0.0000 C   0  0  2  0  0  0  0  0  0  0  0  0
    1.3670    0.6060    0.0000 N   0  0  0  0  0  0  0  0  0  0  0  0
    0.6150   -1.9590    0.0000 C   0  0  0  0  0  0  0  0  0  0  0  0
    1.3350   -3.2750    0.0000 C   0  0  0  0  0  0  0  0  0  0  0  0
    2.8090   -2.9970    0.0000 C   0  0  0  0  0  0  0  0  0  0  0  0
  1  2  2  0  0  0  0
  3  2  1  6  0  0  0
  3  4  1  0  0  0  0
  3  8  1  0  0  0  0
  4  5  1  1  0  0  0
  4  6  1  0  0  0  0
  6  7  1  0  0  0  0
  7  8  1  0  0  0  0
M  END
>  <name>
O=[C;amide][C@H]1[C@H]([N;amide])CCC1

>  <apo>
2

>  <freq>
1

>  <freq0>
0

>  <freq1>
1

>  <freqA>
0.99700278

>  <a_count>
19

$$$$

  MOE2015           2D

 12 13  0  0  0  0  0  0  0  0999 V2000
    7.7470   -1.8410    0.0000 O   0  0  0  0  0  0  0  0  0  0  0  0
    6.9970   -3.1400    0.0000 C   0  0  0  0  0  0  0  0  0  0  0  0
    5.4970   -3.1400    0.0000 C   0  0  0  0  0  0  0  0  0  0  0  0
    4.6160   -1.9270    0.0000 N   0  0  0  0  0  0  0  0  0  0  0  0
    3.1890   -2.3900    0.0000 C   0  0  0  0  0  0  0  0  0  0  0  0
    3.1890   -3.8900    0.0000 C   0  0  0  0  0  0  0  0  0  0  0  0
    4.6160   -4.3540    0.0000 C   0  0  0  0  0  0  0  0  0  0  0  0
    1.8900   -4.6400    0.0000 C   0  0  0  0  0  0  0  0  0  0  0  0
    0.5910   -3.8900    0.0000 C   0  0  0  0  0  0  0  0  0  0  0  0
   -0.7080   -4.6400    0.0000 O   0  0  0  0  0  0  0  0  0  0  0  0
    0.5910   -2.3900    0.0000 C   0  0  0  0  0  0  0  0  0  0  0  0
    1.8900   -1.6400    0.0000 C   0  0  0  0  0  0  0  0  0  0  0  0
  1  2  2  0  0  0  0
  2  3  1  0  0  0  0
  3  4  1  0  0  0  0
  3  7  2  0  0  0  0
  4  5  1  0  0  0  0
  5  6  1  0  0  0  0
  5 12  2  0  0  0  0
  6  7  1  0  0  0  0
  6  8  2  0  0  0  0
  8  9  1  0  0  0  0
  9 10  1  0  0  0  0
  9 11  2  0  0  0  0
 11 12  1  0  0  0  0
M  END
>  <name>
O=[C;amide]c1[nH;NaroC]c2c(c1)cc([O;ether])cc2

>  <apo>
3

>  <freq>
1

>  <freq0>
0

>  <freq1>
1

>  <freqA>
0.99700278

>  <a_count>
19

$$$$

  MOE2015           2D

 10 10  0  0  0  0  0  0  0  0999 V2000
    0.4720   -0.4720    0.0000 O   0  0  0  0  0  0  0  0  0  0  0  0
    0.4720    1.0280    0.0000 C   0  0  0  0  0  0  0  0  0  0  0  0
    1.7710    1.7780    0.0000 C   0  0  0  0  0  0  0  0  0  0  0  0
    1.7710    3.2780    0.0000 C   0  0  0  0  0  0  0  0  0  0  0  0
    0.4720    4.0280    0.0000 C   0  0  0  0  0  0  0  0  0  0  0  0
    3.0700    4.0280    0.0000 C   0  0  0  0  0  0  0  0  0  0  0  0
    4.3690    3.2780    0.0000 C   0  0  0  0  0  0  0  0  0  0  0  0
    4.3690    1.7780    0.0000 C   0  0  0  0  0  0  0  0  0  0  0  0
    5.6680    1.0280    0.0000 N   0  0  0  0  0  0  0  0  0  0  0  0
    3.0700    1.0280    0.0000 C   0  0  0  0  0  0  0  0  0  0  0  0
  1  2  2  0  0  0  0
  2  3  1  0  0  0  0
  3  4  1  0  0  0  0
  3 10  2  0  0  0  0
  4  5  1  0  0  0  0
  4  6  2  0  0  0  0
  6  7  1  0  0  0  0
  7  8  2  0  0  0  0
  8  9  1  0  0  0  0
  8 10  1  0  0  0  0
M  END
>  <name>
O=[C;amide]c1c(C)ccc(N)c1

>  <apo>
1

>  <freq>
1

>  <freq0>
0

>  <freq1>
1

>  <freqA>
0.99700278

>  <a_count>
19

$$$$

  MOE2015           2D

 12 13  0  0  0  0  0  0  0  0999 V2000
    8.0010    2.1440    0.0000 O   0  0  0  0  0  0  0  0  0  0  0  0
    6.7020    1.3940    0.0000 C   0  0  0  0  0  0  0  0  0  0  0  0
    5.4030    2.1440    0.0000 C   0  0  0  0  0  0  0  0  0  0  0  0
    4.1040    1.3940    0.0000 N   0  0  0  0  0  0  0  0  0  0  0  0
    2.8050    2.1440    0.0000 C   0  0  0  0  0  0  0  0  0  0  0  0
    2.8050    3.6440    0.0000 C   0  0  0  0  0  0  0  0  0  0  0  0
    4.1040    4.3940    0.0000 C   0  0  0  0  0  0  0  0  0  0  0  0
    5.4030    3.6440    0.0000 C   0  0  0  0  0  0  0  0  0  0  0  0
    1.5060    4.3940    0.0000 C   0  0  0  0  0  0  0  0  0  0  0  0
    0.2070    3.6440    0.0000 C   0  0  0  0  0  0  0  0  0  0  0  0
    0.2070    2.1440    0.0000 C   0  0  0  0  0  0  0  0  0  0  0  0
    1.5060    1.3940    0.0000 C   0  0  0  0  0  0  0  0  0  0  0  0
  1  2  2  0  0  0  0
  2  3  1  0  0  0  0
  3  4  1  0  0  0  0
  3  8  2  0  0  0  0
  4  5  2  0  0  0  0
  5  6  1  0  0  0  0
  5 12  1  0  0  0  0
  6  7  2  0  0  0  0
  6  9  1  0  0  0  0
  7  8  1  0  0  0  0
  9 10  2  0  0  0  0
 10 11  1  0  0  0  0
 11 12  2  0  0  0  0
M  END
>  <name>
O=[C;amide]c1nc2c(cc1)cccc2

>  <apo>
1

>  <freq>
1

>  <freq0>
0

>  <freq1>
1

>  <freqA>
0.99700278

>  <a_count>
19

$$$$

  MOE2015           2D

  7  6  0  0  1  0  0  0  0  0999 V2000
    5.3550   -0.7920    0.0000 O   0  0  0  0  0  0  0  0  0  0  0  0
    4.0560   -1.5420    0.0000 C   0  0  0  0  0  0  0  0  0  0  0  0
    2.7570   -0.7920    0.0000 C   0  0  3  0  0  0  0  0  0  0  0  0
    2.7570    0.7080    0.0000 N   0  3  0  0  0  0  0  0  0  0  0  0
    1.4580   -1.5420    0.0000 C   0  0  0  0  0  0  0  0  0  0  0  0
    1.4580   -3.0420    0.0000 C   0  0  0  0  0  0  0  0  0  0  0  0
    0.1590   -0.7920    0.0000 C   0  0  0  0  0  0  0  0  0  0  0  0
  1  2  2  0  0  0  0
  2  3  1  0  0  0  0
  3  4  1  0  0  0  0
  3  5  1  0  0  0  0
  5  6  1  0  0  0  0
  5  7  1  0  0  0  0
M  CHG  1   4   1
M  END
>  <name>
O=[C;ester]C([N+])C(C)C

>  <apo>
1

>  <freq>
1

>  <freq0>
0

>  <freq1>
1

>  <freqA>
0.99700278

>  <a_count>
19

$$$$

  MOE2015           2D

  8  8  0  0  1  0  0  0  0  0999 V2000
    5.3440   -0.8120    0.0000 O   0  0  0  0  0  0  0  0  0  0  0  0
    4.5940   -2.1110    0.0000 C   0  0  0  0  0  0  0  0  0  0  0  0
    3.0940   -2.1110    0.0000 C   0  0  1  0  0  0  0  0  0  0  0  0
    2.3440   -3.4100    0.0000 N   0  0  0  0  0  0  0  0  0  0  0  0
    0.8440   -3.4100    0.0000 C   0  0  0  0  0  0  0  0  0  0  0  0
    0.0940   -2.1110    0.0000 C   0  0  0  0  0  0  0  0  0  0  0  0
    0.8440   -0.8120    0.0000 C   0  0  0  0  0  0  0  0  0  0  0  0
    2.3440   -0.8120    0.0000 C   0  0  0  0  0  0  0  0  0  0  0  0
  1  2  2  0  0  0  0
  3  2  1  1  0  0  0
  3  4  1  0  0  0  0
  3  8  1  0  0  0  0
  4  5  1  0  0  0  0
  5  6  1  0  0  0  0
  6  7  1  0  0  0  0
  7  8  1  0  0  0  0
M  END
>  <name>
O=[C;ester][C@H]1[N;amide]CCCC1

>  <apo>
2

>  <freq>
1

>  <freq0>
0

>  <freq1>
1

>  <freqA>
0.99700278

>  <a_count>
19

$$$$

  MOE2015           2D

  9  9  0  0  1  0  0  0  0  0999 V2000
    6.2940   -1.6200    0.0000 O   0  0  0  0  0  0  0  0  0  0  0  0
    4.9810   -0.8960    0.0000 C   0  0  0  0  0  0  0  0  0  0  0  0
    3.6970   -1.6710    0.0000 C   0  0  3  0  0  0  0  0  0  0  0  0
    2.3150   -1.0890    0.0000 C   0  0  3  0  0  0  0  0  0  0  0  0
    1.9740    0.3720    0.0000 O   0  0  0  0  0  0  0  0  0  0  0  0
    1.3330   -2.2230    0.0000 C   0  0  3  0  0  0  0  0  0  0  0  0
   -0.1610   -2.0960    0.0000 O   0  0  0  0  0  0  0  0  0  0  0  0
    2.1090   -3.5070    0.0000 C   0  0  0  0  0  0  0  0  0  0  0  0
    3.5690   -3.1660    0.0000 O   0  0  0  0  0  0  0  0  0  0  0  0
  1  2  1  0  0  0  0
  2  3  1  0  0  0  0
  3  4  1  0  0  0  0
  3  9  1  0  0  0  0
  4  5  1  0  0  0  0
  4  6  1  0  0  0  0
  6  7  1  0  0  0  0
  6  8  1  0  0  0  0
  8  9  1  0  0  0  0
M  END
>  <name>
OCC1C(O)C(O)[C;NaroC]O1

>  <apo>
1

>  <freq>
1

>  <freq0>
0

>  <freq1>
1

>  <freqA>
0.99700278

>  <a_count>
19

$$$$

  MOE2015           2D

  9  9  0  0  1  0  0  0  0  0999 V2000
    6.2940   -1.6200    0.0000 O   0  0  0  0  0  0  0  0  0  0  0  0
    4.9810   -0.8960    0.0000 C   0  0  0  0  0  0  0  0  0  0  0  0
    3.6970   -1.6710    0.0000 C   0  0  2  0  0  0  0  0  0  0  0  0
    2.3150   -1.0890    0.0000 C   0  0  1  0  0  0  0  0  0  0  0  0
    1.9740    0.3720    0.0000 O   0  0  0  0  0  0  0  0  0  0  0  0
    1.3330   -2.2230    0.0000 C   0  0  2  0  0  0  0  0  0  0  0  0
   -0.1610   -2.0960    0.0000 O   0  0  0  0  0  0  0  0  0  0  0  0
    2.1090   -3.5070    0.0000 C   0  0  0  0  0  0  0  0  0  0  0  0
    3.5690   -3.1660    0.0000 O   0  0  0  0  0  0  0  0  0  0  0  0
  1  2  1  0  0  0  0
  3  2  1  1  0  0  0
  3  4  1  0  0  0  0
  3  9  1  0  0  0  0
  4  5  1  6  0  0  0
  4  6  1  0  0  0  0
  6  7  1  1  0  0  0
  6  8  1  0  0  0  0
  8  9  1  0  0  0  0
M  END
>  <name>
OC[C@@H]1[C@@H](O)[C@H](O)[C;NaroC]O1

>  <apo>
1

>  <freq>
1

>  <freq0>
0

>  <freq1>
1

>  <freqA>
0.99700278

>  <a_count>
19

$$$$

  MOE2015           2D

  9  9  0  0  0  0  0  0  0  0999 V2000
    1.4170    2.4540    0.0000 N   0  0  0  0  0  0  0  0  0  0  0  0
    2.1670    1.1550    0.0000 C   0  0  0  0  0  0  0  0  0  0  0  0
   -0.0830    2.4540    0.0000 C   0  0  0  0  0  0  0  0  0  0  0  0
   -0.8330    3.7530    0.0000 C   0  0  0  0  0  0  0  0  0  0  0  0
   -2.3330    3.7530    0.0000 C   0  0  0  0  0  0  0  0  0  0  0  0
   -3.0830    2.4540    0.0000 C   0  0  0  0  0  0  0  0  0  0  0  0
   -4.5830    2.4540    0.0000 N   0  0  0  0  0  0  0  0  0  0  0  0
   -2.3330    1.1550    0.0000 C   0  0  0  0  0  0  0  0  0  0  0  0
   -0.8330    1.1550    0.0000 C   0  0  0  0  0  0  0  0  0  0  0  0
  1  2  1  0  0  0  0
  1  3  1  0  0  0  0
  3  4  1  0  0  0  0
  3  9  2  0  0  0  0
  4  5  2  0  0  0  0
  5  6  1  0  0  0  0
  6  7  1  0  0  0  0
  6  8  2  0  0  0  0
  8  9  1  0  0  0  0
M  END
>  <name>
[N;amide](C)c1ccc([N;amide])cc1

>  <apo>
2

>  <freq>
1

>  <freq0>
0

>  <freq1>
1

>  <freqA>
0.99700278

>  <a_count>
19

$$$$

  MOE2015           2D

 11 12  0  0  0  0  0  0  0  0999 V2000
    0.0000    0.0000    0.0000 N   0  0  0  0  0  0  0  0  0  0  0  0
    1.5000    0.0000    0.0000 C   0  0  0  0  0  0  0  0  0  0  0  0
   -0.7500    1.2990    0.0000 C   0  0  0  0  0  0  0  0  0  0  0  0
    0.0000    2.5980    0.0000 N   0  0  0  0  0  0  0  0  0  0  0  0
   -0.7500    3.8970    0.0000 C   0  0  0  0  0  0  0  0  0  0  0  0
   -2.2500    3.8970    0.0000 N   0  0  0  0  0  0  0  0  0  0  0  0
   -3.0000    2.5980    0.0000 C   0  0  0  0  0  0  0  0  0  0  0  0
   -4.4670    2.2860    0.0000 N   0  0  0  0  0  0  0  0  0  0  0  0
   -4.6240    0.7940    0.0000 C   0  0  0  0  0  0  0  0  0  0  0  0
   -3.2540    0.1840    0.0000 C   0  0  0  0  0  0  0  0  0  0  0  0
   -2.2500    1.2990    0.0000 C   0  0  0  0  0  0  0  0  0  0  0  0
  1  2  1  0  0  0  0
  1  3  1  0  0  0  0
  3  4  1  0  0  0  0
  3 11  2  0  0  0  0
  4  5  2  0  0  0  0
  5  6  1  0  0  0  0
  6  7  2  0  0  0  0
  7  8  1  0  0  0  0
  7 11  1  0  0  0  0
  8  9  1  0  0  0  0
  9 10  2  0  0  0  0
 10 11  1  0  0  0  0
M  END
>  <name>
[N;amine](C)c1ncnc2[nH]ccc12

>  <apo>
1

>  <freq>
1

>  <freq0>
0

>  <freq1>
1

>  <freqA>
0.99700278

>  <a_count>
19

$$$$

  MOE2015           2D

  7  7  0  0  0  0  0  0  0  0999 V2000
    5.1430    0.0000    0.0000 N   0  0  0  0  0  0  0  0  0  0  0  0
    3.6430    0.0000    0.0000 C   0  0  0  0  0  0  0  0  0  0  0  0
    2.8930    1.2990    0.0000 C   0  0  0  0  0  0  0  0  0  0  0  0
    1.3930    1.2990    0.0000 C   0  0  0  0  0  0  0  0  0  0  0  0
    0.6430    0.0000    0.0000 N   0  0  0  0  0  0  0  0  0  0  0  0
    1.3930   -1.2990    0.0000 C   0  0  0  0  0  0  0  0  0  0  0  0
    2.8930   -1.2990    0.0000 C   0  0  0  0  0  0  0  0  0  0  0  0
  1  2  1  0  0  0  0
  2  3  1  0  0  0  0
  2  7  1  0  0  0  0
  3  4  1  0  0  0  0
  4  5  1  0  0  0  0
  5  6  1  0  0  0  0
  6  7  1  0  0  0  0
M  END
>  <name>
[N;urea]C1CC[N;amide]CC1

>  <apo>
2

>  <freq>
1

>  <freq0>
0

>  <freq1>
1

>  <freqA>
0.99700278

>  <a_count>
19

$$$$

  MOE2015           2D

 11 12  0  0  0  0  0  0  0  0999 V2000
    8.1110    0.0000    0.0000 O   0  0  0  0  0  0  0  0  0  0  0  0
    6.6110    0.0000    0.0000 C   0  0  0  0  0  0  0  0  0  0  0  0
    5.7300   -1.2140    0.0000 N   0  0  0  0  0  0  0  0  0  0  0  0
    4.3030   -0.7500    0.0000 C   0  0  0  0  0  0  0  0  0  0  0  0
    4.3030    0.7500    0.0000 C   0  0  0  0  0  0  0  0  0  0  0  0
    5.7300    1.2140    0.0000 N   0  0  0  0  0  0  0  0  0  0  0  0
    3.0040    1.5000    0.0000 C   0  0  0  0  0  0  0  0  0  0  0  0
    1.7050    0.7500    0.0000 C   0  0  0  0  0  0  0  0  0  0  0  0
    1.7050   -0.7500    0.0000 C   0  0  0  0  0  0  0  0  0  0  0  0
    0.4060   -1.5000    0.0000 C   0  0  0  0  0  0  0  0  0  0  0  0
    3.0040   -1.5000    0.0000 C   0  0  0  0  0  0  0  0  0  0  0  0
  1  2  1  0  0  0  0
  2  3  1  0  0  0  0
  2  6  2  0  0  0  0
  3  4  1  0  0  0  0
  4  5  1  0  0  0  0
  4 11  2  0  0  0  0
  5  6  1  0  0  0  0
  5  7  2  0  0  0  0
  7  8  1  0  0  0  0
  8  9  2  0  0  0  0
  9 10  1  0  0  0  0
  9 11  1  0  0  0  0
M  END
>  <name>
[O;ether]c1[nH]c2c(n1)ccc(C)c2

>  <apo>
1

>  <freq>
1

>  <freq0>
0

>  <freq1>
1

>  <freqA>
0.99700278

>  <a_count>
19

$$$$

  MOE2015           2D

  9  9  0  0  0  0  0  0  0  0999 V2000
    2.3330   -2.3330    0.0000 O   0  0  0  0  0  0  0  0  0  0  0  0
    2.3330   -0.8330    0.0000 C   0  0  0  0  0  0  0  0  0  0  0  0
    3.6320   -0.0830    0.0000 C   0  0  0  0  0  0  0  0  0  0  0  0
    4.9310   -0.8330    0.0000 C   0  0  0  0  0  0  0  0  0  0  0  0
    3.6320    1.4170    0.0000 C   0  0  0  0  0  0  0  0  0  0  0  0
    2.3330    2.1670    0.0000 C   0  0  0  0  0  0  0  0  0  0  0  0
    1.0340    1.4170    0.0000 C   0  0  0  0  0  0  0  0  0  0  0  0
    1.0340   -0.0830    0.0000 C   0  0  0  0  0  0  0  0  0  0  0  0
   -0.2650   -0.8330    0.0000 C   0  0  0  0  0  0  0  0  0  0  0  0
  1  2  1  0  0  0  0
  2  3  1  0  0  0  0
  2  8  2  0  0  0  0
  3  4  1  0  0  0  0
  3  5  2  0  0  0  0
  5  6  1  0  0  0  0
  6  7  2  0  0  0  0
  7  8  1  0  0  0  0
  8  9  1  0  0  0  0
M  END
>  <name>
[O;ether]c1c(C)cccc1C

>  <apo>
1

>  <freq>
1

>  <freq0>
0

>  <freq1>
1

>  <freqA>
0.99700278

>  <a_count>
19

$$$$

  MOE2015           2D

 11 12  0  0  0  0  0  0  0  0999 V2000
    7.0590   -0.4800    0.0000 O   0  0  0  0  0  0  0  0  0  0  0  0
    5.5590   -0.4800    0.0000 C   0  0  0  0  0  0  0  0  0  0  0  0
    4.6770    0.7340    0.0000 N   0  0  0  0  0  0  0  0  0  0  0  0
    5.1410    2.1600    0.0000 C   0  0  0  0  0  0  0  0  0  0  0  0
    3.2510    0.2700    0.0000 C   0  0  0  0  0  0  0  0  0  0  0  0
    3.2510   -1.2300    0.0000 C   0  0  0  0  0  0  0  0  0  0  0  0
    4.6770   -1.6940    0.0000 N   0  0  0  0  0  0  0  0  0  0  0  0
    1.9520   -1.9800    0.0000 C   0  0  0  0  0  0  0  0  0  0  0  0
    0.6530   -1.2300    0.0000 C   0  0  0  0  0  0  0  0  0  0  0  0
    0.6530    0.2700    0.0000 C   0  0  0  0  0  0  0  0  0  0  0  0
    1.9520    1.0200    0.0000 C   0  0  0  0  0  0  0  0  0  0  0  0
  1  2  1  0  0  0  0
  2  3  1  0  0  0  0
  2  7  2  0  0  0  0
  3  4  1  0  0  0  0
  3  5  1  0  0  0  0
  5  6  1  0  0  0  0
  5 11  2  0  0  0  0
  6  7  1  0  0  0  0
  6  8  2  0  0  0  0
  8  9  1  0  0  0  0
  9 10  2  0  0  0  0
 10 11  1  0  0  0  0
M  END
>  <name>
[O;ether]c1n(C)c2c(n1)cccc2

>  <apo>
1

>  <freq>
1

>  <freq0>
0

>  <freq1>
1

>  <freqA>
0.99700278

>  <a_count>
19

$$$$

  MOE2015           2D

 10 10  0  0  0  0  0  0  0  0999 V2000
    0.0000    0.0000    0.0000 Te  0  0  0  0  0  0  0  0  0  0  0  0
    1.5000    0.0000    0.0000 C   0  0  0  0  0  0  0  0  0  0  0  0
    2.2500   -1.2990    0.0000 C   0  0  0  0  0  0  0  0  0  0  0  0
   -1.5000    0.0000    0.0000 C   0  0  0  0  0  0  0  0  0  0  0  0
   -2.2500   -1.2990    0.0000 C   0  0  0  0  0  0  0  0  0  0  0  0
   -3.7500   -1.2990    0.0000 C   0  0  0  0  0  0  0  0  0  0  0  0
   -4.5000    0.0000    0.0000 C   0  0  0  0  0  0  0  0  0  0  0  0
   -6.0000    0.0000    0.0000 Cl  0  0  0  0  0  0  0  0  0  0  0  0
   -3.7500    1.2990    0.0000 C   0  0  0  0  0  0  0  0  0  0  0  0
   -2.2500    1.2990    0.0000 C   0  0  0  0  0  0  0  0  0  0  0  0
  1  2  1  0  0  0  0
  1  4  1  0  0  0  0
  2  3  1  0  0  0  0
  4  5  1  0  0  0  0
  4 10  2  0  0  0  0
  5  6  2  0  0  0  0
  6  7  1  0  0  0  0
  7  8  1  0  0  0  0
  7  9  2  0  0  0  0
  9 10  1  0  0  0  0
M  END
>  <name>
[Te](C[C;ether])c1ccc(Cl)cc1

>  <apo>
1

>  <freq>
1

>  <freq0>
0

>  <freq1>
1

>  <freqA>
0.99700278

>  <a_count>
19

$$$$

  MOE2015           2D

  9  9  0  0  0  0  0  0  0  0999 V2000
    0.0000   -0.2890    0.0000 Te  0  0  0  0  0  0  0  0  0  0  0  0
    1.5000   -0.2890    0.0000 C   0  0  0  0  0  0  0  0  0  0  0  0
    2.2500    1.0100    0.0000 C   0  0  0  0  0  0  0  0  0  0  0  0
   -1.5000   -0.2890    0.0000 C   0  0  0  0  0  0  0  0  0  0  0  0
   -2.2500    1.0100    0.0000 C   0  0  0  0  0  0  0  0  0  0  0  0
   -3.7500    1.0100    0.0000 C   0  0  0  0  0  0  0  0  0  0  0  0
   -4.5000   -0.2890    0.0000 C   0  0  0  0  0  0  0  0  0  0  0  0
   -3.7500   -1.5880    0.0000 C   0  0  0  0  0  0  0  0  0  0  0  0
   -2.2500   -1.5880    0.0000 C   0  0  0  0  0  0  0  0  0  0  0  0
  1  2  1  0  0  0  0
  1  4  1  0  0  0  0
  2  3  1  0  0  0  0
  4  5  1  0  0  0  0
  4  9  2  0  0  0  0
  5  6  2  0  0  0  0
  6  7  1  0  0  0  0
  7  8  2  0  0  0  0
  8  9  1  0  0  0  0
M  END
>  <name>
[Te](C[C;ether])c1ccccc1

>  <apo>
1

>  <freq>
1

>  <freq0>
0

>  <freq1>
1

>  <freqA>
0.99700278

>  <a_count>
19

$$$$

  MOE2015           2D

  8  8  0  0  0  0  0  0  0  0999 V2000
    1.2190    1.7860    0.0000 C   0  0  0  0  0  0  0  0  0  0  0  0
    1.9690    3.0850    0.0000 C   0  0  0  0  0  0  0  0  0  0  0  0
   -0.2810    1.7860    0.0000 C   0  0  0  0  0  0  0  0  0  0  0  0
   -1.0310    0.4870    0.0000 C   0  0  0  0  0  0  0  0  0  0  0  0
   -2.5310    0.4870    0.0000 C   0  0  0  0  0  0  0  0  0  0  0  0
   -3.2810    1.7860    0.0000 C   0  0  0  0  0  0  0  0  0  0  0  0
   -2.5310    3.0850    0.0000 C   0  0  0  0  0  0  0  0  0  0  0  0
   -1.0310    3.0850    0.0000 C   0  0  0  0  0  0  0  0  0  0  0  0
  1  2  1  0  0  0  0
  1  3  1  0  0  0  0
  3  4  1  0  0  0  0
  3  8  2  0  0  0  0
  4  5  2  0  0  0  0
  5  6  1  0  0  0  0
  6  7  2  0  0  0  0
  7  8  1  0  0  0  0
M  END
>  <name>
C([C;ether])c1ccccc1

>  <apo>
1

>  <freq>
1

>  <freq0>
0

>  <freq1>
1

>  <freqA>
0.99700278

>  <a_count>
18

$$$$

  MOE2015           2D

  8  8  0  0  0  0  0  0  0  0999 V2000
    0.4890   -1.1750    0.0000 C   0  0  0  0  0  0  0  0  0  0  0  0
    1.7880   -0.4250    0.0000 C   0  0  0  0  0  0  0  0  0  0  0  0
    1.7880    1.0750    0.0000 C   0  0  0  0  0  0  0  0  0  0  0  0
    0.4890    1.8250    0.0000 C   0  0  0  0  0  0  0  0  0  0  0  0
    3.0870    1.8250    0.0000 C   0  0  0  0  0  0  0  0  0  0  0  0
    4.3860    1.0750    0.0000 C   0  0  0  0  0  0  0  0  0  0  0  0
    4.3860   -0.4250    0.0000 C   0  0  0  0  0  0  0  0  0  0  0  0
    3.0870   -1.1750    0.0000 C   0  0  0  0  0  0  0  0  0  0  0  0
  1  2  1  0  0  0  0
  2  3  1  0  0  0  0
  2  8  2  0  0  0  0
  3  4  1  0  0  0  0
  3  5  2  0  0  0  0
  5  6  1  0  0  0  0
  6  7  2  0  0  0  0
  7  8  1  0  0  0  0
M  END
>  <name>
Cc1c(C)c[c;biphenyl]cc1

>  <apo>
1

>  <freq>
1

>  <freq0>
0

>  <freq1>
1

>  <freqA>
0.99700278

>  <a_count>
18

$$$$

  MOE2015           2D

 10 10  0  0  0  0  0  0  0  0999 V2000
    7.0500    0.0000    0.0000 Cl  0  0  0  0  0  0  0  0  0  0  0  0
    5.5500    0.0000    0.0000 C   0  0  0  0  0  0  0  0  0  0  0  0
    4.8000    1.2990    0.0000 C   0  0  0  0  0  0  0  0  0  0  0  0
    3.3000    1.2990    0.0000 C   0  0  0  0  0  0  0  0  0  0  0  0
    2.5500    2.5980    0.0000 N   0  0  0  0  0  0  0  0  0  0  0  0
    2.5500    0.0000    0.0000 C   0  0  0  0  0  0  0  0  0  0  0  0
    1.0500    0.0000    0.0000 O   0  0  0  0  0  0  0  0  0  0  0  0
    0.3000   -1.2990    0.0000 C   0  0  0  0  0  0  0  0  0  0  0  0
    3.3000   -1.2990    0.0000 C   0  0  0  0  0  0  0  0  0  0  0  0
    4.8000   -1.2990    0.0000 C   0  0  0  0  0  0  0  0  0  0  0  0
  1  2  1  0  0  0  0
  2  3  1  0  0  0  0
  2 10  2  0  0  0  0
  3  4  2  0  0  0  0
  4  5  1  0  0  0  0
  4  6  1  0  0  0  0
  6  7  1  0  0  0  0
  6  9  2  0  0  0  0
  7  8  1  0  0  0  0
  9 10  1  0  0  0  0
M  END
>  <name>
Clc1cc([N;amide])c(OC)cc1

>  <apo>
1

>  <freq>
1

>  <freq0>
0

>  <freq1>
1

>  <freqA>
0.99700278

>  <a_count>
18

$$$$

  MOE2015           2D

 12 13  0  0  0  0  0  0  0  0999 V2000
    0.1990   -2.2240    0.0000 Cl  0  0  0  0  0  0  0  0  0  0  0  0
    1.4980   -1.4740    0.0000 C   0  0  0  0  0  0  0  0  0  0  0  0
    2.7970   -2.2240    0.0000 C   0  0  0  0  0  0  0  0  0  0  0  0
    4.0960   -1.4740    0.0000 C   0  0  0  0  0  0  0  0  0  0  0  0
    4.0960    0.0260    0.0000 C   0  0  0  0  0  0  0  0  0  0  0  0
    5.5230    0.4900    0.0000 N   0  0  0  0  0  0  0  0  0  0  0  0
    6.4040   -0.7240    0.0000 C   0  0  0  0  0  0  0  0  0  0  0  0
    7.9040   -0.7240    0.0000 C   0  0  0  0  0  0  0  0  0  0  0  0
    8.6540    0.5750    0.0000 O   0  0  0  0  0  0  0  0  0  0  0  0
    5.5230   -1.9370    0.0000 C   0  0  0  0  0  0  0  0  0  0  0  0
    2.7970    0.7760    0.0000 C   0  0  0  0  0  0  0  0  0  0  0  0
    1.4980    0.0260    0.0000 C   0  0  0  0  0  0  0  0  0  0  0  0
  1  2  1  0  0  0  0
  2  3  1  0  0  0  0
  2 12  2  0  0  0  0
  3  4  2  0  0  0  0
  4  5  1  0  0  0  0
  4 10  1  0  0  0  0
  5  6  1  0  0  0  0
  5 11  2  0  0  0  0
  6  7  1  0  0  0  0
  7  8  1  0  0  0  0
  7 10  2  0  0  0  0
  8  9  2  0  0  0  0
 11 12  1  0  0  0  0
M  END
>  <name>
Clc1cc2c([nH;NaroC]c([C;amide]=O)c2)cc1

>  <apo>
2

>  <freq>
1

>  <freq0>
0

>  <freq1>
1

>  <freqA>
0.99700278

>  <a_count>
18

$$$$

  MOE2015           2D

 10 11  0  0  0  0  0  0  0  0999 V2000
   -0.0220   -2.2100    0.0000 C   0  0  0  0  0  0  0  0  0  0  0  0
    1.0920   -1.2060    0.0000 N   0  0  0  0  0  0  0  0  0  0  0  0
    2.5600   -1.5180    0.0000 C   0  0  0  0  0  0  0  0  0  0  0  0
    3.3100   -0.2190    0.0000 C   0  0  0  0  0  0  0  0  0  0  0  0
    2.3060    0.8960    0.0000 N   0  0  0  0  0  0  0  0  0  0  0  0
    0.9360    0.2860    0.0000 C   0  0  0  0  0  0  0  0  0  0  0  0
    4.8100   -0.2190    0.0000 C   0  0  0  0  0  0  0  0  0  0  0  0
    5.5600   -1.5180    0.0000 C   0  0  0  0  0  0  0  0  0  0  0  0
    4.8100   -2.8170    0.0000 C   0  0  0  0  0  0  0  0  0  0  0  0
    3.3100   -2.8170    0.0000 C   0  0  0  0  0  0  0  0  0  0  0  0
  1  2  1  0  0  0  0
  2  3  1  0  0  0  0
  2  6  1  0  0  0  0
  3  4  1  0  0  0  0
  3 10  2  0  0  0  0
  4  5  1  0  0  0  0
  4  7  2  0  0  0  0
  5  6  2  0  0  0  0
  7  8  1  0  0  0  0
  8  9  2  0  0  0  0
  9 10  1  0  0  0  0
M  END
>  <name>
Cn1c2c(n[c;biphenyl]1)cccc2

>  <apo>
1

>  <freq>
1

>  <freq0>
0

>  <freq1>
1

>  <freqA>
0.99700278

>  <a_count>
18

$$$$

  MOE2015           2D

 14 14  0  0  0  0  0  0  0  0999 V2000
    5.6830   -1.7550    0.0000 F   0  0  0  0  0  0  0  0  0  0  0  0
    4.9330   -3.0540    0.0000 C   0  0  0  0  0  0  0  0  0  0  0  0
    4.1830   -4.3530    0.0000 F   0  0  0  0  0  0  0  0  0  0  0  0
    6.2320   -3.8040    0.0000 F   0  0  0  0  0  0  0  0  0  0  0  0
    3.6340   -2.3040    0.0000 C   0  0  0  0  0  0  0  0  0  0  0  0
    2.3350   -3.0540    0.0000 C   0  0  0  0  0  0  0  0  0  0  0  0
    1.0360   -2.3040    0.0000 C   0  0  0  0  0  0  0  0  0  0  0  0
   -0.2630   -3.0540    0.0000 C   0  0  0  0  0  0  0  0  0  0  0  0
   -1.0130   -1.7550    0.0000 F   0  0  0  0  0  0  0  0  0  0  0  0
   -1.5620   -3.8040    0.0000 F   0  0  0  0  0  0  0  0  0  0  0  0
    0.4870   -4.3530    0.0000 F   0  0  0  0  0  0  0  0  0  0  0  0
    1.0360   -0.8040    0.0000 C   0  0  0  0  0  0  0  0  0  0  0  0
    2.3350   -0.0540    0.0000 C   0  0  0  0  0  0  0  0  0  0  0  0
    3.6340   -0.8040    0.0000 C   0  0  0  0  0  0  0  0  0  0  0  0
  1  2  1  0  0  0  0
  2  3  1  0  0  0  0
  2  4  1  0  0  0  0
  2  5  1  0  0  0  0
  5  6  1  0  0  0  0
  5 14  2  0  0  0  0
  6  7  2  0  0  0  0
  7  8  1  0  0  0  0
  7 12  1  0  0  0  0
  8  9  1  0  0  0  0
  8 10  1  0  0  0  0
  8 11  1  0  0  0  0
 12 13  2  0  0  0  0
 13 14  1  0  0  0  0
M  END
>  <name>
FC(F)(F)c1cc(C(F)(F)F)cc[c;biphenyl]1

>  <apo>
1

>  <freq>
1

>  <freq0>
0

>  <freq1>
1

>  <freqA>
0.99700278

>  <a_count>
18

$$$$

  MOE2015           2D

 12 12  0  0  1  0  0  0  0  0999 V2000
    1.0630   -3.5720    0.0000 F   0  0  0  0  0  0  0  0  0  0  0  0
    1.8130   -2.2730    0.0000 C   0  0  0  0  0  0  0  0  0  0  0  0
    1.0630   -0.9740    0.0000 C   0  0  0  0  0  0  0  0  0  0  0  0
    1.8130    0.3250    0.0000 C   0  0  0  0  0  0  0  0  0  0  0  0
    1.0630    1.6240    0.0000 F   0  0  0  0  0  0  0  0  0  0  0  0
    3.3130    0.3250    0.0000 C   0  0  0  0  0  0  0  0  0  0  0  0
    4.0630   -0.9740    0.0000 C   0  0  0  0  0  0  0  0  0  0  0  0
    5.5620   -0.9740    0.0000 C   0  0  2  0  0  0  0  0  0  0  0  0
    6.3130   -2.2730    0.0000 O   0  0  0  0  0  0  0  0  0  0  0  0
    6.3120    0.3250    0.0000 C   0  0  0  0  0  0  0  0  0  0  0  0
    7.8120    0.3250    0.0000 O   0  0  0  0  0  0  0  0  0  0  0  0
    3.3130   -2.2730    0.0000 C   0  0  0  0  0  0  0  0  0  0  0  0
  1  2  1  0  0  0  0
  2  3  2  0  0  0  0
  2 12  1  0  0  0  0
  3  4  1  0  0  0  0
  4  5  1  0  0  0  0
  4  6  2  0  0  0  0
  6  7  1  0  0  0  0
  7  8  1  0  0  0  0
  7 12  2  0  0  0  0
  8  9  1  1  0  0  0
  8 10  1  0  0  0  0
 10 11  2  0  0  0  0
M  END
>  <name>
Fc1cc(F)cc([C@H](O)[C;amide]=O)c1

>  <apo>
1

>  <freq>
1

>  <freq0>
0

>  <freq1>
1

>  <freqA>
0.99700278

>  <a_count>
18

$$$$

  MOE2015           2D

 12 13  0  0  0  0  0  0  0  0999 V2000
    1.9380    3.0280    0.0000 F   0  0  0  0  0  0  0  0  0  0  0  0
    2.6880    1.7290    0.0000 C   0  0  0  0  0  0  0  0  0  0  0  0
    1.9370    0.4300    0.0000 C   0  0  0  0  0  0  0  0  0  0  0  0
    2.6870   -0.8690    0.0000 C   0  0  0  0  0  0  0  0  0  0  0  0
    1.9370   -2.1680    0.0000 C   0  0  0  0  0  0  0  0  0  0  0  0
    0.4370   -2.1680    0.0000 O   0  0  0  0  0  0  0  0  0  0  0  0
    4.1880   -0.8690    0.0000 C   0  0  0  0  0  0  0  0  0  0  0  0
    4.9380    0.4300    0.0000 C   0  0  0  0  0  0  0  0  0  0  0  0
    6.4050    0.1180    0.0000 N   0  0  0  0  0  0  0  0  0  0  0  0
    6.5620   -1.3740    0.0000 C   0  0  0  0  0  0  0  0  0  0  0  0
    5.1910   -1.9840    0.0000 C   0  0  0  0  0  0  0  0  0  0  0  0
    4.1880    1.7290    0.0000 C   0  0  0  0  0  0  0  0  0  0  0  0
  1  2  1  0  0  0  0
  2  3  1  0  0  0  0
  2 12  2  0  0  0  0
  3  4  2  0  0  0  0
  4  5  1  0  0  0  0
  4  7  1  0  0  0  0
  5  6  2  0  0  0  0
  7  8  2  0  0  0  0
  7 11  1  0  0  0  0
  8  9  1  0  0  0  0
  8 12  1  0  0  0  0
  9 10  1  0  0  0  0
 10 11  2  0  0  0  0
M  END
>  <name>
Fc1cc([C;ester]=O)c2c([nH]cc2)c1

>  <apo>
1

>  <freq>
1

>  <freq0>
0

>  <freq1>
1

>  <freqA>
0.99700278

>  <a_count>
18

$$$$

  MOE2015           2D

 12 13  0  0  0  0  0  0  0  0999 V2000
    0.1990   -2.2240    0.0000 F   0  0  0  0  0  0  0  0  0  0  0  0
    1.4980   -1.4740    0.0000 C   0  0  0  0  0  0  0  0  0  0  0  0
    2.7970   -2.2240    0.0000 C   0  0  0  0  0  0  0  0  0  0  0  0
    4.0960   -1.4740    0.0000 C   0  0  0  0  0  0  0  0  0  0  0  0
    4.0960    0.0260    0.0000 C   0  0  0  0  0  0  0  0  0  0  0  0
    5.5230    0.4900    0.0000 N   0  0  0  0  0  0  0  0  0  0  0  0
    6.4040   -0.7240    0.0000 C   0  0  0  0  0  0  0  0  0  0  0  0
    7.9040   -0.7240    0.0000 C   0  0  0  0  0  0  0  0  0  0  0  0
    8.6540    0.5750    0.0000 O   0  0  0  0  0  0  0  0  0  0  0  0
    5.5230   -1.9370    0.0000 C   0  0  0  0  0  0  0  0  0  0  0  0
    2.7970    0.7760    0.0000 C   0  0  0  0  0  0  0  0  0  0  0  0
    1.4980    0.0260    0.0000 C   0  0  0  0  0  0  0  0  0  0  0  0
  1  2  1  0  0  0  0
  2  3  1  0  0  0  0
  2 12  2  0  0  0  0
  3  4  2  0  0  0  0
  4  5  1  0  0  0  0
  4 10  1  0  0  0  0
  5  6  1  0  0  0  0
  5 11  2  0  0  0  0
  6  7  1  0  0  0  0
  7  8  1  0  0  0  0
  7 10  2  0  0  0  0
  8  9  2  0  0  0  0
 11 12  1  0  0  0  0
M  END
>  <name>
Fc1cc2c([nH;NaroC]c([C;amide]=O)c2)cc1

>  <apo>
2

>  <freq>
1

>  <freq0>
0

>  <freq1>
1

>  <freqA>
0.99700278

>  <a_count>
18

$$$$

  MOE2015           2D

  9 10  0  0  0  0  0  0  0  0999 V2000
    0.5060    2.9330    0.0000 N   0  0  0  0  0  0  0  0  0  0  0  0
   -0.9210    2.4690    0.0000 C   0  0  0  0  0  0  0  0  0  0  0  0
   -0.9210    0.9690    0.0000 C   0  0  0  0  0  0  0  0  0  0  0  0
   -2.2200    0.2190    0.0000 C   0  0  0  0  0  0  0  0  0  0  0  0
   -3.5190    0.9690    0.0000 C   0  0  0  0  0  0  0  0  0  0  0  0
   -3.5190    2.4690    0.0000 C   0  0  0  0  0  0  0  0  0  0  0  0
   -2.2200    3.2190    0.0000 C   0  0  0  0  0  0  0  0  0  0  0  0
    0.5060    0.5060    0.0000 C   0  0  0  0  0  0  0  0  0  0  0  0
    1.3870    1.7190    0.0000 C   0  0  0  0  0  0  0  0  0  0  0  0
  1  2  1  0  0  0  0
  1  9  1  0  0  0  0
  2  3  1  0  0  0  0
  2  7  2  0  0  0  0
  3  4  2  0  0  0  0
  3  8  1  0  0  0  0
  4  5  1  0  0  0  0
  5  6  2  0  0  0  0
  6  7  1  0  0  0  0
  8  9  1  0  0  0  0
M  END
>  <name>
N1c2c(cccc2)[C;thioether]C1

>  <apo>
1

>  <freq>
1

>  <freq0>
0

>  <freq1>
1

>  <freqA>
0.99700278

>  <a_count>
18

$$$$

  MOE2015           2D

  9  9  0  0  0  0  0  0  0  0999 V2000
    0.9170    1.5880    0.0000 O   0  0  0  0  0  0  0  0  0  0  0  0
    1.6670    0.2890    0.0000 C   0  0  0  0  0  0  0  0  0  0  0  0
   -0.5830    1.5880    0.0000 C   0  0  0  0  0  0  0  0  0  0  0  0
   -1.3330    2.8870    0.0000 C   0  0  0  0  0  0  0  0  0  0  0  0
   -0.5830    4.1860    0.0000 N   0  0  0  0  0  0  0  0  0  0  0  0
   -2.8330    2.8870    0.0000 C   0  0  0  0  0  0  0  0  0  0  0  0
   -3.5830    1.5880    0.0000 C   0  0  0  0  0  0  0  0  0  0  0  0
   -2.8330    0.2890    0.0000 C   0  0  0  0  0  0  0  0  0  0  0  0
   -1.3330    0.2890    0.0000 C   0  0  0  0  0  0  0  0  0  0  0  0
  1  2  1  0  0  0  0
  1  3  1  0  0  0  0
  3  4  1  0  0  0  0
  3  9  2  0  0  0  0
  4  5  1  0  0  0  0
  4  6  2  0  0  0  0
  6  7  1  0  0  0  0
  7  8  2  0  0  0  0
  8  9  1  0  0  0  0
M  END
>  <name>
O(C)c1c([N;amide])cccc1

>  <apo>
1

>  <freq>
1

>  <freq0>
0

>  <freq1>
1

>  <freqA>
0.99700278

>  <a_count>
18

$$$$

  MOE2015           2D

  9  9  0  0  0  0  0  0  0  0999 V2000
    0.8320    0.9370    0.0000 O   0  0  0  0  0  0  0  0  0  0  0  0
    2.1310    1.6870    0.0000 C   0  0  0  0  0  0  0  0  0  0  0  0
   -0.4670    1.6870    0.0000 C   0  0  0  0  0  0  0  0  0  0  0  0
   -1.7660    0.9370    0.0000 C   0  0  0  0  0  0  0  0  0  0  0  0
   -3.0650    1.6870    0.0000 C   0  0  0  0  0  0  0  0  0  0  0  0
   -4.3640    0.9370    0.0000 N   0  0  0  0  0  0  0  0  0  0  0  0
   -3.0650    3.1870    0.0000 C   0  0  0  0  0  0  0  0  0  0  0  0
   -1.7660    3.9370    0.0000 C   0  0  0  0  0  0  0  0  0  0  0  0
   -0.4670    3.1870    0.0000 C   0  0  0  0  0  0  0  0  0  0  0  0
  1  2  1  0  0  0  0
  1  3  1  0  0  0  0
  3  4  1  0  0  0  0
  3  9  2  0  0  0  0
  4  5  2  0  0  0  0
  5  6  1  0  0  0  0
  5  7  1  0  0  0  0
  7  8  2  0  0  0  0
  8  9  1  0  0  0  0
M  END
>  <name>
O(C)c1cc([N;amide])ccc1

>  <apo>
1

>  <freq>
1

>  <freq0>
0

>  <freq1>
1

>  <freqA>
0.99700278

>  <a_count>
18

$$$$

  MOE2015           2D

  9  9  0  0  0  0  0  0  0  0999 V2000
    1.4170    2.4540    0.0000 O   0  0  0  0  0  0  0  0  0  0  0  0
    2.1670    1.1550    0.0000 C   0  0  0  0  0  0  0  0  0  0  0  0
   -0.0830    2.4540    0.0000 C   0  0  0  0  0  0  0  0  0  0  0  0
   -0.8330    3.7530    0.0000 C   0  0  0  0  0  0  0  0  0  0  0  0
   -2.3330    3.7530    0.0000 C   0  0  0  0  0  0  0  0  0  0  0  0
   -3.0830    2.4540    0.0000 C   0  0  0  0  0  0  0  0  0  0  0  0
   -4.5830    2.4540    0.0000 N   0  0  0  0  0  0  0  0  0  0  0  0
   -2.3330    1.1550    0.0000 C   0  0  0  0  0  0  0  0  0  0  0  0
   -0.8330    1.1550    0.0000 C   0  0  0  0  0  0  0  0  0  0  0  0
  1  2  1  0  0  0  0
  1  3  1  0  0  0  0
  3  4  1  0  0  0  0
  3  9  2  0  0  0  0
  4  5  2  0  0  0  0
  5  6  1  0  0  0  0
  6  7  1  0  0  0  0
  6  8  2  0  0  0  0
  8  9  1  0  0  0  0
M  END
>  <name>
O(C)c1ccc([N;amide])cc1

>  <apo>
1

>  <freq>
1

>  <freq0>
0

>  <freq1>
1

>  <freqA>
0.99700278

>  <a_count>
18

$$$$

  MOE2015           2D

 11 11  0  0  0  0  0  0  0  0999 V2000
    5.3870    0.0000    0.0000 O   0  0  0  0  0  0  0  0  0  0  0  0
    3.8870    0.0000    0.0000 C   0  0  0  0  0  0  0  0  0  0  0  0
    3.1370   -1.2990    0.0000 C   0  0  0  0  0  0  0  0  0  0  0  0
    3.8870   -2.5980    0.0000 N   0  0  0  0  0  0  0  0  0  0  0  0
    5.3870   -2.5980    0.0000 O   0  0  0  0  0  0  0  0  0  0  0  0
    6.1370   -3.8970    0.0000 C   0  0  0  0  0  0  0  0  0  0  0  0
    1.6370   -1.2990    0.0000 C   0  0  0  0  0  0  0  0  0  0  0  0
    0.7560   -0.0860    0.0000 O   0  0  0  0  0  0  0  0  0  0  0  0
   -0.6710   -0.5490    0.0000 C   0  0  0  0  0  0  0  0  0  0  0  0
   -0.6710   -2.0490    0.0000 C   0  0  0  0  0  0  0  0  0  0  0  0
    0.7560   -2.5130    0.0000 C   0  0  0  0  0  0  0  0  0  0  0  0
  1  2  2  0  0  0  0
  2  3  1  0  0  0  0
  3  4  2  0  0  0  0
  3  7  1  0  0  0  0
  4  5  1  0  0  0  0
  5  6  1  0  0  0  0
  7  8  1  0  0  0  0
  7 11  2  0  0  0  0
  8  9  1  0  0  0  0
  9 10  2  0  0  0  0
 10 11  1  0  0  0  0
M  END
>  <name>
O=[C;amide]C(=NOC)c1occc1

>  <apo>
1

>  <freq>
1

>  <freq0>
0

>  <freq1>
1

>  <freqA>
0.99700278

>  <a_count>
18

$$$$

  MOE2015           2D

  7  6  0  0  1  0  0  0  0  0999 V2000
    5.3550   -0.7920    0.0000 O   0  0  0  0  0  0  0  0  0  0  0  0
    4.0560   -1.5420    0.0000 C   0  0  0  0  0  0  0  0  0  0  0  0
    2.7570   -0.7920    0.0000 C   0  0  3  0  0  0  0  0  0  0  0  0
    2.7570    0.7080    0.0000 N   0  0  0  0  0  0  0  0  0  0  0  0
    1.4580   -1.5420    0.0000 C   0  0  0  0  0  0  0  0  0  0  0  0
    1.4580   -3.0420    0.0000 C   0  0  0  0  0  0  0  0  0  0  0  0
    0.1590   -0.7920    0.0000 C   0  0  0  0  0  0  0  0  0  0  0  0
  1  2  2  0  0  0  0
  2  3  1  0  0  0  0
  3  4  1  0  0  0  0
  3  5  1  0  0  0  0
  5  6  1  0  0  0  0
  5  7  1  0  0  0  0
M  END
>  <name>
O=[C;amide]C([N;urea])C(C)C

>  <apo>
2

>  <freq>
1

>  <freq0>
0

>  <freq1>
1

>  <freqA>
0.99700278

>  <a_count>
18

$$$$

  MOE2015           2D

  7  6  0  0  1  0  0  0  0  0999 V2000
    5.3550   -0.7920    0.0000 O   0  0  0  0  0  0  0  0  0  0  0  0
    4.0560   -1.5420    0.0000 C   0  0  0  0  0  0  0  0  0  0  0  0
    2.7570   -0.7920    0.0000 C   0  0  1  0  0  0  0  0  0  0  0  0
    2.7570    0.7080    0.0000 N   0  0  0  0  0  0  0  0  0  0  0  0
    1.4580   -1.5420    0.0000 C   0  0  0  0  0  0  0  0  0  0  0  0
    1.4580   -3.0420    0.0000 C   0  0  0  0  0  0  0  0  0  0  0  0
    0.1590   -0.7920    0.0000 C   0  0  0  0  0  0  0  0  0  0  0  0
  1  2  2  0  0  0  0
  2  3  1  0  0  0  0
  3  4  1  6  0  0  0
  3  5  1  0  0  0  0
  5  6  1  0  0  0  0
  5  7  1  0  0  0  0
M  END
>  <name>
O=[C;amide][C@@H]([N;urea])C(C)C

>  <apo>
2

>  <freq>
1

>  <freq0>
0

>  <freq1>
1

>  <freqA>
0.99700278

>  <a_count>
18

$$$$

  MOE2015           2D

 10 10  0  0  1  0  0  0  0  0999 V2000
    7.3500   -2.3380    0.0000 O   0  0  0  0  0  0  0  0  0  0  0  0
    5.8500   -2.3380    0.0000 C   0  0  0  0  0  0  0  0  0  0  0  0
    5.1000   -1.0390    0.0000 C   0  0  2  0  0  0  0  0  0  0  0  0
    5.8500    0.2600    0.0000 O   0  0  0  0  0  0  0  0  0  0  0  0
    3.6000   -1.0390    0.0000 C   0  0  0  0  0  0  0  0  0  0  0  0
    2.8500   -2.3380    0.0000 C   0  0  0  0  0  0  0  0  0  0  0  0
    1.3500   -2.3380    0.0000 C   0  0  0  0  0  0  0  0  0  0  0  0
    0.6000   -1.0390    0.0000 C   0  0  0  0  0  0  0  0  0  0  0  0
    1.3500    0.2600    0.0000 C   0  0  0  0  0  0  0  0  0  0  0  0
    2.8500    0.2600    0.0000 C   0  0  0  0  0  0  0  0  0  0  0  0
  1  2  2  0  0  0  0
  2  3  1  0  0  0  0
  3  4  1  1  0  0  0
  3  5  1  0  0  0  0
  5  6  1  0  0  0  0
  5 10  2  0  0  0  0
  6  7  2  0  0  0  0
  7  8  1  0  0  0  0
  8  9  2  0  0  0  0
  9 10  1  0  0  0  0
M  END
>  <name>
O=[C;amide][C@H](O)c1ccccc1

>  <apo>
1

>  <freq>
1

>  <freq0>
0

>  <freq1>
1

>  <freqA>
0.99700278

>  <a_count>
18

$$$$

  MOE2015           2D

 10 10  0  0  0  0  0  0  0  0999 V2000
    6.5070    1.7440    0.0000 O   0  0  0  0  0  0  0  0  0  0  0  0
    5.2080    0.9940    0.0000 C   0  0  0  0  0  0  0  0  0  0  0  0
    3.9090    1.7440    0.0000 C   0  0  0  0  0  0  0  0  0  0  0  0
    2.6100    0.9940    0.0000 C   0  0  0  0  0  0  0  0  0  0  0  0
    2.6100   -0.5060    0.0000 C   0  0  0  0  0  0  0  0  0  0  0  0
    1.3110    1.7440    0.0000 C   0  0  0  0  0  0  0  0  0  0  0  0
    0.0120    0.9940    0.0000 O   0  0  0  0  0  0  0  0  0  0  0  0
    1.3110    3.2440    0.0000 C   0  0  0  0  0  0  0  0  0  0  0  0
    2.6100    3.9940    0.0000 C   0  0  0  0  0  0  0  0  0  0  0  0
    3.9090    3.2440    0.0000 C   0  0  0  0  0  0  0  0  0  0  0  0
  1  2  2  0  0  0  0
  2  3  1  0  0  0  0
  3  4  1  0  0  0  0
  3 10  2  0  0  0  0
  4  5  1  0  0  0  0
  4  6  2  0  0  0  0
  6  7  1  0  0  0  0
  6  8  1  0  0  0  0
  8  9  2  0  0  0  0
  9 10  1  0  0  0  0
M  END
>  <name>
O=[C;amide]c1c(C)c(O)ccc1

>  <apo>
1

>  <freq>
1

>  <freq0>
0

>  <freq1>
1

>  <freqA>
0.99700278

>  <a_count>
18

$$$$

  MOE2015           2D

 12 13  0  0  0  0  0  0  0  0999 V2000
    8.0010    2.1440    0.0000 O   0  0  0  0  0  0  0  0  0  0  0  0
    6.7020    1.3940    0.0000 C   0  0  0  0  0  0  0  0  0  0  0  0
    5.4030    2.1440    0.0000 C   0  0  0  0  0  0  0  0  0  0  0  0
    4.1040    1.3940    0.0000 N   0  0  0  0  0  0  0  0  0  0  0  0
    2.8050    2.1440    0.0000 C   0  0  0  0  0  0  0  0  0  0  0  0
    2.8050    3.6440    0.0000 C   0  0  0  0  0  0  0  0  0  0  0  0
    4.1040    4.3940    0.0000 N   0  0  0  0  0  0  0  0  0  0  0  0
    5.4030    3.6440    0.0000 C   0  0  0  0  0  0  0  0  0  0  0  0
    1.5060    4.3940    0.0000 C   0  0  0  0  0  0  0  0  0  0  0  0
    0.2070    3.6440    0.0000 C   0  0  0  0  0  0  0  0  0  0  0  0
    0.2070    2.1440    0.0000 C   0  0  0  0  0  0  0  0  0  0  0  0
    1.5060    1.3940    0.0000 C   0  0  0  0  0  0  0  0  0  0  0  0
  1  2  2  0  0  0  0
  2  3  1  0  0  0  0
  3  4  1  0  0  0  0
  3  8  2  0  0  0  0
  4  5  2  0  0  0  0
  5  6  1  0  0  0  0
  5 12  1  0  0  0  0
  6  7  2  0  0  0  0
  6  9  1  0  0  0  0
  7  8  1  0  0  0  0
  9 10  2  0  0  0  0
 10 11  1  0  0  0  0
 11 12  2  0  0  0  0
M  END
>  <name>
O=[C;amide]c1nc2c(nc1)cccc2

>  <apo>
1

>  <freq>
1

>  <freq0>
0

>  <freq1>
1

>  <freqA>
0.99700278

>  <a_count>
18

$$$$

  MOE2015           2D

 10 10  0  0  0  0  0  0  0  0999 V2000
    8.7000   -2.0780    0.0000 O   0  0  0  0  0  0  0  0  0  0  0  0
    7.2000   -2.0780    0.0000 C   0  0  0  0  0  0  0  0  0  0  0  0
    6.4500   -0.7790    0.0000 C   0  0  0  0  0  0  0  0  0  0  0  0
    4.9500   -0.7790    0.0000 C   0  0  0  0  0  0  0  0  0  0  0  0
    4.2000   -2.0780    0.0000 C   0  0  0  0  0  0  0  0  0  0  0  0
    2.7000   -2.0780    0.0000 C   0  0  0  0  0  0  0  0  0  0  0  0
    1.9500   -0.7790    0.0000 C   0  0  0  0  0  0  0  0  0  0  0  0
    0.4500   -0.7790    0.0000 O   0  0  0  0  0  0  0  0  0  0  0  0
    2.7000    0.5200    0.0000 C   0  0  0  0  0  0  0  0  0  0  0  0
    4.2000    0.5200    0.0000 C   0  0  0  0  0  0  0  0  0  0  0  0
  1  2  2  0  0  0  0
  2  3  1  0  0  0  0
  3  4  1  0  0  0  0
  4  5  1  0  0  0  0
  4 10  2  0  0  0  0
  5  6  2  0  0  0  0
  6  7  1  0  0  0  0
  7  8  1  0  0  0  0
  7  9  2  0  0  0  0
  9 10  1  0  0  0  0
M  END
>  <name>
O=[C;ester]Cc1ccc([O;ester])cc1

>  <apo>
2

>  <freq>
1

>  <freq0>
0

>  <freq1>
1

>  <freqA>
0.99700278

>  <a_count>
18

$$$$

  MOE2015           2D

 10 10  0  0  0  0  0  0  0  0999 V2000
    6.5070    1.7440    0.0000 O   0  0  0  0  0  0  0  0  0  0  0  0
    5.2080    0.9940    0.0000 C   0  0  0  0  0  0  0  0  0  0  0  0
    3.9090    1.7440    0.0000 C   0  0  0  0  0  0  0  0  0  0  0  0
    2.6100    0.9940    0.0000 C   0  0  0  0  0  0  0  0  0  0  0  0
    2.6100   -0.5060    0.0000 O   0  0  0  0  0  0  0  0  0  0  0  0
    1.3110    1.7440    0.0000 C   0  0  0  0  0  0  0  0  0  0  0  0
    0.0120    0.9940    0.0000 C   0  0  0  0  0  0  0  0  0  0  0  0
    1.3110    3.2440    0.0000 C   0  0  0  0  0  0  0  0  0  0  0  0
    2.6100    3.9940    0.0000 C   0  0  0  0  0  0  0  0  0  0  0  0
    3.9090    3.2440    0.0000 C   0  0  0  0  0  0  0  0  0  0  0  0
  1  2  2  0  0  0  0
  2  3  1  0  0  0  0
  3  4  1  0  0  0  0
  3 10  2  0  0  0  0
  4  5  1  0  0  0  0
  4  6  2  0  0  0  0
  6  7  1  0  0  0  0
  6  8  1  0  0  0  0
  8  9  2  0  0  0  0
  9 10  1  0  0  0  0
M  END
>  <name>
O=[C;ester]c1c([O;ester])c(C)ccc1

>  <apo>
2

>  <freq>
1

>  <freq0>
0

>  <freq1>
1

>  <freqA>
0.99700278

>  <a_count>
18

$$$$

  MOE2015           2D

 10 10  0  0  0  0  0  0  0  0999 V2000
   -0.3750   -3.5070    0.0000 O   0  0  0  0  0  0  0  0  0  0  0  0
    0.3750   -2.2080    0.0000 C   0  0  0  0  0  0  0  0  0  0  0  0
    1.8750   -2.2080    0.0000 C   0  0  0  0  0  0  0  0  0  0  0  0
    2.6250   -0.9090    0.0000 C   0  0  0  0  0  0  0  0  0  0  0  0
    1.8750    0.3900    0.0000 O   0  0  0  0  0  0  0  0  0  0  0  0
    4.1250   -0.9090    0.0000 C   0  0  0  0  0  0  0  0  0  0  0  0
    4.8750   -2.2080    0.0000 C   0  0  0  0  0  0  0  0  0  0  0  0
    6.3750   -2.2080    0.0000 C   0  0  0  0  0  0  0  0  0  0  0  0
    4.1250   -3.5070    0.0000 C   0  0  0  0  0  0  0  0  0  0  0  0
    2.6250   -3.5070    0.0000 C   0  0  0  0  0  0  0  0  0  0  0  0
  1  2  2  0  0  0  0
  2  3  1  0  0  0  0
  3  4  1  0  0  0  0
  3 10  2  0  0  0  0
  4  5  1  0  0  0  0
  4  6  2  0  0  0  0
  6  7  1  0  0  0  0
  7  8  1  0  0  0  0
  7  9  2  0  0  0  0
  9 10  1  0  0  0  0
M  END
>  <name>
O=[C;ester]c1c([O;ester])cc(C)cc1

>  <apo>
2

>  <freq>
1

>  <freq0>
0

>  <freq1>
1

>  <freqA>
0.99700278

>  <a_count>
18

$$$$

  MOE2015           2D

 10 10  0  0  0  0  0  0  0  0999 V2000
    5.3880   -1.4440    0.0000 O   0  0  0  0  0  0  0  0  0  0  0  0
    4.0890   -0.6940    0.0000 C   0  0  0  0  0  0  0  0  0  0  0  0
    2.7900   -1.4440    0.0000 C   0  0  0  0  0  0  0  0  0  0  0  0
    1.4910   -0.6940    0.0000 C   0  0  0  0  0  0  0  0  0  0  0  0
    1.4910    0.8060    0.0000 O   0  0  0  0  0  0  0  0  0  0  0  0
    0.1920   -1.4440    0.0000 C   0  0  0  0  0  0  0  0  0  0  0  0
    0.1920   -2.9440    0.0000 C   0  0  0  0  0  0  0  0  0  0  0  0
    1.4910   -3.6940    0.0000 C   0  0  0  0  0  0  0  0  0  0  0  0
    2.7900   -2.9440    0.0000 C   0  0  0  0  0  0  0  0  0  0  0  0
    4.0890   -3.6940    0.0000 C   0  0  0  0  0  0  0  0  0  0  0  0
  1  2  2  0  0  0  0
  2  3  1  0  0  0  0
  3  4  1  0  0  0  0
  3  9  2  0  0  0  0
  4  5  1  0  0  0  0
  4  6  2  0  0  0  0
  6  7  1  0  0  0  0
  7  8  2  0  0  0  0
  8  9  1  0  0  0  0
  9 10  1  0  0  0  0
M  END
>  <name>
O=[C;ester]c1c([O;ester])cccc1C

>  <apo>
2

>  <freq>
1

>  <freq0>
0

>  <freq1>
1

>  <freqA>
0.99700278

>  <a_count>
18

$$$$

  MOE2015           2D

 11 12  0  0  0  0  0  0  0  0999 V2000
    6.6080    0.0000    0.0000 O   0  0  0  0  0  0  0  0  0  0  0  0
    5.1080    0.0000    0.0000 C   0  0  0  0  0  0  0  0  0  0  0  0
    4.3580    1.2990    0.0000 C   0  0  0  0  0  0  0  0  0  0  0  0
    2.8580    1.2990    0.0000 C   0  0  0  0  0  0  0  0  0  0  0  0
    2.1080    2.5980    0.0000 C   0  0  0  0  0  0  0  0  0  0  0  0
    0.6410    2.2860    0.0000 N   0  0  0  0  0  0  0  0  0  0  0  0
    0.4840    0.7940    0.0000 C   0  0  0  0  0  0  0  0  0  0  0  0
    1.8540    0.1840    0.0000 C   0  0  0  0  0  0  0  0  0  0  0  0
    2.8580    3.8970    0.0000 C   0  0  0  0  0  0  0  0  0  0  0  0
    4.3580    3.8970    0.0000 C   0  0  0  0  0  0  0  0  0  0  0  0
    5.1080    2.5980    0.0000 C   0  0  0  0  0  0  0  0  0  0  0  0
  1  2  2  0  0  0  0
  2  3  1  0  0  0  0
  3  4  1  0  0  0  0
  3 11  2  0  0  0  0
  4  5  2  0  0  0  0
  4  8  1  0  0  0  0
  5  6  1  0  0  0  0
  5  9  1  0  0  0  0
  6  7  1  0  0  0  0
  7  8  2  0  0  0  0
  9 10  2  0  0  0  0
 10 11  1  0  0  0  0
M  END
>  <name>
O=[C;ester]c1c2c([nH;NaroC]cc2)ccc1

>  <apo>
2

>  <freq>
1

>  <freq0>
0

>  <freq1>
1

>  <freqA>
0.99700278

>  <a_count>
18

$$$$

  MOE2015           2D

 11 12  0  0  0  0  0  0  0  0999 V2000
    7.4340    1.9920    0.0000 O   0  0  0  0  0  0  0  0  0  0  0  0
    6.1350    1.2420    0.0000 C   0  0  0  0  0  0  0  0  0  0  0  0
    4.8360    1.9920    0.0000 C   0  0  0  0  0  0  0  0  0  0  0  0
    3.5370    1.2420    0.0000 C   0  0  0  0  0  0  0  0  0  0  0  0
    2.2380    1.9920    0.0000 C   0  0  0  0  0  0  0  0  0  0  0  0
    2.2380    3.4920    0.0000 C   0  0  0  0  0  0  0  0  0  0  0  0
    0.8110    3.9560    0.0000 N   0  0  0  0  0  0  0  0  0  0  0  0
   -0.0700    2.7420    0.0000 C   0  0  0  0  0  0  0  0  0  0  0  0
    0.8110    1.5280    0.0000 C   0  0  0  0  0  0  0  0  0  0  0  0
    3.5370    4.2420    0.0000 C   0  0  0  0  0  0  0  0  0  0  0  0
    4.8360    3.4920    0.0000 C   0  0  0  0  0  0  0  0  0  0  0  0
  1  2  2  0  0  0  0
  2  3  1  0  0  0  0
  3  4  1  0  0  0  0
  3 11  2  0  0  0  0
  4  5  2  0  0  0  0
  5  6  1  0  0  0  0
  5  9  1  0  0  0  0
  6  7  1  0  0  0  0
  6 10  2  0  0  0  0
  7  8  1  0  0  0  0
  8  9  2  0  0  0  0
 10 11  1  0  0  0  0
M  END
>  <name>
O=[C;ester]c1cc2c([nH]cc2)cc1

>  <apo>
1

>  <freq>
1

>  <freq0>
0

>  <freq1>
1

>  <freqA>
0.99700278

>  <a_count>
18

$$$$

  MOE2015           2D

  9  8  0  0  0  0  0  0  0  0999 V2000
    0.0000    0.0000    0.0000 P   0  0  0  0  0  0  0  0  0  0  0  0
    0.7500    1.2990    0.0000 O   0  0  0  0  0  0  0  0  0  0  0  0
    1.2990   -0.7500    0.0000 O   0  0  0  0  0  0  0  0  0  0  0  0
    2.5980    0.0000    0.0000 C   0  0  0  0  0  0  0  0  0  0  0  0
    3.8970   -0.7500    0.0000 O   0  0  0  0  0  0  0  0  0  0  0  0
   -1.2990    0.7500    0.0000 O   0  0  0  0  0  0  0  0  0  0  0  0
   -2.5980    0.0000    0.0000 C   0  0  0  0  0  0  0  0  0  0  0  0
   -3.8970    0.7500    0.0000 O   0  0  0  0  0  0  0  0  0  0  0  0
   -0.7500   -1.2990    0.0000 C   0  0  0  0  0  0  0  0  0  0  0  0
  1  2  2  0  0  0  0
  1  3  1  0  0  0  0
  1  6  1  0  0  0  0
  1  9  1  0  0  0  0
  3  4  1  0  0  0  0
  4  5  1  0  0  0  0
  6  7  1  0  0  0  0
  7  8  1  0  0  0  0
M  END
>  <name>
P(=O)(OC[O;ester])(OC[O;ester])[C;ether]

>  <apo>
3

>  <freq>
1

>  <freq0>
0

>  <freq1>
1

>  <freqA>
0.99700278

>  <a_count>
18

$$$$

  MOE2015           2D

  6  6  0  0  0  0  0  0  0  0999 V2000
   -2.0490    2.0490    0.0000 C   0  0  0  0  0  0  0  0  0  0  0  0
   -2.0490    0.5490    0.0000 C   0  0  0  0  0  0  0  0  0  0  0  0
   -0.7500   -0.2010    0.0000 C   0  0  0  0  0  0  0  0  0  0  0  0
    0.5490    0.5490    0.0000 C   0  0  0  0  0  0  0  0  0  0  0  0
    0.5490    2.0490    0.0000 C   0  0  0  0  0  0  0  0  0  0  0  0
   -0.7500    2.7990    0.0000 C   0  0  0  0  0  0  0  0  0  0  0  0
  1  2  1  0  0  0  0
  1  6  1  0  0  0  0
  2  3  1  0  0  0  0
  3  4  1  0  0  0  0
  4  5  1  0  0  0  0
  5  6  1  0  0  0  0
M  END
>  <name>
[C;amine]1CCCCC1

>  <apo>
1

>  <freq>
1

>  <freq0>
0

>  <freq1>
1

>  <freqA>
0.99700278

>  <a_count>
18

$$$$

  MOE2015           2D

  8  8  0  0  0  0  0  0  0  0999 V2000
    0.0000    0.0000    0.0000 C   0  0  0  0  0  0  0  0  0  0  0  0
    1.5000    0.0000    0.0000 C   0  0  0  0  0  0  0  0  0  0  0  0
    2.2500   -1.2990    0.0000 C   0  0  0  0  0  0  0  0  0  0  0  0
    3.7500   -1.2990    0.0000 C   0  0  0  0  0  0  0  0  0  0  0  0
    4.5000    0.0000    0.0000 C   0  0  0  0  0  0  0  0  0  0  0  0
    6.0000    0.0000    0.0000 C   0  0  0  0  0  0  0  0  0  0  0  0
    3.7500    1.2990    0.0000 C   0  0  0  0  0  0  0  0  0  0  0  0
    2.2500    1.2990    0.0000 C   0  0  0  0  0  0  0  0  0  0  0  0
  1  2  1  0  0  0  0
  2  3  1  0  0  0  0
  2  8  2  0  0  0  0
  3  4  2  0  0  0  0
  4  5  1  0  0  0  0
  5  6  1  0  0  0  0
  5  7  2  0  0  0  0
  7  8  1  0  0  0  0
M  END
>  <name>
[C;amine]c1ccc([C;olefin])cc1

>  <apo>
2

>  <freq>
1

>  <freq0>
0

>  <freq1>
1

>  <freqA>
0.99700278

>  <a_count>
18

$$$$

  MOE2015           2D

  6  6  0  0  0  0  0  0  0  0999 V2000
   -2.0490    2.0490    0.0000 C   0  0  0  0  0  0  0  0  0  0  0  0
   -2.0490    0.5490    0.0000 C   0  0  0  0  0  0  0  0  0  0  0  0
   -0.7500   -0.2010    0.0000 C   0  0  0  0  0  0  0  0  0  0  0  0
    0.5490    0.5490    0.0000 C   0  0  0  0  0  0  0  0  0  0  0  0
    0.5490    2.0490    0.0000 C   0  0  0  0  0  0  0  0  0  0  0  0
   -0.7500    2.7990    0.0000 C   0  0  0  0  0  0  0  0  0  0  0  0
  1  2  1  0  0  0  0
  1  6  1  0  0  0  0
  2  3  1  0  0  0  0
  3  4  1  0  0  0  0
  4  5  1  0  0  0  0
  5  6  1  0  0  0  0
M  END
>  <name>
[C;ether]1CCCCC1

>  <apo>
1

>  <freq>
1

>  <freq0>
0

>  <freq1>
1

>  <freqA>
0.99700278

>  <a_count>
18

$$$$

  MOE2015           2D

  8  8  0  0  0  0  0  0  0  0999 V2000
    5.4110   -0.8000    0.0000 C   0  0  0  0  0  0  0  0  0  0  0  0
    4.1120   -0.0500    0.0000 C   0  0  0  0  0  0  0  0  0  0  0  0
    2.8120   -0.8000    0.0000 C   0  0  0  0  0  0  0  0  0  0  0  0
    1.5130   -0.0500    0.0000 C   0  0  0  0  0  0  0  0  0  0  0  0
    0.2140   -0.8000    0.0000 C   0  0  0  0  0  0  0  0  0  0  0  0
    1.5130    1.4500    0.0000 C   0  0  0  0  0  0  0  0  0  0  0  0
    2.8120    2.2000    0.0000 C   0  0  0  0  0  0  0  0  0  0  0  0
    4.1120    1.4500    0.0000 C   0  0  0  0  0  0  0  0  0  0  0  0
  1  2  1  0  0  0  0
  2  3  1  0  0  0  0
  2  8  2  0  0  0  0
  3  4  2  0  0  0  0
  4  5  1  0  0  0  0
  4  6  1  0  0  0  0
  6  7  2  0  0  0  0
  7  8  1  0  0  0  0
M  END
>  <name>
[C;thioether]c1cc(C)ccc1

>  <apo>
1

>  <freq>
1

>  <freq0>
0

>  <freq1>
1

>  <freqA>
0.99700278

>  <a_count>
18

$$$$

  MOE2015           2D

  6  6  0  0  0  0  0  0  0  0999 V2000
   -2.0490    2.0490    0.0000 N   0  3  0  0  0  0  0  0  0  0  0  0
   -2.0490    0.5490    0.0000 C   0  0  0  0  0  0  0  0  0  0  0  0
   -0.7500   -0.2010    0.0000 C   0  0  0  0  0  0  0  0  0  0  0  0
    0.5490    0.5490    0.0000 N   0  3  0  0  0  0  0  0  0  0  0  0
    0.5490    2.0490    0.0000 C   0  0  0  0  0  0  0  0  0  0  0  0
   -0.7500    2.7990    0.0000 C   0  0  0  0  0  0  0  0  0  0  0  0
  1  2  1  0  0  0  0
  1  6  1  0  0  0  0
  2  3  1  0  0  0  0
  3  4  1  0  0  0  0
  4  5  1  0  0  0  0
  5  6  1  0  0  0  0
M  CHG  1   1   1
M  CHG  1   4   1
M  END
>  <name>
[N+;amine]1CC[N+]CC1

>  <apo>
1

>  <freq>
1

>  <freq0>
0

>  <freq1>
1

>  <freqA>
0.99700278

>  <a_count>
18

$$$$

  MOE2015           2D

 10 10  0  0  0  0  0  0  0  0999 V2000
   -0.3750    3.2480    0.0000 O   0  5  0  0  0  0  0  0  0  0  0  0
    0.3750    1.9490    0.0000 N   0  3  0  0  0  0  0  0  0  0  0  0
   -0.3750    0.6500    0.0000 O   0  5  0  0  0  0  0  0  0  0  0  0
    1.8750    1.9490    0.0000 C   0  0  0  0  0  0  0  0  0  0  0  0
    2.6250    0.6500    0.0000 C   0  0  0  0  0  0  0  0  0  0  0  0
    4.1250    0.6500    0.0000 C   0  0  0  0  0  0  0  0  0  0  0  0
    4.8750    1.9490    0.0000 C   0  0  0  0  0  0  0  0  0  0  0  0
    6.3750    1.9490    0.0000 C   0  0  0  0  0  0  0  0  0  0  0  0
    4.1250    3.2480    0.0000 C   0  0  0  0  0  0  0  0  0  0  0  0
    2.6250    3.2480    0.0000 C   0  0  0  0  0  0  0  0  0  0  0  0
  1  2  1  0  0  0  0
  2  3  1  0  0  0  0
  2  4  1  0  0  0  0
  4  5  1  0  0  0  0
  4 10  2  0  0  0  0
  5  6  2  0  0  0  0
  6  7  1  0  0  0  0
  7  8  1  0  0  0  0
  7  9  2  0  0  0  0
  9 10  1  0  0  0  0
M  CHG  1   1  -1
M  CHG  1   2   1
M  CHG  1   3  -1
M  END
>  <name>
[O-][N+]([O-])c1ccc([C;olefin])cc1

>  <apo>
1

>  <freq>
1

>  <freq0>
0

>  <freq1>
1

>  <freqA>
0.99700278

>  <a_count>
18

$$$$

  MOE2015           2D

 11 12  0  0  0  0  0  0  0  0999 V2000
    7.0590   -0.4800    0.0000 S   0  0  0  0  0  0  0  0  0  0  0  0
    5.5590   -0.4800    0.0000 C   0  0  0  0  0  0  0  0  0  0  0  0
    4.6770    0.7340    0.0000 C   0  0  0  0  0  0  0  0  0  0  0  0
    5.1410    2.1600    0.0000 S   0  0  0  0  0  0  0  0  0  0  0  0
    3.2510    0.2700    0.0000 C   0  0  0  0  0  0  0  0  0  0  0  0
    3.2510   -1.2300    0.0000 C   0  0  0  0  0  0  0  0  0  0  0  0
    4.6770   -1.6940    0.0000 N   0  0  0  0  0  0  0  0  0  0  0  0
    1.9520   -1.9800    0.0000 C   0  0  0  0  0  0  0  0  0  0  0  0
    0.6530   -1.2300    0.0000 C   0  0  0  0  0  0  0  0  0  0  0  0
    0.6530    0.2700    0.0000 C   0  0  0  0  0  0  0  0  0  0  0  0
    1.9520    1.0200    0.0000 C   0  0  0  0  0  0  0  0  0  0  0  0
  1  2  1  0  0  0  0
  2  3  2  0  0  0  0
  2  7  1  0  0  0  0
  3  4  1  0  0  0  0
  3  5  1  0  0  0  0
  5  6  1  0  0  0  0
  5 11  2  0  0  0  0
  6  7  1  0  0  0  0
  6  8  2  0  0  0  0
  8  9  1  0  0  0  0
  9 10  2  0  0  0  0
 10 11  1  0  0  0  0
M  END
>  <name>
[S;thioether]c1c([S;thioether])c2c([nH]1)cccc2

>  <apo>
2

>  <freq>
1

>  <freq0>
0

>  <freq1>
1

>  <freqA>
0.99700278

>  <a_count>
18

$$$$

  MOE2015           2D

 10 10  0  0  0  0  0  0  0  0999 V2000
    1.6500   -2.3380    0.0000 Br  0  0  0  0  0  0  0  0  0  0  0  0
    2.4000   -1.0390    0.0000 C   0  0  0  0  0  0  0  0  0  0  0  0
    1.6500    0.2600    0.0000 C   0  0  0  0  0  0  0  0  0  0  0  0
    0.1500    0.2600    0.0000 N   0  0  0  0  0  0  0  0  0  0  0  0
    2.4000    1.5590    0.0000 C   0  0  0  0  0  0  0  0  0  0  0  0
    1.6500    2.8580    0.0000 C   0  0  0  0  0  0  0  0  0  0  0  0
    3.9000    1.5590    0.0000 C   0  0  0  0  0  0  0  0  0  0  0  0
    4.6500    0.2600    0.0000 C   0  0  0  0  0  0  0  0  0  0  0  0
    6.1500    0.2600    0.0000 Br  0  0  0  0  0  0  0  0  0  0  0  0
    3.9000   -1.0390    0.0000 C   0  0  0  0  0  0  0  0  0  0  0  0
  1  2  1  0  0  0  0
  2  3  1  0  0  0  0
  2 10  2  0  0  0  0
  3  4  1  0  0  0  0
  3  5  2  0  0  0  0
  5  6  1  0  0  0  0
  5  7  1  0  0  0  0
  7  8  2  0  0  0  0
  8  9  1  0  0  0  0
  8 10  1  0  0  0  0
M  END
>  <name>
Brc1c(N)c([C;amine])cc(Br)c1

>  <apo>
1

>  <freq>
1

>  <freq0>
0

>  <freq1>
1

>  <freqA>
0.99700278

>  <a_count>
17

$$$$

  MOE2015           2D

  5  4  0  0  0  0  0  0  0  0999 V2000
    0.1500   -0.0400    0.0000 C   0  0  0  0  0  0  0  0  0  0  0  0
    1.4490    0.7100    0.0000 C   0  0  0  0  0  0  0  0  0  0  0  0
    2.7480   -0.0400    0.0000 C   0  0  0  0  0  0  0  0  0  0  0  0
   -1.1490    0.7100    0.0000 C   0  0  0  0  0  0  0  0  0  0  0  0
   -2.4480   -0.0400    0.0000 C   0  0  0  0  0  0  0  0  0  0  0  0
  1  2  1  0  0  0  0
  1  4  1  0  0  0  0
  2  3  1  0  0  0  0
  4  5  1  0  0  0  0
M  END
>  <name>
C(C[C;amine])C[C;ether]

>  <apo>
2

>  <freq>
1

>  <freq0>
0

>  <freq1>
1

>  <freqA>
0.99700278

>  <a_count>
17

$$$$

  MOE2015           2D

  5  4  0  0  0  0  0  0  0  0999 V2000
    0.1500   -0.0400    0.0000 C   0  0  0  0  0  0  0  0  0  0  0  0
    1.4490    0.7100    0.0000 C   0  0  0  0  0  0  0  0  0  0  0  0
    2.7480   -0.0400    0.0000 C   0  0  0  0  0  0  0  0  0  0  0  0
   -1.1490    0.7100    0.0000 C   0  0  0  0  0  0  0  0  0  0  0  0
   -2.4480   -0.0400    0.0000 C   0  0  0  0  0  0  0  0  0  0  0  0
  1  2  1  0  0  0  0
  1  4  1  0  0  0  0
  2  3  1  0  0  0  0
  4  5  1  0  0  0  0
M  END
>  <name>
C(C[C;olefin])[C;olefin]C

>  <apo>
2

>  <freq>
1

>  <freq0>
0

>  <freq1>
1

>  <freqA>
0.99700278

>  <a_count>
17

$$$$

  MOE2015           2D

  8  8  0  0  0  0  0  0  0  0999 V2000
    1.2190    1.7860    0.0000 C   0  0  0  0  0  0  0  0  0  0  0  0
    1.9690    3.0850    0.0000 C   0  0  0  0  0  0  0  0  0  0  0  0
   -0.2810    1.7860    0.0000 C   0  0  0  0  0  0  0  0  0  0  0  0
   -1.0310    0.4870    0.0000 N   0  0  0  0  0  0  0  0  0  0  0  0
   -2.5310    0.4870    0.0000 C   0  0  0  0  0  0  0  0  0  0  0  0
   -3.2810    1.7860    0.0000 C   0  0  0  0  0  0  0  0  0  0  0  0
   -2.5310    3.0850    0.0000 C   0  0  0  0  0  0  0  0  0  0  0  0
   -1.0310    3.0850    0.0000 C   0  0  0  0  0  0  0  0  0  0  0  0
  1  2  1  0  0  0  0
  1  3  1  0  0  0  0
  3  4  1  0  0  0  0
  3  8  2  0  0  0  0
  4  5  2  0  0  0  0
  5  6  1  0  0  0  0
  6  7  2  0  0  0  0
  7  8  1  0  0  0  0
M  END
>  <name>
C([C;ether])c1ncccc1

>  <apo>
1

>  <freq>
1

>  <freq0>
0

>  <freq1>
1

>  <freqA>
0.99700278

>  <a_count>
17

$$$$

  MOE2015           2D

 11 11  0  0  0  0  0  0  0  0999 V2000
    0.0000    0.0000    0.0000 Cl  0  0  0  0  0  0  0  0  0  0  0  0
    1.5000    0.0000    0.0000 C   0  0  0  0  0  0  0  0  0  0  0  0
    2.2500    1.2990    0.0000 C   0  0  0  0  0  0  0  0  0  0  0  0
    1.5000    2.5980    0.0000 C   0  0  0  0  0  0  0  0  0  0  0  0
    3.7500    1.2990    0.0000 C   0  0  0  0  0  0  0  0  0  0  0  0
    4.5000    0.0000    0.0000 C   0  0  0  0  0  0  0  0  0  0  0  0
    6.0000    0.0000    0.0000 N   0  3  0  0  0  0  0  0  0  0  0  0
    6.7500   -1.2990    0.0000 O   0  0  0  0  0  0  0  0  0  0  0  0
    6.7500    1.2990    0.0000 O   0  5  0  0  0  0  0  0  0  0  0  0
    3.7500   -1.2990    0.0000 C   0  0  0  0  0  0  0  0  0  0  0  0
    2.2500   -1.2990    0.0000 C   0  0  0  0  0  0  0  0  0  0  0  0
  1  2  1  0  0  0  0
  2  3  1  0  0  0  0
  2 11  2  0  0  0  0
  3  4  1  0  0  0  0
  3  5  2  0  0  0  0
  5  6  1  0  0  0  0
  6  7  1  0  0  0  0
  6 10  2  0  0  0  0
  7  8  2  0  0  0  0
  7  9  1  0  0  0  0
 10 11  1  0  0  0  0
M  CHG  1   7   1
M  CHG  1   9  -1
M  END
>  <name>
Clc1c(C)cc([N+](=O)[O-])[c;biphenyl]c1

>  <apo>
1

>  <freq>
1

>  <freq0>
0

>  <freq1>
1

>  <freqA>
0.99700278

>  <a_count>
17

$$$$

  MOE2015           2D

 11 11  0  0  0  0  0  0  0  0999 V2000
    1.7050   -2.0080    0.0000 F   0  0  0  0  0  0  0  0  0  0  0  0
    2.4550   -0.7090    0.0000 C   0  0  0  0  0  0  0  0  0  0  0  0
    1.7050    0.5900    0.0000 C   0  0  0  0  0  0  0  0  0  0  0  0
    0.2050    0.5900    0.0000 C   0  0  0  0  0  0  0  0  0  0  0  0
   -0.5450   -0.7090    0.0000 N   0  0  0  0  0  0  0  0  0  0  0  0
    2.4550    1.8900    0.0000 C   0  0  0  0  0  0  0  0  0  0  0  0
    1.7050    3.1890    0.0000 F   0  0  0  0  0  0  0  0  0  0  0  0
    3.9550    1.8900    0.0000 C   0  0  0  0  0  0  0  0  0  0  0  0
    4.7050    0.5900    0.0000 C   0  0  0  0  0  0  0  0  0  0  0  0
    6.2050    0.5900    0.0000 F   0  0  0  0  0  0  0  0  0  0  0  0
    3.9550   -0.7090    0.0000 C   0  0  0  0  0  0  0  0  0  0  0  0
  1  2  1  0  0  0  0
  2  3  1  0  0  0  0
  2 11  2  0  0  0  0
  3  4  1  0  0  0  0
  3  6  2  0  0  0  0
  4  5  1  0  0  0  0
  6  7  1  0  0  0  0
  6  8  1  0  0  0  0
  8  9  2  0  0  0  0
  9 10  1  0  0  0  0
  9 11  1  0  0  0  0
M  END
>  <name>
Fc1c(C[N;amide])c(F)cc(F)c1

>  <apo>
1

>  <freq>
1

>  <freq0>
0

>  <freq1>
1

>  <freqA>
0.99700278

>  <a_count>
17

$$$$

  MOE2015           2D

 10 10  0  0  0  0  0  0  0  0999 V2000
    1.6500    2.8580    0.0000 F   0  0  0  0  0  0  0  0  0  0  0  0
    2.4000    1.5590    0.0000 C   0  0  0  0  0  0  0  0  0  0  0  0
    1.6500    0.2600    0.0000 C   0  0  0  0  0  0  0  0  0  0  0  0
    0.1500    0.2600    0.0000 C   0  0  0  0  0  0  0  0  0  0  0  0
   -0.6000   -1.0390    0.0000 N   0  0  0  0  0  0  0  0  0  0  0  0
    2.4000   -1.0390    0.0000 C   0  0  0  0  0  0  0  0  0  0  0  0
    3.9000   -1.0390    0.0000 C   0  0  0  0  0  0  0  0  0  0  0  0
    4.6500    0.2600    0.0000 C   0  0  0  0  0  0  0  0  0  0  0  0
    6.1500    0.2600    0.0000 F   0  0  0  0  0  0  0  0  0  0  0  0
    3.9000    1.5590    0.0000 C   0  0  0  0  0  0  0  0  0  0  0  0
  1  2  1  0  0  0  0
  2  3  1  0  0  0  0
  2 10  2  0  0  0  0
  3  4  1  0  0  0  0
  3  6  2  0  0  0  0
  4  5  1  0  0  0  0
  6  7  1  0  0  0  0
  7  8  2  0  0  0  0
  8  9  1  0  0  0  0
  8 10  1  0  0  0  0
M  END
>  <name>
Fc1c(C[N;amide])ccc(F)c1

>  <apo>
1

>  <freq>
1

>  <freq0>
0

>  <freq1>
1

>  <freqA>
0.99700278

>  <a_count>
17

$$$$

  MOE2015           2D

 11 12  0  0  0  0  0  0  0  0999 V2000
    0.1930   -2.0080    0.0000 F   0  0  0  0  0  0  0  0  0  0  0  0
    1.4920   -1.2580    0.0000 C   0  0  0  0  0  0  0  0  0  0  0  0
    2.7910   -2.0080    0.0000 C   0  0  0  0  0  0  0  0  0  0  0  0
    4.0900   -1.2580    0.0000 C   0  0  0  0  0  0  0  0  0  0  0  0
    4.0900    0.2420    0.0000 C   0  0  0  0  0  0  0  0  0  0  0  0
    5.5170    0.7060    0.0000 N   0  0  0  0  0  0  0  0  0  0  0  0
    6.3980   -0.5080    0.0000 C   0  0  0  0  0  0  0  0  0  0  0  0
    7.8980   -0.5080    0.0000 O   0  0  0  0  0  0  0  0  0  0  0  0
    5.5170   -1.7210    0.0000 C   0  0  0  0  0  0  0  0  0  0  0  0
    2.7910    0.9920    0.0000 C   0  0  0  0  0  0  0  0  0  0  0  0
    1.4920    0.2420    0.0000 C   0  0  0  0  0  0  0  0  0  0  0  0
  1  2  1  0  0  0  0
  2  3  1  0  0  0  0
  2 11  2  0  0  0  0
  3  4  2  0  0  0  0
  4  5  1  0  0  0  0
  4  9  1  0  0  0  0
  5  6  1  0  0  0  0
  5 10  2  0  0  0  0
  6  7  1  0  0  0  0
  7  8  2  0  0  0  0
  7  9  1  0  0  0  0
 10 11  1  0  0  0  0
M  END
>  <name>
Fc1cc2c(NC(=O)[C;olefin]2)cc1

>  <apo>
1

>  <freq>
1

>  <freq0>
0

>  <freq1>
1

>  <freqA>
0.99700278

>  <a_count>
17

$$$$

  MOE2015           2D

  9  9  0  0  0  0  0  0  0  0999 V2000
    0.9170    1.5880    0.0000 O   0  0  0  0  0  0  0  0  0  0  0  0
    1.6670    0.2890    0.0000 C   0  0  0  0  0  0  0  0  0  0  0  0
   -0.5830    1.5880    0.0000 C   0  0  0  0  0  0  0  0  0  0  0  0
   -1.3330    2.8870    0.0000 C   0  0  0  0  0  0  0  0  0  0  0  0
   -0.5830    4.1860    0.0000 O   0  0  0  0  0  0  0  0  0  0  0  0
   -2.8330    2.8870    0.0000 C   0  0  0  0  0  0  0  0  0  0  0  0
   -3.5830    1.5880    0.0000 C   0  0  0  0  0  0  0  0  0  0  0  0
   -2.8330    0.2890    0.0000 C   0  0  0  0  0  0  0  0  0  0  0  0
   -1.3330    0.2890    0.0000 C   0  0  0  0  0  0  0  0  0  0  0  0
  1  2  1  0  0  0  0
  1  3  1  0  0  0  0
  3  4  1  0  0  0  0
  3  9  2  0  0  0  0
  4  5  1  0  0  0  0
  4  6  2  0  0  0  0
  6  7  1  0  0  0  0
  7  8  2  0  0  0  0
  8  9  1  0  0  0  0
M  END
>  <name>
O(C)c1c([O;ether])cccc1

>  <apo>
1

>  <freq>
1

>  <freq0>
0

>  <freq1>
1

>  <freqA>
0.99700278

>  <a_count>
17

$$$$

  MOE2015           2D

 10  9  0  0  1  0  0  0  0  0999 V2000
   -0.2420   -1.9540    0.0000 O   0  0  0  0  0  0  0  0  0  0  0  0
    1.0570   -1.2040    0.0000 C   0  0  0  0  0  0  0  0  0  0  0  0
    1.0570    0.2960    0.0000 O   0  5  0  0  0  0  0  0  0  0  0  0
    2.3560   -1.9540    0.0000 C   0  0  3  0  0  0  0  0  0  0  0  0
    2.3560   -3.4540    0.0000 N   0  0  0  0  0  0  0  0  0  0  0  0
    3.6550   -1.2040    0.0000 C   0  0  0  0  0  0  0  0  0  0  0  0
    4.9540   -1.9540    0.0000 C   0  0  0  0  0  0  0  0  0  0  0  0
    6.2530   -1.2040    0.0000 C   0  0  0  0  0  0  0  0  0  0  0  0
    7.5520   -1.9540    0.0000 O   0  0  0  0  0  0  0  0  0  0  0  0
    6.2530    0.2960    0.0000 O   0  5  0  0  0  0  0  0  0  0  0  0
  1  2  2  0  0  0  0
  2  3  1  0  0  0  0
  2  4  1  0  0  0  0
  4  5  1  0  0  0  0
  4  6  1  0  0  0  0
  6  7  1  0  0  0  0
  7  8  1  0  0  0  0
  8  9  2  0  0  0  0
  8 10  1  0  0  0  0
M  CHG  1   3  -1
M  CHG  1  10  -1
M  END
>  <name>
O=C([O-])C([N;amide])CCC(=O)[O-]

>  <apo>
1

>  <freq>
1

>  <freq0>
0

>  <freq1>
1

>  <freqA>
0.99700278

>  <a_count>
17

$$$$

  MOE2015           2D

  8  8  0  0  0  0  0  0  0  0999 V2000
    5.6480    1.3520    0.0000 O   0  0  0  0  0  0  0  0  0  0  0  0
    4.3100    0.6730    0.0000 C   0  0  0  0  0  0  0  0  0  0  0  0
    4.2300   -0.8250    0.0000 O   0  5  0  0  0  0  0  0  0  0  0  0
    3.0530    1.4910    0.0000 C   0  0  0  0  0  0  0  0  0  0  0  0
    1.7160    0.8120    0.0000 C   0  0  0  0  0  0  0  0  0  0  0  0
    1.4060    2.2800    0.0000 C   0  0  0  0  0  0  0  0  0  0  0  0
    0.4790   -0.0360    0.0000 C   0  0  0  0  0  0  0  0  0  0  0  0
    1.8320   -0.6830    0.0000 C   0  0  0  0  0  0  0  0  0  0  0  0
  1  2  2  0  0  0  0
  2  3  1  0  0  0  0
  2  4  1  0  0  0  0
  4  5  1  0  0  0  0
  5  6  1  0  0  0  0
  5  7  1  0  0  0  0
  5  8  1  0  0  0  0
  7  8  1  0  0  0  0
M  CHG  1   3  -1
M  END
>  <name>
O=C([O-])CC1([C;thioether])CC1

>  <apo>
1

>  <freq>
1

>  <freq0>
0

>  <freq1>
1

>  <freqA>
0.99700278

>  <a_count>
17

$$$$

  MOE2015           2D

  9  8  0  0  1  0  0  0  0  0999 V2000
   -0.3360   -1.2540    0.0000 O   0  0  0  0  0  0  0  0  0  0  0  0
    0.9630   -2.0040    0.0000 C   0  0  0  0  0  0  0  0  0  0  0  0
    0.9630   -3.5040    0.0000 O   0  5  0  0  0  0  0  0  0  0  0  0
    2.2620   -1.2540    0.0000 C   0  0  0  0  0  0  0  0  0  0  0  0
    3.5610   -2.0040    0.0000 C   0  0  0  0  0  0  0  0  0  0  0  0
    4.8600   -1.2540    0.0000 C   0  0  1  0  0  0  0  0  0  0  0  0
    4.8600    0.2460    0.0000 N   0  0  0  0  0  0  0  0  0  0  0  0
    6.1590   -2.0040    0.0000 C   0  0  0  0  0  0  0  0  0  0  0  0
    7.4580   -1.2540    0.0000 O   0  0  0  0  0  0  0  0  0  0  0  0
  1  2  2  0  0  0  0
  2  3  1  0  0  0  0
  2  4  1  0  0  0  0
  4  5  1  0  0  0  0
  5  6  1  0  0  0  0
  6  7  1  1  0  0  0
  6  8  1  0  0  0  0
  8  9  2  0  0  0  0
M  CHG  1   3  -1
M  END
>  <name>
O=C([O-])CC[C@@H]([N;amide])[C;amide]=O

>  <apo>
2

>  <freq>
1

>  <freq0>
0

>  <freq1>
1

>  <freqA>
0.99700278

>  <a_count>
17

$$$$

  MOE2015           2D

  9  8  0  0  1  0  0  0  0  0999 V2000
   -0.3360   -1.2540    0.0000 O   0  0  0  0  0  0  0  0  0  0  0  0
    0.9630   -2.0040    0.0000 C   0  0  0  0  0  0  0  0  0  0  0  0
    0.9630   -3.5040    0.0000 O   0  5  0  0  0  0  0  0  0  0  0  0
    2.2620   -1.2540    0.0000 C   0  0  0  0  0  0  0  0  0  0  0  0
    3.5610   -2.0040    0.0000 C   0  0  0  0  0  0  0  0  0  0  0  0
    4.8600   -1.2540    0.0000 C   0  0  2  0  0  0  0  0  0  0  0  0
    4.8600    0.2460    0.0000 N   0  0  0  0  0  0  0  0  0  0  0  0
    6.1590   -2.0040    0.0000 C   0  0  0  0  0  0  0  0  0  0  0  0
    7.4580   -1.2540    0.0000 O   0  0  0  0  0  0  0  0  0  0  0  0
  1  2  2  0  0  0  0
  2  3  1  0  0  0  0
  2  4  1  0  0  0  0
  4  5  1  0  0  0  0
  5  6  1  0  0  0  0
  6  7  1  6  0  0  0
  6  8  1  0  0  0  0
  8  9  2  0  0  0  0
M  CHG  1   3  -1
M  END
>  <name>
O=C([O-])CC[C@H]([N;amide])[C;amide]=O

>  <apo>
2

>  <freq>
1

>  <freq0>
0

>  <freq1>
1

>  <freqA>
0.99700278

>  <a_count>
17

$$$$

  MOE2015           2D

 10 10  0  0  0  0  0  0  0  0999 V2000
    5.6250    3.2480    0.0000 O   0  0  0  0  0  0  0  0  0  0  0  0
    4.8750    1.9490    0.0000 C   0  0  0  0  0  0  0  0  0  0  0  0
    5.6250    0.6500    0.0000 O   0  5  0  0  0  0  0  0  0  0  0  0
    3.3750    1.9490    0.0000 C   0  0  0  0  0  0  0  0  0  0  0  0
    2.6250    0.6500    0.0000 C   0  0  0  0  0  0  0  0  0  0  0  0
    1.1250    0.6500    0.0000 C   0  0  0  0  0  0  0  0  0  0  0  0
    0.3750   -0.6500    0.0000 C   0  0  0  0  0  0  0  0  0  0  0  0
    0.3750    1.9490    0.0000 C   0  0  0  0  0  0  0  0  0  0  0  0
    1.1250    3.2480    0.0000 C   0  0  0  0  0  0  0  0  0  0  0  0
    2.6250    3.2480    0.0000 C   0  0  0  0  0  0  0  0  0  0  0  0
  1  2  2  0  0  0  0
  2  3  1  0  0  0  0
  2  4  1  0  0  0  0
  4  5  1  0  0  0  0
  4 10  2  0  0  0  0
  5  6  2  0  0  0  0
  6  7  1  0  0  0  0
  6  8  1  0  0  0  0
  8  9  2  0  0  0  0
  9 10  1  0  0  0  0
M  CHG  1   3  -1
M  END
>  <name>
O=C([O-])c1cc(C)[c;biphenyl]cc1

>  <apo>
1

>  <freq>
1

>  <freq0>
0

>  <freq1>
1

>  <freqA>
0.99700278

>  <a_count>
17

$$$$

  MOE2015           2D

 10 10  0  0  0  0  0  0  0  0999 V2000
   -0.3750    3.2480    0.0000 O   0  0  0  0  0  0  0  0  0  0  0  0
    0.3750    1.9490    0.0000 C   0  0  0  0  0  0  0  0  0  0  0  0
   -0.3750    0.6500    0.0000 O   0  5  0  0  0  0  0  0  0  0  0  0
    1.8750    1.9490    0.0000 C   0  0  0  0  0  0  0  0  0  0  0  0
    2.6250    0.6500    0.0000 C   0  0  0  0  0  0  0  0  0  0  0  0
    4.1250    0.6500    0.0000 C   0  0  0  0  0  0  0  0  0  0  0  0
    4.8750    1.9490    0.0000 C   0  0  0  0  0  0  0  0  0  0  0  0
    6.3750    1.9490    0.0000 C   0  0  0  0  0  0  0  0  0  0  0  0
    4.1250    3.2480    0.0000 C   0  0  0  0  0  0  0  0  0  0  0  0
    2.6250    3.2480    0.0000 C   0  0  0  0  0  0  0  0  0  0  0  0
  1  2  2  0  0  0  0
  2  3  1  0  0  0  0
  2  4  1  0  0  0  0
  4  5  1  0  0  0  0
  4 10  2  0  0  0  0
  5  6  2  0  0  0  0
  6  7  1  0  0  0  0
  7  8  1  0  0  0  0
  7  9  2  0  0  0  0
  9 10  1  0  0  0  0
M  CHG  1   3  -1
M  END
>  <name>
O=C([O-])c1ccc([C;thioether])cc1

>  <apo>
1

>  <freq>
1

>  <freq0>
0

>  <freq1>
1

>  <freqA>
0.99700278

>  <a_count>
17

$$$$

  MOE2015           2D

  9  9  0  0  0  0  0  0  0  0999 V2000
    5.5000   -3.1750    0.0000 O   0  0  0  0  0  0  0  0  0  0  0  0
    4.7500   -1.8760    0.0000 C   0  0  0  0  0  0  0  0  0  0  0  0
    3.2500   -1.8760    0.0000 C   0  0  0  0  0  0  0  0  0  0  0  0
    2.5000   -0.5770    0.0000 C   0  0  0  0  0  0  0  0  0  0  0  0
    3.2500    0.7220    0.0000 C   0  0  0  0  0  0  0  0  0  0  0  0
    1.0000   -0.5770    0.0000 C   0  0  0  0  0  0  0  0  0  0  0  0
    0.2500   -1.8760    0.0000 C   0  0  0  0  0  0  0  0  0  0  0  0
    1.0000   -3.1750    0.0000 C   0  0  0  0  0  0  0  0  0  0  0  0
    2.5000   -3.1750    0.0000 C   0  0  0  0  0  0  0  0  0  0  0  0
  1  2  2  0  0  0  0
  2  3  1  0  0  0  0
  3  4  1  0  0  0  0
  3  9  2  0  0  0  0
  4  5  1  0  0  0  0
  4  6  2  0  0  0  0
  6  7  1  0  0  0  0
  7  8  2  0  0  0  0
  8  9  1  0  0  0  0
M  END
>  <name>
O=[C;amide]c1c(C)cccc1

>  <apo>
1

>  <freq>
1

>  <freq0>
0

>  <freq1>
1

>  <freqA>
0.99700278

>  <a_count>
17

$$$$

  MOE2015           2D

 11 12  0  0  0  0  0  0  0  0999 V2000
    7.4340    1.9920    0.0000 O   0  0  0  0  0  0  0  0  0  0  0  0
    6.1350    1.2420    0.0000 C   0  0  0  0  0  0  0  0  0  0  0  0
    4.8360    1.9920    0.0000 C   0  0  0  0  0  0  0  0  0  0  0  0
    3.5370    1.2420    0.0000 C   0  0  0  0  0  0  0  0  0  0  0  0
    2.2380    1.9920    0.0000 C   0  0  0  0  0  0  0  0  0  0  0  0
    0.8110    1.5280    0.0000 O   0  0  0  0  0  0  0  0  0  0  0  0
   -0.0700    2.7420    0.0000 C   0  0  0  0  0  0  0  0  0  0  0  0
    0.8110    3.9560    0.0000 C   0  0  0  0  0  0  0  0  0  0  0  0
    2.2380    3.4920    0.0000 C   0  0  0  0  0  0  0  0  0  0  0  0
    3.5370    4.2420    0.0000 C   0  0  0  0  0  0  0  0  0  0  0  0
    4.8360    3.4920    0.0000 C   0  0  0  0  0  0  0  0  0  0  0  0
  1  2  2  0  0  0  0
  2  3  1  0  0  0  0
  3  4  1  0  0  0  0
  3 11  2  0  0  0  0
  4  5  2  0  0  0  0
  5  6  1  0  0  0  0
  5  9  1  0  0  0  0
  6  7  1  0  0  0  0
  7  8  2  0  0  0  0
  8  9  1  0  0  0  0
  9 10  2  0  0  0  0
 10 11  1  0  0  0  0
M  END
>  <name>
O=[C;amide]c1cc2occc2cc1

>  <apo>
1

>  <freq>
1

>  <freq0>
0

>  <freq1>
1

>  <freqA>
0.99700278

>  <a_count>
17

$$$$

  MOE2015           2D

  7  6  0  0  0  0  0  0  0  0999 V2000
   -0.3480   -1.2990    0.0000 O   0  0  0  0  0  0  0  0  0  0  0  0
    0.9510   -2.0490    0.0000 C   0  0  0  0  0  0  0  0  0  0  0  0
    2.2500   -1.2990    0.0000 C   0  0  0  0  0  0  0  0  0  0  0  0
    3.5490   -0.5490    0.0000 C   0  0  0  0  0  0  0  0  0  0  0  0
    4.8480   -1.2990    0.0000 O   0  0  0  0  0  0  0  0  0  0  0  0
    1.5000    0.0000    0.0000 C   0  0  0  0  0  0  0  0  0  0  0  0
    3.0000   -2.5980    0.0000 C   0  0  0  0  0  0  0  0  0  0  0  0
  1  2  2  0  0  0  0
  2  3  1  0  0  0  0
  3  4  1  0  0  0  0
  3  6  1  0  0  0  0
  3  7  1  0  0  0  0
  4  5  1  0  0  0  0
M  END
>  <name>
O=[C;thioester]C(CO)(C)C

>  <apo>
1

>  <freq>
1

>  <freq0>
0

>  <freq1>
1

>  <freqA>
0.99700278

>  <a_count>
17

$$$$

  MOE2015           2D

  7  7  0  0  1  0  0  0  0  0999 V2000
    4.9030   -0.6040    0.0000 O   0  0  0  0  0  0  0  0  0  0  0  0
    4.1530   -1.9030    0.0000 C   0  0  0  0  0  0  0  0  0  0  0  0
    2.6530   -1.9030    0.0000 C   0  0  1  0  0  0  0  0  0  0  0  0
    1.7710   -3.1160    0.0000 O   0  0  0  0  0  0  0  0  0  0  0  0
    0.3450   -2.6530    0.0000 C   0  0  0  0  0  0  0  0  0  0  0  0
    0.3450   -1.1530    0.0000 C   0  0  0  0  0  0  0  0  0  0  0  0
    1.7710   -0.6890    0.0000 C   0  0  0  0  0  0  0  0  0  0  0  0
  1  2  1  0  0  0  0
  3  2  1  1  0  0  0
  3  4  1  0  0  0  0
  3  7  1  0  0  0  0
  4  5  1  0  0  0  0
  5  6  1  0  0  0  0
  6  7  1  0  0  0  0
M  END
>  <name>
OC[C@H]1O[C;NaroC]CC1

>  <apo>
1

>  <freq>
1

>  <freq0>
0

>  <freq1>
1

>  <freqA>
0.99700278

>  <a_count>
17

$$$$

  MOE2015           2D

  6  5  0  0  1  0  0  0  0  0999 V2000
    3.3750    0.6500    0.0000 O   0  0  0  0  0  0  0  0  0  0  0  0
    2.6250   -0.6500    0.0000 C   0  0  1  0  0  0  0  0  0  0  0  0
    1.1250   -0.6500    0.0000 C   0  0  1  0  0  0  0  0  0  0  0  0
    0.3750   -1.9490    0.0000 N   0  0  0  0  0  0  0  0  0  0  0  0
    0.3750    0.6500    0.0000 C   0  0  0  0  0  0  0  0  0  0  0  0
    3.3750   -1.9490    0.0000 C   0  0  0  0  0  0  0  0  0  0  0  0
  2  1  1  6  0  0  0
  2  3  1  0  0  0  0
  2  6  1  0  0  0  0
  3  4  1  0  0  0  0
  3  5  1  1  0  0  0
M  END
>  <name>
O[C@@H]([C@@H]([N;amide])[C;amine])C

>  <apo>
2

>  <freq>
1

>  <freq0>
0

>  <freq1>
1

>  <freqA>
0.99700278

>  <a_count>
17

$$$$

  MOE2015           2D

  6  5  0  0  1  0  0  0  0  0999 V2000
    3.3750    0.6500    0.0000 O   0  0  0  0  0  0  0  0  0  0  0  0
    2.6250   -0.6500    0.0000 C   0  0  1  0  0  0  0  0  0  0  0  0
    1.1250   -0.6500    0.0000 C   0  0  2  0  0  0  0  0  0  0  0  0
    0.3750   -1.9490    0.0000 N   0  0  0  0  0  0  0  0  0  0  0  0
    0.3750    0.6500    0.0000 C   0  0  0  0  0  0  0  0  0  0  0  0
    3.3750   -1.9490    0.0000 C   0  0  0  0  0  0  0  0  0  0  0  0
  2  1  1  6  0  0  0
  2  3  1  0  0  0  0
  2  6  1  0  0  0  0
  3  4  1  0  0  0  0
  3  5  1  6  0  0  0
M  END
>  <name>
O[C@@H]([C@H]([N;amide])[C;thioether])[C;amine]

>  <apo>
3

>  <freq>
1

>  <freq0>
0

>  <freq1>
1

>  <freqA>
0.99700278

>  <a_count>
17

$$$$

  MOE2015           2D

 10 10  0  0  0  0  0  0  0  0999 V2000
    1.6500   -1.6500    0.0000 S   0  0  0  0  0  0  0  0  0  0  0  0
    1.6500   -0.1500    0.0000 O   0  0  0  0  0  0  0  0  0  0  0  0
    1.6500   -3.1500    0.0000 O   0  0  0  0  0  0  0  0  0  0  0  0
    3.1500   -1.6500    0.0000 N   0  0  0  0  0  0  0  0  0  0  0  0
    0.1500   -1.6500    0.0000 C   0  0  0  0  0  0  0  0  0  0  0  0
   -0.6000   -0.3510    0.0000 C   0  0  0  0  0  0  0  0  0  0  0  0
   -2.1000   -0.3510    0.0000 C   0  0  0  0  0  0  0  0  0  0  0  0
   -2.8500   -1.6500    0.0000 C   0  0  0  0  0  0  0  0  0  0  0  0
   -2.1000   -2.9490    0.0000 C   0  0  0  0  0  0  0  0  0  0  0  0
   -0.6000   -2.9490    0.0000 C   0  0  0  0  0  0  0  0  0  0  0  0
  1  2  2  0  0  0  0
  1  3  2  0  0  0  0
  1  4  1  0  0  0  0
  1  5  1  0  0  0  0
  5  6  1  0  0  0  0
  5 10  2  0  0  0  0
  6  7  2  0  0  0  0
  7  8  1  0  0  0  0
  8  9  2  0  0  0  0
  9 10  1  0  0  0  0
M  END
>  <name>
S(=O)(=O)(N)c1cc[c;biphenyl]cc1

>  <apo>
1

>  <freq>
1

>  <freq0>
0

>  <freq1>
1

>  <freqA>
0.99700278

>  <a_count>
17

$$$$

  MOE2015           2D

 11 11  0  0  0  0  0  0  0  0999 V2000
    6.3410    3.6610    0.0000 S   0  0  0  0  0  0  0  0  0  0  0  0
    5.5910    2.3620    0.0000 C   0  0  0  0  0  0  0  0  0  0  0  0
    6.3410    1.0630    0.0000 N   0  0  0  0  0  0  0  0  0  0  0  0
    4.0910    2.3620    0.0000 N   0  5  0  0  0  0  0  0  0  0  0  0
    3.3410    1.0630    0.0000 N   0  0  0  0  0  0  0  0  0  0  0  0
    1.8410    1.0630    0.0000 C   0  0  0  0  0  0  0  0  0  0  0  0
    1.0910    2.3620    0.0000 C   0  0  0  0  0  0  0  0  0  0  0  0
    1.7010    3.7320    0.0000 O   0  0  0  0  0  0  0  0  0  0  0  0
    0.5860    4.7360    0.0000 C   0  0  0  0  0  0  0  0  0  0  0  0
   -0.7130    3.9860    0.0000 C   0  0  0  0  0  0  0  0  0  0  0  0
   -0.4010    2.5190    0.0000 C   0  0  0  0  0  0  0  0  0  0  0  0
  1  2  2  0  0  0  0
  2  3  1  0  0  0  0
  2  4  1  0  0  0  0
  4  5  1  0  0  0  0
  5  6  2  0  0  0  0
  6  7  1  0  0  0  0
  7  8  1  0  0  0  0
  7 11  2  0  0  0  0
  8  9  1  0  0  0  0
  9 10  2  0  0  0  0
 10 11  1  0  0  0  0
M  CHG  1   4  -1
M  END
>  <name>
S=C(N)[N-]/N=C\c1oc[c;biphenyl]c1

>  <apo>
1

>  <freq>
1

>  <freq0>
0

>  <freq1>
1

>  <freqA>
0.99700278

>  <a_count>
17

$$$$

  MOE2015           2D

 11 11  0  0  0  0  0  0  0  0999 V2000
    6.3410    3.6610    0.0000 S   0  0  0  0  0  0  0  0  0  0  0  0
    5.5910    2.3620    0.0000 C   0  0  0  0  0  0  0  0  0  0  0  0
    6.3410    1.0630    0.0000 N   0  0  0  0  0  0  0  0  0  0  0  0
    4.0910    2.3620    0.0000 N   0  5  0  0  0  0  0  0  0  0  0  0
    3.3410    1.0630    0.0000 N   0  0  0  0  0  0  0  0  0  0  0  0
    1.8410    1.0630    0.0000 C   0  0  0  0  0  0  0  0  0  0  0  0
    1.0910    2.3620    0.0000 C   0  0  0  0  0  0  0  0  0  0  0  0
    1.7010    3.7320    0.0000 S   0  0  0  0  0  0  0  0  0  0  0  0
    0.5860    4.7360    0.0000 C   0  0  0  0  0  0  0  0  0  0  0  0
   -0.7130    3.9860    0.0000 C   0  0  0  0  0  0  0  0  0  0  0  0
   -0.4010    2.5190    0.0000 C   0  0  0  0  0  0  0  0  0  0  0  0
  1  2  2  0  0  0  0
  2  3  1  0  0  0  0
  2  4  1  0  0  0  0
  4  5  1  0  0  0  0
  5  6  2  0  0  0  0
  6  7  1  0  0  0  0
  7  8  1  0  0  0  0
  7 11  2  0  0  0  0
  8  9  1  0  0  0  0
  9 10  2  0  0  0  0
 10 11  1  0  0  0  0
M  CHG  1   4  -1
M  END
>  <name>
S=C(N)[N-]/N=C\c1s[c;biphenyl]cc1

>  <apo>
1

>  <freq>
1

>  <freq0>
0

>  <freq1>
1

>  <freqA>
0.99700278

>  <a_count>
17

$$$$

  MOE2015           2D

  5  4  0  0  0  0  0  0  0  0999 V2000
    0.1500   -0.0400    0.0000 C   0  0  0  0  0  0  0  0  0  0  0  0
    1.4490    0.7100    0.0000 C   0  0  0  0  0  0  0  0  0  0  0  0
    2.7480   -0.0400    0.0000 C   0  0  0  0  0  0  0  0  0  0  0  0
   -1.1490    0.7100    0.0000 C   0  0  0  0  0  0  0  0  0  0  0  0
   -2.4480   -0.0400    0.0000 C   0  0  0  0  0  0  0  0  0  0  0  0
  1  2  1  0  0  0  0
  1  4  1  0  0  0  0
  2  3  1  0  0  0  0
  4  5  1  0  0  0  0
M  END
>  <name>
[C;ether](CC)CC

>  <apo>
1

>  <freq>
1

>  <freq0>
0

>  <freq1>
1

>  <freqA>
0.99700278

>  <a_count>
17

$$$$

  MOE2015           2D

  6  6  0  0  0  0  0  0  0  0999 V2000
   -2.0490    2.0490    0.0000 N   0  3  0  0  0  0  0  0  0  0  0  0
   -2.0490    0.5490    0.0000 C   0  0  0  0  0  0  0  0  0  0  0  0
   -0.7500   -0.2010    0.0000 C   0  0  0  0  0  0  0  0  0  0  0  0
    0.5490    0.5490    0.0000 N   0  0  0  0  0  0  0  0  0  0  0  0
    0.5490    2.0490    0.0000 C   0  0  0  0  0  0  0  0  0  0  0  0
   -0.7500    2.7990    0.0000 C   0  0  0  0  0  0  0  0  0  0  0  0
  1  2  1  0  0  0  0
  1  6  1  0  0  0  0
  2  3  1  0  0  0  0
  3  4  1  0  0  0  0
  4  5  1  0  0  0  0
  5  6  1  0  0  0  0
M  CHG  1   1   1
M  END
>  <name>
[N+;amine]1CC[N;amide]CC1

>  <apo>
2

>  <freq>
1

>  <freq0>
0

>  <freq1>
1

>  <freqA>
0.99700278

>  <a_count>
17

$$$$

  MOE2015           2D

  6  6  0  0  0  0  0  0  0  0999 V2000
   -2.0490    2.0490    0.0000 N   0  0  0  0  0  0  0  0  0  0  0  0
   -2.0490    0.5490    0.0000 C   0  0  0  0  0  0  0  0  0  0  0  0
   -0.7500   -0.2010    0.0000 C   0  0  0  0  0  0  0  0  0  0  0  0
    0.5490    0.5490    0.0000 C   0  0  0  0  0  0  0  0  0  0  0  0
    0.5490    2.0490    0.0000 C   0  0  0  0  0  0  0  0  0  0  0  0
   -0.7500    2.7990    0.0000 C   0  0  0  0  0  0  0  0  0  0  0  0
  1  2  1  0  0  0  0
  1  6  1  0  0  0  0
  2  3  1  0  0  0  0
  3  4  1  0  0  0  0
  4  5  1  0  0  0  0
  5  6  1  0  0  0  0
M  END
>  <name>
[N;amide]1CCCCC1

>  <apo>
1

>  <freq>
1

>  <freq0>
0

>  <freq1>
1

>  <freqA>
0.99700278

>  <a_count>
17

$$$$

  MOE2015           2D

 10 11  0  0  0  0  0  0  0  0999 V2000
    6.7290   -0.8970    0.0000 N   0  0  0  0  0  0  0  0  0  0  0  0
    5.4300   -0.1470    0.0000 C   0  0  0  0  0  0  0  0  0  0  0  0
    4.1310   -0.8970    0.0000 C   0  0  0  0  0  0  0  0  0  0  0  0
    2.8320   -0.1470    0.0000 C   0  0  0  0  0  0  0  0  0  0  0  0
    1.4050   -0.6110    0.0000 O   0  0  0  0  0  0  0  0  0  0  0  0
    0.5230    0.6030    0.0000 C   0  0  0  0  0  0  0  0  0  0  0  0
    1.4050    1.8160    0.0000 O   0  0  0  0  0  0  0  0  0  0  0  0
    2.8320    1.3530    0.0000 C   0  0  0  0  0  0  0  0  0  0  0  0
    4.1310    2.1030    0.0000 C   0  0  0  0  0  0  0  0  0  0  0  0
    5.4300    1.3530    0.0000 C   0  0  0  0  0  0  0  0  0  0  0  0
  1  2  1  0  0  0  0
  2  3  1  0  0  0  0
  2 10  2  0  0  0  0
  3  4  2  0  0  0  0
  4  5  1  0  0  0  0
  4  8  1  0  0  0  0
  5  6  1  0  0  0  0
  6  7  1  0  0  0  0
  7  8  1  0  0  0  0
  8  9  2  0  0  0  0
  9 10  1  0  0  0  0
M  END
>  <name>
[N;amide]c1cc2OCOc2cc1

>  <apo>
1

>  <freq>
1

>  <freq0>
0

>  <freq1>
1

>  <freqA>
0.99700278

>  <a_count>
17

$$$$

  MOE2015           2D

 12 12  0  0  0  0  0  0  0  0999 V2000
   -4.5000    2.5980    0.0000 S   0  0  0  0  0  0  0  0  0  0  0  0
   -5.2500    3.8970    0.0000 O   0  0  0  0  0  0  0  0  0  0  0  0
   -5.2500    1.2990    0.0000 O   0  0  0  0  0  0  0  0  0  0  0  0
   -3.0000    2.5980    0.0000 C   0  0  0  0  0  0  0  0  0  0  0  0
   -2.2500    1.2990    0.0000 C   0  0  0  0  0  0  0  0  0  0  0  0
   -0.7500    1.2990    0.0000 C   0  0  0  0  0  0  0  0  0  0  0  0
    0.0000    2.5980    0.0000 C   0  0  0  0  0  0  0  0  0  0  0  0
    1.5000    2.5980    0.0000 C   0  0  0  0  0  0  0  0  0  0  0  0
    2.2500    1.2990    0.0000 O   0  0  0  0  0  0  0  0  0  0  0  0
    2.2500    3.8970    0.0000 O   0  5  0  0  0  0  0  0  0  0  0  0
   -0.7500    3.8970    0.0000 C   0  0  0  0  0  0  0  0  0  0  0  0
   -2.2500    3.8970    0.0000 C   0  0  0  0  0  0  0  0  0  0  0  0
  1  2  2  0  0  0  0
  1  3  2  0  0  0  0
  1  4  1  0  0  0  0
  4  5  1  0  0  0  0
  4 12  2  0  0  0  0
  5  6  2  0  0  0  0
  6  7  1  0  0  0  0
  7  8  1  0  0  0  0
  7 11  2  0  0  0  0
  8  9  2  0  0  0  0
  8 10  1  0  0  0  0
 11 12  1  0  0  0  0
M  CHG  1  10  -1
M  END
>  <name>
[SH;so2amide](=O)(=O)c1ccc(C(=O)[O-])cc1

>  <apo>
1

>  <freq>
1

>  <freq0>
0

>  <freq1>
1

>  <freqA>
0.99700278

>  <a_count>
17

$$$$

  MOE2015           2D

 10 11  0  0  0  0  0  0  0  0999 V2000
   -2.7990   -0.2010    0.0000 N   0  0  0  0  0  0  0  0  0  0  0  0
   -1.5000    0.5490    0.0000 C   0  0  0  0  0  0  0  0  0  0  0  0
   -1.5000    2.0490    0.0000 C   0  0  0  0  0  0  0  0  0  0  0  0
   -2.7990    2.7990    0.0000 C   0  0  0  0  0  0  0  0  0  0  0  0
   -4.0980    2.0490    0.0000 C   0  0  0  0  0  0  0  0  0  0  0  0
   -4.0980    0.5490    0.0000 C   0  0  0  0  0  0  0  0  0  0  0  0
   -0.2010    2.7990    0.0000 C   0  0  0  0  0  0  0  0  0  0  0  0
    1.0980    2.0490    0.0000 C   0  0  0  0  0  0  0  0  0  0  0  0
    1.0980    0.5490    0.0000 C   0  0  0  0  0  0  0  0  0  0  0  0
   -0.2010   -0.2010    0.0000 C   0  0  0  0  0  0  0  0  0  0  0  0
  1  2  1  0  0  0  0
  1  6  2  0  0  0  0
  2  3  1  0  0  0  0
  2 10  2  0  0  0  0
  3  4  1  0  0  0  0
  3  7  2  0  0  0  0
  4  5  2  0  0  0  0
  5  6  1  0  0  0  0
  7  8  1  0  0  0  0
  8  9  2  0  0  0  0
  9 10  1  0  0  0  0
M  END
>  <name>
n1c2c([c;biphenyl]cc1)cccc2

>  <apo>
1

>  <freq>
1

>  <freq0>
0

>  <freq1>
1

>  <freqA>
0.99700278

>  <a_count>
17

$$$$

  MOE2015           2D

 10 11  0  0  0  0  0  0  0  0999 V2000
   -2.7990   -0.2010    0.0000 N   0  0  0  0  0  0  0  0  0  0  0  0
   -1.5000    0.5490    0.0000 C   0  0  0  0  0  0  0  0  0  0  0  0
   -1.5000    2.0490    0.0000 C   0  0  0  0  0  0  0  0  0  0  0  0
   -2.7990    2.7990    0.0000 C   0  0  0  0  0  0  0  0  0  0  0  0
   -4.0980    2.0490    0.0000 C   0  0  0  0  0  0  0  0  0  0  0  0
   -4.0980    0.5490    0.0000 C   0  0  0  0  0  0  0  0  0  0  0  0
   -0.2010    2.7990    0.0000 C   0  0  0  0  0  0  0  0  0  0  0  0
    1.0980    2.0490    0.0000 C   0  0  0  0  0  0  0  0  0  0  0  0
    1.0980    0.5490    0.0000 C   0  0  0  0  0  0  0  0  0  0  0  0
   -0.2010   -0.2010    0.0000 C   0  0  0  0  0  0  0  0  0  0  0  0
  1  2  1  0  0  0  0
  1  6  2  0  0  0  0
  2  3  1  0  0  0  0
  2 10  2  0  0  0  0
  3  4  1  0  0  0  0
  3  7  2  0  0  0  0
  4  5  2  0  0  0  0
  5  6  1  0  0  0  0
  7  8  1  0  0  0  0
  8  9  2  0  0  0  0
  9 10  1  0  0  0  0
M  END
>  <name>
n1c2c(c[c;biphenyl]c1)cccc2

>  <apo>
1

>  <freq>
1

>  <freq0>
0

>  <freq1>
1

>  <freqA>
0.99700278

>  <a_count>
17

$$$$

  MOE2015           2D

 10 11  0  0  0  0  0  0  0  0999 V2000
   -2.7990   -0.2010    0.0000 N   0  0  0  0  0  0  0  0  0  0  0  0
   -1.5000    0.5490    0.0000 C   0  0  0  0  0  0  0  0  0  0  0  0
   -1.5000    2.0490    0.0000 C   0  0  0  0  0  0  0  0  0  0  0  0
   -2.7990    2.7990    0.0000 C   0  0  0  0  0  0  0  0  0  0  0  0
   -4.0980    2.0490    0.0000 C   0  0  0  0  0  0  0  0  0  0  0  0
   -4.0980    0.5490    0.0000 C   0  0  0  0  0  0  0  0  0  0  0  0
   -0.2010    2.7990    0.0000 C   0  0  0  0  0  0  0  0  0  0  0  0
    1.0980    2.0490    0.0000 C   0  0  0  0  0  0  0  0  0  0  0  0
    1.0980    0.5490    0.0000 C   0  0  0  0  0  0  0  0  0  0  0  0
   -0.2010   -0.2010    0.0000 C   0  0  0  0  0  0  0  0  0  0  0  0
  1  2  1  0  0  0  0
  1  6  2  0  0  0  0
  2  3  1  0  0  0  0
  2 10  2  0  0  0  0
  3  4  1  0  0  0  0
  3  7  2  0  0  0  0
  4  5  2  0  0  0  0
  5  6  1  0  0  0  0
  7  8  1  0  0  0  0
  8  9  2  0  0  0  0
  9 10  1  0  0  0  0
M  END
>  <name>
n1c2c(ccc1)cc[c;biphenyl]c2

>  <apo>
1

>  <freq>
1

>  <freq0>
0

>  <freq1>
1

>  <freqA>
0.99700278

>  <a_count>
17

$$$$

  MOE2015           2D

 12 13  0  0  0  0  0  0  0  0999 V2000
    7.7200    2.0690    0.0000 Br  0  0  0  0  0  0  0  0  0  0  0  0
    6.4210    1.3190    0.0000 C   0  0  0  0  0  0  0  0  0  0  0  0
    5.1220    2.0690    0.0000 C   0  0  0  0  0  0  0  0  0  0  0  0
    3.8230    1.3190    0.0000 C   0  0  0  0  0  0  0  0  0  0  0  0
    2.3970    1.7820    0.0000 C   0  0  0  0  0  0  0  0  0  0  0  0
    1.9330    3.2090    0.0000 O   0  0  0  0  0  0  0  0  0  0  0  0
    1.5150    0.5690    0.0000 C   0  0  0  0  0  0  0  0  0  0  0  0
    0.0150    0.5690    0.0000 O   0  0  0  0  0  0  0  0  0  0  0  0
    2.3970   -0.6450    0.0000 N   0  0  0  0  0  0  0  0  0  0  0  0
    3.8230   -0.1810    0.0000 C   0  0  0  0  0  0  0  0  0  0  0  0
    5.1220   -0.9310    0.0000 C   0  0  0  0  0  0  0  0  0  0  0  0
    6.4210   -0.1810    0.0000 C   0  0  0  0  0  0  0  0  0  0  0  0
  1  2  1  0  0  0  0
  2  3  1  0  0  0  0
  2 12  2  0  0  0  0
  3  4  2  0  0  0  0
  4  5  1  0  0  0  0
  4 10  1  0  0  0  0
  5  6  2  0  0  0  0
  5  7  1  0  0  0  0
  7  8  2  0  0  0  0
  7  9  1  0  0  0  0
  9 10  1  0  0  0  0
 10 11  2  0  0  0  0
 11 12  1  0  0  0  0
M  END
>  <name>
Brc1cc2C(=O)C(=O)[N;amide]c2cc1

>  <apo>
1

>  <freq>
1

>  <freq0>
0

>  <freq1>
1

>  <freqA>
0.99700278

>  <a_count>
16

$$$$

  MOE2015           2D

 11 11  0  0  0  0  0  0  0  0999 V2000
    2.4050    2.4050    0.0000 Cl  0  0  0  0  0  0  0  0  0  0  0  0
    2.4050    0.9050    0.0000 C   0  0  0  0  0  0  0  0  0  0  0  0
    1.1060    0.1550    0.0000 C   0  0  0  0  0  0  0  0  0  0  0  0
   -0.1930    0.9050    0.0000 O   0  0  0  0  0  0  0  0  0  0  0  0
    1.1060   -1.3450    0.0000 C   0  0  0  0  0  0  0  0  0  0  0  0
   -0.1930   -2.0950    0.0000 O   0  0  0  0  0  0  0  0  0  0  0  0
    2.4050   -2.0950    0.0000 C   0  0  0  0  0  0  0  0  0  0  0  0
    3.7040   -1.3450    0.0000 C   0  0  0  0  0  0  0  0  0  0  0  0
    3.7040    0.1550    0.0000 C   0  0  0  0  0  0  0  0  0  0  0  0
    5.0030    0.9050    0.0000 C   0  0  0  0  0  0  0  0  0  0  0  0
    6.3020    0.1550    0.0000 O   0  0  0  0  0  0  0  0  0  0  0  0
  1  2  1  0  0  0  0
  2  3  1  0  0  0  0
  2  9  2  0  0  0  0
  3  4  1  0  0  0  0
  3  5  2  0  0  0  0
  5  6  1  0  0  0  0
  5  7  1  0  0  0  0
  7  8  2  0  0  0  0
  8  9  1  0  0  0  0
  9 10  1  0  0  0  0
 10 11  2  0  0  0  0
M  END
>  <name>
Clc1c(O)c(O)ccc1[C;amide]=O

>  <apo>
1

>  <freq>
1

>  <freq0>
0

>  <freq1>
1

>  <freqA>
0.99700278

>  <a_count>
16

$$$$

  MOE2015           2D

 11 11  0  0  0  0  0  0  0  0999 V2000
    1.0230    1.7710    0.0000 Cl  0  0  0  0  0  0  0  0  0  0  0  0
    1.7730    0.4720    0.0000 C   0  0  0  0  0  0  0  0  0  0  0  0
    1.0230   -0.8270    0.0000 C   0  0  0  0  0  0  0  0  0  0  0  0
   -0.4770   -0.8270    0.0000 N   0  0  0  0  0  0  0  0  0  0  0  0
    1.7730   -2.1260    0.0000 C   0  0  0  0  0  0  0  0  0  0  0  0
    3.2730   -2.1260    0.0000 C   0  0  0  0  0  0  0  0  0  0  0  0
    4.0230   -0.8270    0.0000 C   0  0  0  0  0  0  0  0  0  0  0  0
    5.5230   -0.8270    0.0000 N   0  3  0  0  0  0  0  0  0  0  0  0
    6.2730   -2.1260    0.0000 O   0  0  0  0  0  0  0  0  0  0  0  0
    6.2730    0.4720    0.0000 O   0  5  0  0  0  0  0  0  0  0  0  0
    3.2730    0.4720    0.0000 C   0  0  0  0  0  0  0  0  0  0  0  0
  1  2  1  0  0  0  0
  2  3  1  0  0  0  0
  2 11  2  0  0  0  0
  3  4  1  0  0  0  0
  3  5  2  0  0  0  0
  5  6  1  0  0  0  0
  6  7  2  0  0  0  0
  7  8  1  0  0  0  0
  7 11  1  0  0  0  0
  8  9  2  0  0  0  0
  8 10  1  0  0  0  0
M  CHG  1   8   1
M  CHG  1  10  -1
M  END
>  <name>
Clc1c([N;amide])ccc([N+](=O)[O-])c1

>  <apo>
1

>  <freq>
1

>  <freq0>
0

>  <freq1>
1

>  <freqA>
0.99700278

>  <a_count>
16

$$$$

  MOE2015           2D

 11 12  0  0  0  0  0  0  0  0999 V2000
    1.4390    4.0150    0.0000 Cl  0  0  0  0  0  0  0  0  0  0  0  0
    1.4390    2.5150    0.0000 C   0  0  0  0  0  0  0  0  0  0  0  0
    2.7390    1.7650    0.0000 C   0  0  0  0  0  0  0  0  0  0  0  0
    4.1650    2.2290    0.0000 N   0  0  0  0  0  0  0  0  0  0  0  0
    5.0470    1.0150    0.0000 C   0  0  0  0  0  0  0  0  0  0  0  0
    6.5470    1.0150    0.0000 N   0  0  0  0  0  0  0  0  0  0  0  0
    4.1650   -0.1980    0.0000 O   0  0  0  0  0  0  0  0  0  0  0  0
    2.7390    0.2650    0.0000 C   0  0  0  0  0  0  0  0  0  0  0  0
    1.4390   -0.4850    0.0000 C   0  0  0  0  0  0  0  0  0  0  0  0
    0.1400    0.2650    0.0000 C   0  0  0  0  0  0  0  0  0  0  0  0
    0.1400    1.7650    0.0000 C   0  0  0  0  0  0  0  0  0  0  0  0
  1  2  1  0  0  0  0
  2  3  1  0  0  0  0
  2 11  2  0  0  0  0
  3  4  1  0  0  0  0
  3  8  2  0  0  0  0
  4  5  2  0  0  0  0
  5  6  1  0  0  0  0
  5  7  1  0  0  0  0
  7  8  1  0  0  0  0
  8  9  1  0  0  0  0
  9 10  2  0  0  0  0
 10 11  1  0  0  0  0
M  END
>  <name>
Clc1c2nc([N;amide])oc2ccc1

>  <apo>
1

>  <freq>
1

>  <freq0>
0

>  <freq1>
1

>  <freqA>
0.99700278

>  <a_count>
16

$$$$

  MOE2015           2D

 10 10  0  0  0  0  0  0  0  0999 V2000
    0.4970   -1.5950    0.0000 F   0  0  0  0  0  0  0  0  0  0  0  0
    1.7960   -0.8450    0.0000 C   0  0  0  0  0  0  0  0  0  0  0  0
    1.7960    0.6550    0.0000 C   0  0  0  0  0  0  0  0  0  0  0  0
    0.4970    1.4050    0.0000 N   0  0  0  0  0  0  0  0  0  0  0  0
    3.0950    1.4050    0.0000 C   0  0  0  0  0  0  0  0  0  0  0  0
    4.3940    0.6550    0.0000 C   0  0  0  0  0  0  0  0  0  0  0  0
    5.6930    1.4050    0.0000 C   0  0  0  0  0  0  0  0  0  0  0  0
    6.9920    0.6550    0.0000 O   0  0  0  0  0  0  0  0  0  0  0  0
    4.3940   -0.8450    0.0000 C   0  0  0  0  0  0  0  0  0  0  0  0
    3.0950   -1.5950    0.0000 C   0  0  0  0  0  0  0  0  0  0  0  0
  1  2  1  0  0  0  0
  2  3  1  0  0  0  0
  2 10  2  0  0  0  0
  3  4  1  0  0  0  0
  3  5  2  0  0  0  0
  5  6  1  0  0  0  0
  6  7  1  0  0  0  0
  6  9  2  0  0  0  0
  7  8  2  0  0  0  0
  9 10  1  0  0  0  0
M  END
>  <name>
Fc1c([N;amide])cc([C;ester]=O)cc1

>  <apo>
2

>  <freq>
1

>  <freq0>
0

>  <freq1>
1

>  <freqA>
0.99700278

>  <a_count>
16

$$$$

  MOE2015           2D

 10 11  0  0  0  0  0  0  0  0999 V2000
    7.3810    0.0000    0.0000 N   0  0  0  0  0  0  0  0  0  0  0  0
    5.8810    0.0000    0.0000 C   0  0  0  0  0  0  0  0  0  0  0  0
    5.0000   -1.2140    0.0000 O   0  0  0  0  0  0  0  0  0  0  0  0
    3.5730   -0.7500    0.0000 C   0  0  0  0  0  0  0  0  0  0  0  0
    3.5730    0.7500    0.0000 C   0  0  0  0  0  0  0  0  0  0  0  0
    5.0000    1.2140    0.0000 N   0  0  0  0  0  0  0  0  0  0  0  0
    2.2740    1.5000    0.0000 C   0  0  0  0  0  0  0  0  0  0  0  0
    0.9750    0.7500    0.0000 C   0  0  0  0  0  0  0  0  0  0  0  0
    0.9750   -0.7500    0.0000 C   0  0  0  0  0  0  0  0  0  0  0  0
    2.2740   -1.5000    0.0000 C   0  0  0  0  0  0  0  0  0  0  0  0
  1  2  1  0  0  0  0
  2  3  1  0  0  0  0
  2  6  2  0  0  0  0
  3  4  1  0  0  0  0
  4  5  1  0  0  0  0
  4 10  2  0  0  0  0
  5  6  1  0  0  0  0
  5  7  2  0  0  0  0
  7  8  1  0  0  0  0
  8  9  2  0  0  0  0
  9 10  1  0  0  0  0
M  END
>  <name>
Nc1oc2c(n1)c[c;biphenyl]cc2

>  <apo>
1

>  <freq>
1

>  <freq0>
0

>  <freq1>
1

>  <freqA>
0.99700278

>  <a_count>
16

$$$$

  MOE2015           2D

  8  8  0  0  0  0  0  0  0  0999 V2000
    1.2190    1.7860    0.0000 O   0  0  0  0  0  0  0  0  0  0  0  0
    1.9690    3.0850    0.0000 C   0  0  0  0  0  0  0  0  0  0  0  0
   -0.2810    1.7860    0.0000 C   0  0  0  0  0  0  0  0  0  0  0  0
   -1.0310    0.4870    0.0000 C   0  0  0  0  0  0  0  0  0  0  0  0
   -2.5310    0.4870    0.0000 C   0  0  0  0  0  0  0  0  0  0  0  0
   -3.2810    1.7860    0.0000 C   0  0  0  0  0  0  0  0  0  0  0  0
   -2.5310    3.0850    0.0000 C   0  0  0  0  0  0  0  0  0  0  0  0
   -1.0310    3.0850    0.0000 C   0  0  0  0  0  0  0  0  0  0  0  0
  1  2  1  0  0  0  0
  1  3  1  0  0  0  0
  3  4  1  0  0  0  0
  3  8  2  0  0  0  0
  4  5  2  0  0  0  0
  5  6  1  0  0  0  0
  6  7  2  0  0  0  0
  7  8  1  0  0  0  0
M  END
>  <name>
O(C)c1ccc[c;biphenyl]c1

>  <apo>
1

>  <freq>
1

>  <freq0>
0

>  <freq1>
1

>  <freqA>
0.99700278

>  <a_count>
16

$$$$

  MOE2015           2D

  9  9  0  0  0  0  0  0  0  0999 V2000
    5.0000    0.2890    0.0000 O   0  0  0  0  0  0  0  0  0  0  0  0
    4.2500    1.5880    0.0000 C   0  0  0  0  0  0  0  0  0  0  0  0
    5.0000    2.8870    0.0000 N   0  0  0  0  0  0  0  0  0  0  0  0
    2.7500    1.5880    0.0000 C   0  0  0  0  0  0  0  0  0  0  0  0
    2.0000    2.8870    0.0000 C   0  0  0  0  0  0  0  0  0  0  0  0
    0.5000    2.8870    0.0000 C   0  0  0  0  0  0  0  0  0  0  0  0
   -0.2500    1.5880    0.0000 C   0  0  0  0  0  0  0  0  0  0  0  0
    0.5000    0.2890    0.0000 C   0  0  0  0  0  0  0  0  0  0  0  0
    2.0000    0.2890    0.0000 C   0  0  0  0  0  0  0  0  0  0  0  0
  1  2  2  0  0  0  0
  2  3  1  0  0  0  0
  2  4  1  0  0  0  0
  4  5  1  0  0  0  0
  4  9  2  0  0  0  0
  5  6  2  0  0  0  0
  6  7  1  0  0  0  0
  7  8  2  0  0  0  0
  8  9  1  0  0  0  0
M  END
>  <name>
O=C(N)c1cc[c;biphenyl]cc1

>  <apo>
1

>  <freq>
1

>  <freq0>
0

>  <freq1>
1

>  <freqA>
0.99700278

>  <a_count>
16

$$$$

  MOE2015           2D

 11 11  0  0  1  0  0  0  0  0999 V2000
    0.9710    4.1630    0.0000 O   0  0  0  0  0  0  0  0  0  0  0  0
    0.2210    2.8640    0.0000 C   0  0  0  0  0  0  0  0  0  0  0  0
   -1.2790    2.8640    0.0000 O   0  5  0  0  0  0  0  0  0  0  0  0
    0.9710    1.5650    0.0000 C   0  0  3  0  0  0  0  0  0  0  0  0
    0.2210    0.2660    0.0000 C   0  0  0  0  0  0  0  0  0  0  0  0
   -1.2790    0.2660    0.0000 O   0  0  0  0  0  0  0  0  0  0  0  0
    2.4710    1.5650    0.0000 C   0  0  0  0  0  0  0  0  0  0  0  0
    3.3530    0.3520    0.0000 C   0  0  0  0  0  0  0  0  0  0  0  0
    4.7790    0.8150    0.0000 S   0  0  0  0  0  0  0  0  0  0  0  0
    4.7790    2.3150    0.0000 C   0  0  0  0  0  0  0  0  0  0  0  0
    3.3530    2.7790    0.0000 C   0  0  0  0  0  0  0  0  0  0  0  0
  1  2  2  0  0  0  0
  2  3  1  0  0  0  0
  2  4  1  0  0  0  0
  4  5  1  0  0  0  0
  4  7  1  0  0  0  0
  5  6  2  0  0  0  0
  7  8  2  0  0  0  0
  7 11  1  0  0  0  0
  8  9  1  0  0  0  0
  9 10  1  0  0  0  0
 10 11  2  0  0  0  0
M  CHG  1   3  -1
M  END
>  <name>
O=C([O-])C([C;amide]=O)c1cscc1

>  <apo>
1

>  <freq>
1

>  <freq0>
0

>  <freq1>
1

>  <freqA>
0.99700278

>  <a_count>
16

$$$$

  MOE2015           2D

  9  8  0  0  1  0  0  0  0  0999 V2000
   -0.3420   -1.2770    0.0000 O   0  0  0  0  0  0  0  0  0  0  0  0
    0.9570   -2.0270    0.0000 C   0  0  0  0  0  0  0  0  0  0  0  0
    0.9570   -3.5270    0.0000 O   0  5  0  0  0  0  0  0  0  0  0  0
    2.2560   -1.2770    0.0000 C   0  0  1  0  0  0  0  0  0  0  0  0
    2.2560    0.2230    0.0000 N   0  0  0  0  0  0  0  0  0  0  0  0
    3.5550   -2.0270    0.0000 C   0  0  0  0  0  0  0  0  0  0  0  0
    4.8540   -1.2770    0.0000 C   0  0  0  0  0  0  0  0  0  0  0  0
    6.1530   -2.0270    0.0000 O   0  0  0  0  0  0  0  0  0  0  0  0
    4.8540    0.2230    0.0000 N   0  0  0  0  0  0  0  0  0  0  0  0
  1  2  2  0  0  0  0
  2  3  1  0  0  0  0
  2  4  1  0  0  0  0
  4  5  1  1  0  0  0
  4  6  1  0  0  0  0
  6  7  1  0  0  0  0
  7  8  2  0  0  0  0
  7  9  1  0  0  0  0
M  CHG  1   3  -1
M  END
>  <name>
O=C([O-])[C@@H]([N;amide])CC(=O)N

>  <apo>
1

>  <freq>
1

>  <freq0>
0

>  <freq1>
1

>  <freqA>
0.99700278

>  <a_count>
16

$$$$

  MOE2015           2D

  8  8  0  0  1  0  0  0  0  0999 V2000
    4.5710   -2.6390    0.0000 O   0  0  0  0  0  0  0  0  0  0  0  0
    3.8210   -1.3400    0.0000 C   0  0  0  0  0  0  0  0  0  0  0  0
    4.5710   -0.0410    0.0000 O   0  5  0  0  0  0  0  0  0  0  0  0
    2.3210   -1.3400    0.0000 C   0  0  1  0  0  0  0  0  0  0  0  0
    1.4400   -0.1270    0.0000 N   0  0  0  0  0  0  0  0  0  0  0  0
    0.0130   -0.5900    0.0000 C   0  0  0  0  0  0  0  0  0  0  0  0
    0.0130   -2.0900    0.0000 C   0  0  0  0  0  0  0  0  0  0  0  0
    1.4400   -2.5540    0.0000 C   0  0  0  0  0  0  0  0  0  0  0  0
  1  2  2  0  0  0  0
  2  3  1  0  0  0  0
  4  2  1  6  0  0  0
  4  5  1  0  0  0  0
  4  8  1  0  0  0  0
  5  6  1  0  0  0  0
  6  7  1  0  0  0  0
  7  8  1  0  0  0  0
M  CHG  1   3  -1
M  END
>  <name>
O=C([O-])[C@H]1[N;amide]CCC1

>  <apo>
1

>  <freq>
1

>  <freq0>
0

>  <freq1>
1

>  <freqA>
0.99700278

>  <a_count>
16

$$$$

  MOE2015           2D

 11 11  0  0  0  0  0  0  0  0999 V2000
    5.5230   -0.5900    0.0000 O   0  0  0  0  0  0  0  0  0  0  0  0
    4.7730    0.7090    0.0000 C   0  0  0  0  0  0  0  0  0  0  0  0
    5.5230    2.0080    0.0000 O   0  5  0  0  0  0  0  0  0  0  0  0
    3.2730    0.7090    0.0000 C   0  0  0  0  0  0  0  0  0  0  0  0
    2.5230    2.0080    0.0000 C   0  0  0  0  0  0  0  0  0  0  0  0
    3.2730    3.3070    0.0000 C   0  0  0  0  0  0  0  0  0  0  0  0
    2.5230    4.6060    0.0000 O   0  0  0  0  0  0  0  0  0  0  0  0
    1.0230    2.0080    0.0000 C   0  0  0  0  0  0  0  0  0  0  0  0
    0.2730    0.7090    0.0000 C   0  0  0  0  0  0  0  0  0  0  0  0
    1.0230   -0.5900    0.0000 C   0  0  0  0  0  0  0  0  0  0  0  0
    2.5230   -0.5900    0.0000 C   0  0  0  0  0  0  0  0  0  0  0  0
  1  2  2  0  0  0  0
  2  3  1  0  0  0  0
  2  4  1  0  0  0  0
  4  5  1  0  0  0  0
  4 11  2  0  0  0  0
  5  6  1  0  0  0  0
  5  8  2  0  0  0  0
  6  7  2  0  0  0  0
  8  9  1  0  0  0  0
  9 10  2  0  0  0  0
 10 11  1  0  0  0  0
M  CHG  1   3  -1
M  END
>  <name>
O=C([O-])c1c([C;amide]=O)cccc1

>  <apo>
1

>  <freq>
1

>  <freq0>
0

>  <freq1>
1

>  <freqA>
0.99700278

>  <a_count>
16

$$$$

  MOE2015           2D

 10 10  0  0  0  0  0  0  0  0999 V2000
    5.6250    3.2480    0.0000 O   0  0  0  0  0  0  0  0  0  0  0  0
    4.8750    1.9490    0.0000 C   0  0  0  0  0  0  0  0  0  0  0  0
    5.6250    0.6500    0.0000 O   0  5  0  0  0  0  0  0  0  0  0  0
    3.3750    1.9490    0.0000 C   0  0  0  0  0  0  0  0  0  0  0  0
    2.6250    0.6500    0.0000 C   0  0  0  0  0  0  0  0  0  0  0  0
    1.1250    0.6500    0.0000 C   0  0  0  0  0  0  0  0  0  0  0  0
    0.3750   -0.6500    0.0000 N   0  0  0  0  0  0  0  0  0  0  0  0
    0.3750    1.9490    0.0000 C   0  0  0  0  0  0  0  0  0  0  0  0
    1.1250    3.2480    0.0000 C   0  0  0  0  0  0  0  0  0  0  0  0
    2.6250    3.2480    0.0000 C   0  0  0  0  0  0  0  0  0  0  0  0
  1  2  2  0  0  0  0
  2  3  1  0  0  0  0
  2  4  1  0  0  0  0
  4  5  1  0  0  0  0
  4 10  2  0  0  0  0
  5  6  2  0  0  0  0
  6  7  1  0  0  0  0
  6  8  1  0  0  0  0
  8  9  2  0  0  0  0
  9 10  1  0  0  0  0
M  CHG  1   3  -1
M  END
>  <name>
O=C([O-])c1cc([N;amide])ccc1

>  <apo>
1

>  <freq>
1

>  <freq0>
0

>  <freq1>
1

>  <freqA>
0.99700278

>  <a_count>
16

$$$$

  MOE2015           2D

 11 12  0  0  0  0  0  0  0  0999 V2000
    7.0590   -0.4800    0.0000 O   0  0  0  0  0  0  0  0  0  0  0  0
    5.5590   -0.4800    0.0000 C   0  0  0  0  0  0  0  0  0  0  0  0
    4.6770    0.7340    0.0000 C   0  0  0  0  0  0  0  0  0  0  0  0
    5.1410    2.1600    0.0000 O   0  0  0  0  0  0  0  0  0  0  0  0
    3.2510    0.2700    0.0000 C   0  0  0  0  0  0  0  0  0  0  0  0
    3.2510   -1.2300    0.0000 C   0  0  0  0  0  0  0  0  0  0  0  0
    4.6770   -1.6940    0.0000 N   0  0  0  0  0  0  0  0  0  0  0  0
    1.9520   -1.9800    0.0000 C   0  0  0  0  0  0  0  0  0  0  0  0
    0.6530   -1.2300    0.0000 C   0  0  0  0  0  0  0  0  0  0  0  0
    0.6530    0.2700    0.0000 C   0  0  0  0  0  0  0  0  0  0  0  0
    1.9520    1.0200    0.0000 C   0  0  0  0  0  0  0  0  0  0  0  0
  1  2  2  0  0  0  0
  2  3  1  0  0  0  0
  2  7  1  0  0  0  0
  3  4  2  0  0  0  0
  3  5  1  0  0  0  0
  5  6  1  0  0  0  0
  5 11  2  0  0  0  0
  6  7  1  0  0  0  0
  6  8  2  0  0  0  0
  8  9  1  0  0  0  0
  9 10  2  0  0  0  0
 10 11  1  0  0  0  0
M  END
>  <name>
O=C1C(=O)c2c([N;amide]1)cccc2

>  <apo>
1

>  <freq>
1

>  <freq0>
0

>  <freq1>
1

>  <freqA>
0.99700278

>  <a_count>
16

$$$$

  MOE2015           2D

  7  6  0  0  1  0  0  0  0  0999 V2000
    5.3550   -0.7920    0.0000 O   0  0  0  0  0  0  0  0  0  0  0  0
    4.0560   -1.5420    0.0000 C   0  0  0  0  0  0  0  0  0  0  0  0
    2.7570   -0.7920    0.0000 C   0  0  3  0  0  0  0  0  0  0  0  0
    2.7570    0.7080    0.0000 N   0  0  0  0  0  0  0  0  0  0  0  0
    1.4580   -1.5420    0.0000 C   0  0  3  0  0  0  0  0  0  0  0  0
    1.4580   -3.0420    0.0000 O   0  0  0  0  0  0  0  0  0  0  0  0
    0.1590   -0.7920    0.0000 C   0  0  0  0  0  0  0  0  0  0  0  0
  1  2  2  0  0  0  0
  2  3  1  0  0  0  0
  3  4  1  0  0  0  0
  3  5  1  0  0  0  0
  5  6  1  0  0  0  0
  5  7  1  0  0  0  0
M  END
>  <name>
O=[C;amide]C([N;amide])C(O)C

>  <apo>
2

>  <freq>
1

>  <freq0>
0

>  <freq1>
1

>  <freqA>
0.99700278

>  <a_count>
16

$$$$

  MOE2015           2D

  7  7  0  0  1  0  0  0  0  0999 V2000
    4.9030   -0.6040    0.0000 O   0  0  0  0  0  0  0  0  0  0  0  0
    4.1530   -1.9030    0.0000 C   0  0  0  0  0  0  0  0  0  0  0  0
    2.6530   -1.9030    0.0000 C   0  0  3  0  0  0  0  0  0  0  0  0
    1.7710   -3.1160    0.0000 N   0  0  0  0  0  0  0  0  0  0  0  0
    0.3450   -2.6530    0.0000 C   0  0  0  0  0  0  0  0  0  0  0  0
    0.3450   -1.1530    0.0000 C   0  0  0  0  0  0  0  0  0  0  0  0
    1.7710   -0.6890    0.0000 C   0  0  0  0  0  0  0  0  0  0  0  0
  1  2  2  0  0  0  0
  2  3  1  0  0  0  0
  3  4  1  0  0  0  0
  3  7  1  0  0  0  0
  4  5  1  0  0  0  0
  5  6  1  0  0  0  0
  6  7  1  0  0  0  0
M  END
>  <name>
O=[C;amide]C1[N;amide]CCC1

>  <apo>
2

>  <freq>
1

>  <freq0>
0

>  <freq1>
1

>  <freqA>
0.99700278

>  <a_count>
16

$$$$

  MOE2015           2D

  6  5  0  0  0  0  0  0  0  0999 V2000
    5.5650   -1.4910    0.0000 O   0  0  0  0  0  0  0  0  0  0  0  0
    4.2660   -0.7410    0.0000 C   0  0  0  0  0  0  0  0  0  0  0  0
    2.9670   -1.4910    0.0000 C   0  0  0  0  0  0  0  0  0  0  0  0
    1.6670   -0.7410    0.0000 C   0  0  0  0  0  0  0  0  0  0  0  0
    0.3680   -1.4910    0.0000 C   0  0  0  0  0  0  0  0  0  0  0  0
    1.6670    0.7590    0.0000 C   0  0  0  0  0  0  0  0  0  0  0  0
  1  2  2  0  0  0  0
  2  3  1  0  0  0  0
  3  4  1  0  0  0  0
  4  5  1  0  0  0  0
  4  6  1  0  0  0  0
M  END
>  <name>
O=[C;amide]CC(C)C

>  <apo>
1

>  <freq>
1

>  <freq0>
0

>  <freq1>
1

>  <freqA>
0.99700278

>  <a_count>
16

$$$$

  MOE2015           2D

  6  5  0  0  0  0  0  0  0  0999 V2000
    6.2480   -0.9240    0.0000 O   0  0  0  0  0  0  0  0  0  0  0  0
    4.9490   -1.6740    0.0000 C   0  0  0  0  0  0  0  0  0  0  0  0
    3.6500   -0.9240    0.0000 C   0  0  0  0  0  0  0  0  0  0  0  0
    2.3500   -1.6740    0.0000 C   0  0  0  0  0  0  0  0  0  0  0  0
    1.0510   -0.9240    0.0000 C   0  0  0  0  0  0  0  0  0  0  0  0
   -0.2480   -1.6740    0.0000 N   0  3  0  0  0  0  0  0  0  0  0  0
  1  2  2  0  0  0  0
  2  3  1  0  0  0  0
  3  4  1  0  0  0  0
  4  5  1  0  0  0  0
  5  6  1  0  0  0  0
M  CHG  1   6   1
M  END
>  <name>
O=[C;amide][C;amine]CC[N+]

>  <apo>
2

>  <freq>
1

>  <freq0>
0

>  <freq1>
1

>  <freqA>
0.99700278

>  <a_count>
16

$$$$

  MOE2015           2D

  7  6  0  0  1  0  0  0  0  0999 V2000
   -0.3690   -1.3770    0.0000 O   0  0  0  0  0  0  0  0  0  0  0  0
    0.9300   -2.1270    0.0000 C   0  0  0  0  0  0  0  0  0  0  0  0
    2.2290   -1.3770    0.0000 C   0  0  1  0  0  0  0  0  0  0  0  0
    2.2290    0.1230    0.0000 N   0  0  0  0  0  0  0  0  0  0  0  0
    3.5280   -2.1270    0.0000 C   0  0  0  0  0  0  0  0  0  0  0  0
    4.8270   -1.3770    0.0000 C   0  0  0  0  0  0  0  0  0  0  0  0
    6.1260   -2.1270    0.0000 C   0  0  0  0  0  0  0  0  0  0  0  0
  1  2  2  0  0  0  0
  2  3  1  0  0  0  0
  3  4  1  1  0  0  0
  3  5  1  0  0  0  0
  5  6  1  0  0  0  0
  6  7  2  0  0  0  0
M  END
>  <name>
O=[C;amide][C@@H]([N;amide])CC=C

>  <apo>
2

>  <freq>
1

>  <freq0>
0

>  <freq1>
1

>  <freqA>
0.99700278

>  <a_count>
16

$$$$

  MOE2015           2D

  7  6  0  0  1  0  0  0  0  0999 V2000
    5.3550   -0.7920    0.0000 O   0  0  0  0  0  0  0  0  0  0  0  0
    4.0560   -1.5420    0.0000 C   0  0  0  0  0  0  0  0  0  0  0  0
    2.7570   -0.7920    0.0000 C   0  0  2  0  0  0  0  0  0  0  0  0
    2.7570    0.7080    0.0000 N   0  0  0  0  0  0  0  0  0  0  0  0
    1.4580   -1.5420    0.0000 C   0  0  2  0  0  0  0  0  0  0  0  0
    1.4580   -3.0420    0.0000 O   0  0  0  0  0  0  0  0  0  0  0  0
    0.1590   -0.7920    0.0000 C   0  0  0  0  0  0  0  0  0  0  0  0
  1  2  2  0  0  0  0
  2  3  1  0  0  0  0
  3  4  1  1  0  0  0
  3  5  1  0  0  0  0
  5  6  1  0  0  0  0
  5  7  1  6  0  0  0
M  END
>  <name>
O=[C;amide][C@H]([N;amide])[C@H](O)C

>  <apo>
2

>  <freq>
1

>  <freq0>
0

>  <freq1>
1

>  <freqA>
0.99700278

>  <a_count>
16

$$$$

  MOE2015           2D

  9  9  0  0  0  0  0  0  0  0999 V2000
    6.0000   -3.4640    0.0000 O   0  0  0  0  0  0  0  0  0  0  0  0
    5.2500   -2.1650    0.0000 C   0  0  0  0  0  0  0  0  0  0  0  0
    3.7500   -2.1650    0.0000 C   0  0  0  0  0  0  0  0  0  0  0  0
    3.0000   -0.8660    0.0000 C   0  0  0  0  0  0  0  0  0  0  0  0
    1.5000   -0.8660    0.0000 C   0  0  0  0  0  0  0  0  0  0  0  0
    0.7500   -2.1650    0.0000 C   0  0  0  0  0  0  0  0  0  0  0  0
   -0.7500   -2.1650    0.0000 N   0  0  0  0  0  0  0  0  0  0  0  0
    1.5000   -3.4640    0.0000 C   0  0  0  0  0  0  0  0  0  0  0  0
    3.0000   -3.4640    0.0000 C   0  0  0  0  0  0  0  0  0  0  0  0
  1  2  2  0  0  0  0
  2  3  1  0  0  0  0
  3  4  1  0  0  0  0
  3  9  2  0  0  0  0
  4  5  2  0  0  0  0
  5  6  1  0  0  0  0
  6  7  1  0  0  0  0
  6  8  2  0  0  0  0
  8  9  1  0  0  0  0
M  END
>  <name>
O=[C;amide]c1ccc([N;amine])cc1

>  <apo>
2

>  <freq>
1

>  <freq0>
0

>  <freq1>
1

>  <freqA>
0.99700278

>  <a_count>
16

$$$$

  MOE2015           2D

  9  9  0  0  0  0  0  0  0  0999 V2000
    6.2970   -2.3540    0.0000 O   0  0  0  0  0  0  0  0  0  0  0  0
    4.9980   -3.1040    0.0000 C   0  0  0  0  0  0  0  0  0  0  0  0
    3.6990   -2.3540    0.0000 C   0  0  0  0  0  0  0  0  0  0  0  0
    2.4000   -3.1040    0.0000 C   0  0  0  0  0  0  0  0  0  0  0  0
    1.1010   -2.3540    0.0000 C   0  0  0  0  0  0  0  0  0  0  0  0
   -0.1980   -3.1040    0.0000 N   0  0  0  0  0  0  0  0  0  0  0  0
    1.1010   -0.8540    0.0000 C   0  0  0  0  0  0  0  0  0  0  0  0
    2.4000   -0.1040    0.0000 C   0  0  0  0  0  0  0  0  0  0  0  0
    3.6990   -0.8540    0.0000 C   0  0  0  0  0  0  0  0  0  0  0  0
  1  2  2  0  0  0  0
  2  3  1  0  0  0  0
  3  4  1  0  0  0  0
  3  9  2  0  0  0  0
  4  5  2  0  0  0  0
  5  6  1  0  0  0  0
  5  7  1  0  0  0  0
  7  8  2  0  0  0  0
  8  9  1  0  0  0  0
M  END
>  <name>
O=[C;ester]c1cc([N;amide])ccc1

>  <apo>
2

>  <freq>
1

>  <freq0>
0

>  <freq1>
1

>  <freqA>
0.99700278

>  <a_count>
16

$$$$

  MOE2015           2D

 11 11  0  0  0  0  0  0  0  0999 V2000
   -0.4770   -0.8270    0.0000 O   0  0  0  0  0  0  0  0  0  0  0  0
    0.2730   -2.1260    0.0000 N   0  3  0  0  0  0  0  0  0  0  0  0
   -0.4770   -3.4250    0.0000 O   0  5  0  0  0  0  0  0  0  0  0  0
    1.7730   -2.1260    0.0000 C   0  0  0  0  0  0  0  0  0  0  0  0
    2.5230   -3.4250    0.0000 C   0  0  0  0  0  0  0  0  0  0  0  0
    4.0230   -3.4250    0.0000 C   0  0  0  0  0  0  0  0  0  0  0  0
    4.7730   -2.1260    0.0000 C   0  0  0  0  0  0  0  0  0  0  0  0
    6.2730   -2.1260    0.0000 C   0  0  0  0  0  0  0  0  0  0  0  0
    7.0230   -3.4250    0.0000 O   0  0  0  0  0  0  0  0  0  0  0  0
    4.0230   -0.8270    0.0000 C   0  0  0  0  0  0  0  0  0  0  0  0
    2.5230   -0.8270    0.0000 C   0  0  0  0  0  0  0  0  0  0  0  0
  1  2  2  0  0  0  0
  2  3  1  0  0  0  0
  2  4  1  0  0  0  0
  4  5  1  0  0  0  0
  4 11  2  0  0  0  0
  5  6  2  0  0  0  0
  6  7  1  0  0  0  0
  7  8  1  0  0  0  0
  7 10  2  0  0  0  0
  8  9  2  0  0  0  0
 10 11  1  0  0  0  0
M  CHG  1   2   1
M  CHG  1   3  -1
M  END
>  <name>
O=[N+]([O-])c1ccc([C;amide]=O)cc1

>  <apo>
1

>  <freq>
1

>  <freq0>
0

>  <freq1>
1

>  <freqA>
0.99700278

>  <a_count>
16

$$$$

  MOE2015           2D

  9  9  0  0  0  0  0  0  0  0999 V2000
    1.3330    2.3090    0.0000 O   0  0  0  0  0  0  0  0  0  0  0  0
    2.0830    1.0100    0.0000 C   0  0  0  0  0  0  0  0  0  0  0  0
    1.3330   -0.2890    0.0000 C   0  0  0  0  0  0  0  0  0  0  0  0
   -0.1670   -0.2890    0.0000 O   0  0  0  0  0  0  0  0  0  0  0  0
    2.0830   -1.5880    0.0000 C   0  0  0  0  0  0  0  0  0  0  0  0
    3.5830   -1.5880    0.0000 C   0  0  0  0  0  0  0  0  0  0  0  0
    4.3330   -0.2890    0.0000 C   0  0  0  0  0  0  0  0  0  0  0  0
    5.8330   -0.2890    0.0000 N   0  0  0  0  0  0  0  0  0  0  0  0
    3.5830    1.0100    0.0000 C   0  0  0  0  0  0  0  0  0  0  0  0
  1  2  1  0  0  0  0
  2  3  1  0  0  0  0
  2  9  2  0  0  0  0
  3  4  1  0  0  0  0
  3  5  2  0  0  0  0
  5  6  1  0  0  0  0
  6  7  2  0  0  0  0
  7  8  1  0  0  0  0
  7  9  1  0  0  0  0
M  END
>  <name>
Oc1c(O)ccc([N;thiourea])c1

>  <apo>
1

>  <freq>
1

>  <freq0>
0

>  <freq1>
1

>  <freqA>
0.99700278

>  <a_count>
16

$$$$

  MOE2015           2D

  6  6  0  0  0  0  0  0  0  0999 V2000
   -2.0490    2.0490    0.0000 N   0  0  0  0  0  0  0  0  0  0  0  0
   -2.0490    0.5490    0.0000 C   0  0  0  0  0  0  0  0  0  0  0  0
   -0.7500   -0.2010    0.0000 C   0  0  0  0  0  0  0  0  0  0  0  0
    0.5490    0.5490    0.0000 N   0  0  0  0  0  0  0  0  0  0  0  0
    0.5490    2.0490    0.0000 C   0  0  0  0  0  0  0  0  0  0  0  0
   -0.7500    2.7990    0.0000 C   0  0  0  0  0  0  0  0  0  0  0  0
  1  2  1  0  0  0  0
  1  6  1  0  0  0  0
  2  3  1  0  0  0  0
  3  4  1  0  0  0  0
  4  5  1  0  0  0  0
  5  6  1  0  0  0  0
M  END
>  <name>
[N;amide]1CC[N;urea]CC1

>  <apo>
2

>  <freq>
1

>  <freq0>
0

>  <freq1>
1

>  <freqA>
0.99700278

>  <a_count>
16

$$$$

  MOE2015           2D

  8  8  0  0  0  0  0  0  0  0999 V2000
    7.2200    0.0000    0.0000 N   0  0  0  0  0  0  0  0  0  0  0  0
    5.7200    0.0000    0.0000 C   0  0  0  0  0  0  0  0  0  0  0  0
    4.9700   -1.2990    0.0000 C   0  0  0  0  0  0  0  0  0  0  0  0
    3.4700   -1.2990    0.0000 C   0  0  0  0  0  0  0  0  0  0  0  0
    2.5880   -0.0860    0.0000 S   0  0  0  0  0  0  0  0  0  0  0  0
    1.1620   -0.5490    0.0000 C   0  0  0  0  0  0  0  0  0  0  0  0
    1.1620   -2.0490    0.0000 C   0  0  0  0  0  0  0  0  0  0  0  0
    2.5880   -2.5130    0.0000 N   0  0  0  0  0  0  0  0  0  0  0  0
  1  2  1  0  0  0  0
  2  3  1  0  0  0  0
  3  4  1  0  0  0  0
  4  5  1  0  0  0  0
  4  8  2  0  0  0  0
  5  6  1  0  0  0  0
  6  7  2  0  0  0  0
  7  8  1  0  0  0  0
M  END
>  <name>
[N;amide]CCc1sc[c;biphenyl]n1

>  <apo>
2

>  <freq>
1

>  <freq0>
0

>  <freq1>
1

>  <freqA>
0.99700278

>  <a_count>
16

$$$$

  MOE2015           2D

  5  4  0  0  0  0  0  0  0  0999 V2000
    3.8780   -1.0390    0.0000 N   0  0  0  0  0  0  0  0  0  0  0  0
    2.5790   -1.7890    0.0000 C   0  0  0  0  0  0  0  0  0  0  0  0
    1.2800   -1.0390    0.0000 C   0  0  0  0  0  0  0  0  0  0  0  0
   -0.0190   -1.7890    0.0000 C   0  0  0  0  0  0  0  0  0  0  0  0
    1.2800    0.4610    0.0000 C   0  0  0  0  0  0  0  0  0  0  0  0
  1  2  1  0  0  0  0
  2  3  1  0  0  0  0
  3  4  1  0  0  0  0
  3  5  1  0  0  0  0
M  END
>  <name>
[N;amide]C[C;amine](C)C

>  <apo>
2

>  <freq>
1

>  <freq0>
0

>  <freq1>
1

>  <freqA>
0.99700278

>  <a_count>
16

$$$$

  MOE2015           2D

  8  8  0  0  0  0  0  0  0  0999 V2000
    5.3440   -0.8120    0.0000 N   0  0  0  0  0  0  0  0  0  0  0  0
    4.5940   -2.1110    0.0000 C   0  0  0  0  0  0  0  0  0  0  0  0
    3.0940   -2.1110    0.0000 C   0  0  0  0  0  0  0  0  0  0  0  0
    2.3440   -3.4100    0.0000 N   0  0  0  0  0  0  0  0  0  0  0  0
    0.8440   -3.4100    0.0000 C   0  0  0  0  0  0  0  0  0  0  0  0
    0.0940   -2.1110    0.0000 C   0  0  0  0  0  0  0  0  0  0  0  0
    0.8440   -0.8120    0.0000 C   0  0  0  0  0  0  0  0  0  0  0  0
    2.3440   -0.8120    0.0000 C   0  0  0  0  0  0  0  0  0  0  0  0
  1  2  1  0  0  0  0
  2  3  1  0  0  0  0
  3  4  1  0  0  0  0
  3  8  2  0  0  0  0
  4  5  2  0  0  0  0
  5  6  1  0  0  0  0
  6  7  2  0  0  0  0
  7  8  1  0  0  0  0
M  END
>  <name>
[N;amide]Cc1ncccc1

>  <apo>
1

>  <freq>
1

>  <freq0>
0

>  <freq1>
1

>  <freqA>
0.99700278

>  <a_count>
16

$$$$

  MOE2015           2D

  8  8  0  0  0  0  0  0  0  0999 V2000
    0.4890   -1.1750    0.0000 N   0  0  0  0  0  0  0  0  0  0  0  0
    1.7880   -0.4250    0.0000 C   0  0  0  0  0  0  0  0  0  0  0  0
    1.7880    1.0750    0.0000 C   0  0  0  0  0  0  0  0  0  0  0  0
    0.4890    1.8250    0.0000 N   0  0  0  0  0  0  0  0  0  0  0  0
    3.0870    1.8250    0.0000 C   0  0  0  0  0  0  0  0  0  0  0  0
    4.3860    1.0750    0.0000 C   0  0  0  0  0  0  0  0  0  0  0  0
    4.3860   -0.4250    0.0000 C   0  0  0  0  0  0  0  0  0  0  0  0
    3.0870   -1.1750    0.0000 C   0  0  0  0  0  0  0  0  0  0  0  0
  1  2  1  0  0  0  0
  2  3  1  0  0  0  0
  2  8  2  0  0  0  0
  3  4  1  0  0  0  0
  3  5  2  0  0  0  0
  5  6  1  0  0  0  0
  6  7  2  0  0  0  0
  7  8  1  0  0  0  0
M  END
>  <name>
[N;amide]c1c(N)cccc1

>  <apo>
1

>  <freq>
1

>  <freq0>
0

>  <freq1>
1

>  <freqA>
0.99700278

>  <a_count>
16

$$$$

  MOE2015           2D

  8  8  0  0  0  0  0  0  0  0999 V2000
    0.0000    0.0000    0.0000 N   0  0  0  0  0  0  0  0  0  0  0  0
    1.5000    0.0000    0.0000 C   0  0  0  0  0  0  0  0  0  0  0  0
    2.2500   -1.2990    0.0000 N   0  0  0  0  0  0  0  0  0  0  0  0
    3.7500   -1.2990    0.0000 C   0  0  0  0  0  0  0  0  0  0  0  0
    4.5000    0.0000    0.0000 C   0  0  0  0  0  0  0  0  0  0  0  0
    6.0000    0.0000    0.0000 C   0  0  0  0  0  0  0  0  0  0  0  0
    3.7500    1.2990    0.0000 C   0  0  0  0  0  0  0  0  0  0  0  0
    2.2500    1.2990    0.0000 C   0  0  0  0  0  0  0  0  0  0  0  0
  1  2  1  0  0  0  0
  2  3  1  0  0  0  0
  2  8  2  0  0  0  0
  3  4  2  0  0  0  0
  4  5  1  0  0  0  0
  5  6  1  0  0  0  0
  5  7  2  0  0  0  0
  7  8  1  0  0  0  0
M  END
>  <name>
[N;amide]c1n[c;biphenyl]c(C)cc1

>  <apo>
2

>  <freq>
1

>  <freq0>
0

>  <freq1>
1

>  <freqA>
0.99700278

>  <a_count>
16

$$$$

  MOE2015           2D

 11 12  0  0  0  0  0  0  0  0999 V2000
    6.7620   -1.4610    0.0000 S   0  0  0  0  0  0  0  0  0  0  0  0
    5.4630   -0.7110    0.0000 C   0  0  0  0  0  0  0  0  0  0  0  0
    5.4630    0.7890    0.0000 N   0  0  0  0  0  0  0  0  0  0  0  0
    4.1640    1.5390    0.0000 C   0  0  0  0  0  0  0  0  0  0  0  0
    4.1640    3.0390    0.0000 N   0  0  0  0  0  0  0  0  0  0  0  0
    2.8650    0.7890    0.0000 C   0  0  0  0  0  0  0  0  0  0  0  0
    1.4390    1.2530    0.0000 N   0  0  0  0  0  0  0  0  0  0  0  0
    0.5570    0.0390    0.0000 C   0  0  0  0  0  0  0  0  0  0  0  0
    1.4390   -1.1740    0.0000 N   0  0  0  0  0  0  0  0  0  0  0  0
    2.8650   -0.7110    0.0000 C   0  0  0  0  0  0  0  0  0  0  0  0
    4.1640   -1.4610    0.0000 N   0  0  0  0  0  0  0  0  0  0  0  0
  1  2  1  0  0  0  0
  2  3  1  0  0  0  0
  2 11  2  0  0  0  0
  3  4  2  0  0  0  0
  4  5  1  0  0  0  0
  4  6  1  0  0  0  0
  6  7  1  0  0  0  0
  6 10  2  0  0  0  0
  7  8  2  0  0  0  0
  8  9  1  0  0  0  0
  9 10  1  0  0  0  0
 10 11  1  0  0  0  0
M  END
>  <name>
[S;thioether]c1nc([N;amine])c2nc[nH;NaroC]c2n1

>  <apo>
3

>  <freq>
1

>  <freq0>
0

>  <freq1>
1

>  <freqA>
0.99700278

>  <a_count>
16

$$$$

  MOE2015           2D

 11 11  0  0  0  0  0  0  0  0999 V2000
   -4.0910    2.3620    0.0000 S   0  0  0  0  0  0  0  0  0  0  0  0
   -4.8410    3.6610    0.0000 O   0  0  0  0  0  0  0  0  0  0  0  0
   -4.8410    1.0630    0.0000 O   0  0  0  0  0  0  0  0  0  0  0  0
   -2.5910    2.3620    0.0000 C   0  0  0  0  0  0  0  0  0  0  0  0
   -1.8410    1.0630    0.0000 C   0  0  0  0  0  0  0  0  0  0  0  0
   -0.3410    1.0630    0.0000 C   0  0  0  0  0  0  0  0  0  0  0  0
    0.4090    2.3620    0.0000 C   0  0  0  0  0  0  0  0  0  0  0  0
    1.9090    2.3620    0.0000 C   0  0  0  0  0  0  0  0  0  0  0  0
    3.4090    2.3620    0.0000 N   0  0  0  0  0  0  0  0  0  0  0  0
   -0.3410    3.6610    0.0000 C   0  0  0  0  0  0  0  0  0  0  0  0
   -1.8410    3.6610    0.0000 C   0  0  0  0  0  0  0  0  0  0  0  0
  1  2  2  0  0  0  0
  1  3  2  0  0  0  0
  1  4  1  0  0  0  0
  4  5  1  0  0  0  0
  4 11  2  0  0  0  0
  5  6  2  0  0  0  0
  6  7  1  0  0  0  0
  7  8  1  0  0  0  0
  7 10  2  0  0  0  0
  8  9  3  0  0  0  0
 10 11  1  0  0  0  0
M  END
>  <name>
[SH;so2amide](=O)(=O)c1ccc(C#N)cc1

>  <apo>
1

>  <freq>
1

>  <freq0>
0

>  <freq1>
1

>  <freqA>
0.99700278

>  <a_count>
16

$$$$

  MOE2015           2D

  9  9  0  0  0  0  0  0  0  0999 V2000
    0.0690   -0.2560    0.0000 Cl  0  0  0  0  0  0  0  0  0  0  0  0
    1.3680    0.4940    0.0000 C   0  0  0  0  0  0  0  0  0  0  0  0
    2.6670   -0.2560    0.0000 C   0  0  0  0  0  0  0  0  0  0  0  0
    2.6670   -1.7560    0.0000 C   0  0  0  0  0  0  0  0  0  0  0  0
    3.9660    0.4940    0.0000 C   0  0  0  0  0  0  0  0  0  0  0  0
    5.2650   -0.2560    0.0000 O   0  0  0  0  0  0  0  0  0  0  0  0
    3.9660    1.9940    0.0000 C   0  0  0  0  0  0  0  0  0  0  0  0
    2.6670    2.7440    0.0000 N   0  0  0  0  0  0  0  0  0  0  0  0
    1.3680    1.9940    0.0000 C   0  0  0  0  0  0  0  0  0  0  0  0
  1  2  1  0  0  0  0
  2  3  1  0  0  0  0
  2  9  2  0  0  0  0
  3  4  1  0  0  0  0
  3  5  2  0  0  0  0
  5  6  1  0  0  0  0
  5  7  1  0  0  0  0
  7  8  2  0  0  0  0
  8  9  1  0  0  0  0
M  END
>  <name>
Clc1c(C)c([O;ester])cnc1

>  <apo>
1

>  <freq>
1

>  <freq0>
0

>  <freq1>
1

>  <freqA>
0.99700278

>  <a_count>
15

$$$$

  MOE2015           2D

  9  9  0  0  0  0  0  0  0  0999 V2000
    1.3330    2.3090    0.0000 Cl  0  0  0  0  0  0  0  0  0  0  0  0
    2.0830    1.0100    0.0000 C   0  0  0  0  0  0  0  0  0  0  0  0
    1.3330   -0.2890    0.0000 C   0  0  0  0  0  0  0  0  0  0  0  0
   -0.1670   -0.2890    0.0000 C   0  0  0  0  0  0  0  0  0  0  0  0
    2.0830   -1.5880    0.0000 N   0  0  0  0  0  0  0  0  0  0  0  0
    3.5830   -1.5880    0.0000 C   0  0  0  0  0  0  0  0  0  0  0  0
    4.3330   -0.2890    0.0000 C   0  0  0  0  0  0  0  0  0  0  0  0
    5.8330   -0.2890    0.0000 O   0  0  0  0  0  0  0  0  0  0  0  0
    3.5830    1.0100    0.0000 C   0  0  0  0  0  0  0  0  0  0  0  0
  1  2  1  0  0  0  0
  2  3  1  0  0  0  0
  2  9  2  0  0  0  0
  3  4  1  0  0  0  0
  3  5  2  0  0  0  0
  5  6  1  0  0  0  0
  6  7  2  0  0  0  0
  7  8  1  0  0  0  0
  7  9  1  0  0  0  0
M  END
>  <name>
Clc1c(C)ncc([O;ester])c1

>  <apo>
1

>  <freq>
1

>  <freq0>
0

>  <freq1>
1

>  <freqA>
0.99700278

>  <a_count>
15

$$$$

  MOE2015           2D

 10 10  0  0  0  0  0  0  0  0999 V2000
    6.3430   -0.4000    0.0000 Cl  0  0  0  0  0  0  0  0  0  0  0  0
    5.0440    0.3500    0.0000 C   0  0  0  0  0  0  0  0  0  0  0  0
    3.7450   -0.4000    0.0000 C   0  0  0  0  0  0  0  0  0  0  0  0
    2.4460    0.3500    0.0000 C   0  0  0  0  0  0  0  0  0  0  0  0
    1.1470   -0.4000    0.0000 C   0  0  0  0  0  0  0  0  0  0  0  0
    1.1470   -1.9000    0.0000 O   0  0  0  0  0  0  0  0  0  0  0  0
    2.4460    1.8500    0.0000 C   0  0  0  0  0  0  0  0  0  0  0  0
    1.1470    2.6000    0.0000 O   0  0  0  0  0  0  0  0  0  0  0  0
    3.7450    2.6000    0.0000 C   0  0  0  0  0  0  0  0  0  0  0  0
    5.0440    1.8500    0.0000 C   0  0  0  0  0  0  0  0  0  0  0  0
  1  2  1  0  0  0  0
  2  3  1  0  0  0  0
  2 10  2  0  0  0  0
  3  4  2  0  0  0  0
  4  5  1  0  0  0  0
  4  7  1  0  0  0  0
  5  6  2  0  0  0  0
  7  8  1  0  0  0  0
  7  9  2  0  0  0  0
  9 10  1  0  0  0  0
M  END
>  <name>
Clc1cc([C;amide]=O)c(O)cc1

>  <apo>
1

>  <freq>
1

>  <freq0>
0

>  <freq1>
1

>  <freqA>
0.99700278

>  <a_count>
15

$$$$

  MOE2015           2D

  7  6  0  0  1  0  0  0  0  0999 V2000
    5.3550   -0.7920    0.0000 F   0  0  0  0  0  0  0  0  0  0  0  0
    4.0560   -1.5420    0.0000 C   0  0  0  0  0  0  0  0  0  0  0  0
    2.7570   -0.7920    0.0000 C   0  0  0  0  0  0  0  0  0  0  0  0
    2.7570    0.7080    0.0000 O   0  0  0  0  0  0  0  0  0  0  0  0
    1.4580   -1.5420    0.0000 C   0  0  3  0  0  0  0  0  0  0  0  0
    1.4580   -3.0420    0.0000 N   0  0  0  0  0  0  0  0  0  0  0  0
    0.1590   -0.7920    0.0000 C   0  0  0  0  0  0  0  0  0  0  0  0
  1  2  1  0  0  0  0
  2  3  1  0  0  0  0
  3  4  2  0  0  0  0
  3  5  1  0  0  0  0
  5  6  1  0  0  0  0
  5  7  1  0  0  0  0
M  END
>  <name>
FCC(=O)C([N;amide])C

>  <apo>
1

>  <freq>
1

>  <freq0>
0

>  <freq1>
1

>  <freqA>
0.99700278

>  <a_count>
15

$$$$

  MOE2015           2D

  7  6  0  0  1  0  0  0  0  0999 V2000
    5.3550   -0.7920    0.0000 F   0  0  0  0  0  0  0  0  0  0  0  0
    4.0560   -1.5420    0.0000 C   0  0  0  0  0  0  0  0  0  0  0  0
    2.7570   -0.7920    0.0000 C   0  0  0  0  0  0  0  0  0  0  0  0
    2.7570    0.7080    0.0000 O   0  0  0  0  0  0  0  0  0  0  0  0
    1.4580   -1.5420    0.0000 C   0  0  1  0  0  0  0  0  0  0  0  0
    1.4580   -3.0420    0.0000 N   0  0  0  0  0  0  0  0  0  0  0  0
    0.1590   -0.7920    0.0000 C   0  0  0  0  0  0  0  0  0  0  0  0
  1  2  1  0  0  0  0
  2  3  1  0  0  0  0
  3  4  2  0  0  0  0
  3  5  1  0  0  0  0
  5  6  1  0  0  0  0
  5  7  1  1  0  0  0
M  END
>  <name>
FCC(=O)[C@@H]([N;amide])C

>  <apo>
1

>  <freq>
1

>  <freq0>
0

>  <freq1>
1

>  <freqA>
0.99700278

>  <a_count>
15

$$$$

  MOE2015           2D

  8  8  0  0  0  0  0  0  0  0999 V2000
    0.0000    0.0000    0.0000 F   0  0  0  0  0  0  0  0  0  0  0  0
    1.5000    0.0000    0.0000 C   0  0  0  0  0  0  0  0  0  0  0  0
    2.2500   -1.2990    0.0000 C   0  0  0  0  0  0  0  0  0  0  0  0
    3.7500   -1.2990    0.0000 C   0  0  0  0  0  0  0  0  0  0  0  0
    4.5000    0.0000    0.0000 C   0  0  0  0  0  0  0  0  0  0  0  0
    6.0000    0.0000    0.0000 C   0  0  0  0  0  0  0  0  0  0  0  0
    3.7500    1.2990    0.0000 C   0  0  0  0  0  0  0  0  0  0  0  0
    2.2500    1.2990    0.0000 C   0  0  0  0  0  0  0  0  0  0  0  0
  1  2  1  0  0  0  0
  2  3  1  0  0  0  0
  2  8  2  0  0  0  0
  3  4  2  0  0  0  0
  4  5  1  0  0  0  0
  5  6  1  0  0  0  0
  5  7  2  0  0  0  0
  7  8  1  0  0  0  0
M  END
>  <name>
Fc1ccc([C;thioether])cc1

>  <apo>
1

>  <freq>
1

>  <freq0>
0

>  <freq1>
1

>  <freqA>
0.99700278

>  <a_count>
15

$$$$

  MOE2015           2D

  7  7  0  0  1  0  0  0  0  0999 V2000
    6.5370    0.0000    0.0000 N   0  0  0  0  0  0  0  0  0  0  0  0
    5.0370    0.0000    0.0000 C   0  0  0  0  0  0  0  0  0  0  0  0
    3.5370    0.0000    0.0000 C   0  0  1  0  0  0  0  0  0  0  0  0
    2.6550   -1.2140    0.0000 N   0  0  0  0  0  0  0  0  0  0  0  0
    1.2290   -0.7500    0.0000 C   0  0  0  0  0  0  0  0  0  0  0  0
    1.2290    0.7500    0.0000 C   0  0  0  0  0  0  0  0  0  0  0  0
    2.6550    1.2140    0.0000 C   0  0  0  0  0  0  0  0  0  0  0  0
  1  2  3  0  0  0  0
  3  2  1  1  0  0  0
  3  4  1  0  0  0  0
  3  7  1  0  0  0  0
  4  5  1  0  0  0  0
  5  6  1  0  0  0  0
  6  7  1  0  0  0  0
M  END
>  <name>
N#C[C@H]1[N;amide]CCC1

>  <apo>
1

>  <freq>
1

>  <freq0>
0

>  <freq1>
1

>  <freqA>
0.99700278

>  <a_count>
15

$$$$

  MOE2015           2D

 10 11  0  0  0  0  0  0  0  0999 V2000
    0.5660    0.9790    0.0000 N   0  0  0  0  0  0  0  0  0  0  0  0
    1.3160   -0.3200    0.0000 C   0  0  0  0  0  0  0  0  0  0  0  0
    0.5660   -1.6190    0.0000 N   0  0  0  0  0  0  0  0  0  0  0  0
    1.3160   -2.9180    0.0000 C   0  0  0  0  0  0  0  0  0  0  0  0
    2.8160   -2.9180    0.0000 N   0  0  0  0  0  0  0  0  0  0  0  0
    3.5660   -1.6190    0.0000 C   0  0  0  0  0  0  0  0  0  0  0  0
    5.0330   -1.3070    0.0000 N   0  0  0  0  0  0  0  0  0  0  0  0
    5.1900    0.1850    0.0000 N   0  0  0  0  0  0  0  0  0  0  0  0
    3.8190    0.7950    0.0000 C   0  0  0  0  0  0  0  0  0  0  0  0
    2.8160   -0.3200    0.0000 C   0  0  0  0  0  0  0  0  0  0  0  0
  1  2  1  0  0  0  0
  2  3  1  0  0  0  0
  2 10  2  0  0  0  0
  3  4  2  0  0  0  0
  4  5  1  0  0  0  0
  5  6  2  0  0  0  0
  6  7  1  0  0  0  0
  6 10  1  0  0  0  0
  7  8  1  0  0  0  0
  8  9  2  0  0  0  0
  9 10  1  0  0  0  0
M  END
>  <name>
Nc1ncnc2[nH;NaroC]n[c;biphenyl]c12

>  <apo>
2

>  <freq>
1

>  <freq0>
0

>  <freq1>
1

>  <freqA>
0.99700278

>  <a_count>
15

$$$$

  MOE2015           2D

  8  7  0  0  0  0  0  0  0  0999 V2000
    2.5250    1.2250    0.0000 O   0  0  0  0  0  0  0  0  0  0  0  0
    2.5250   -0.2750    0.0000 C   0  0  0  0  0  0  0  0  0  0  0  0
    1.2250   -1.0250    0.0000 N   0  0  0  0  0  0  0  0  0  0  0  0
   -0.0740   -0.2750    0.0000 O   0  0  0  0  0  0  0  0  0  0  0  0
   -1.3730   -1.0250    0.0000 C   0  0  0  0  0  0  0  0  0  0  0  0
    1.2250   -2.5250    0.0000 C   0  0  0  0  0  0  0  0  0  0  0  0
    3.8240   -1.0250    0.0000 C   0  0  0  0  0  0  0  0  0  0  0  0
    5.1230   -0.2750    0.0000 O   0  0  0  0  0  0  0  0  0  0  0  0
  1  2  2  0  0  0  0
  2  3  1  0  0  0  0
  2  7  1  0  0  0  0
  3  4  1  0  0  0  0
  3  6  1  0  0  0  0
  4  5  1  0  0  0  0
  7  8  2  0  0  0  0
M  END
>  <name>
O=C(N(OC)C)[C;amide]=O

>  <apo>
1

>  <freq>
1

>  <freq0>
0

>  <freq1>
1

>  <freqA>
0.99700278

>  <a_count>
15

$$$$

  MOE2015           2D

  6  5  0  0  1  0  0  0  0  0999 V2000
    3.3750    0.6500    0.0000 O   0  0  0  0  0  0  0  0  0  0  0  0
    2.6250   -0.6500    0.0000 C   0  0  0  0  0  0  0  0  0  0  0  0
    3.3750   -1.9490    0.0000 N   0  0  0  0  0  0  0  0  0  0  0  0
    1.1250   -0.6500    0.0000 C   0  0  1  0  0  0  0  0  0  0  0  0
    0.3750    0.6500    0.0000 N   0  3  0  0  0  0  0  0  0  0  0  0
    0.3750   -1.9490    0.0000 C   0  0  0  0  0  0  0  0  0  0  0  0
  1  2  2  0  0  0  0
  2  3  1  0  0  0  0
  2  4  1  0  0  0  0
  4  5  1  6  0  0  0
  4  6  1  0  0  0  0
M  CHG  1   5   1
M  END
>  <name>
O=C(N)[C@@H]([N+])[C;amine]

>  <apo>
1

>  <freq>
1

>  <freq0>
0

>  <freq1>
1

>  <freqA>
0.99700278

>  <a_count>
15

$$$$

  MOE2015           2D

  8  7  0  0  0  0  0  0  0  0999 V2000
   -0.1970   -1.8620    0.0000 O   0  0  0  0  0  0  0  0  0  0  0  0
    1.1020   -1.1120    0.0000 C   0  0  0  0  0  0  0  0  0  0  0  0
    1.1020    0.3880    0.0000 O   0  5  0  0  0  0  0  0  0  0  0  0
    2.4010   -1.8620    0.0000 C   0  0  0  0  0  0  0  0  0  0  0  0
    3.7000   -1.1120    0.0000 C   0  0  0  0  0  0  0  0  0  0  0  0
    4.9990   -1.8620    0.0000 C   0  0  0  0  0  0  0  0  0  0  0  0
    6.2980   -1.1120    0.0000 C   0  0  0  0  0  0  0  0  0  0  0  0
    7.5970   -1.8620    0.0000 O   0  0  0  0  0  0  0  0  0  0  0  0
  1  2  2  0  0  0  0
  2  3  1  0  0  0  0
  2  4  1  0  0  0  0
  4  5  1  0  0  0  0
  5  6  1  0  0  0  0
  6  7  1  0  0  0  0
  7  8  2  0  0  0  0
M  CHG  1   3  -1
M  END
>  <name>
O=C([O-])CCC[C;amide]=O

>  <apo>
1

>  <freq>
1

>  <freq0>
0

>  <freq1>
1

>  <freqA>
0.99700278

>  <a_count>
15

$$$$

  MOE2015           2D

 10 10  0  0  0  0  0  0  0  0999 V2000
    5.1750   -0.1300    0.0000 O   0  0  0  0  0  0  0  0  0  0  0  0
    4.4250    1.1690    0.0000 C   0  0  0  0  0  0  0  0  0  0  0  0
    5.1750    2.4680    0.0000 O   0  5  0  0  0  0  0  0  0  0  0  0
    2.9250    1.1690    0.0000 C   0  0  0  0  0  0  0  0  0  0  0  0
    2.1750    2.4680    0.0000 C   0  0  0  0  0  0  0  0  0  0  0  0
    2.9250    3.7670    0.0000 O   0  0  0  0  0  0  0  0  0  0  0  0
    0.6750    2.4680    0.0000 C   0  0  0  0  0  0  0  0  0  0  0  0
   -0.0750    1.1690    0.0000 C   0  0  0  0  0  0  0  0  0  0  0  0
    0.6750   -0.1300    0.0000 C   0  0  0  0  0  0  0  0  0  0  0  0
    2.1750   -0.1300    0.0000 C   0  0  0  0  0  0  0  0  0  0  0  0
  1  2  2  0  0  0  0
  2  3  1  0  0  0  0
  2  4  1  0  0  0  0
  4  5  1  0  0  0  0
  4 10  2  0  0  0  0
  5  6  1  0  0  0  0
  5  7  2  0  0  0  0
  7  8  1  0  0  0  0
  8  9  2  0  0  0  0
  9 10  1  0  0  0  0
M  CHG  1   3  -1
M  END
>  <name>
O=C([O-])c1c(O)c[c;biphenyl]cc1

>  <apo>
1

>  <freq>
1

>  <freq0>
0

>  <freq1>
1

>  <freqA>
0.99700278

>  <a_count>
15

$$$$

  MOE2015           2D

 10 10  0  0  0  0  0  0  0  0999 V2000
    5.1750   -0.1300    0.0000 O   0  0  0  0  0  0  0  0  0  0  0  0
    4.4250    1.1690    0.0000 C   0  0  0  0  0  0  0  0  0  0  0  0
    5.1750    2.4680    0.0000 O   0  5  0  0  0  0  0  0  0  0  0  0
    2.9250    1.1690    0.0000 C   0  0  0  0  0  0  0  0  0  0  0  0
    2.1750    2.4680    0.0000 C   0  0  0  0  0  0  0  0  0  0  0  0
    2.9250    3.7670    0.0000 O   0  0  0  0  0  0  0  0  0  0  0  0
    0.6750    2.4680    0.0000 C   0  0  0  0  0  0  0  0  0  0  0  0
   -0.0750    1.1690    0.0000 C   0  0  0  0  0  0  0  0  0  0  0  0
    0.6750   -0.1300    0.0000 C   0  0  0  0  0  0  0  0  0  0  0  0
    2.1750   -0.1300    0.0000 C   0  0  0  0  0  0  0  0  0  0  0  0
  1  2  2  0  0  0  0
  2  3  1  0  0  0  0
  2  4  1  0  0  0  0
  4  5  1  0  0  0  0
  4 10  2  0  0  0  0
  5  6  1  0  0  0  0
  5  7  2  0  0  0  0
  7  8  1  0  0  0  0
  8  9  2  0  0  0  0
  9 10  1  0  0  0  0
M  CHG  1   3  -1
M  END
>  <name>
O=C([O-])c1c(O)cc[c;biphenyl]c1

>  <apo>
1

>  <freq>
1

>  <freq0>
0

>  <freq1>
1

>  <freqA>
0.99700278

>  <a_count>
15

$$$$

  MOE2015           2D

  6  5  0  0  1  0  0  0  0  0999 V2000
   -0.3480   -1.2990    0.0000 O   0  0  0  0  0  0  0  0  0  0  0  0
    0.9510   -2.0490    0.0000 C   0  0  0  0  0  0  0  0  0  0  0  0
    2.2500   -1.2990    0.0000 C   0  0  1  0  0  0  0  0  0  0  0  0
    2.2500    0.2010    0.0000 N   0  0  0  0  0  0  0  0  0  0  0  0
    3.5490   -2.0490    0.0000 C   0  0  0  0  0  0  0  0  0  0  0  0
    4.8480   -1.2990    0.0000 C   0  0  0  0  0  0  0  0  0  0  0  0
  1  2  2  0  0  0  0
  2  3  1  0  0  0  0
  3  4  1  1  0  0  0
  3  5  1  0  0  0  0
  5  6  1  0  0  0  0
M  END
>  <name>
O=C[C@@H]([N;amide])C[C;thioether]

>  <apo>
2

>  <freq>
1

>  <freq0>
0

>  <freq1>
1

>  <freqA>
0.99700278

>  <a_count>
15

$$$$

  MOE2015           2D

  8  8  0  0  1  0  0  0  0  0999 V2000
    5.5980   -1.5700    0.0000 O   0  0  0  0  0  0  0  0  0  0  0  0
    4.3170   -0.7900    0.0000 C   0  0  0  0  0  0  0  0  0  0  0  0
    3.0000   -1.5100    0.0000 C   0  0  2  0  0  0  0  0  0  0  0  0
    1.6450   -0.8680    0.0000 C   0  0  0  0  0  0  0  0  0  0  0  0
    1.3670    0.6060    0.0000 N   0  0  0  0  0  0  0  0  0  0  0  0
    0.6150   -1.9590    0.0000 C   0  0  0  0  0  0  0  0  0  0  0  0
    1.3350   -3.2750    0.0000 C   0  0  0  0  0  0  0  0  0  0  0  0
    2.8090   -2.9970    0.0000 C   0  0  0  0  0  0  0  0  0  0  0  0
  1  2  2  0  0  0  0
  3  2  1  1  0  0  0
  3  4  1  0  0  0  0
  3  8  1  0  0  0  0
  4  5  1  0  0  0  0
  4  6  2  0  0  0  0
  6  7  1  0  0  0  0
  7  8  2  0  0  0  0
M  END
>  <name>
O=[C;amide][C@@H]1C([N;amide])=CC=C1

>  <apo>
2

>  <freq>
1

>  <freq0>
0

>  <freq1>
1

>  <freqA>
0.99700278

>  <a_count>
15

$$$$

  MOE2015           2D

  9  9  0  0  0  0  0  0  0  0999 V2000
    5.5000   -3.1750    0.0000 O   0  0  0  0  0  0  0  0  0  0  0  0
    4.7500   -1.8760    0.0000 C   0  0  0  0  0  0  0  0  0  0  0  0
    3.2500   -1.8760    0.0000 C   0  0  0  0  0  0  0  0  0  0  0  0
    2.5000   -0.5770    0.0000 C   0  0  0  0  0  0  0  0  0  0  0  0
    3.2500    0.7220    0.0000 O   0  0  0  0  0  0  0  0  0  0  0  0
    1.0000   -0.5770    0.0000 C   0  0  0  0  0  0  0  0  0  0  0  0
    0.2500   -1.8760    0.0000 C   0  0  0  0  0  0  0  0  0  0  0  0
    1.0000   -3.1750    0.0000 C   0  0  0  0  0  0  0  0  0  0  0  0
    2.5000   -3.1750    0.0000 C   0  0  0  0  0  0  0  0  0  0  0  0
  1  2  2  0  0  0  0
  2  3  1  0  0  0  0
  3  4  1  0  0  0  0
  3  9  2  0  0  0  0
  4  5  1  0  0  0  0
  4  6  2  0  0  0  0
  6  7  1  0  0  0  0
  7  8  2  0  0  0  0
  8  9  1  0  0  0  0
M  END
>  <name>
O=[C;amide]c1c([O;ester])cccc1

>  <apo>
2

>  <freq>
1

>  <freq0>
0

>  <freq1>
1

>  <freqA>
0.99700278

>  <a_count>
15

$$$$

  MOE2015           2D

  9  9  0  0  0  0  0  0  0  0999 V2000
    6.0000   -3.4640    0.0000 O   0  0  0  0  0  0  0  0  0  0  0  0
    5.2500   -2.1650    0.0000 C   0  0  0  0  0  0  0  0  0  0  0  0
    3.7500   -2.1650    0.0000 C   0  0  0  0  0  0  0  0  0  0  0  0
    3.0000   -0.8660    0.0000 C   0  0  0  0  0  0  0  0  0  0  0  0
    1.5000   -0.8660    0.0000 C   0  0  0  0  0  0  0  0  0  0  0  0
    0.7500   -2.1650    0.0000 C   0  0  0  0  0  0  0  0  0  0  0  0
   -0.7500   -2.1650    0.0000 O   0  0  0  0  0  0  0  0  0  0  0  0
    1.5000   -3.4640    0.0000 C   0  0  0  0  0  0  0  0  0  0  0  0
    3.0000   -3.4640    0.0000 C   0  0  0  0  0  0  0  0  0  0  0  0
  1  2  2  0  0  0  0
  2  3  1  0  0  0  0
  3  4  1  0  0  0  0
  3  9  2  0  0  0  0
  4  5  2  0  0  0  0
  5  6  1  0  0  0  0
  6  7  1  0  0  0  0
  6  8  2  0  0  0  0
  8  9  1  0  0  0  0
M  END
>  <name>
O=[C;ester]c1ccc([O;ester])cc1

>  <apo>
2

>  <freq>
1

>  <freq0>
0

>  <freq1>
1

>  <freqA>
0.99700278

>  <a_count>
15

$$$$

  MOE2015           2D

  9  9  0  0  0  0  0  0  0  0999 V2000
    2.3330   -2.3330    0.0000 O   0  0  0  0  0  0  0  0  0  0  0  0
    2.3330   -0.8330    0.0000 C   0  0  0  0  0  0  0  0  0  0  0  0
    3.6320   -0.0830    0.0000 C   0  0  0  0  0  0  0  0  0  0  0  0
    4.9310   -0.8330    0.0000 O   0  0  0  0  0  0  0  0  0  0  0  0
    3.6320    1.4170    0.0000 C   0  0  0  0  0  0  0  0  0  0  0  0
    2.3330    2.1670    0.0000 C   0  0  0  0  0  0  0  0  0  0  0  0
    1.0340    1.4170    0.0000 C   0  0  0  0  0  0  0  0  0  0  0  0
    1.0340   -0.0830    0.0000 C   0  0  0  0  0  0  0  0  0  0  0  0
   -0.2650   -0.8330    0.0000 O   0  0  0  0  0  0  0  0  0  0  0  0
  1  2  1  0  0  0  0
  2  3  1  0  0  0  0
  2  8  2  0  0  0  0
  3  4  1  0  0  0  0
  3  5  2  0  0  0  0
  5  6  1  0  0  0  0
  6  7  2  0  0  0  0
  7  8  1  0  0  0  0
  8  9  1  0  0  0  0
M  END
>  <name>
Oc1c(O)cc[c;biphenyl]c1O

>  <apo>
1

>  <freq>
1

>  <freq0>
0

>  <freq1>
1

>  <freqA>
0.99700278

>  <a_count>
15

$$$$

  MOE2015           2D

  8  8  0  0  0  0  0  0  0  0999 V2000
    0.4890   -1.1750    0.0000 O   0  0  0  0  0  0  0  0  0  0  0  0
    1.7880   -0.4250    0.0000 C   0  0  0  0  0  0  0  0  0  0  0  0
    1.7880    1.0750    0.0000 C   0  0  0  0  0  0  0  0  0  0  0  0
    0.4890    1.8250    0.0000 N   0  0  0  0  0  0  0  0  0  0  0  0
    3.0870    1.8250    0.0000 C   0  0  0  0  0  0  0  0  0  0  0  0
    4.3860    1.0750    0.0000 C   0  0  0  0  0  0  0  0  0  0  0  0
    4.3860   -0.4250    0.0000 C   0  0  0  0  0  0  0  0  0  0  0  0
    3.0870   -1.1750    0.0000 C   0  0  0  0  0  0  0  0  0  0  0  0
  1  2  1  0  0  0  0
  2  3  1  0  0  0  0
  2  8  2  0  0  0  0
  3  4  1  0  0  0  0
  3  5  2  0  0  0  0
  5  6  1  0  0  0  0
  6  7  2  0  0  0  0
  7  8  1  0  0  0  0
M  END
>  <name>
Oc1c([N;amide])cccc1

>  <apo>
1

>  <freq>
1

>  <freq0>
0

>  <freq1>
1

>  <freqA>
0.99700278

>  <a_count>
15

$$$$

  MOE2015           2D

  7  6  0  0  1  0  0  0  0  0999 V2000
    5.3550   -0.7920    0.0000 S   0  0  0  0  0  0  0  0  0  0  0  0
    4.0560   -1.5420    0.0000 C   0  0  0  0  0  0  0  0  0  0  0  0
    2.7570   -0.7920    0.0000 C   0  0  1  0  0  0  0  0  0  0  0  0
    2.7570    0.7080    0.0000 N   0  0  0  0  0  0  0  0  0  0  0  0
    1.4580   -1.5420    0.0000 C   0  0  0  0  0  0  0  0  0  0  0  0
    1.4580   -3.0420    0.0000 O   0  0  0  0  0  0  0  0  0  0  0  0
    0.1590   -0.7920    0.0000 N   0  0  0  0  0  0  0  0  0  0  0  0
  1  2  1  0  0  0  0
  2  3  1  0  0  0  0
  3  4  1  6  0  0  0
  3  5  1  0  0  0  0
  5  6  2  0  0  0  0
  5  7  1  0  0  0  0
M  END
>  <name>
SC[C@@H]([N;amide])C(=O)N

>  <apo>
1

>  <freq>
1

>  <freq0>
0

>  <freq1>
1

>  <freqA>
0.99700278

>  <a_count>
15

$$$$

  MOE2015           2D

  7  7  0  0  0  0  0  0  0  0999 V2000
    5.1430    0.0000    0.0000 C   0  0  0  0  0  0  0  0  0  0  0  0
    3.6430    0.0000    0.0000 C   0  0  0  0  0  0  0  0  0  0  0  0
    2.8930    1.2990    0.0000 C   0  0  0  0  0  0  0  0  0  0  0  0
    1.3930    1.2990    0.0000 C   0  0  0  0  0  0  0  0  0  0  0  0
    0.6430    0.0000    0.0000 C   0  0  0  0  0  0  0  0  0  0  0  0
    1.3930   -1.2990    0.0000 C   0  0  0  0  0  0  0  0  0  0  0  0
    2.8930   -1.2990    0.0000 C   0  0  0  0  0  0  0  0  0  0  0  0
  1  2  1  0  0  0  0
  2  3  1  0  0  0  0
  2  7  2  0  0  0  0
  3  4  2  0  0  0  0
  4  5  1  0  0  0  0
  5  6  2  0  0  0  0
  6  7  1  0  0  0  0
M  END
>  <name>
[C;NaroC]c1cc[c;biphenyl]cc1

>  <apo>
2

>  <freq>
1

>  <freq0>
0

>  <freq1>
1

>  <freqA>
0.99700278

>  <a_count>
15

$$$$

  MOE2015           2D

  9 10  0  0  0  0  0  0  0  0999 V2000
    0.5820   -2.7760    0.0000 C   0  0  0  0  0  0  0  0  0  0  0  0
    1.3570   -1.4920    0.0000 C   0  0  0  0  0  0  0  0  0  0  0  0
    2.8520   -1.3650    0.0000 N   0  0  0  0  0  0  0  0  0  0  0  0
    3.1930    0.0960    0.0000 C   0  0  0  0  0  0  0  0  0  0  0  0
    1.9090    0.8710    0.0000 S   0  0  0  0  0  0  0  0  0  0  0  0
    0.7740   -0.1100    0.0000 C   0  0  0  0  0  0  0  0  0  0  0  0
    4.6870    0.2230    0.0000 N   0  0  0  0  0  0  0  0  0  0  0  0
    5.2700   -1.1590    0.0000 C   0  0  0  0  0  0  0  0  0  0  0  0
    4.1360   -2.1410    0.0000 C   0  0  0  0  0  0  0  0  0  0  0  0
  1  2  1  0  0  0  0
  2  3  1  0  0  0  0
  2  6  2  0  0  0  0
  3  4  1  0  0  0  0
  3  9  1  0  0  0  0
  4  5  1  0  0  0  0
  4  7  2  0  0  0  0
  5  6  1  0  0  0  0
  7  8  1  0  0  0  0
  8  9  2  0  0  0  0
M  END
>  <name>
[C;amine]C=1n2c(SC=1)n[c;biphenyl]c2

>  <apo>
2

>  <freq>
1

>  <freq0>
0

>  <freq1>
1

>  <freqA>
0.99700278

>  <a_count>
15

$$$$

  MOE2015           2D

  5  5  0  0  0  0  0  0  0  0999 V2000
    0.7970    1.6710    0.0000 N   0  3  0  0  0  0  0  0  0  0  0  0
    0.4090    0.2220    0.0000 C   0  0  0  0  0  0  0  0  0  0  0  0
   -1.0890    0.1430    0.0000 C   0  0  0  0  0  0  0  0  0  0  0  0
   -1.6270    1.5440    0.0000 C   0  0  0  0  0  0  0  0  0  0  0  0
   -0.4610    2.4880    0.0000 C   0  0  0  0  0  0  0  0  0  0  0  0
  1  2  1  0  0  0  0
  1  5  1  0  0  0  0
  2  3  1  0  0  0  0
  3  4  1  0  0  0  0
  4  5  1  0  0  0  0
M  CHG  1   1   1
M  END
>  <name>
[N+;amine]1C[C;amine]CC1

>  <apo>
2

>  <freq>
1

>  <freq0>
0

>  <freq1>
1

>  <freqA>
0.99700278

>  <a_count>
15

$$$$

  MOE2015           2D

  5  4  0  0  0  0  0  0  0  0999 V2000
    3.0000    0.0000    0.0000 O   0  0  0  0  0  0  0  0  0  0  0  0
    1.5000    0.0000    0.0000 C   0  0  0  0  0  0  0  0  0  0  0  0
    1.5000    1.5000    0.0000 C   0  0  0  0  0  0  0  0  0  0  0  0
    0.0000    0.0000    0.0000 C   0  0  0  0  0  0  0  0  0  0  0  0
    1.5000   -1.5000    0.0000 C   0  0  0  0  0  0  0  0  0  0  0  0
  1  2  1  0  0  0  0
  2  3  1  0  0  0  0
  2  4  1  0  0  0  0
  2  5  1  0  0  0  0
M  END
>  <name>
[O;ester]C([C;amine])(C)C

>  <apo>
2

>  <freq>
1

>  <freq0>
0

>  <freq1>
1

>  <freqA>
0.99700278

>  <a_count>
15

$$$$

  MOE2015           2D

  5  4  0  0  0  0  0  0  0  0999 V2000
    4.9980    0.7390    0.0000 O   0  0  0  0  0  0  0  0  0  0  0  0
    3.6990    1.4890    0.0000 C   0  0  0  0  0  0  0  0  0  0  0  0
    2.4000    0.7390    0.0000 C   0  0  0  0  0  0  0  0  0  0  0  0
    1.1010    1.4890    0.0000 C   0  0  0  0  0  0  0  0  0  0  0  0
   -0.1980    0.7390    0.0000 C   0  0  0  0  0  0  0  0  0  0  0  0
  1  2  1  0  0  0  0
  2  3  1  0  0  0  0
  3  4  1  0  0  0  0
  4  5  1  0  0  0  0
M  END
>  <name>
[O;ester]CCCC

>  <apo>
1

>  <freq>
1

>  <freq0>
0

>  <freq1>
1

>  <freqA>
0.99700278

>  <a_count>
15

$$$$

  MOE2015           2D

  9 10  0  0  0  0  0  0  0  0999 V2000
    0.8370    0.6970    0.0000 N   0  0  0  0  0  0  0  0  0  0  0  0
   -0.5900    1.1610    0.0000 C   0  0  0  0  0  0  0  0  0  0  0  0
   -1.8890    0.4110    0.0000 N   0  0  0  0  0  0  0  0  0  0  0  0
   -3.1880    1.1610    0.0000 C   0  0  0  0  0  0  0  0  0  0  0  0
   -3.1880    2.6610    0.0000 C   0  0  0  0  0  0  0  0  0  0  0  0
   -1.8890    3.4110    0.0000 C   0  0  0  0  0  0  0  0  0  0  0  0
   -0.5900    2.6610    0.0000 C   0  0  0  0  0  0  0  0  0  0  0  0
    0.8370    3.1240    0.0000 C   0  0  0  0  0  0  0  0  0  0  0  0
    1.7190    1.9110    0.0000 C   0  0  0  0  0  0  0  0  0  0  0  0
  1  2  1  0  0  0  0
  1  9  1  0  0  0  0
  2  3  1  0  0  0  0
  2  7  2  0  0  0  0
  3  4  2  0  0  0  0
  4  5  1  0  0  0  0
  5  6  2  0  0  0  0
  6  7  1  0  0  0  0
  7  8  1  0  0  0  0
  8  9  2  0  0  0  0
M  END
>  <name>
[nH]1c2nc[c;biphenyl]cc2[c;biphenyl]c1

>  <apo>
2

>  <freq>
1

>  <freq0>
0

>  <freq1>
1

>  <freqA>
0.99700278

>  <a_count>
15

$$$$

  MOE2015           2D

  4  3  0  0  0  0  0  0  0  0999 V2000
    0.1000   -0.3750    0.0000 C   0  0  0  0  0  0  0  0  0  0  0  0
    1.4000    0.3750    0.0000 C   0  0  0  0  0  0  0  0  0  0  0  0
    2.6990   -0.3750    0.0000 C   0  0  0  0  0  0  0  0  0  0  0  0
   -1.1990    0.3750    0.0000 C   0  0  0  0  0  0  0  0  0  0  0  0
  1  2  1  0  0  0  0
  1  4  1  0  0  0  0
  2  3  1  0  0  0  0
M  END
>  <name>
C(CC)[C;ether]

>  <apo>
1

>  <freq>
1

>  <freq0>
0

>  <freq1>
1

>  <freqA>
0.99700278

>  <a_count>
14

$$$$

  MOE2015           2D

  4  3  0  0  0  0  0  0  0  0999 V2000
    0.1000   -0.3750    0.0000 C   0  0  0  0  0  0  0  0  0  0  0  0
    1.4000    0.3750    0.0000 C   0  0  0  0  0  0  0  0  0  0  0  0
    2.6990   -0.3750    0.0000 C   0  0  0  0  0  0  0  0  0  0  0  0
   -1.1990    0.3750    0.0000 C   0  0  0  0  0  0  0  0  0  0  0  0
  1  2  1  0  0  0  0
  1  4  1  0  0  0  0
  2  3  1  0  0  0  0
M  END
>  <name>
C(CC)[C;thioether]

>  <apo>
1

>  <freq>
1

>  <freq0>
0

>  <freq1>
1

>  <freqA>
0.99700278

>  <a_count>
14

$$$$

  MOE2015           2D

  4  3  0  0  0  0  0  0  0  0999 V2000
    0.0000    0.0000    0.0000 C   0  0  0  0  0  0  0  0  0  0  0  0
   -1.2990   -0.7500    0.0000 C   0  0  0  0  0  0  0  0  0  0  0  0
    0.0000    1.5000    0.0000 C   0  0  0  0  0  0  0  0  0  0  0  0
    1.2990   -0.7500    0.0000 C   0  0  0  0  0  0  0  0  0  0  0  0
  1  2  1  0  0  0  0
  1  3  1  0  0  0  0
  1  4  1  0  0  0  0
M  END
>  <name>
C([C;ether])(C)C

>  <apo>
1

>  <freq>
1

>  <freq0>
0

>  <freq1>
1

>  <freqA>
0.99700278

>  <a_count>
14

$$$$

  MOE2015           2D

  4  3  0  0  0  0  0  0  0  0999 V2000
    0.1000   -0.3750    0.0000 C   0  0  0  0  0  0  0  0  0  0  0  0
    1.4000    0.3750    0.0000 C   0  0  0  0  0  0  0  0  0  0  0  0
    2.6990   -0.3750    0.0000 C   0  0  0  0  0  0  0  0  0  0  0  0
   -1.1990    0.3750    0.0000 C   0  0  0  0  0  0  0  0  0  0  0  0
  1  2  1  0  0  0  0
  1  4  1  0  0  0  0
  2  3  1  0  0  0  0
M  END
>  <name>
C([C;olefin]C)C

>  <apo>
1

>  <freq>
1

>  <freq0>
0

>  <freq1>
1

>  <freqA>
0.99700278

>  <a_count>
14

$$$$

  MOE2015           2D

 10 10  0  0  0  0  0  0  0  0999 V2000
    7.5000    0.0000    0.0000 Cl  0  0  0  0  0  0  0  0  0  0  0  0
    6.0000    0.0000    0.0000 C   0  0  0  0  0  0  0  0  0  0  0  0
    5.2500    1.2990    0.0000 C   0  0  0  0  0  0  0  0  0  0  0  0
    3.7500    1.2990    0.0000 C   0  0  0  0  0  0  0  0  0  0  0  0
    3.0000    0.0000    0.0000 C   0  0  0  0  0  0  0  0  0  0  0  0
    1.5000    0.0000    0.0000 C   0  0  0  0  0  0  0  0  0  0  0  0
    0.7500   -1.2990    0.0000 O   0  0  0  0  0  0  0  0  0  0  0  0
    0.7500    1.2990    0.0000 O   0  5  0  0  0  0  0  0  0  0  0  0
    3.7500   -1.2990    0.0000 C   0  0  0  0  0  0  0  0  0  0  0  0
    5.2500   -1.2990    0.0000 C   0  0  0  0  0  0  0  0  0  0  0  0
  1  2  1  0  0  0  0
  2  3  1  0  0  0  0
  2 10  2  0  0  0  0
  3  4  2  0  0  0  0
  4  5  1  0  0  0  0
  5  6  1  0  0  0  0
  5  9  2  0  0  0  0
  6  7  2  0  0  0  0
  6  8  1  0  0  0  0
  9 10  1  0  0  0  0
M  CHG  1   8  -1
M  END
>  <name>
Clc1[c;biphenyl]cc(C(=O)[O-])cc1

>  <apo>
1

>  <freq>
1

>  <freq0>
0

>  <freq1>
1

>  <freqA>
0.99700278

>  <a_count>
14

$$$$

  MOE2015           2D

 10 10  0  0  0  0  0  0  0  0999 V2000
    2.4750    3.2480    0.0000 Cl  0  0  0  0  0  0  0  0  0  0  0  0
    1.7250    1.9490    0.0000 C   0  0  0  0  0  0  0  0  0  0  0  0
    2.4750    0.6500    0.0000 C   0  0  0  0  0  0  0  0  0  0  0  0
    3.9750    0.6500    0.0000 C   0  0  0  0  0  0  0  0  0  0  0  0
    4.7250   -0.6500    0.0000 O   0  0  0  0  0  0  0  0  0  0  0  0
    4.7250    1.9490    0.0000 O   0  5  0  0  0  0  0  0  0  0  0  0
    1.7250   -0.6500    0.0000 C   0  0  0  0  0  0  0  0  0  0  0  0
    0.2250   -0.6500    0.0000 C   0  0  0  0  0  0  0  0  0  0  0  0
   -0.5250    0.6500    0.0000 C   0  0  0  0  0  0  0  0  0  0  0  0
    0.2250    1.9490    0.0000 C   0  0  0  0  0  0  0  0  0  0  0  0
  1  2  1  0  0  0  0
  2  3  1  0  0  0  0
  2 10  2  0  0  0  0
  3  4  1  0  0  0  0
  3  7  2  0  0  0  0
  4  5  2  0  0  0  0
  4  6  1  0  0  0  0
  7  8  1  0  0  0  0
  8  9  2  0  0  0  0
  9 10  1  0  0  0  0
M  CHG  1   6  -1
M  END
>  <name>
Clc1c(C(=O)[O-])c[c;biphenyl]cc1

>  <apo>
1

>  <freq>
1

>  <freq0>
0

>  <freq1>
1

>  <freqA>
0.99700278

>  <a_count>
14

$$$$

  MOE2015           2D

 10 10  0  0  0  0  0  0  0  0999 V2000
    2.4750    3.2480    0.0000 Cl  0  0  0  0  0  0  0  0  0  0  0  0
    1.7250    1.9490    0.0000 C   0  0  0  0  0  0  0  0  0  0  0  0
    2.4750    0.6500    0.0000 C   0  0  0  0  0  0  0  0  0  0  0  0
    3.9750    0.6500    0.0000 C   0  0  0  0  0  0  0  0  0  0  0  0
    4.7250   -0.6500    0.0000 O   0  0  0  0  0  0  0  0  0  0  0  0
    4.7250    1.9490    0.0000 O   0  5  0  0  0  0  0  0  0  0  0  0
    1.7250   -0.6500    0.0000 C   0  0  0  0  0  0  0  0  0  0  0  0
    0.2250   -0.6500    0.0000 C   0  0  0  0  0  0  0  0  0  0  0  0
   -0.5250    0.6500    0.0000 C   0  0  0  0  0  0  0  0  0  0  0  0
    0.2250    1.9490    0.0000 C   0  0  0  0  0  0  0  0  0  0  0  0
  1  2  1  0  0  0  0
  2  3  1  0  0  0  0
  2 10  2  0  0  0  0
  3  4  1  0  0  0  0
  3  7  2  0  0  0  0
  4  5  2  0  0  0  0
  4  6  1  0  0  0  0
  7  8  1  0  0  0  0
  8  9  2  0  0  0  0
  9 10  1  0  0  0  0
M  CHG  1   6  -1
M  END
>  <name>
Clc1c(C(=O)[O-])cc[c;biphenyl]c1

>  <apo>
1

>  <freq>
1

>  <freq0>
0

>  <freq1>
1

>  <freqA>
0.99700278

>  <a_count>
14

$$$$

  MOE2015           2D

 10 10  0  0  0  0  0  0  0  0999 V2000
    2.4750    3.2480    0.0000 Cl  0  0  0  0  0  0  0  0  0  0  0  0
    1.7250    1.9490    0.0000 C   0  0  0  0  0  0  0  0  0  0  0  0
    2.4750    0.6500    0.0000 C   0  0  0  0  0  0  0  0  0  0  0  0
    3.9750    0.6500    0.0000 C   0  0  0  0  0  0  0  0  0  0  0  0
    4.7250   -0.6500    0.0000 O   0  0  0  0  0  0  0  0  0  0  0  0
    4.7250    1.9490    0.0000 O   0  5  0  0  0  0  0  0  0  0  0  0
    1.7250   -0.6500    0.0000 C   0  0  0  0  0  0  0  0  0  0  0  0
    0.2250   -0.6500    0.0000 C   0  0  0  0  0  0  0  0  0  0  0  0
   -0.5250    0.6500    0.0000 C   0  0  0  0  0  0  0  0  0  0  0  0
    0.2250    1.9490    0.0000 C   0  0  0  0  0  0  0  0  0  0  0  0
  1  2  1  0  0  0  0
  2  3  1  0  0  0  0
  2 10  2  0  0  0  0
  3  4  1  0  0  0  0
  3  7  2  0  0  0  0
  4  5  2  0  0  0  0
  4  6  1  0  0  0  0
  7  8  1  0  0  0  0
  8  9  2  0  0  0  0
  9 10  1  0  0  0  0
M  CHG  1   6  -1
M  END
>  <name>
Clc1c(C(=O)[O-])ccc[c;biphenyl]1

>  <apo>
1

>  <freq>
1

>  <freq0>
0

>  <freq1>
1

>  <freqA>
0.99700278

>  <a_count>
14

$$$$

  MOE2015           2D

 10 10  0  0  0  0  0  0  0  0999 V2000
    0.6970    2.6000    0.0000 Cl  0  0  0  0  0  0  0  0  0  0  0  0
    1.9960    1.8500    0.0000 C   0  0  0  0  0  0  0  0  0  0  0  0
    1.9960    0.3500    0.0000 C   0  0  0  0  0  0  0  0  0  0  0  0
    0.6970   -0.4000    0.0000 C   0  0  0  0  0  0  0  0  0  0  0  0
    0.6970   -1.9000    0.0000 O   0  0  0  0  0  0  0  0  0  0  0  0
    3.2950   -0.4000    0.0000 C   0  0  0  0  0  0  0  0  0  0  0  0
    4.5940    0.3500    0.0000 C   0  0  0  0  0  0  0  0  0  0  0  0
    5.8930   -0.4000    0.0000 Cl  0  0  0  0  0  0  0  0  0  0  0  0
    4.5940    1.8500    0.0000 C   0  0  0  0  0  0  0  0  0  0  0  0
    3.2950    2.6000    0.0000 C   0  0  0  0  0  0  0  0  0  0  0  0
  1  2  1  0  0  0  0
  2  3  1  0  0  0  0
  2 10  2  0  0  0  0
  3  4  1  0  0  0  0
  3  6  2  0  0  0  0
  4  5  2  0  0  0  0
  6  7  1  0  0  0  0
  7  8  1  0  0  0  0
  7  9  2  0  0  0  0
  9 10  1  0  0  0  0
M  END
>  <name>
Clc1c([C;amide]=O)cc(Cl)cc1

>  <apo>
1

>  <freq>
1

>  <freq0>
0

>  <freq1>
1

>  <freqA>
0.99700278

>  <a_count>
14

$$$$

  MOE2015           2D

  9  9  0  0  0  0  0  0  0  0999 V2000
    0.0000    0.0000    0.0000 Cl  0  0  0  0  0  0  0  0  0  0  0  0
    1.5000    0.0000    0.0000 C   0  0  0  0  0  0  0  0  0  0  0  0
    2.2500    1.2990    0.0000 C   0  0  0  0  0  0  0  0  0  0  0  0
    3.7500    1.2990    0.0000 C   0  0  0  0  0  0  0  0  0  0  0  0
    4.5000    0.0000    0.0000 C   0  0  0  0  0  0  0  0  0  0  0  0
    6.0000    0.0000    0.0000 C   0  0  0  0  0  0  0  0  0  0  0  0
    6.7500   -1.2990    0.0000 O   0  0  0  0  0  0  0  0  0  0  0  0
    3.7500   -1.2990    0.0000 C   0  0  0  0  0  0  0  0  0  0  0  0
    2.2500   -1.2990    0.0000 C   0  0  0  0  0  0  0  0  0  0  0  0
  1  2  1  0  0  0  0
  2  3  1  0  0  0  0
  2  9  2  0  0  0  0
  3  4  2  0  0  0  0
  4  5  1  0  0  0  0
  5  6  1  0  0  0  0
  5  8  2  0  0  0  0
  6  7  2  0  0  0  0
  8  9  1  0  0  0  0
M  END
>  <name>
Clc1ccc([C;amide]=O)cc1

>  <apo>
1

>  <freq>
1

>  <freq0>
0

>  <freq1>
1

>  <freqA>
0.99700278

>  <a_count>
14

$$$$

  MOE2015           2D

  8  8  0  0  0  0  0  0  0  0999 V2000
    0.4890   -1.1750    0.0000 F   0  0  0  0  0  0  0  0  0  0  0  0
    1.7880   -0.4250    0.0000 C   0  0  0  0  0  0  0  0  0  0  0  0
    1.7880    1.0750    0.0000 C   0  0  0  0  0  0  0  0  0  0  0  0
    0.4890    1.8250    0.0000 N   0  0  0  0  0  0  0  0  0  0  0  0
    3.0870    1.8250    0.0000 C   0  0  0  0  0  0  0  0  0  0  0  0
    4.3860    1.0750    0.0000 C   0  0  0  0  0  0  0  0  0  0  0  0
    4.3860   -0.4250    0.0000 C   0  0  0  0  0  0  0  0  0  0  0  0
    3.0870   -1.1750    0.0000 C   0  0  0  0  0  0  0  0  0  0  0  0
  1  2  1  0  0  0  0
  2  3  1  0  0  0  0
  2  8  2  0  0  0  0
  3  4  1  0  0  0  0
  3  5  2  0  0  0  0
  5  6  1  0  0  0  0
  6  7  2  0  0  0  0
  7  8  1  0  0  0  0
M  END
>  <name>
Fc1c([N;amide])cccc1

>  <apo>
1

>  <freq>
1

>  <freq0>
0

>  <freq1>
1

>  <freqA>
0.99700278

>  <a_count>
14

$$$$

  MOE2015           2D

 10 10  0  0  0  0  0  0  0  0999 V2000
    0.8250   -1.4290    0.0000 F   0  0  0  0  0  0  0  0  0  0  0  0
    1.5750   -0.1300    0.0000 C   0  0  0  0  0  0  0  0  0  0  0  0
    3.0750   -0.1300    0.0000 C   0  0  0  0  0  0  0  0  0  0  0  0
    3.8250    1.1690    0.0000 C   0  0  0  0  0  0  0  0  0  0  0  0
    5.3250    1.1690    0.0000 C   0  0  0  0  0  0  0  0  0  0  0  0
    6.0750    2.4680    0.0000 O   0  0  0  0  0  0  0  0  0  0  0  0
    6.0750   -0.1300    0.0000 O   0  5  0  0  0  0  0  0  0  0  0  0
    3.0750    2.4680    0.0000 C   0  0  0  0  0  0  0  0  0  0  0  0
    1.5750    2.4680    0.0000 C   0  0  0  0  0  0  0  0  0  0  0  0
    0.8250    1.1690    0.0000 C   0  0  0  0  0  0  0  0  0  0  0  0
  1  2  1  0  0  0  0
  2  3  1  0  0  0  0
  2 10  2  0  0  0  0
  3  4  2  0  0  0  0
  4  5  1  0  0  0  0
  4  8  1  0  0  0  0
  5  6  2  0  0  0  0
  5  7  1  0  0  0  0
  8  9  2  0  0  0  0
  9 10  1  0  0  0  0
M  CHG  1   7  -1
M  END
>  <name>
Fc1cc(C(=O)[O-])cc[c;biphenyl]1

>  <apo>
1

>  <freq>
1

>  <freq0>
0

>  <freq1>
1

>  <freqA>
0.99700278

>  <a_count>
14

$$$$

  MOE2015           2D

  8  8  0  0  0  0  0  0  0  0999 V2000
    0.0000    0.0000    0.0000 F   0  0  0  0  0  0  0  0  0  0  0  0
    1.5000    0.0000    0.0000 C   0  0  0  0  0  0  0  0  0  0  0  0
    2.2500   -1.2990    0.0000 C   0  0  0  0  0  0  0  0  0  0  0  0
    3.7500   -1.2990    0.0000 C   0  0  0  0  0  0  0  0  0  0  0  0
    4.5000    0.0000    0.0000 C   0  0  0  0  0  0  0  0  0  0  0  0
    6.0000    0.0000    0.0000 N   0  0  0  0  0  0  0  0  0  0  0  0
    3.7500    1.2990    0.0000 C   0  0  0  0  0  0  0  0  0  0  0  0
    2.2500    1.2990    0.0000 C   0  0  0  0  0  0  0  0  0  0  0  0
  1  2  1  0  0  0  0
  2  3  1  0  0  0  0
  2  8  2  0  0  0  0
  3  4  2  0  0  0  0
  4  5  1  0  0  0  0
  5  6  1  0  0  0  0
  5  7  2  0  0  0  0
  7  8  1  0  0  0  0
M  END
>  <name>
Fc1ccc([N;amide])cc1

>  <apo>
1

>  <freq>
1

>  <freq0>
0

>  <freq1>
1

>  <freqA>
0.99700278

>  <a_count>
14

$$$$

  MOE2015           2D

  9  9  0  0  0  0  0  0  0  0999 V2000
    8.0000    0.0000    0.0000 N   0  0  0  0  0  0  0  0  0  0  0  0
    6.5000    0.0000    0.0000 C   0  0  0  0  0  0  0  0  0  0  0  0
    5.0000    0.0000    0.0000 C   0  0  0  0  0  0  0  0  0  0  0  0
    4.2500    1.2990    0.0000 C   0  0  0  0  0  0  0  0  0  0  0  0
    2.7500    1.2990    0.0000 N   0  0  0  0  0  0  0  0  0  0  0  0
    2.0000    0.0000    0.0000 C   0  0  0  0  0  0  0  0  0  0  0  0
    0.5000    0.0000    0.0000 N   0  0  0  0  0  0  0  0  0  0  0  0
    2.7500   -1.2990    0.0000 C   0  0  0  0  0  0  0  0  0  0  0  0
    4.2500   -1.2990    0.0000 C   0  0  0  0  0  0  0  0  0  0  0  0
  1  2  3  0  0  0  0
  2  3  1  0  0  0  0
  3  4  1  0  0  0  0
  3  9  2  0  0  0  0
  4  5  2  0  0  0  0
  5  6  1  0  0  0  0
  6  7  1  0  0  0  0
  6  8  2  0  0  0  0
  8  9  1  0  0  0  0
M  END
>  <name>
N#Cc1cnc([N;urea])cc1

>  <apo>
1

>  <freq>
1

>  <freq0>
0

>  <freq1>
1

>  <freqA>
0.99700278

>  <a_count>
14

$$$$

  MOE2015           2D

  8  7  0  0  1  0  0  0  0  0999 V2000
    0.0090   -0.0320    0.0000 O   0  0  0  0  0  0  0  0  0  0  0  0
    1.3080    0.7180    0.0000 C   0  0  0  0  0  0  0  0  0  0  0  0
    1.3080    2.2180    0.0000 O   0  5  0  0  0  0  0  0  0  0  0  0
    2.6070   -0.0320    0.0000 C   0  0  0  0  0  0  0  0  0  0  0  0
    3.9060    0.7180    0.0000 C   0  0  1  0  0  0  0  0  0  0  0  0
    3.9060    2.2180    0.0000 N   0  0  0  0  0  0  0  0  0  0  0  0
    5.2050   -0.0320    0.0000 C   0  0  0  0  0  0  0  0  0  0  0  0
    6.5040    0.7180    0.0000 O   0  0  0  0  0  0  0  0  0  0  0  0
  1  2  2  0  0  0  0
  2  3  1  0  0  0  0
  2  4  1  0  0  0  0
  4  5  1  0  0  0  0
  5  6  1  1  0  0  0
  5  7  1  0  0  0  0
  7  8  2  0  0  0  0
M  CHG  1   3  -1
M  END
>  <name>
O=C([O-])C[C@@H]([N;amide])[C;amide]=O

>  <apo>
2

>  <freq>
1

>  <freq0>
0

>  <freq1>
1

>  <freqA>
0.99700278

>  <a_count>
14

$$$$

  MOE2015           2D

  9  9  0  0  0  0  0  0  0  0999 V2000
    5.0000    0.2890    0.0000 O   0  0  0  0  0  0  0  0  0  0  0  0
    4.2500    1.5880    0.0000 C   0  0  0  0  0  0  0  0  0  0  0  0
    5.0000    2.8870    0.0000 O   0  5  0  0  0  0  0  0  0  0  0  0
    2.7500    1.5880    0.0000 C   0  0  0  0  0  0  0  0  0  0  0  0
    2.0000    2.8870    0.0000 C   0  0  0  0  0  0  0  0  0  0  0  0
    0.5000    2.8870    0.0000 C   0  0  0  0  0  0  0  0  0  0  0  0
   -0.2500    1.5880    0.0000 C   0  0  0  0  0  0  0  0  0  0  0  0
    0.5000    0.2890    0.0000 C   0  0  0  0  0  0  0  0  0  0  0  0
    2.0000    0.2890    0.0000 C   0  0  0  0  0  0  0  0  0  0  0  0
  1  2  2  0  0  0  0
  2  3  1  0  0  0  0
  2  4  1  0  0  0  0
  4  5  1  0  0  0  0
  4  9  2  0  0  0  0
  5  6  2  0  0  0  0
  6  7  1  0  0  0  0
  7  8  2  0  0  0  0
  8  9  1  0  0  0  0
M  CHG  1   3  -1
M  END
>  <name>
O=C([O-])c1[c;biphenyl]cccc1

>  <apo>
1

>  <freq>
1

>  <freq0>
0

>  <freq1>
1

>  <freqA>
0.99700278

>  <a_count>
14

$$$$

  MOE2015           2D

  9  9  0  0  0  0  0  0  0  0999 V2000
    5.0000    0.2890    0.0000 O   0  0  0  0  0  0  0  0  0  0  0  0
    4.2500    1.5880    0.0000 C   0  0  0  0  0  0  0  0  0  0  0  0
    5.0000    2.8870    0.0000 O   0  5  0  0  0  0  0  0  0  0  0  0
    2.7500    1.5880    0.0000 C   0  0  0  0  0  0  0  0  0  0  0  0
    2.0000    2.8870    0.0000 C   0  0  0  0  0  0  0  0  0  0  0  0
    0.5000    2.8870    0.0000 C   0  0  0  0  0  0  0  0  0  0  0  0
   -0.2500    1.5880    0.0000 C   0  0  0  0  0  0  0  0  0  0  0  0
    0.5000    0.2890    0.0000 C   0  0  0  0  0  0  0  0  0  0  0  0
    2.0000    0.2890    0.0000 C   0  0  0  0  0  0  0  0  0  0  0  0
  1  2  2  0  0  0  0
  2  3  1  0  0  0  0
  2  4  1  0  0  0  0
  4  5  1  0  0  0  0
  4  9  2  0  0  0  0
  5  6  2  0  0  0  0
  6  7  1  0  0  0  0
  7  8  2  0  0  0  0
  8  9  1  0  0  0  0
M  CHG  1   3  -1
M  END
>  <name>
O=C([O-])c1c[c;biphenyl]ccc1

>  <apo>
1

>  <freq>
1

>  <freq0>
0

>  <freq1>
1

>  <freqA>
0.99700278

>  <a_count>
14

$$$$

  MOE2015           2D

  9  9  0  0  0  0  0  0  0  0999 V2000
    5.0000    0.2890    0.0000 O   0  0  0  0  0  0  0  0  0  0  0  0
    4.2500    1.5880    0.0000 C   0  0  0  0  0  0  0  0  0  0  0  0
    5.0000    2.8870    0.0000 O   0  5  0  0  0  0  0  0  0  0  0  0
    2.7500    1.5880    0.0000 C   0  0  0  0  0  0  0  0  0  0  0  0
    2.0000    2.8870    0.0000 C   0  0  0  0  0  0  0  0  0  0  0  0
    0.5000    2.8870    0.0000 C   0  0  0  0  0  0  0  0  0  0  0  0
   -0.2500    1.5880    0.0000 C   0  0  0  0  0  0  0  0  0  0  0  0
    0.5000    0.2890    0.0000 C   0  0  0  0  0  0  0  0  0  0  0  0
    2.0000    0.2890    0.0000 C   0  0  0  0  0  0  0  0  0  0  0  0
  1  2  2  0  0  0  0
  2  3  1  0  0  0  0
  2  4  1  0  0  0  0
  4  5  1  0  0  0  0
  4  9  2  0  0  0  0
  5  6  2  0  0  0  0
  6  7  1  0  0  0  0
  7  8  2  0  0  0  0
  8  9  1  0  0  0  0
M  CHG  1   3  -1
M  END
>  <name>
O=C([O-])c1ccc[c;biphenyl]c1

>  <apo>
1

>  <freq>
1

>  <freq0>
0

>  <freq1>
1

>  <freqA>
0.99700278

>  <a_count>
14

$$$$

  MOE2015           2D

  8  8  0  0  0  0  0  0  0  0999 V2000
    5.9810    0.0000    0.0000 O   0  0  0  0  0  0  0  0  0  0  0  0
    4.4810    0.0000    0.0000 C   0  0  0  0  0  0  0  0  0  0  0  0
    3.5990   -1.2140    0.0000 O   0  0  0  0  0  0  0  0  0  0  0  0
    2.1730   -0.7500    0.0000 C   0  0  0  0  0  0  0  0  0  0  0  0
    0.9590   -1.6320    0.0000 C   0  0  0  0  0  0  0  0  0  0  0  0
    2.1730    0.7500    0.0000 C   0  0  0  0  0  0  0  0  0  0  0  0
    0.9590    1.6320    0.0000 C   0  0  0  0  0  0  0  0  0  0  0  0
    3.5990    1.2140    0.0000 O   0  0  0  0  0  0  0  0  0  0  0  0
  1  2  2  0  0  0  0
  2  3  1  0  0  0  0
  2  8  1  0  0  0  0
  3  4  1  0  0  0  0
  4  5  1  0  0  0  0
  4  6  2  0  0  0  0
  6  7  1  0  0  0  0
  6  8  1  0  0  0  0
M  END
>  <name>
O=C1OC([C;amine])=C(C)O1

>  <apo>
1

>  <freq>
1

>  <freq0>
0

>  <freq1>
1

>  <freqA>
0.99700278

>  <a_count>
14

$$$$

  MOE2015           2D

 10 10  0  0  0  0  0  0  0  0999 V2000
    6.2070    1.6630    0.0000 O   0  0  0  0  0  0  0  0  0  0  0  0
    4.9080    0.9130    0.0000 C   0  0  0  0  0  0  0  0  0  0  0  0
    3.6090    1.6630    0.0000 C   0  0  0  0  0  0  0  0  0  0  0  0
    2.3100    0.9130    0.0000 N   0  0  0  0  0  0  0  0  0  0  0  0
    1.0110    1.6630    0.0000 C   0  0  0  0  0  0  0  0  0  0  0  0
   -0.2880    0.9130    0.0000 O   0  0  0  0  0  0  0  0  0  0  0  0
    1.0110    3.1630    0.0000 N   0  0  0  0  0  0  0  0  0  0  0  0
    2.3100    3.9130    0.0000 C   0  0  0  0  0  0  0  0  0  0  0  0
    2.3100    5.4130    0.0000 O   0  0  0  0  0  0  0  0  0  0  0  0
    3.6090    3.1630    0.0000 C   0  0  0  0  0  0  0  0  0  0  0  0
  1  2  2  0  0  0  0
  2  3  1  0  0  0  0
  3  4  1  0  0  0  0
  3 10  2  0  0  0  0
  4  5  1  0  0  0  0
  5  6  2  0  0  0  0
  5  7  1  0  0  0  0
  7  8  1  0  0  0  0
  8  9  2  0  0  0  0
  8 10  1  0  0  0  0
M  END
>  <name>
O=[C;amide]C=1NC(=O)NC(=O)C=1

>  <apo>
1

>  <freq>
1

>  <freq0>
0

>  <freq1>
1

>  <freqA>
0.99700278

>  <a_count>
14

$$$$

  MOE2015           2D

  9  9  0  0  0  0  0  0  0  0999 V2000
   -0.0830   -0.1460    0.0000 O   0  0  0  0  0  0  0  0  0  0  0  0
    0.6880   -1.4330    0.0000 N   0  3  0  0  0  0  0  0  0  0  0  0
   -0.0420   -2.7440    0.0000 O   0  5  0  0  0  0  0  0  0  0  0  0
    2.1870   -1.4090    0.0000 C   0  0  0  0  0  0  0  0  0  0  0  0
    3.0880   -2.6090    0.0000 N   0  0  0  0  0  0  0  0  0  0  0  0
    4.5070   -2.1230    0.0000 C   0  0  0  0  0  0  0  0  0  0  0  0
    5.7350   -2.9850    0.0000 C   0  0  0  0  0  0  0  0  0  0  0  0
    4.4830   -0.6230    0.0000 N   0  0  0  0  0  0  0  0  0  0  0  0
    3.0500   -0.1820    0.0000 C   0  0  0  0  0  0  0  0  0  0  0  0
  1  2  2  0  0  0  0
  2  3  1  0  0  0  0
  2  4  1  0  0  0  0
  4  5  1  0  0  0  0
  4  9  2  0  0  0  0
  5  6  1  0  0  0  0
  6  7  1  0  0  0  0
  6  8  2  0  0  0  0
  8  9  1  0  0  0  0
M  CHG  1   2   1
M  CHG  1   3  -1
M  END
>  <name>
O=[N+]([O-])c1[nH;NaroC]c(C)nc1

>  <apo>
1

>  <freq>
1

>  <freq0>
0

>  <freq1>
1

>  <freqA>
0.99700278

>  <a_count>
14

$$$$

  MOE2015           2D

  9  9  0  0  0  0  0  0  0  0999 V2000
    5.0000    0.2890    0.0000 O   0  0  0  0  0  0  0  0  0  0  0  0
    4.2500    1.5880    0.0000 N   0  3  0  0  0  0  0  0  0  0  0  0
    5.0000    2.8870    0.0000 O   0  5  0  0  0  0  0  0  0  0  0  0
    2.7500    1.5880    0.0000 C   0  0  0  0  0  0  0  0  0  0  0  0
    2.0000    2.8870    0.0000 C   0  0  0  0  0  0  0  0  0  0  0  0
    0.5000    2.8870    0.0000 C   0  0  0  0  0  0  0  0  0  0  0  0
   -0.2500    1.5880    0.0000 C   0  0  0  0  0  0  0  0  0  0  0  0
    0.5000    0.2890    0.0000 C   0  0  0  0  0  0  0  0  0  0  0  0
    2.0000    0.2890    0.0000 C   0  0  0  0  0  0  0  0  0  0  0  0
  1  2  2  0  0  0  0
  2  3  1  0  0  0  0
  2  4  1  0  0  0  0
  4  5  1  0  0  0  0
  4  9  2  0  0  0  0
  5  6  2  0  0  0  0
  6  7  1  0  0  0  0
  7  8  2  0  0  0  0
  8  9  1  0  0  0  0
M  CHG  1   2   1
M  CHG  1   3  -1
M  END
>  <name>
O=[N+]([O-])c1c[c;biphenyl]ccc1

>  <apo>
1

>  <freq>
1

>  <freq0>
0

>  <freq1>
1

>  <freqA>
0.99700278

>  <a_count>
14

$$$$

  MOE2015           2D

  9  9  0  0  0  0  0  0  0  0999 V2000
    2.7500    3.0310    0.0000 O   0  0  0  0  0  0  0  0  0  0  0  0
    2.0000    1.7320    0.0000 C   0  0  0  0  0  0  0  0  0  0  0  0
    2.7500    0.4330    0.0000 C   0  0  0  0  0  0  0  0  0  0  0  0
    4.2500    0.4330    0.0000 C   0  0  0  0  0  0  0  0  0  0  0  0
    5.7500    0.4330    0.0000 N   0  0  0  0  0  0  0  0  0  0  0  0
    2.0000   -0.8660    0.0000 C   0  0  0  0  0  0  0  0  0  0  0  0
    0.5000   -0.8660    0.0000 C   0  0  0  0  0  0  0  0  0  0  0  0
   -0.2500    0.4330    0.0000 C   0  0  0  0  0  0  0  0  0  0  0  0
    0.5000    1.7320    0.0000 C   0  0  0  0  0  0  0  0  0  0  0  0
  1  2  1  0  0  0  0
  2  3  1  0  0  0  0
  2  9  2  0  0  0  0
  3  4  1  0  0  0  0
  3  6  2  0  0  0  0
  4  5  3  0  0  0  0
  6  7  1  0  0  0  0
  7  8  2  0  0  0  0
  8  9  1  0  0  0  0
M  END
>  <name>
Oc1c(C#N)c[c;biphenyl]cc1

>  <apo>
1

>  <freq>
1

>  <freq0>
0

>  <freq1>
1

>  <freqA>
0.99700278

>  <a_count>
14

$$$$

  MOE2015           2D

  8  8  0  0  0  0  0  0  0  0999 V2000
    0.4890   -1.1750    0.0000 O   0  0  0  0  0  0  0  0  0  0  0  0
    1.7880   -0.4250    0.0000 C   0  0  0  0  0  0  0  0  0  0  0  0
    1.7880    1.0750    0.0000 C   0  0  0  0  0  0  0  0  0  0  0  0
    0.4890    1.8250    0.0000 O   0  0  0  0  0  0  0  0  0  0  0  0
    3.0870    1.8250    0.0000 C   0  0  0  0  0  0  0  0  0  0  0  0
    4.3860    1.0750    0.0000 C   0  0  0  0  0  0  0  0  0  0  0  0
    4.3860   -0.4250    0.0000 C   0  0  0  0  0  0  0  0  0  0  0  0
    3.0870   -1.1750    0.0000 C   0  0  0  0  0  0  0  0  0  0  0  0
  1  2  1  0  0  0  0
  2  3  1  0  0  0  0
  2  8  2  0  0  0  0
  3  4  1  0  0  0  0
  3  5  2  0  0  0  0
  5  6  1  0  0  0  0
  6  7  2  0  0  0  0
  7  8  1  0  0  0  0
M  END
>  <name>
Oc1c(O)ccc[c;biphenyl]1

>  <apo>
1

>  <freq>
1

>  <freq0>
0

>  <freq1>
1

>  <freqA>
0.99700278

>  <a_count>
14

$$$$

  MOE2015           2D

  8  8  0  0  0  0  0  0  0  0999 V2000
    0.4890   -1.1750    0.0000 O   0  0  0  0  0  0  0  0  0  0  0  0
    1.7880   -0.4250    0.0000 C   0  0  0  0  0  0  0  0  0  0  0  0
    1.7880    1.0750    0.0000 C   0  0  0  0  0  0  0  0  0  0  0  0
    0.4890    1.8250    0.0000 O   0  0  0  0  0  0  0  0  0  0  0  0
    3.0870    1.8250    0.0000 C   0  0  0  0  0  0  0  0  0  0  0  0
    4.3860    1.0750    0.0000 C   0  0  0  0  0  0  0  0  0  0  0  0
    4.3860   -0.4250    0.0000 C   0  0  0  0  0  0  0  0  0  0  0  0
    3.0870   -1.1750    0.0000 C   0  0  0  0  0  0  0  0  0  0  0  0
  1  2  1  0  0  0  0
  2  3  1  0  0  0  0
  2  8  2  0  0  0  0
  3  4  1  0  0  0  0
  3  5  2  0  0  0  0
  5  6  1  0  0  0  0
  6  7  2  0  0  0  0
  7  8  1  0  0  0  0
M  END
>  <name>
Oc1c([O;ether])c[c;biphenyl]cc1

>  <apo>
2

>  <freq>
1

>  <freq0>
0

>  <freq1>
1

>  <freqA>
0.99700278

>  <a_count>
14

$$$$

  MOE2015           2D

  6  5  0  0  1  0  0  0  0  0999 V2000
    4.8480   -1.2990    0.0000 S   0  0  0  0  0  0  0  0  0  0  0  0
    3.5490   -2.0490    0.0000 C   0  0  0  0  0  0  0  0  0  0  0  0
    2.2500   -1.2990    0.0000 C   0  0  2  0  0  0  0  0  0  0  0  0
    0.9510   -2.0490    0.0000 C   0  0  0  0  0  0  0  0  0  0  0  0
   -0.3480   -1.2990    0.0000 O   0  0  0  0  0  0  0  0  0  0  0  0
    2.2500    0.2010    0.0000 C   0  0  0  0  0  0  0  0  0  0  0  0
  1  2  1  0  0  0  0
  2  3  1  0  0  0  0
  3  4  1  0  0  0  0
  3  6  1  6  0  0  0
  4  5  2  0  0  0  0
M  END
>  <name>
SC[C@H]([C;amide]=O)C

>  <apo>
1

>  <freq>
1

>  <freq0>
0

>  <freq1>
1

>  <freqA>
0.99700278

>  <a_count>
14

$$$$

  MOE2015           2D

  7  7  0  0  0  0  0  0  0  0999 V2000
    5.1430    0.0000    0.0000 C   0  0  0  0  0  0  0  0  0  0  0  0
    3.6430    0.0000    0.0000 C   0  0  0  0  0  0  0  0  0  0  0  0
    2.8930    1.2990    0.0000 C   0  0  0  0  0  0  0  0  0  0  0  0
    1.3930    1.2990    0.0000 N   0  0  0  0  0  0  0  0  0  0  0  0
    0.6430    0.0000    0.0000 C   0  0  0  0  0  0  0  0  0  0  0  0
    1.3930   -1.2990    0.0000 C   0  0  0  0  0  0  0  0  0  0  0  0
    2.8930   -1.2990    0.0000 C   0  0  0  0  0  0  0  0  0  0  0  0
  1  2  1  0  0  0  0
  2  3  1  0  0  0  0
  2  7  2  0  0  0  0
  3  4  2  0  0  0  0
  4  5  1  0  0  0  0
  5  6  2  0  0  0  0
  6  7  1  0  0  0  0
M  END
>  <name>
[C;amine]c1cnccc1

>  <apo>
1

>  <freq>
1

>  <freq0>
0

>  <freq1>
1

>  <freqA>
0.99700278

>  <a_count>
14

$$$$

  MOE2015           2D

  8  8  0  0  0  0  0  0  0  0999 V2000
    4.5710   -2.6390    0.0000 N   0  3  0  0  0  0  0  0  0  0  0  0
    3.8210   -1.3400    0.0000 C   0  0  0  0  0  0  0  0  0  0  0  0
    4.5710   -0.0410    0.0000 N   0  0  0  0  0  0  0  0  0  0  0  0
    2.3210   -1.3400    0.0000 C   0  0  0  0  0  0  0  0  0  0  0  0
    1.4400   -0.1270    0.0000 N   0  0  0  0  0  0  0  0  0  0  0  0
    0.0130   -0.5900    0.0000 N   0  0  0  0  0  0  0  0  0  0  0  0
    0.0130   -2.0900    0.0000 C   0  0  0  0  0  0  0  0  0  0  0  0
    1.4400   -2.5540    0.0000 N   0  0  0  0  0  0  0  0  0  0  0  0
  1  2  2  0  0  0  0
  2  3  1  0  0  0  0
  2  4  1  0  0  0  0
  4  5  2  0  0  0  0
  4  8  1  0  0  0  0
  5  6  1  0  0  0  0
  6  7  1  0  0  0  0
  7  8  2  0  0  0  0
M  CHG  1   1   1
M  END
>  <name>
[N+]=C(N)c1n[nH;NaroC]cn1

>  <apo>
1

>  <freq>
1

>  <freq0>
0

>  <freq1>
1

>  <freqA>
0.99700278

>  <a_count>
14

$$$$

  MOE2015           2D

  4  3  0  0  0  0  0  0  0  0999 V2000
   -0.0740   -0.2750    0.0000 N   0  3  0  0  0  0  0  0  0  0  0  0
    1.2250   -1.0250    0.0000 C   0  0  0  0  0  0  0  0  0  0  0  0
    2.5250   -0.2750    0.0000 C   0  0  0  0  0  0  0  0  0  0  0  0
    3.8240   -1.0250    0.0000 C   0  0  0  0  0  0  0  0  0  0  0  0
  1  2  1  0  0  0  0
  2  3  1  0  0  0  0
  3  4  1  0  0  0  0
M  CHG  1   1   1
M  END
>  <name>
[N+]CC[C;amine]

>  <apo>
1

>  <freq>
1

>  <freq0>
0

>  <freq1>
1

>  <freqA>
0.99700278

>  <a_count>
14

$$$$

  MOE2015           2D

  7  7  0  0  0  0  0  0  0  0999 V2000
    5.1430    0.0000    0.0000 N   0  0  0  0  0  0  0  0  0  0  0  0
    3.6430    0.0000    0.0000 C   0  0  0  0  0  0  0  0  0  0  0  0
    2.8930    1.2990    0.0000 C   0  0  0  0  0  0  0  0  0  0  0  0
    1.3930    1.2990    0.0000 C   0  0  0  0  0  0  0  0  0  0  0  0
    0.6430    0.0000    0.0000 C   0  0  0  0  0  0  0  0  0  0  0  0
    1.3930   -1.2990    0.0000 C   0  0  0  0  0  0  0  0  0  0  0  0
    2.8930   -1.2990    0.0000 C   0  0  0  0  0  0  0  0  0  0  0  0
  1  2  1  0  0  0  0
  2  3  1  0  0  0  0
  2  7  2  0  0  0  0
  3  4  2  0  0  0  0
  4  5  1  0  0  0  0
  5  6  2  0  0  0  0
  6  7  1  0  0  0  0
M  END
>  <name>
[N;amide]c1[c;biphenyl]cccc1

>  <apo>
2

>  <freq>
1

>  <freq0>
0

>  <freq1>
1

>  <freqA>
0.99700278

>  <a_count>
14

$$$$

  MOE2015           2D

  8  8  0  0  0  0  0  0  0  0999 V2000
    0.0000    0.0000    0.0000 O   0  0  0  0  0  0  0  0  0  0  0  0
    1.5000    0.0000    0.0000 C   0  0  0  0  0  0  0  0  0  0  0  0
    2.2500   -1.2990    0.0000 C   0  0  0  0  0  0  0  0  0  0  0  0
    3.7500   -1.2990    0.0000 C   0  0  0  0  0  0  0  0  0  0  0  0
    4.5000    0.0000    0.0000 C   0  0  0  0  0  0  0  0  0  0  0  0
    6.0000    0.0000    0.0000 O   0  0  0  0  0  0  0  0  0  0  0  0
    3.7500    1.2990    0.0000 C   0  0  0  0  0  0  0  0  0  0  0  0
    2.2500    1.2990    0.0000 C   0  0  0  0  0  0  0  0  0  0  0  0
  1  2  1  0  0  0  0
  2  3  1  0  0  0  0
  2  8  2  0  0  0  0
  3  4  2  0  0  0  0
  4  5  1  0  0  0  0
  5  6  1  0  0  0  0
  5  7  2  0  0  0  0
  7  8  1  0  0  0  0
M  END
>  <name>
[O;ether]c1ccc(O)cc1

>  <apo>
1

>  <freq>
1

>  <freq0>
0

>  <freq1>
1

>  <freqA>
0.99700278

>  <a_count>
14

$$$$

  MOE2015           2D

  8  8  0  0  0  0  0  0  0  0999 V2000
    0.0000    0.0000    0.0000 O   0  0  0  0  0  0  0  0  0  0  0  0
    1.5000    0.0000    0.0000 C   0  0  0  0  0  0  0  0  0  0  0  0
    2.2500   -1.2990    0.0000 C   0  0  0  0  0  0  0  0  0  0  0  0
    3.7500   -1.2990    0.0000 C   0  0  0  0  0  0  0  0  0  0  0  0
    4.5000    0.0000    0.0000 C   0  0  0  0  0  0  0  0  0  0  0  0
    6.0000    0.0000    0.0000 O   0  0  0  0  0  0  0  0  0  0  0  0
    3.7500    1.2990    0.0000 C   0  0  0  0  0  0  0  0  0  0  0  0
    2.2500    1.2990    0.0000 C   0  0  0  0  0  0  0  0  0  0  0  0
  1  2  1  0  0  0  0
  2  3  1  0  0  0  0
  2  8  2  0  0  0  0
  3  4  2  0  0  0  0
  4  5  1  0  0  0  0
  5  6  1  0  0  0  0
  5  7  2  0  0  0  0
  7  8  1  0  0  0  0
M  END
>  <name>
[O;ether]c1ccc([O;ether])cc1

>  <apo>
2

>  <freq>
1

>  <freq0>
0

>  <freq1>
1

>  <freqA>
0.99700278

>  <a_count>
14

$$$$

  MOE2015           2D

  8  7  0  0  0  0  0  0  0  0999 V2000
   -0.1880    0.1880    0.0000 S   0  0  0  0  0  0  0  0  0  0  0  0
   -0.1870    1.6880    0.0000 O   0  0  0  0  0  0  0  0  0  0  0  0
    1.1120   -0.5620    0.0000 C   0  0  0  0  0  0  0  0  0  0  0  0
    2.4110    0.1880    0.0000 C   0  0  0  0  0  0  0  0  0  0  0  0
    3.7100   -0.5620    0.0000 O   0  0  0  0  0  0  0  0  0  0  0  0
   -1.4870   -0.5630    0.0000 C   0  0  0  0  0  0  0  0  0  0  0  0
   -2.7860    0.1880    0.0000 C   0  0  0  0  0  0  0  0  0  0  0  0
   -4.0850   -0.5620    0.0000 O   0  0  0  0  0  0  0  0  0  0  0  0
  1  2  2  0  0  0  0
  1  3  1  0  0  0  0
  1  6  1  0  0  0  0
  3  4  1  0  0  0  0
  4  5  2  0  0  0  0
  6  7  1  0  0  0  0
  7  8  2  0  0  0  0
M  END
>  <name>
[SH0](=O)(C[C;amide]=O)C[C;amide]=O

>  <apo>
2

>  <freq>
1

>  <freq0>
0

>  <freq1>
1

>  <freqA>
0.99700278

>  <a_count>
14

$$$$

  MOE2015           2D

  9 10  0  0  0  0  0  0  0  0999 V2000
   -3.7300    2.7120    0.0000 N   0  0  0  0  0  0  0  0  0  0  0  0
   -2.4310    3.4620    0.0000 C   0  0  0  0  0  0  0  0  0  0  0  0
   -1.1320    2.7120    0.0000 C   0  0  0  0  0  0  0  0  0  0  0  0
    0.2950    3.1750    0.0000 N   0  0  0  0  0  0  0  0  0  0  0  0
    1.1760    1.9620    0.0000 C   0  0  0  0  0  0  0  0  0  0  0  0
    0.2950    0.7480    0.0000 N   0  0  0  0  0  0  0  0  0  0  0  0
   -1.1320    1.2120    0.0000 C   0  0  0  0  0  0  0  0  0  0  0  0
   -2.4310    0.4620    0.0000 C   0  0  0  0  0  0  0  0  0  0  0  0
   -3.7300    1.2120    0.0000 C   0  0  0  0  0  0  0  0  0  0  0  0
  1  2  1  0  0  0  0
  1  9  1  0  0  0  0
  2  3  2  0  0  0  0
  3  4  1  0  0  0  0
  3  7  1  0  0  0  0
  4  5  2  0  0  0  0
  5  6  1  0  0  0  0
  6  7  2  0  0  0  0
  7  8  1  0  0  0  0
  8  9  2  0  0  0  0
M  END
>  <name>
[nH;NaroC]1cc-2n[c;biphenyl]nc-2cc1

>  <apo>
2

>  <freq>
1

>  <freq0>
0

>  <freq1>
1

>  <freqA>
0.99700278

>  <a_count>
14

$$$$

  MOE2015           2D

  9 10  0  0  0  0  0  0  0  0999 V2000
    2.9330    0.5060    0.0000 N   0  0  0  0  0  0  0  0  0  0  0  0
    3.8140    1.7190    0.0000 N   0  0  0  0  0  0  0  0  0  0  0  0
    2.9330    2.9330    0.0000 N   0  0  0  0  0  0  0  0  0  0  0  0
    1.5060    2.4690    0.0000 C   0  0  0  0  0  0  0  0  0  0  0  0
    1.5060    0.9690    0.0000 C   0  0  0  0  0  0  0  0  0  0  0  0
    0.2070    0.2190    0.0000 C   0  0  0  0  0  0  0  0  0  0  0  0
   -1.0920    0.9690    0.0000 C   0  0  0  0  0  0  0  0  0  0  0  0
   -1.0920    2.4690    0.0000 C   0  0  0  0  0  0  0  0  0  0  0  0
    0.2070    3.2190    0.0000 C   0  0  0  0  0  0  0  0  0  0  0  0
  1  2  1  0  0  0  0
  1  5  1  0  0  0  0
  2  3  2  0  0  0  0
  3  4  1  0  0  0  0
  4  5  1  0  0  0  0
  4  9  2  0  0  0  0
  5  6  2  0  0  0  0
  6  7  1  0  0  0  0
  7  8  2  0  0  0  0
  8  9  1  0  0  0  0
M  END
>  <name>
[nH;NaroC]1nnc2c1cccc2

>  <apo>
1

>  <freq>
1

>  <freq0>
0

>  <freq1>
1

>  <freqA>
0.99700278

>  <a_count>
14

$$$$

  MOE2015           2D

  8  8  0  0  0  0  0  0  0  0999 V2000
    0.0000    0.0000    0.0000 Cl  0  0  0  0  0  0  0  0  0  0  0  0
    1.5000    0.0000    0.0000 C   0  0  0  0  0  0  0  0  0  0  0  0
    2.2500   -1.2990    0.0000 C   0  0  0  0  0  0  0  0  0  0  0  0
    3.7500   -1.2990    0.0000 N   0  0  0  0  0  0  0  0  0  0  0  0
    4.5000    0.0000    0.0000 C   0  0  0  0  0  0  0  0  0  0  0  0
    6.0000    0.0000    0.0000 N   0  0  0  0  0  0  0  0  0  0  0  0
    3.7500    1.2990    0.0000 C   0  0  0  0  0  0  0  0  0  0  0  0
    2.2500    1.2990    0.0000 C   0  0  0  0  0  0  0  0  0  0  0  0
  1  2  1  0  0  0  0
  2  3  1  0  0  0  0
  2  8  2  0  0  0  0
  3  4  2  0  0  0  0
  4  5  1  0  0  0  0
  5  6  1  0  0  0  0
  5  7  2  0  0  0  0
  7  8  1  0  0  0  0
M  END
>  <name>
Clc1cnc([N;amide])cc1

>  <apo>
1

>  <freq>
1

>  <freq0>
0

>  <freq1>
1

>  <freqA>
0.99700278

>  <a_count>
13

$$$$

  MOE2015           2D

  8  8  0  0  0  0  0  0  0  0999 V2000
    7.1250    0.0000    0.0000 N   0  0  0  0  0  0  0  0  0  0  0  0
    5.6250    0.0000    0.0000 C   0  0  0  0  0  0  0  0  0  0  0  0
    4.1250    0.0000    0.0000 C   0  0  0  0  0  0  0  0  0  0  0  0
    3.3750    1.2990    0.0000 C   0  0  0  0  0  0  0  0  0  0  0  0
    1.8750    1.2990    0.0000 C   0  0  0  0  0  0  0  0  0  0  0  0
    1.1250    0.0000    0.0000 C   0  0  0  0  0  0  0  0  0  0  0  0
    1.8750   -1.2990    0.0000 C   0  0  0  0  0  0  0  0  0  0  0  0
    3.3750   -1.2990    0.0000 C   0  0  0  0  0  0  0  0  0  0  0  0
  1  2  3  0  0  0  0
  2  3  1  0  0  0  0
  3  4  1  0  0  0  0
  3  8  2  0  0  0  0
  4  5  2  0  0  0  0
  5  6  1  0  0  0  0
  6  7  2  0  0  0  0
  7  8  1  0  0  0  0
M  END
>  <name>
N#Cc1cc[c;biphenyl]cc1

>  <apo>
1

>  <freq>
1

>  <freq0>
0

>  <freq1>
1

>  <freqA>
0.99700278

>  <a_count>
13

$$$$

  MOE2015           2D

  6  5  0  0  0  0  0  0  0  0999 V2000
   -0.0070   -1.2750    0.0000 O   0  0  0  0  0  0  0  0  0  0  0  0
    1.2920   -0.5250    0.0000 C   0  0  0  0  0  0  0  0  0  0  0  0
    1.2920    0.9750    0.0000 O   0  5  0  0  0  0  0  0  0  0  0  0
    2.5920   -1.2750    0.0000 C   0  0  0  0  0  0  0  0  0  0  0  0
    3.8910   -0.5250    0.0000 C   0  0  0  0  0  0  0  0  0  0  0  0
    5.1900   -1.2750    0.0000 C   0  0  0  0  0  0  0  0  0  0  0  0
  1  2  2  0  0  0  0
  2  3  1  0  0  0  0
  2  4  1  0  0  0  0
  4  5  1  0  0  0  0
  5  6  1  0  0  0  0
M  CHG  1   3  -1
M  END
>  <name>
O=C([O-])CC[C;amine]

>  <apo>
1

>  <freq>
1

>  <freq0>
0

>  <freq1>
1

>  <freqA>
0.99700278

>  <a_count>
13

$$$$

  MOE2015           2D

  8  8  0  0  0  0  0  0  0  0999 V2000
    5.5980   -1.5700    0.0000 O   0  0  0  0  0  0  0  0  0  0  0  0
    4.3170   -0.7900    0.0000 C   0  0  0  0  0  0  0  0  0  0  0  0
    3.0000   -1.5100    0.0000 C   0  0  0  0  0  0  0  0  0  0  0  0
    1.6450   -0.8680    0.0000 C   0  0  0  0  0  0  0  0  0  0  0  0
    1.3670    0.6060    0.0000 C   0  0  0  0  0  0  0  0  0  0  0  0
    0.6150   -1.9590    0.0000 O   0  0  0  0  0  0  0  0  0  0  0  0
    1.3350   -3.2750    0.0000 N   0  0  0  0  0  0  0  0  0  0  0  0
    2.8090   -2.9970    0.0000 C   0  0  0  0  0  0  0  0  0  0  0  0
  1  2  2  0  0  0  0
  2  3  1  0  0  0  0
  3  4  2  0  0  0  0
  3  8  1  0  0  0  0
  4  5  1  0  0  0  0
  4  6  1  0  0  0  0
  6  7  1  0  0  0  0
  7  8  2  0  0  0  0
M  END
>  <name>
O=[C;amide]c1c(C)onc1

>  <apo>
1

>  <freq>
1

>  <freq0>
0

>  <freq1>
1

>  <freqA>
0.99700278

>  <a_count>
13

$$$$

  MOE2015           2D

  8  8  0  0  0  0  0  0  0  0999 V2000
    5.3440   -0.8120    0.0000 O   0  0  0  0  0  0  0  0  0  0  0  0
    4.5940   -2.1110    0.0000 C   0  0  0  0  0  0  0  0  0  0  0  0
    3.0940   -2.1110    0.0000 C   0  0  0  0  0  0  0  0  0  0  0  0
    2.3440   -3.4100    0.0000 N   0  0  0  0  0  0  0  0  0  0  0  0
    0.8440   -3.4100    0.0000 C   0  0  0  0  0  0  0  0  0  0  0  0
    0.0940   -2.1110    0.0000 C   0  0  0  0  0  0  0  0  0  0  0  0
    0.8440   -0.8120    0.0000 C   0  0  0  0  0  0  0  0  0  0  0  0
    2.3440   -0.8120    0.0000 C   0  0  0  0  0  0  0  0  0  0  0  0
  1  2  2  0  0  0  0
  2  3  1  0  0  0  0
  3  4  1  0  0  0  0
  3  8  2  0  0  0  0
  4  5  2  0  0  0  0
  5  6  1  0  0  0  0
  6  7  2  0  0  0  0
  7  8  1  0  0  0  0
M  END
>  <name>
O=[C;amide]c1n[c;biphenyl]ccc1

>  <apo>
2

>  <freq>
1

>  <freq0>
0

>  <freq1>
1

>  <freqA>
0.99700278

>  <a_count>
13

$$$$

  MOE2015           2D

  5  4  0  0  0  0  0  0  0  0999 V2000
    3.8780   -1.0390    0.0000 O   0  0  0  0  0  0  0  0  0  0  0  0
    2.5790   -1.7890    0.0000 C   0  0  0  0  0  0  0  0  0  0  0  0
    1.2800   -1.0390    0.0000 C   0  0  0  0  0  0  0  0  0  0  0  0
   -0.0190   -1.7890    0.0000 C   0  0  0  0  0  0  0  0  0  0  0  0
    1.2800    0.4610    0.0000 C   0  0  0  0  0  0  0  0  0  0  0  0
  1  2  2  0  0  0  0
  2  3  1  0  0  0  0
  3  4  1  0  0  0  0
  3  5  1  0  0  0  0
M  END
>  <name>
O=[C;ester]C(C)C

>  <apo>
1

>  <freq>
1

>  <freq0>
0

>  <freq1>
1

>  <freqA>
0.99700278

>  <a_count>
13

$$$$

  MOE2015           2D

  5  4  0  0  1  0  0  0  0  0999 V2000
    0.1310   -1.0100    0.0000 O   0  0  0  0  0  0  0  0  0  0  0  0
    1.4300   -0.2600    0.0000 C   0  0  3  0  0  0  0  0  0  0  0  0
    2.7290   -1.0100    0.0000 C   0  0  0  0  0  0  0  0  0  0  0  0
    4.0280   -0.2600    0.0000 O   0  0  0  0  0  0  0  0  0  0  0  0
    1.4300    1.2400    0.0000 C   0  0  0  0  0  0  0  0  0  0  0  0
  1  2  1  0  0  0  0
  2  3  1  0  0  0  0
  2  5  1  0  0  0  0
  3  4  1  0  0  0  0
M  END
>  <name>
OC(CO)[C;thioether]

>  <apo>
1

>  <freq>
1

>  <freq0>
0

>  <freq1>
1

>  <freqA>
0.99700278

>  <a_count>
13

$$$$

  MOE2015           2D

  7  7  0  0  0  0  0  0  0  0999 V2000
    5.1430    0.0000    0.0000 O   0  0  0  0  0  0  0  0  0  0  0  0
    3.6430    0.0000    0.0000 C   0  0  0  0  0  0  0  0  0  0  0  0
    2.8930    1.2990    0.0000 C   0  0  0  0  0  0  0  0  0  0  0  0
    1.3930    1.2990    0.0000 C   0  0  0  0  0  0  0  0  0  0  0  0
    0.6430    0.0000    0.0000 C   0  0  0  0  0  0  0  0  0  0  0  0
    1.3930   -1.2990    0.0000 C   0  0  0  0  0  0  0  0  0  0  0  0
    2.8930   -1.2990    0.0000 C   0  0  0  0  0  0  0  0  0  0  0  0
  1  2  1  0  0  0  0
  2  3  1  0  0  0  0
  2  7  2  0  0  0  0
  3  4  2  0  0  0  0
  4  5  1  0  0  0  0
  5  6  2  0  0  0  0
  6  7  1  0  0  0  0
M  END
>  <name>
Oc1cc[c;biphenyl]cc1

>  <apo>
1

>  <freq>
1

>  <freq0>
0

>  <freq1>
1

>  <freqA>
0.99700278

>  <a_count>
13

$$$$

  MOE2015           2D

  7  7  0  0  0  0  0  0  0  0999 V2000
    5.1430    0.0000    0.0000 O   0  0  0  0  0  0  0  0  0  0  0  0
    3.6430    0.0000    0.0000 C   0  0  0  0  0  0  0  0  0  0  0  0
    2.8930    1.2990    0.0000 C   0  0  0  0  0  0  0  0  0  0  0  0
    1.3930    1.2990    0.0000 C   0  0  0  0  0  0  0  0  0  0  0  0
    0.6430    0.0000    0.0000 C   0  0  0  0  0  0  0  0  0  0  0  0
    1.3930   -1.2990    0.0000 C   0  0  0  0  0  0  0  0  0  0  0  0
    2.8930   -1.2990    0.0000 C   0  0  0  0  0  0  0  0  0  0  0  0
  1  2  1  0  0  0  0
  2  3  1  0  0  0  0
  2  7  2  0  0  0  0
  3  4  2  0  0  0  0
  4  5  1  0  0  0  0
  5  6  2  0  0  0  0
  6  7  1  0  0  0  0
M  END
>  <name>
Oc1ccc[c;biphenyl]c1

>  <apo>
1

>  <freq>
1

>  <freq0>
0

>  <freq1>
1

>  <freqA>
0.99700278

>  <a_count>
13

$$$$

  MOE2015           2D

  6  5  0  0  1  0  0  0  0  0999 V2000
   -0.3480   -1.2990    0.0000 S   0  0  0  0  0  0  0  0  0  0  0  0
    0.9510   -2.0490    0.0000 C   0  0  0  0  0  0  0  0  0  0  0  0
    2.2500   -1.2990    0.0000 C   0  0  1  0  0  0  0  0  0  0  0  0
    2.2500    0.2010    0.0000 N   0  0  0  0  0  0  0  0  0  0  0  0
    3.5490   -2.0490    0.0000 C   0  0  0  0  0  0  0  0  0  0  0  0
    4.8480   -1.2990    0.0000 O   0  0  0  0  0  0  0  0  0  0  0  0
  1  2  1  0  0  0  0
  2  3  1  0  0  0  0
  3  4  1  1  0  0  0
  3  5  1  0  0  0  0
  5  6  2  0  0  0  0
M  END
>  <name>
SC[C@@H]([N;amide])[C;amide]=O

>  <apo>
2

>  <freq>
1

>  <freq0>
0

>  <freq1>
1

>  <freqA>
0.99700278

>  <a_count>
13

$$$$

  MOE2015           2D

  7  7  0  0  0  0  0  0  0  0999 V2000
    5.1430    0.0000    0.0000 C   0  0  0  0  0  0  0  0  0  0  0  0
    3.6430    0.0000    0.0000 C   0  0  0  0  0  0  0  0  0  0  0  0
    2.8930    1.2990    0.0000 N   0  0  0  0  0  0  0  0  0  0  0  0
    1.3930    1.2990    0.0000 N   0  0  0  0  0  0  0  0  0  0  0  0
    0.6430    0.0000    0.0000 C   0  0  0  0  0  0  0  0  0  0  0  0
    1.3930   -1.2990    0.0000 C   0  0  0  0  0  0  0  0  0  0  0  0
    2.8930   -1.2990    0.0000 C   0  0  0  0  0  0  0  0  0  0  0  0
  1  2  1  0  0  0  0
  2  3  1  0  0  0  0
  2  7  2  0  0  0  0
  3  4  2  0  0  0  0
  4  5  1  0  0  0  0
  5  6  2  0  0  0  0
  6  7  1  0  0  0  0
M  END
>  <name>
[C;NaroC]c1nn[c;biphenyl]cc1

>  <apo>
2

>  <freq>
1

>  <freq0>
0

>  <freq1>
1

>  <freqA>
0.99700278

>  <a_count>
13

$$$$

  MOE2015           2D

  4  3  0  0  0  0  0  0  0  0999 V2000
   -0.0740   -1.0250    0.0000 N   0  3  0  0  0  0  0  0  0  0  0  0
    1.2250   -0.2750    0.0000 C   0  0  0  0  0  0  0  0  0  0  0  0
    2.5250   -1.0250    0.0000 C   0  0  0  0  0  0  0  0  0  0  0  0
    3.8240   -0.2750    0.0000 N   0  0  0  0  0  0  0  0  0  0  0  0
  1  2  1  0  0  0  0
  2  3  1  0  0  0  0
  3  4  1  0  0  0  0
M  CHG  1   1   1
M  END
>  <name>
[N+]CC[N;amide]

>  <apo>
1

>  <freq>
1

>  <freq0>
0

>  <freq1>
1

>  <freqA>
0.99700278

>  <a_count>
13

$$$$

  MOE2015           2D

  5  4  0  0  0  0  0  0  0  0999 V2000
    4.9980   -1.3390    0.0000 O   0  0  0  0  0  0  0  0  0  0  0  0
    3.6990   -0.5890    0.0000 C   0  0  0  0  0  0  0  0  0  0  0  0
    2.4000   -1.3390    0.0000 C   0  0  0  0  0  0  0  0  0  0  0  0
    1.1010   -0.5890    0.0000 C   0  0  0  0  0  0  0  0  0  0  0  0
   -0.1980   -1.3390    0.0000 O   0  0  0  0  0  0  0  0  0  0  0  0
  1  2  1  0  0  0  0
  2  3  1  0  0  0  0
  3  4  1  0  0  0  0
  4  5  1  0  0  0  0
M  END
>  <name>
[O;ester]C[C;ether]CO

>  <apo>
2

>  <freq>
1

>  <freq0>
0

>  <freq1>
1

>  <freqA>
0.99700278

>  <a_count>
13

$$$$

  MOE2015           2D

  5  4  0  0  1  0  0  0  0  0999 V2000
    3.8780   -1.0390    0.0000 Cl  0  0  0  0  0  0  0  0  0  0  0  0
    2.5790   -1.7890    0.0000 C   0  0  0  0  0  0  0  0  0  0  0  0
    1.2800   -1.0390    0.0000 C   0  0  1  0  0  0  0  0  0  0  0  0
   -0.0190   -1.7890    0.0000 O   0  0  0  0  0  0  0  0  0  0  0  0
    1.2800    0.4610    0.0000 C   0  0  0  0  0  0  0  0  0  0  0  0
  1  2  1  0  0  0  0
  2  3  1  0  0  0  0
  3  4  1  0  0  0  0
  3  5  1  1  0  0  0
M  END
>  <name>
ClC[C@@H](O)[C;NaroC]

>  <apo>
1

>  <freq>
1

>  <freq0>
0

>  <freq1>
1

>  <freqA>
0.99700278

>  <a_count>
12

$$$$

  MOE2015           2D

  7  7  0  0  0  0  0  0  0  0999 V2000
    5.1430    0.0000    0.0000 F   0  0  0  0  0  0  0  0  0  0  0  0
    3.6430    0.0000    0.0000 C   0  0  0  0  0  0  0  0  0  0  0  0
    2.8930    1.2990    0.0000 C   0  0  0  0  0  0  0  0  0  0  0  0
    1.3930    1.2990    0.0000 C   0  0  0  0  0  0  0  0  0  0  0  0
    0.6430    0.0000    0.0000 C   0  0  0  0  0  0  0  0  0  0  0  0
    1.3930   -1.2990    0.0000 C   0  0  0  0  0  0  0  0  0  0  0  0
    2.8930   -1.2990    0.0000 C   0  0  0  0  0  0  0  0  0  0  0  0
  1  2  1  0  0  0  0
  2  3  1  0  0  0  0
  2  7  2  0  0  0  0
  3  4  2  0  0  0  0
  4  5  1  0  0  0  0
  5  6  2  0  0  0  0
  6  7  1  0  0  0  0
M  END
>  <name>
Fc1[c;biphenyl]cccc1

>  <apo>
1

>  <freq>
1

>  <freq0>
0

>  <freq1>
1

>  <freqA>
0.99700278

>  <a_count>
12

$$$$

  MOE2015           2D

  7  7  0  0  0  0  0  0  0  0999 V2000
    5.1430    0.0000    0.0000 F   0  0  0  0  0  0  0  0  0  0  0  0
    3.6430    0.0000    0.0000 C   0  0  0  0  0  0  0  0  0  0  0  0
    2.8930    1.2990    0.0000 C   0  0  0  0  0  0  0  0  0  0  0  0
    1.3930    1.2990    0.0000 C   0  0  0  0  0  0  0  0  0  0  0  0
    0.6430    0.0000    0.0000 C   0  0  0  0  0  0  0  0  0  0  0  0
    1.3930   -1.2990    0.0000 C   0  0  0  0  0  0  0  0  0  0  0  0
    2.8930   -1.2990    0.0000 C   0  0  0  0  0  0  0  0  0  0  0  0
  1  2  1  0  0  0  0
  2  3  1  0  0  0  0
  2  7  2  0  0  0  0
  3  4  2  0  0  0  0
  4  5  1  0  0  0  0
  5  6  2  0  0  0  0
  6  7  1  0  0  0  0
M  END
>  <name>
Fc1cc[c;biphenyl]cc1

>  <apo>
1

>  <freq>
1

>  <freq0>
0

>  <freq1>
1

>  <freqA>
0.99700278

>  <a_count>
12

$$$$

  MOE2015           2D

  8  8  0  0  0  0  0  0  0  0999 V2000
    4.5710   -2.6390    0.0000 O   0  0  0  0  0  0  0  0  0  0  0  0
    3.8210   -1.3400    0.0000 C   0  0  0  0  0  0  0  0  0  0  0  0
    4.5710   -0.0410    0.0000 N   0  0  0  0  0  0  0  0  0  0  0  0
    2.3210   -1.3400    0.0000 C   0  0  0  0  0  0  0  0  0  0  0  0
    1.4400   -0.1270    0.0000 N   0  0  0  0  0  0  0  0  0  0  0  0
    0.0130   -0.5900    0.0000 N   0  0  0  0  0  0  0  0  0  0  0  0
    0.0130   -2.0900    0.0000 C   0  0  0  0  0  0  0  0  0  0  0  0
    1.4400   -2.5540    0.0000 N   0  0  0  0  0  0  0  0  0  0  0  0
  1  2  2  0  0  0  0
  2  3  1  0  0  0  0
  2  4  1  0  0  0  0
  4  5  2  0  0  0  0
  4  8  1  0  0  0  0
  5  6  1  0  0  0  0
  6  7  1  0  0  0  0
  7  8  2  0  0  0  0
M  END
>  <name>
O=C(N)c1n[nH;NaroC]cn1

>  <apo>
1

>  <freq>
1

>  <freq0>
0

>  <freq1>
1

>  <freqA>
0.99700278

>  <a_count>
12

$$$$

  MOE2015           2D

  7  6  0  0  0  0  0  0  0  0999 V2000
   -0.0760   -1.5710    0.0000 O   0  0  0  0  0  0  0  0  0  0  0  0
    1.2230   -0.8210    0.0000 C   0  0  0  0  0  0  0  0  0  0  0  0
    1.2230    0.6790    0.0000 O   0  5  0  0  0  0  0  0  0  0  0  0
    2.5220   -1.5710    0.0000 C   0  0  0  0  0  0  0  0  0  0  0  0
    3.8210   -0.8210    0.0000 C   0  0  0  0  0  0  0  0  0  0  0  0
    5.1200   -1.5710    0.0000 C   0  0  0  0  0  0  0  0  0  0  0  0
    6.4190   -0.8210    0.0000 O   0  0  0  0  0  0  0  0  0  0  0  0
  1  2  2  0  0  0  0
  2  3  1  0  0  0  0
  2  4  1  0  0  0  0
  4  5  1  0  0  0  0
  5  6  1  0  0  0  0
  6  7  2  0  0  0  0
M  CHG  1   3  -1
M  END
>  <name>
O=C([O-])CC[C;ester]=O

>  <apo>
1

>  <freq>
1

>  <freq0>
0

>  <freq1>
1

>  <freqA>
0.99700278

>  <a_count>
12

$$$$

  MOE2015           2D

  6  5  0  0  0  0  0  0  0  0999 V2000
    6.2480   -0.9240    0.0000 O   0  0  0  0  0  0  0  0  0  0  0  0
    4.9490   -1.6740    0.0000 C   0  0  0  0  0  0  0  0  0  0  0  0
    3.6500   -0.9240    0.0000 C   0  0  0  0  0  0  0  0  0  0  0  0
    2.3500   -1.6740    0.0000 C   0  0  0  0  0  0  0  0  0  0  0  0
    1.0510   -0.9240    0.0000 C   0  0  0  0  0  0  0  0  0  0  0  0
   -0.2480   -1.6740    0.0000 O   0  0  0  0  0  0  0  0  0  0  0  0
  1  2  2  0  0  0  0
  2  3  1  0  0  0  0
  3  4  1  0  0  0  0
  4  5  1  0  0  0  0
  5  6  2  0  0  0  0
M  END
>  <name>
O=[C;amide]CC[C;amide]=O

>  <apo>
2

>  <freq>
1

>  <freq0>
0

>  <freq1>
1

>  <freqA>
0.99700278

>  <a_count>
12

$$$$

  MOE2015           2D

  5  4  0  0  1  0  0  0  0  0999 V2000
    3.8780   -1.0390    0.0000 O   0  0  0  0  0  0  0  0  0  0  0  0
    2.5790   -1.7890    0.0000 C   0  0  0  0  0  0  0  0  0  0  0  0
    1.2800   -1.0390    0.0000 C   0  0  2  0  0  0  0  0  0  0  0  0
   -0.0190   -1.7890    0.0000 N   0  0  0  0  0  0  0  0  0  0  0  0
    1.2800    0.4610    0.0000 C   0  0  0  0  0  0  0  0  0  0  0  0
  1  2  2  0  0  0  0
  2  3  1  0  0  0  0
  3  4  1  0  0  0  0
  3  5  1  6  0  0  0
M  END
>  <name>
O=[C;amide][C@H]([N;amide])[C;ether]

>  <apo>
3

>  <freq>
1

>  <freq0>
0

>  <freq1>
1

>  <freqA>
0.99700278

>  <a_count>
12

$$$$

  MOE2015           2D

  6  6  0  0  0  0  0  0  0  0999 V2000
    4.6270    0.0000    0.0000 C   0  0  0  0  0  0  0  0  0  0  0  0
    3.1270    0.0000    0.0000 C   0  0  0  0  0  0  0  0  0  0  0  0
    2.2450   -1.2140    0.0000 O   0  0  0  0  0  0  0  0  0  0  0  0
    0.8180   -0.7500    0.0000 C   0  0  0  0  0  0  0  0  0  0  0  0
    0.8180    0.7500    0.0000 C   0  0  0  0  0  0  0  0  0  0  0  0
    2.2450    1.2140    0.0000 C   0  0  0  0  0  0  0  0  0  0  0  0
  1  2  1  0  0  0  0
  2  3  1  0  0  0  0
  2  6  2  0  0  0  0
  3  4  1  0  0  0  0
  4  5  2  0  0  0  0
  5  6  1  0  0  0  0
M  END
>  <name>
[C;olefin]c1o[c;biphenyl]cc1

>  <apo>
2

>  <freq>
1

>  <freq0>
0

>  <freq1>
1

>  <freqA>
0.99700278

>  <a_count>
12

$$$$

  MOE2015           2D

  4  3  0  0  0  0  0  0  0  0999 V2000
   -0.0740   -1.0250    0.0000 N   0  0  0  0  0  0  0  0  0  0  0  0
    1.2250   -0.2750    0.0000 C   0  0  0  0  0  0  0  0  0  0  0  0
    2.5250   -1.0250    0.0000 C   0  0  0  0  0  0  0  0  0  0  0  0
    3.8240   -0.2750    0.0000 N   0  0  0  0  0  0  0  0  0  0  0  0
  1  2  1  0  0  0  0
  2  3  1  0  0  0  0
  3  4  1  0  0  0  0
M  END
>  <name>
[N;amide]CC[N;thiourea]

>  <apo>
2

>  <freq>
1

>  <freq0>
0

>  <freq1>
1

>  <freqA>
0.99700278

>  <a_count>
12

$$$$

  MOE2015           2D

  4  3  0  0  0  0  0  0  0  0999 V2000
   -0.0740   -0.2750    0.0000 O   0  0  0  0  0  0  0  0  0  0  0  0
    1.2250   -1.0250    0.0000 C   0  0  0  0  0  0  0  0  0  0  0  0
    2.5250   -0.2750    0.0000 C   0  0  0  0  0  0  0  0  0  0  0  0
    3.8240   -1.0250    0.0000 C   0  0  0  0  0  0  0  0  0  0  0  0
  1  2  1  0  0  0  0
  2  3  1  0  0  0  0
  3  4  1  0  0  0  0
M  END
>  <name>
[O;ester]CCC

>  <apo>
1

>  <freq>
1

>  <freq0>
0

>  <freq1>
1

>  <freqA>
0.99700278

>  <a_count>
12

$$$$

  MOE2015           2D

  6  6  0  0  0  0  0  0  0  0999 V2000
   -2.0490    2.0490    0.0000 C   0  0  0  0  0  0  0  0  0  0  0  0
   -2.0490    0.5490    0.0000 C   0  0  0  0  0  0  0  0  0  0  0  0
   -0.7500   -0.2010    0.0000 C   0  0  0  0  0  0  0  0  0  0  0  0
    0.5490    0.5490    0.0000 C   0  0  0  0  0  0  0  0  0  0  0  0
    0.5490    2.0490    0.0000 C   0  0  0  0  0  0  0  0  0  0  0  0
   -0.7500    2.7990    0.0000 C   0  0  0  0  0  0  0  0  0  0  0  0
  1  2  1  0  0  0  0
  1  6  2  0  0  0  0
  2  3  2  0  0  0  0
  3  4  1  0  0  0  0
  4  5  2  0  0  0  0
  5  6  1  0  0  0  0
M  END
>  <name>
[c;biphenyl]1cc[c;biphenyl]cc1

>  <apo>
2

>  <freq>
1

>  <freq0>
0

>  <freq1>
1

>  <freqA>
0.99700278

>  <a_count>
12

$$$$

  MOE2015           2D

  3  2  0  0  0  0  0  0  0  0999 V2000
    0.2500    0.0670    0.0000 C   0  0  0  0  0  0  0  0  0  0  0  0
    1.5490   -0.6830    0.0000 C   0  0  0  0  0  0  0  0  0  0  0  0
   -1.0490   -0.6830    0.0000 C   0  0  0  0  0  0  0  0  0  0  0  0
  1  2  1  0  0  0  0
  1  3  1  0  0  0  0
M  END
>  <name>
C([C;lactam])[C;amine]

>  <apo>
2

>  <freq>
1

>  <freq0>
0

>  <freq1>
1

>  <freqA>
0.99700278

>  <a_count>
11

$$$$

  MOE2015           2D

  3  2  0  0  0  0  0  0  0  0999 V2000
    0.2500    0.0670    0.0000 C   0  0  0  0  0  0  0  0  0  0  0  0
    1.5490   -0.6830    0.0000 C   0  0  0  0  0  0  0  0  0  0  0  0
   -1.0490   -0.6830    0.0000 C   0  0  0  0  0  0  0  0  0  0  0  0
  1  2  1  0  0  0  0
  1  3  1  0  0  0  0
M  END
>  <name>
C([C;thioether])C

>  <apo>
1

>  <freq>
1

>  <freq0>
0

>  <freq1>
1

>  <freqA>
0.99700278

>  <a_count>
11

$$$$

  MOE2015           2D

  6  5  0  0  0  0  0  0  0  0999 V2000
    0.5330    0.9240    0.0000 F   0  0  0  0  0  0  0  0  0  0  0  0
    1.2830   -0.3750    0.0000 C   0  0  0  0  0  0  0  0  0  0  0  0
   -0.0160   -1.1250    0.0000 F   0  0  0  0  0  0  0  0  0  0  0  0
    2.0330   -1.6740    0.0000 F   0  0  0  0  0  0  0  0  0  0  0  0
    2.5830    0.3750    0.0000 C   0  0  0  0  0  0  0  0  0  0  0  0
    3.8820   -0.3750    0.0000 C   0  0  0  0  0  0  0  0  0  0  0  0
  1  2  1  0  0  0  0
  2  3  1  0  0  0  0
  2  4  1  0  0  0  0
  2  5  1  0  0  0  0
  5  6  1  0  0  0  0
M  END
>  <name>
FC(F)(F)C[C;thioether]

>  <apo>
1

>  <freq>
1

>  <freq0>
0

>  <freq1>
1

>  <freqA>
0.99700278

>  <a_count>
11

$$$$

  MOE2015           2D

  7  7  0  0  0  0  0  0  0  0999 V2000
    5.1430    0.0000    0.0000 F   0  0  0  0  0  0  0  0  0  0  0  0
    3.6430    0.0000    0.0000 C   0  0  0  0  0  0  0  0  0  0  0  0
    2.8930    1.2990    0.0000 N   0  0  0  0  0  0  0  0  0  0  0  0
    1.3930    1.2990    0.0000 C   0  0  0  0  0  0  0  0  0  0  0  0
    0.6430    0.0000    0.0000 C   0  0  0  0  0  0  0  0  0  0  0  0
    1.3930   -1.2990    0.0000 C   0  0  0  0  0  0  0  0  0  0  0  0
    2.8930   -1.2990    0.0000 C   0  0  0  0  0  0  0  0  0  0  0  0
  1  2  1  0  0  0  0
  2  3  1  0  0  0  0
  2  7  2  0  0  0  0
  3  4  2  0  0  0  0
  4  5  1  0  0  0  0
  5  6  2  0  0  0  0
  6  7  1  0  0  0  0
M  END
>  <name>
Fc1nc[c;biphenyl]cc1

>  <apo>
1

>  <freq>
1

>  <freq0>
0

>  <freq1>
1

>  <freqA>
0.99700278

>  <a_count>
11

$$$$

  MOE2015           2D

  8  8  0  0  1  0  0  0  0  0999 V2000
   -0.2610    0.9740    0.0000 O   0  0  0  0  0  0  0  0  0  0  0  0
    1.0380    1.7240    0.0000 C   0  0  0  0  0  0  0  0  0  0  0  0
    1.0380    3.2240    0.0000 O   0  5  0  0  0  0  0  0  0  0  0  0
    2.3370    0.9740    0.0000 C   0  0  2  0  0  0  0  0  0  0  0  0
    3.8370    0.9740    0.0000 C   0  0  1  0  0  0  0  0  0  0  0  0
    5.1360    1.7240    0.0000 C   0  0  0  0  0  0  0  0  0  0  0  0
    6.4350    0.9740    0.0000 O   0  0  0  0  0  0  0  0  0  0  0  0
    3.0870   -0.3250    0.0000 O   0  0  0  0  0  0  0  0  0  0  0  0
  1  2  2  0  0  0  0
  2  3  1  0  0  0  0
  4  2  1  6  0  0  0
  4  5  1  0  0  0  0
  4  8  1  0  0  0  0
  5  6  1  1  0  0  0
  5  8  1  0  0  0  0
  6  7  2  0  0  0  0
M  CHG  1   3  -1
M  END
>  <name>
O=C([O-])[C@@H]1[C@@H]([C;amide]=O)O1

>  <apo>
1

>  <freq>
1

>  <freq0>
0

>  <freq1>
1

>  <freqA>
0.99700278

>  <a_count>
11

$$$$

  MOE2015           2D

  5  5  0  0  0  0  0  0  0  0999 V2000
    4.1780   -1.3390    0.0000 O   0  0  0  0  0  0  0  0  0  0  0  0
    2.8790   -2.0890    0.0000 C   0  0  0  0  0  0  0  0  0  0  0  0
    1.5800   -1.3390    0.0000 C   0  0  0  0  0  0  0  0  0  0  0  0
    0.8300   -0.0400    0.0000 C   0  0  0  0  0  0  0  0  0  0  0  0
    0.0800   -1.3390    0.0000 C   0  0  0  0  0  0  0  0  0  0  0  0
  1  2  2  0  0  0  0
  2  3  1  0  0  0  0
  3  4  1  0  0  0  0
  3  5  1  0  0  0  0
  4  5  1  0  0  0  0
M  END
>  <name>
O=[C;amide]C1CC1

>  <apo>
1

>  <freq>
1

>  <freq0>
0

>  <freq1>
1

>  <freqA>
0.99700278

>  <a_count>
11

$$$$

  MOE2015           2D

  7  7  0  0  0  0  0  0  0  0999 V2000
    4.9030   -0.6040    0.0000 O   0  0  0  0  0  0  0  0  0  0  0  0
    4.1530   -1.9030    0.0000 C   0  0  0  0  0  0  0  0  0  0  0  0
    2.6530   -1.9030    0.0000 C   0  0  0  0  0  0  0  0  0  0  0  0
    1.7710   -3.1160    0.0000 N   0  0  0  0  0  0  0  0  0  0  0  0
    0.3450   -2.6530    0.0000 C   0  0  0  0  0  0  0  0  0  0  0  0
    0.3450   -1.1530    0.0000 N   0  0  0  0  0  0  0  0  0  0  0  0
    1.7710   -0.6890    0.0000 C   0  0  0  0  0  0  0  0  0  0  0  0
  1  2  2  0  0  0  0
  2  3  1  0  0  0  0
  3  4  1  0  0  0  0
  3  7  2  0  0  0  0
  4  5  2  0  0  0  0
  5  6  1  0  0  0  0
  6  7  1  0  0  0  0
M  END
>  <name>
O=[C;amide]c1nc[nH]c1

>  <apo>
1

>  <freq>
1

>  <freq0>
0

>  <freq1>
1

>  <freqA>
0.99700278

>  <a_count>
11

$$$$

  MOE2015           2D

  9  9  0  0  0  0  0  0  0  0999 V2000
   -0.7120   -2.9650    0.0000 O   0  0  0  0  0  0  0  0  0  0  0  0
    0.6250   -3.6460    0.0000 C   0  0  0  0  0  0  0  0  0  0  0  0
    1.8830   -2.8290    0.0000 C   0  0  0  0  0  0  0  0  0  0  0  0
    3.2830   -3.3660    0.0000 S   0  0  0  0  0  0  0  0  0  0  0  0
    4.2270   -2.2000    0.0000 C   0  0  0  0  0  0  0  0  0  0  0  0
    5.7250   -2.2790    0.0000 C   0  0  0  0  0  0  0  0  0  0  0  0
    6.5420   -1.0210    0.0000 O   0  0  0  0  0  0  0  0  0  0  0  0
    3.4100   -0.9420    0.0000 N   0  0  0  0  0  0  0  0  0  0  0  0
    1.9610   -1.3310    0.0000 N   0  0  0  0  0  0  0  0  0  0  0  0
  1  2  2  0  0  0  0
  2  3  1  0  0  0  0
  3  4  1  0  0  0  0
  3  9  2  0  0  0  0
  4  5  1  0  0  0  0
  5  6  1  0  0  0  0
  5  8  2  0  0  0  0
  6  7  2  0  0  0  0
  8  9  1  0  0  0  0
M  END
>  <name>
O=[C;amide]c1sc([C;amide]=O)nn1

>  <apo>
2

>  <freq>
1

>  <freq0>
0

>  <freq1>
1

>  <freqA>
0.99700278

>  <a_count>
11

$$$$

  MOE2015           2D

  7  7  0  0  0  0  0  0  0  0999 V2000
    4.9030   -0.6040    0.0000 O   0  0  0  0  0  0  0  0  0  0  0  0
    4.1530   -1.9030    0.0000 C   0  0  0  0  0  0  0  0  0  0  0  0
    2.6530   -1.9030    0.0000 C   0  0  0  0  0  0  0  0  0  0  0  0
    1.7710   -3.1160    0.0000 S   0  0  0  0  0  0  0  0  0  0  0  0
    0.3450   -2.6530    0.0000 C   0  0  0  0  0  0  0  0  0  0  0  0
    0.3450   -1.1530    0.0000 C   0  0  0  0  0  0  0  0  0  0  0  0
    1.7710   -0.6890    0.0000 C   0  0  0  0  0  0  0  0  0  0  0  0
  1  2  2  0  0  0  0
  2  3  1  0  0  0  0
  3  4  1  0  0  0  0
  3  7  2  0  0  0  0
  4  5  1  0  0  0  0
  5  6  2  0  0  0  0
  6  7  1  0  0  0  0
M  END
>  <name>
O=[C;ester]c1sccc1

>  <apo>
1

>  <freq>
1

>  <freq0>
0

>  <freq1>
1

>  <freqA>
0.99700278

>  <a_count>
11

$$$$

  MOE2015           2D

  6  5  0  0  0  0  0  0  0  0999 V2000
   -0.8080   -0.2170    0.0000 P   0  0  0  0  0  0  0  0  0  0  0  0
   -2.1070   -0.9670    0.0000 O   0  0  0  0  0  0  0  0  0  0  0  0
   -0.0580   -1.5160    0.0000 O   0  5  0  0  0  0  0  0  0  0  0  0
   -1.5580    1.0830    0.0000 O   0  5  0  0  0  0  0  0  0  0  0  0
    0.4910    0.5330    0.0000 C   0  0  0  0  0  0  0  0  0  0  0  0
    1.7900   -0.2170    0.0000 C   0  0  0  0  0  0  0  0  0  0  0  0
  1  2  2  0  0  0  0
  1  3  1  0  0  0  0
  1  4  1  0  0  0  0
  1  5  1  0  0  0  0
  5  6  1  0  0  0  0
M  CHG  1   3  -1
M  CHG  1   4  -1
M  END
>  <name>
P(=O)([O-])([O-])[C;ether]C

>  <apo>
1

>  <freq>
1

>  <freq0>
0

>  <freq1>
1

>  <freqA>
0.99700278

>  <a_count>
11

$$$$

  MOE2015           2D

  3  2  0  0  0  0  0  0  0  0999 V2000
    0.2500    0.0670    0.0000 C   0  0  0  0  0  0  0  0  0  0  0  0
    1.5490   -0.6830    0.0000 C   0  0  0  0  0  0  0  0  0  0  0  0
   -1.0490   -0.6830    0.0000 C   0  0  0  0  0  0  0  0  0  0  0  0
  1  2  1  0  0  0  0
  1  3  1  0  0  0  0
M  END
>  <name>
[C;NaroC](C)C

>  <apo>
1

>  <freq>
1

>  <freq0>
0

>  <freq1>
1

>  <freqA>
0.99700278

>  <a_count>
11

$$$$

  MOE2015           2D

  3  2  0  0  0  0  0  0  0  0999 V2000
    0.2500    0.0670    0.0000 C   0  0  0  0  0  0  0  0  0  0  0  0
    1.5490   -0.6830    0.0000 C   0  0  0  0  0  0  0  0  0  0  0  0
   -1.0490   -0.6830    0.0000 C   0  0  0  0  0  0  0  0  0  0  0  0
  1  2  1  0  0  0  0
  1  3  1  0  0  0  0
M  END
>  <name>
[C;olefin](C)C

>  <apo>
1

>  <freq>
1

>  <freq0>
0

>  <freq1>
1

>  <freqA>
0.99700278

>  <a_count>
11

$$$$

  MOE2015           2D

  3  2  0  0  0  0  0  0  0  0999 V2000
    0.2500    0.0670    0.0000 N   0  3  0  0  0  0  0  0  0  0  0  0
    1.5490   -0.6830    0.0000 C   0  0  0  0  0  0  0  0  0  0  0  0
   -1.0490   -0.6830    0.0000 C   0  0  0  0  0  0  0  0  0  0  0  0
  1  2  1  0  0  0  0
  1  3  1  0  0  0  0
M  CHG  1   1   1
M  END
>  <name>
[N+;quatN](C)C

>  <apo>
1

>  <freq>
1

>  <freq0>
0

>  <freq1>
1

>  <freqA>
0.99700278

>  <a_count>
11

$$$$

  MOE2015           2D

  3  2  0  0  0  0  0  0  0  0999 V2000
   -0.0490    0.1830    0.0000 N   0  3  0  0  0  0  0  0  0  0  0  0
    1.2500    0.9330    0.0000 C   0  0  0  0  0  0  0  0  0  0  0  0
    2.5490    0.1830    0.0000 C   0  0  0  0  0  0  0  0  0  0  0  0
  1  2  1  0  0  0  0
  2  3  1  0  0  0  0
M  CHG  1   1   1
M  END
>  <name>
[N+]C[C;ether]

>  <apo>
1

>  <freq>
1

>  <freq0>
0

>  <freq1>
1

>  <freqA>
0.99700278

>  <a_count>
11

$$$$

  MOE2015           2D

  6  6  0  0  0  0  0  0  0  0999 V2000
   -2.0490    2.0490    0.0000 N   0  0  0  0  0  0  0  0  0  0  0  0
   -2.0490    0.5490    0.0000 C   0  0  0  0  0  0  0  0  0  0  0  0
   -0.7500   -0.2010    0.0000 C   0  0  0  0  0  0  0  0  0  0  0  0
    0.5490    0.5490    0.0000 C   0  0  0  0  0  0  0  0  0  0  0  0
    0.5490    2.0490    0.0000 C   0  0  0  0  0  0  0  0  0  0  0  0
   -0.7500    2.7990    0.0000 C   0  0  0  0  0  0  0  0  0  0  0  0
  1  2  1  0  0  0  0
  1  6  2  0  0  0  0
  2  3  2  0  0  0  0
  3  4  1  0  0  0  0
  4  5  2  0  0  0  0
  5  6  1  0  0  0  0
M  END
>  <name>
n1[c;biphenyl]cccc1

>  <apo>
1

>  <freq>
1

>  <freq0>
0

>  <freq1>
1

>  <freqA>
0.99700278

>  <a_count>
11

$$$$

  MOE2015           2D

  6  6  0  0  0  0  0  0  0  0999 V2000
   -2.0490    2.0490    0.0000 N   0  0  0  0  0  0  0  0  0  0  0  0
   -2.0490    0.5490    0.0000 C   0  0  0  0  0  0  0  0  0  0  0  0
   -0.7500   -0.2010    0.0000 C   0  0  0  0  0  0  0  0  0  0  0  0
    0.5490    0.5490    0.0000 C   0  0  0  0  0  0  0  0  0  0  0  0
    0.5490    2.0490    0.0000 C   0  0  0  0  0  0  0  0  0  0  0  0
   -0.7500    2.7990    0.0000 C   0  0  0  0  0  0  0  0  0  0  0  0
  1  2  1  0  0  0  0
  1  6  2  0  0  0  0
  2  3  2  0  0  0  0
  3  4  1  0  0  0  0
  4  5  2  0  0  0  0
  5  6  1  0  0  0  0
M  END
>  <name>
n1cc[c;biphenyl]cc1

>  <apo>
1

>  <freq>
1

>  <freq0>
0

>  <freq1>
1

>  <freqA>
0.99700278

>  <a_count>
11

$$$$
