5,6-Dihydronitidine
  -OEChem-01222104483D

 45 49  0     1  0  0  0  0  0999 V2000
   -5.4781   -1.5452    0.1691 O   0  0  0  0  0  0  0  0  0  0  0  0
   -6.1596    0.7528   -0.0641 O   0  0  0  0  0  0  0  0  0  0  0  0
    5.0547    1.8625    0.1173 O   0  0  0  0  0  0  0  0  0  0  0  0
    5.7317   -0.8031   -0.2596 O   0  0  0  0  0  0  0  0  0  0  0  0
   -0.2150   -1.6565    0.2176 N   0  0  1  0  0  0  0  0  0  0  0  0
   -0.6876   -0.3382    0.0062 C   0  0  0  0  0  0  0  0  0  0  0  0
    0.2677    0.7058   -0.1749 C   0  0  0  0  0  0  0  0  0  0  0  0
    0.9878   -2.0130   -0.5398 C   0  0  0  0  0  0  0  0  0  0  0  0
    1.7119    0.3656   -0.1819 C   0  0  0  0  0  0  0  0  0  0  0  0
    2.0779   -0.9885   -0.3465 C   0  0  0  0  0  0  0  0  0  0  0  0
   -2.0888   -0.0561   -0.0107 C   0  0  0  0  0  0  0  0  0  0  0  0
   -2.5157    1.2957   -0.1725 C   0  0  0  0  0  0  0  0  0  0  0  0
   -0.1995    2.0160   -0.3435 C   0  0  0  0  0  0  0  0  0  0  0  0
   -1.5636    2.3058   -0.3310 C   0  0  0  0  0  0  0  0  0  0  0  0
   -3.0864   -1.0572    0.0949 C   0  0  0  0  0  0  0  0  0  0  0  0
    2.7419    1.3069   -0.0199 C   0  0  0  0  0  0  0  0  0  0  0  0
    3.4253   -1.3715   -0.3844 C   0  0  0  0  0  0  0  0  0  0  0  0
   -0.3053   -2.1370    1.5953 C   0  0  0  0  0  0  0  0  0  0  0  0
   -3.8836    1.6236   -0.1888 C   0  0  0  0  0  0  0  0  0  0  0  0
   -4.4189   -0.6963    0.0715 C   0  0  0  0  0  0  0  0  0  0  0  0
   -4.8069    0.6097   -0.0625 C   0  0  0  0  0  0  0  0  0  0  0  0
    4.0848    0.9182   -0.0431 C   0  0  0  0  0  0  0  0  0  0  0  0
    4.4261   -0.4177   -0.2293 C   0  0  0  0  0  0  0  0  0  0  0  0
   -6.5800   -0.6186    0.0850 C   0  0  0  0  0  0  0  0  0  0  0  0
    5.4853    2.1280    1.4505 C   0  0  0  0  0  0  0  0  0  0  0  0
    5.9938   -2.1917   -0.4548 C   0  0  0  0  0  0  0  0  0  0  0  0
    0.7443   -2.0728   -1.6084 H   0  0  0  0  0  0  0  0  0  0  0  0
    1.3337   -3.0083   -0.2354 H   0  0  0  0  0  0  0  0  0  0  0  0
    0.4852    2.8458   -0.4978 H   0  0  0  0  0  0  0  0  0  0  0  0
   -1.8724    3.3414   -0.4637 H   0  0  0  0  0  0  0  0  0  0  0  0
   -2.8287   -2.1084    0.1868 H   0  0  0  0  0  0  0  0  0  0  0  0
    2.5183    2.3593    0.1364 H   0  0  0  0  0  0  0  0  0  0  0  0
    3.6242   -2.4270   -0.5365 H   0  0  0  0  0  0  0  0  0  0  0  0
    0.4334   -1.6362    2.2313 H   0  0  0  0  0  0  0  0  0  0  0  0
   -0.1098   -3.2142    1.6310 H   0  0  0  0  0  0  0  0  0  0  0  0
   -1.2953   -1.9756    2.0330 H   0  0  0  0  0  0  0  0  0  0  0  0
   -4.2171    2.6509   -0.3065 H   0  0  0  0  0  0  0  0  0  0  0  0
   -7.1817   -0.7046    0.9970 H   0  0  0  0  0  0  0  0  0  0  0  0
   -7.2027   -0.8906   -0.7750 H   0  0  0  0  0  0  0  0  0  0  0  0
    5.9053    1.2262    1.9071 H   0  0  0  0  0  0  0  0  0  0  0  0
    4.6530    2.5026    2.0548 H   0  0  0  0  0  0  0  0  0  0  0  0
    6.2633    2.8955    1.4129 H   0  0  0  0  0  0  0  0  0  0  0  0
    5.6372   -2.5364   -1.4314 H   0  0  0  0  0  0  0  0  0  0  0  0
    5.6020   -2.7964    0.3702 H   0  0  0  0  0  0  0  0  0  0  0  0
    7.0816   -2.3175   -0.4517 H   0  0  0  0  0  0  0  0  0  0  0  0
  1 20  1  0  0  0  0
  1 24  1  0  0  0  0
  2 21  1  0  0  0  0
  2 24  1  0  0  0  0
  3 22  1  0  0  0  0
  3 25  1  0  0  0  0
  4 23  1  0  0  0  0
  4 26  1  0  0  0  0
  5  6  1  0  0  0  0
  5  8  1  0  0  0  0
  5 18  1  0  0  0  0
  6  7  2  0  0  0  0
  6 11  1  0  0  0  0
  7  9  1  0  0  0  0
  7 13  1  0  0  0  0
  8 10  1  0  0  0  0
  8 27  1  0  0  0  0
  8 28  1  0  0  0  0
  9 10  1  0  0  0  0
  9 16  2  0  0  0  0
 10 17  2  0  0  0  0
 11 12  1  0  0  0  0
 11 15  2  0  0  0  0
 12 14  1  0  0  0  0
 12 19  2  0  0  0  0
 13 14  2  0  0  0  0
 13 29  1  0  0  0  0
 14 30  1  0  0  0  0
 15 20  1  0  0  0  0
 15 31  1  0  0  0  0
 16 22  1  0  0  0  0
 16 32  1  0  0  0  0
 17 23  1  0  0  0  0
 17 33  1  0  0  0  0
 18 34  1  0  0  0  0
 18 35  1  0  0  0  0
 18 36  1  0  0  0  0
 19 21  1  0  0  0  0
 19 37  1  0  0  0  0
 20 21  2  0  0  0  0
 22 23  2  0  0  0  0
 24 38  1  0  0  0  0
 24 39  1  0  0  0  0
 25 40  1  0  0  0  0
 25 41  1  0  0  0  0
 25 42  1  0  0  0  0
 26 43  1  0  0  0  0
 26 44  1  0  0  0  0
 26 45  1  0  0  0  0
M  END
> <PUBCHEM_COMPOUND_CID>
99641

> <PUBCHEM_CONFORMER_RMSD>
0.6

> <PUBCHEM_CONFORMER_DIVERSEORDER>
2
1

> <PUBCHEM_MMFF94_PARTIAL_CHARGES>
28
1 -0.36
10 -0.14
13 -0.15
14 -0.15
15 -0.15
16 -0.15
17 -0.15
18 0.37
19 -0.15
2 -0.36
20 0.08
21 0.08
22 0.08
23 0.08
24 0.56
25 0.28
26 0.28
29 0.15
3 -0.36
30 0.15
31 0.15
32 0.15
33 0.15
37 0.15
4 -0.36
5 -0.84
6 0.1
8 0.51

> <PUBCHEM_EFFECTIVE_ROTOR_COUNT>
3

> <PUBCHEM_PHARMACOPHORE_FEATURES>
10
1 1 acceptor
1 2 acceptor
1 3 acceptor
1 4 acceptor
1 5 cation
5 1 2 20 21 24 rings
6 11 12 15 19 20 21 rings
6 5 6 7 8 9 10 rings
6 6 7 11 12 13 14 rings
6 9 10 16 17 22 23 rings

> <PUBCHEM_HEAVY_ATOM_COUNT>
26

> <PUBCHEM_ATOM_DEF_STEREO_COUNT>
0

> <PUBCHEM_ATOM_UDEF_STEREO_COUNT>
0

> <PUBCHEM_BOND_DEF_STEREO_COUNT>
0

> <PUBCHEM_BOND_UDEF_STEREO_COUNT>
0

> <PUBCHEM_ISOTOPIC_ATOM_COUNT>
0

> <PUBCHEM_COMPONENT_COUNT>
1

> <PUBCHEM_CACTVS_TAUTO_COUNT>
1

> <PUBCHEM_CONFORMER_ID>
0001853900000002

> <PUBCHEM_MMFF94_ENERGY>
119.641

> <PUBCHEM_FEATURE_SELFOVERLAP>
50.976

> <PUBCHEM_SHAPE_FINGERPRINT>
10 15 18336818806260990296
10835480 77 18411129226188118533
10906281 52 18190481491509030573
11578080 2 16987136444293615402
11963148 33 18409163307692651623
12035758 1 18188499098172313297
12166972 35 17676494938387699228
12236239 1 17989208153230150047
12403259 226 18265049133723897524
12403259 415 18334850589646159964
12516196 113 18272932747858773153
12616971 3 17489577957639837044
12838862 33 18263343907448602989
13140716 1 17976254965467668200
13402501 40 18410012151916095497
13533116 47 18343584036681128378
13862211 1 18408604751394724159
14341114 176 18411141346083998605
14787075 74 18410011061247609857
14790565 3 18410298008134286757
15196674 1 18410575076083888829
15927050 60 17623007210848249876
16087824 20 18191587442549045061
17349148 13 17894636941325990701
17844677 252 18343027661658518624
1813 80 17312821584739035924
18222031 100 17240204322466541532
200 152 18060700563414730481
20028762 73 18342737394921079486
21033648 29 17749660814556125356
21130935 74 18343867727476478651
21236236 1 18340489967927004297
21267235 1 18408893919127197959
21279426 13 18337388244944319725
21521721 280 18059579130448020947
21781051 124 17605581974962835147
21792934 111 18341039740319401145
221357 26 18341333310324488988
22149856 69 18339378426232593225
22393880 68 18116147770835688765
23402539 116 18408602561098566487
23522609 53 18122660242817177484
23559900 14 18408887343653548100
2871803 45 18334011662337028399
3004659 81 18187366515370197388
335352 9 18409451370936989879
34797466 226 17131841996460865029
34934 24 18410569579322166119
350125 39 18411702054723809564
4073 2 18187370973056082355
4093350 32 16774082882505592212
4214541 1 18410857616655788949
4340502 62 18334290989798429650
474229 33 18409729573285621199
5104073 3 18411981321417495648
59755656 215 18261958453049915726
59755656 520 17385444323564609971
6138700 20 18334860468012898618
9709674 26 18409172147108619806

> <PUBCHEM_SHAPE_MULTIPOLES>
506.61
14.59
2.53
0.84
2.34
0.18
-0.27
-0.84
-0.52
-1.73
-0.24
-0.53
-0.07
1.41

> <PUBCHEM_SHAPE_SELFOVERLAP>
1145.051

> <PUBCHEM_SHAPE_VOLUME>
267.9

> <PUBCHEM_COORDINATE_TYPE>
2
5
10

$$$$
