d-Mannitol, 1-O-(16-hydroxyhexadecyl
  -OEChem-12152006342D

 75 74  0     1  0  0  0  0  0999 V2000
   17.2594    0.2500    0.0000 O   0  0  0  0  0  0  0  0  0  0  0  0
   19.8574   -1.2500    0.0000 O   0  0  0  0  0  0  0  0  0  0  0  0
   18.9914    1.2500    0.0000 O   0  0  0  0  0  0  0  0  0  0  0  0
   20.7235    1.2500    0.0000 O   0  0  0  0  0  0  0  0  0  0  0  0
   21.5895   -1.2500    0.0000 O   0  0  0  0  0  0  0  0  0  0  0  0
   23.3215   -0.2500    0.0000 O   0  0  0  0  0  0  0  0  0  0  0  0
    2.5369   -0.2500    0.0000 O   0  0  0  0  0  0  0  0  0  0  0  0
   10.3312    0.2500    0.0000 C   0  0  0  0  0  0  0  0  0  0  0  0
   11.1972   -0.2500    0.0000 C   0  0  0  0  0  0  0  0  0  0  0  0
    9.4651   -0.2500    0.0000 C   0  0  0  0  0  0  0  0  0  0  0  0
   12.0632    0.2500    0.0000 C   0  0  0  0  0  0  0  0  0  0  0  0
    8.5991    0.2500    0.0000 C   0  0  0  0  0  0  0  0  0  0  0  0
   12.9292   -0.2500    0.0000 C   0  0  0  0  0  0  0  0  0  0  0  0
    7.7331   -0.2500    0.0000 C   0  0  0  0  0  0  0  0  0  0  0  0
   13.7953    0.2500    0.0000 C   0  0  0  0  0  0  0  0  0  0  0  0
    6.8671    0.2500    0.0000 C   0  0  0  0  0  0  0  0  0  0  0  0
   14.6613   -0.2500    0.0000 C   0  0  0  0  0  0  0  0  0  0  0  0
    6.0010   -0.2500    0.0000 C   0  0  0  0  0  0  0  0  0  0  0  0
   19.8574   -0.2500    0.0000 C   0  0  3  0  0  0  0  0  0  0  0  0
   15.5273    0.2500    0.0000 C   0  0  0  0  0  0  0  0  0  0  0  0
   18.9914    0.2500    0.0000 C   0  0  3  0  0  0  0  0  0  0  0  0
   20.7235    0.2500    0.0000 C   0  0  3  0  0  0  0  0  0  0  0  0
    5.1350    0.2500    0.0000 C   0  0  0  0  0  0  0  0  0  0  0  0
   16.3933   -0.2500    0.0000 C   0  0  0  0  0  0  0  0  0  0  0  0
   18.1254   -0.2500    0.0000 C   0  0  0  0  0  0  0  0  0  0  0  0
   21.5895   -0.2500    0.0000 C   0  0  3  0  0  0  0  0  0  0  0  0
    4.2690   -0.2500    0.0000 C   0  0  0  0  0  0  0  0  0  0  0  0
   22.4555    0.2500    0.0000 C   0  0  0  0  0  0  0  0  0  0  0  0
    3.4030    0.2500    0.0000 C   0  0  0  0  0  0  0  0  0  0  0  0
   10.7297    0.7249    0.0000 H   0  0  0  0  0  0  0  0  0  0  0  0
    9.9326    0.7249    0.0000 H   0  0  0  0  0  0  0  0  0  0  0  0
   10.7987   -0.7249    0.0000 H   0  0  0  0  0  0  0  0  0  0  0  0
   11.5957   -0.7249    0.0000 H   0  0  0  0  0  0  0  0  0  0  0  0
    9.0666   -0.7249    0.0000 H   0  0  0  0  0  0  0  0  0  0  0  0
    9.8637   -0.7249    0.0000 H   0  0  0  0  0  0  0  0  0  0  0  0
   12.4617    0.7249    0.0000 H   0  0  0  0  0  0  0  0  0  0  0  0
   11.6647    0.7249    0.0000 H   0  0  0  0  0  0  0  0  0  0  0  0
    8.9976    0.7249    0.0000 H   0  0  0  0  0  0  0  0  0  0  0  0
    8.2006    0.7249    0.0000 H   0  0  0  0  0  0  0  0  0  0  0  0
   12.5307   -0.7249    0.0000 H   0  0  0  0  0  0  0  0  0  0  0  0
   13.3278   -0.7249    0.0000 H   0  0  0  0  0  0  0  0  0  0  0  0
    7.3346   -0.7249    0.0000 H   0  0  0  0  0  0  0  0  0  0  0  0
    8.1316   -0.7249    0.0000 H   0  0  0  0  0  0  0  0  0  0  0  0
   14.1938    0.7249    0.0000 H   0  0  0  0  0  0  0  0  0  0  0  0
   13.3967    0.7249    0.0000 H   0  0  0  0  0  0  0  0  0  0  0  0
    7.2656    0.7249    0.0000 H   0  0  0  0  0  0  0  0  0  0  0  0
    6.4685    0.7249    0.0000 H   0  0  0  0  0  0  0  0  0  0  0  0
   14.2628   -0.7249    0.0000 H   0  0  0  0  0  0  0  0  0  0  0  0
   15.0598   -0.7249    0.0000 H   0  0  0  0  0  0  0  0  0  0  0  0
   20.3944   -0.5600    0.0000 H   0  0  0  0  0  0  0  0  0  0  0  0
    5.6025   -0.7249    0.0000 H   0  0  0  0  0  0  0  0  0  0  0  0
    6.3996   -0.7249    0.0000 H   0  0  0  0  0  0  0  0  0  0  0  0
   15.9258    0.7249    0.0000 H   0  0  0  0  0  0  0  0  0  0  0  0
   15.1288    0.7249    0.0000 H   0  0  0  0  0  0  0  0  0  0  0  0
   19.5284    0.5600    0.0000 H   0  0  0  0  0  0  0  0  0  0  0  0
   20.1865    0.5600    0.0000 H   0  0  0  0  0  0  0  0  0  0  0  0
    5.5335    0.7249    0.0000 H   0  0  0  0  0  0  0  0  0  0  0  0
    4.7365    0.7249    0.0000 H   0  0  0  0  0  0  0  0  0  0  0  0
   15.9948   -0.7249    0.0000 H   0  0  0  0  0  0  0  0  0  0  0  0
   16.7919   -0.7249    0.0000 H   0  0  0  0  0  0  0  0  0  0  0  0
   17.7269   -0.7249    0.0000 H   0  0  0  0  0  0  0  0  0  0  0  0
   18.5239   -0.7249    0.0000 H   0  0  0  0  0  0  0  0  0  0  0  0
   22.1264   -0.5600    0.0000 H   0  0  0  0  0  0  0  0  0  0  0  0
    3.8705   -0.7249    0.0000 H   0  0  0  0  0  0  0  0  0  0  0  0
    4.6675   -0.7249    0.0000 H   0  0  0  0  0  0  0  0  0  0  0  0
   22.8540    0.7249    0.0000 H   0  0  0  0  0  0  0  0  0  0  0  0
   22.0570    0.7249    0.0000 H   0  0  0  0  0  0  0  0  0  0  0  0
   19.3205   -1.5600    0.0000 H   0  0  0  0  0  0  0  0  0  0  0  0
   18.4545    1.5600    0.0000 H   0  0  0  0  0  0  0  0  0  0  0  0
   21.2604    1.5600    0.0000 H   0  0  0  0  0  0  0  0  0  0  0  0
    3.8015    0.7249    0.0000 H   0  0  0  0  0  0  0  0  0  0  0  0
    3.0044    0.7249    0.0000 H   0  0  0  0  0  0  0  0  0  0  0  0
   22.1264   -1.5600    0.0000 H   0  0  0  0  0  0  0  0  0  0  0  0
   23.8585    0.0600    0.0000 H   0  0  0  0  0  0  0  0  0  0  0  0
    2.0000    0.0600    0.0000 H   0  0  0  0  0  0  0  0  0  0  0  0
  1 24  1  0  0  0  0
  1 25  1  0  0  0  0
  2 19  1  0  0  0  0
  2 68  1  0  0  0  0
  3 21  1  0  0  0  0
  3 69  1  0  0  0  0
  4 22  1  0  0  0  0
  4 70  1  0  0  0  0
  5 26  1  0  0  0  0
  5 73  1  0  0  0  0
  6 28  1  0  0  0  0
  6 74  1  0  0  0  0
  7 29  1  0  0  0  0
  7 75  1  0  0  0  0
  8  9  1  0  0  0  0
  8 10  1  0  0  0  0
  8 30  1  0  0  0  0
  8 31  1  0  0  0  0
  9 11  1  0  0  0  0
  9 32  1  0  0  0  0
  9 33  1  0  0  0  0
 10 12  1  0  0  0  0
 10 34  1  0  0  0  0
 10 35  1  0  0  0  0
 11 13  1  0  0  0  0
 11 36  1  0  0  0  0
 11 37  1  0  0  0  0
 12 14  1  0  0  0  0
 12 38  1  0  0  0  0
 12 39  1  0  0  0  0
 13 15  1  0  0  0  0
 13 40  1  0  0  0  0
 13 41  1  0  0  0  0
 14 16  1  0  0  0  0
 14 42  1  0  0  0  0
 14 43  1  0  0  0  0
 15 17  1  0  0  0  0
 15 44  1  0  0  0  0
 15 45  1  0  0  0  0
 16 18  1  0  0  0  0
 16 46  1  0  0  0  0
 16 47  1  0  0  0  0
 17 20  1  0  0  0  0
 17 48  1  0  0  0  0
 17 49  1  0  0  0  0
 18 23  1  0  0  0  0
 18 51  1  0  0  0  0
 18 52  1  0  0  0  0
 19 21  1  0  0  0  0
 19 22  1  0  0  0  0
 19 50  1  0  0  0  0
 20 24  1  0  0  0  0
 20 53  1  0  0  0  0
 20 54  1  0  0  0  0
 21 25  1  0  0  0  0
 21 55  1  0  0  0  0
 22 26  1  0  0  0  0
 22 56  1  0  0  0  0
 23 27  1  0  0  0  0
 23 57  1  0  0  0  0
 23 58  1  0  0  0  0
 24 59  1  0  0  0  0
 24 60  1  0  0  0  0
 25 61  1  0  0  0  0
 25 62  1  0  0  0  0
 26 28  1  0  0  0  0
 26 63  1  0  0  0  0
 27 29  1  0  0  0  0
 27 64  1  0  0  0  0
 27 65  1  0  0  0  0
 28 66  1  0  0  0  0
 28 67  1  0  0  0  0
 29 71  1  0  0  0  0
 29 72  1  0  0  0  0
M  END
> <PUBCHEM_COMPOUND_CID>
552198

> <PUBCHEM_COMPOUND_CANONICALIZED>
1

> <PUBCHEM_CACTVS_COMPLEXITY>
330

> <PUBCHEM_CACTVS_HBOND_ACCEPTOR>
7

> <PUBCHEM_CACTVS_HBOND_DONOR>
6

> <PUBCHEM_CACTVS_ROTATABLE_BOND>
22

> <PUBCHEM_CACTVS_SUBSKEYS>
AAADcfB4OAAAAAAAAAAAAAAAAAAAAAAAAAAAAAAAAAAAAAAAAAAAGgAACAAACBSggAIAAAAABgAAAAAAAAAAAAAAAAAAAAAAAAABEAIAAAACQAAFAAADAAHA4KwAAAAAAAAAAAAAAAAAAAAAAAAAAAAAAA==

> <PUBCHEM_IUPAC_OPENEYE_NAME>
6-(16-hydroxyhexadecoxy)hexane-1,2,3,4,5-pentol

> <PUBCHEM_IUPAC_CAS_NAME>
6-(16-hydroxyhexadecoxy)hexane-1,2,3,4,5-pentol

> <PUBCHEM_IUPAC_NAME_MARKUP>
6-(16-hydroxyhexadecoxy)hexane-1,2,3,4,5-pentol

> <PUBCHEM_IUPAC_NAME>
6-(16-hydroxyhexadecoxy)hexane-1,2,3,4,5-pentol

> <PUBCHEM_IUPAC_SYSTEMATIC_NAME>
6-(16-oxidanylhexadecoxy)hexane-1,2,3,4,5-pentol

> <PUBCHEM_IUPAC_TRADITIONAL_NAME>
6-(16-hydroxyhexadecoxy)hexane-1,2,3,4,5-pentol

> <PUBCHEM_IUPAC_INCHI>
InChI=1S/C22H46O7/c23-15-13-11-9-7-5-3-1-2-4-6-8-10-12-14-16-29-18-20(26)22(28)21(27)19(25)17-24/h19-28H,1-18H2

> <PUBCHEM_IUPAC_INCHIKEY>
ZYYZQTYIAMWUEO-UHFFFAOYSA-N

> <PUBCHEM_XLOGP3_AA>
3.1

> <PUBCHEM_EXACT_MASS>
422.324354

> <PUBCHEM_MOLECULAR_FORMULA>
C22H46O7

> <PUBCHEM_MOLECULAR_WEIGHT>
422.6

> <PUBCHEM_OPENEYE_CAN_SMILES>
C(CCCCCCCCOCC(C(C(C(CO)O)O)O)O)CCCCCCCO

> <PUBCHEM_OPENEYE_ISO_SMILES>
C(CCCCCCCCOCC(C(C(C(CO)O)O)O)O)CCCCCCCO

> <PUBCHEM_CACTVS_TPSA>
131

> <PUBCHEM_MONOISOTOPIC_WEIGHT>
422.324354

> <PUBCHEM_TOTAL_CHARGE>
0

> <PUBCHEM_HEAVY_ATOM_COUNT>
29

> <PUBCHEM_ATOM_DEF_STEREO_COUNT>
0

> <PUBCHEM_ATOM_UDEF_STEREO_COUNT>
4

> <PUBCHEM_BOND_DEF_STEREO_COUNT>
0

> <PUBCHEM_BOND_UDEF_STEREO_COUNT>
0

> <PUBCHEM_ISOTOPIC_ATOM_COUNT>
0

> <PUBCHEM_COMPONENT_COUNT>
1

> <PUBCHEM_CACTVS_TAUTO_COUNT>
-1

> <PUBCHEM_COORDINATE_TYPE>
1
5
255

> <PUBCHEM_BONDANNOTATIONS>
19  2  3
21  3  3
22  4  3
26  5  3

$$$$
