@<TRIPOS>MOLECULE
J01_19
38 42 1 0 0 
SMALL
USER_CHARGES


@<TRIPOS>ATOM
  1 C        1.2058     0.7097    -0.0143 C.ar  1 <1>  -0.1435 
  2 C       -0.0107     1.3701     0.2383 C.ar  1 <1>  -0.1500 
  3 C       -1.1778     0.6498     0.1166 C.ar  1 <1>   0.0825 
  4 C       -1.1748    -0.6770    -0.2371 C.ar  1 <1>   0.0825 
  5 C       -0.0072    -1.3670    -0.4887 C.ar  1 <1>  -0.1500 
  6 C        1.2127    -0.6843    -0.3662 C.ar  1 <1>  -0.1435 
  7 H       -0.0408     2.4167     0.5229 H     1 <1>   0.1500 
  8 H       -0.0621    -2.4085    -0.7818 H     1 <1>   0.1500 
  9 O       -2.4344     1.1309     0.3190 O.3   1 <1>  -0.3625 
 10 C       -3.2211    -0.0467     0.0443 C.3   1 <1>   0.5600 
 11 H1      -3.9057     0.1748    -0.7827 H     1 <1>   0.0000 
 12 O       -2.4297    -1.1982    -0.3079 O.3   1 <1>  -0.3625 
 13 H2      -3.8136    -0.2871     0.9346 H     1 <1>   0.0000 
 14 C        2.5485    -1.3631    -0.6882 C.3   1 <1>   0.1435 
 15 H        2.6788    -1.2516    -1.7759 H     1 <1>   0.0000 
 16 C        3.6344    -0.5943     0.0703 C.3   1 <1>   0.4082 
 17 N        3.6664     0.8008    -0.3642 N.3   1 <1>  -0.8100 
 18 C        2.5015     1.5002     0.1699 C.3   1 <1>   0.4135 
 19 H1       2.4067     2.4655    -0.3409 H     1 <1>   0.0000 
 20 H2       2.6160     1.6919     1.2451 H     1 <1>   0.0000 
 21 C        5.0179    -1.0661    -0.1986 C.2   1 <1>  -0.2764 
 22 C        5.9317     0.1236    -0.1884 C.3   1 <1>   0.1382 
 23 H2       6.6974     0.0471     0.5889 H     1 <1>   0.0000 
 24 C        4.9687     1.2932     0.0981 C.3   1 <1>   0.2700 
 25 H        3.4706    -0.6588     1.1592 H     1 <1>   0.0000 
 26 C        5.2842    -2.3356    -0.5262 C.2   1 <1>  -0.2882 
 27 H        6.3015    -2.6337    -0.7592 H     1 <1>   0.1500 
 28 C        4.1888    -3.3585    -0.6413 C.3   1 <1>   0.4182 
 29 O        4.1668    -3.8258    -2.0051 O.3   1 <1>  -0.6800 
 30 H        5.0752    -4.0912    -2.2341 H     1 <1>   0.4000 
 31 C        2.7372    -2.8620    -0.3362 C.3   1 <1>   0.2800 
 32 O        1.8583    -3.6839    -1.1210 O.3   1 <1>  -0.6800 
 33 H        2.4120    -3.9388    -1.8961 H     1 <1>   0.4000 
 34 H2       2.5016    -3.0247     0.7225 H     1 <1>   0.0000 
 35 H3       4.4110    -4.2284    -0.0136 H     1 <1>   0.0000 
 36 H1       6.4049     0.2462    -1.1686 H     1 <1>   0.0000 
 37 H1       5.2724     2.2007    -0.4332 H     1 <1>   0.0000 
 38 H2       4.9637     1.5079     1.1749 H     1 <1>   0.0000 
@<TRIPOS>BOND
  1   1   2  ar  
  2   1   6  ar  
  3   1  18  1   
  4   2   3  ar  
  5   2   7  1   
  6   3   4  ar  
  7   3   9  1   
  8   4   5  ar  
  9   4  12  1   
 10   5   6  ar  
 11   5   8  1   
 12   6  14  1   
 13   9  10  1   
 14  10  11  1   
 15  10  12  1   
 16  10  13  1   
 17  14  15  1   
 18  14  16  1   
 19  14  31  1   
 20  16  17  1   
 21  16  21  1   
 22  16  25  1   
 23  17  18  1   
 24  17  24  1   
 25  18  19  1   
 26  18  20  1   
 27  21  22  1   
 28  21  26  2   
 29  22  23  1   
 30  22  24  1   
 31  22  36  1   
 32  24  37  1   
 33  24  38  1   
 34  26  27  1   
 35  26  28  1   
 36  28  29  1   
 37  28  31  1   
 38  28  35  1   
 39  29  30  1   
 40  31  32  1   
 41  31  34  1   
 42  32  33  1   
@<TRIPOS>SUBSTRUCTURE
  1 <1>   0 RESIDUE 1 * * 1
# MOE 2007.09 (io_trps.svl 2007.09)
