@<TRIPOS>MOLECULE
J01_12
35 38 1 0 0 
SMALL
USER_CHARGES


@<TRIPOS>ATOM
  1 C        1.2990     0.8253     0.2269 C.ar  1 <1>   0.0000 
  2 C        0.0203     1.3866     0.3993 C.ar  1 <1>  -0.1500 
  3 H       -0.0958     2.4421     0.6321 H     1 <1>   0.1500 
  4 C       -1.1052     0.5603     0.2656 C.ar  1 <1>  -0.1500 
  5 H       -2.0905     0.9985     0.3996 H     1 <1>   0.1500 
  6 C       -0.9569    -0.7950    -0.0334 C.ar  1 <1>   0.0825 
  7 O       -2.0489    -1.6078    -0.1655 O.3   1 <1>  -0.5325 
  8 H       -2.8524    -1.0817    -0.0197 H     1 <1>   0.4500 
  9 C        0.2963    -1.3819    -0.2103 C.ar  1 <1>  -0.1500 
 10 H        0.4120    -2.4330    -0.4420 H     1 <1>   0.1500 
 11 C        1.3944    -0.5367    -0.0714 C.ar  1 <1>   0.1400 
 12 O        2.7044    -0.9102    -0.2045 O.3   1 <1>  -0.2800 
 13 C        3.4266     0.2112     0.0091 C.2   1 <1>   0.0870 
 14 C        2.6341     1.2972     0.2757 C.2   1 <1>  -0.0860 
 15 C        4.8599     0.2166    -0.0469 C.ar  1 <1>   0.0530 
 16 C        5.4543     1.4609     0.2009 C.ar  1 <1>   0.0825 
 17 O        4.6526     2.6123     0.4825 O.3   1 <1>  -0.2325 
 18 C        3.2317     2.5873     0.5308 C.2   1 <1>   0.8060 
 19 O        2.5808     3.5974     0.7730 O.2   1 <1>  -0.5700 
 20 C        5.6616    -0.8887    -0.3240 C.ar  1 <1>  -0.1500 
 21 H        5.1974    -1.8531    -0.5218 H     1 <1>   0.1500 
 22 C        7.0653    -0.7570    -0.3555 C.ar  1 <1>  -0.1435 
 23 C        7.9026    -1.9733    -0.6877 C.3   1 <1>   0.2817 
 24 H1       7.2682    -2.7503    -1.1329 H     1 <1>   0.0000 
 25 C        8.5816    -2.5581     0.5180 C.2   1 <1>  -0.2882 
 26 H        7.9497    -2.8008     1.3707 H     1 <1>   0.1500 
 27 C        9.8948    -2.8079     0.5980 C.2   1 <1>  -0.3000 
 28 H1      10.3209    -3.2423     1.4982 H     1 <1>   0.1500 
 29 H2      10.5730    -2.6098    -0.2264 H     1 <1>   0.1500 
 30 H3       8.6266    -1.7037    -1.4672 H     1 <1>   0.0000 
 31 C        7.6293     0.5055    -0.0842 C.ar  1 <1>   0.0825 
 32 O        8.9795     0.7229    -0.0674 O.3   1 <1>  -0.5325 
 33 H        9.4386    -0.1305    -0.0099 H     1 <1>   0.4500 
 34 C        6.8328     1.6190     0.1847 C.ar  1 <1>  -0.1500 
 35 H        7.2859     2.5848     0.3833 H     1 <1>   0.1500 
@<TRIPOS>BOND
  1   1   2  ar  
  2   1  11  ar  
  3   1  14  1   
  4   2   3  1   
  5   2   4  ar  
  6   4   5  1   
  7   4   6  ar  
  8   6   7  1   
  9   6   9  ar  
 10   7   8  1   
 11   9  10  1   
 12   9  11  ar  
 13  11  12  1   
 14  12  13  1   
 15  13  14  2   
 16  13  15  1   
 17  14  18  1   
 18  15  16  ar  
 19  15  20  ar  
 20  16  17  1   
 21  16  34  ar  
 22  17  18  1   
 23  18  19  2   
 24  20  21  1   
 25  20  22  ar  
 26  22  23  1   
 27  22  31  ar  
 28  23  24  1   
 29  23  25  1   
 30  23  30  1   
 31  25  26  1   
 32  25  27  2   
 33  27  28  1   
 34  27  29  1   
 35  31  32  1   
 36  31  34  ar  
 37  32  33  1   
 38  34  35  1   
@<TRIPOS>SUBSTRUCTURE
  1 <1>   0 RESIDUE 1 * * 1
# MOE 2007.09 (io_trps.svl 2007.09)
