@<TRIPOS>MOLECULE
J01_16
38 39 1 0 0 
SMALL
USER_CHARGES


@<TRIPOS>ATOM
  1 C        1.2699     0.8319     0.1276 C.ar  1 <1>   0.0862 
  2 C        2.5261     1.5982     0.0419 C.2   1 <1>   0.4694 
  3 O        2.8176     2.3898     0.9306 O.2   1 <1>  -0.5700 
  4 C        3.3701     1.3848    -1.1568 C.2   1 <1>  -0.1356 
  5 H        2.9709     0.7828    -1.9662 H     1 <1>   0.1500 
  6 C        4.5976     1.9140    -1.1975 C.2   1 <1>  -0.1784 
  7 C        5.5236     1.7216    -2.3184 C.ar  1 <1>   0.0284 
  8 H2       4.9805     2.4929    -0.3590 H     1 <1>   0.1500 
  9 C        0.1122     1.5400     0.4845 C.ar  1 <1>  -0.1500 
 10 H        0.1843     2.6066     0.6979 H     1 <1>   0.1500 
 11 C       -1.1393     0.8992     0.5617 C.ar  1 <1>  -0.1435 
 12 C       -2.3487     1.7210     0.9439 C.3   1 <1>   0.2817 
 13 C       -3.0878     2.2479    -0.2531 C.2   1 <1>  -0.2882 
 14 H       -3.4696     1.5231    -0.9690 H     1 <1>   0.1500 
 15 C       -3.3067     3.5486    -0.4858 C.2   1 <1>  -0.3000 
 16 H1      -3.8511     3.8700    -1.3686 H     1 <1>   0.1500 
 17 H2      -2.9522     4.3192     0.1915 H     1 <1>   0.1500 
 18 H2      -2.0342     2.5438     1.5998 H     1 <1>   0.0000 
 19 H3      -3.0303     1.1205     1.5578 H     1 <1>   0.0000 
 20 C       -1.1991    -0.4668     0.2532 C.ar  1 <1>   0.0825 
 21 O       -2.3576    -1.1922     0.2640 O.3   1 <1>  -0.5325 
 22 H       -3.1168    -0.6142     0.4330 H     1 <1>   0.4500 
 23 C       -0.0457    -1.1795    -0.0811 C.ar  1 <1>  -0.1500 
 24 H       -0.1116    -2.2434    -0.2933 H     1 <1>   0.1500 
 25 C        1.1894    -0.5375    -0.1236 C.ar  1 <1>   0.0825 
 26 O        2.2695    -1.3296    -0.3971 O.3   1 <1>  -0.5325 
 27 H        3.0611    -0.9664     0.0364 H     1 <1>   0.4500 
 28 C        6.8858     1.5313    -2.0406 C.ar  1 <1>  -0.1500 
 29 H        7.2409     1.5107    -1.0123 H     1 <1>   0.1500 
 30 C        7.8069     1.3513    -3.0762 C.ar  1 <1>  -0.1500 
 31 H        8.8535     1.1963    -2.8333 H     1 <1>   0.1500 
 32 C        7.3649     1.3746    -4.3950 C.ar  1 <1>   0.0825 
 33 O        8.2276     1.1976    -5.4368 O.3   1 <1>  -0.5325 
 34 H        9.1157     1.0419    -5.0762 H     1 <1>   0.4500 
 35 C        6.0233     1.5835    -4.6917 C.ar  1 <1>  -0.1500 
 36 H        5.6931     1.6103    -5.7261 H     1 <1>   0.1500 
 37 C        5.1038     1.7618    -3.6551 C.ar  1 <1>  -0.1500 
 38 H        4.0619     1.9399    -3.9083 H     1 <1>   0.1500 
@<TRIPOS>BOND
  1   1   2  1   
  2   1   9  ar  
  3   1  25  ar  
  4   2   3  2   
  5   2   4  1   
  6   4   5  1   
  7   4   6  2   
  8   6   7  1   
  9   6   8  1   
 10   7  28  ar  
 11   7  37  ar  
 12   9  10  1   
 13   9  11  ar  
 14  11  12  1   
 15  11  20  ar  
 16  12  13  1   
 17  12  18  1   
 18  12  19  1   
 19  13  14  1   
 20  13  15  2   
 21  15  16  1   
 22  15  17  1   
 23  20  21  1   
 24  20  23  ar  
 25  21  22  1   
 26  23  24  1   
 27  23  25  ar  
 28  25  26  1   
 29  26  27  1   
 30  28  29  1   
 31  28  30  ar  
 32  30  31  1   
 33  30  32  ar  
 34  32  33  1   
 35  32  35  ar  
 36  33  34  1   
 37  35  36  1   
 38  35  37  ar  
 39  37  38  1   
@<TRIPOS>SUBSTRUCTURE
  1 <1>   0 RESIDUE 1 * * 1
# MOE 2007.09 (io_trps.svl 2007.09)
