@<TRIPOS>MOLECULE
J01_13
46 48 1 0 0 
SMALL
USER_CHARGES


@<TRIPOS>ATOM
  1 C        1.2394     0.6143    -0.2374 C.ar  1 <1>   0.0825 
  2 C        0.0949     1.2974    -0.6423 C.ar  1 <1>  -0.1500 
  3 H        0.1980     2.2452    -1.1625 H     1 <1>   0.1500 
  4 C       -1.1644     0.7532    -0.3733 C.ar  1 <1>   0.0825 
  5 O       -2.2889     1.4247    -0.7707 O.3   1 <1>  -0.5325 
  6 H       -2.0295     2.2434    -1.2251 H     1 <1>   0.4500 
  7 C       -1.3069    -0.4709     0.3016 C.ar  1 <1>  -0.1435 
  8 C       -2.6730    -1.0609     0.5684 C.3   1 <1>   0.2817 
  9 C       -3.1164    -2.0046    -0.5152 C.2   1 <1>  -0.2882 
 10 H       -2.5333    -2.9147    -0.6390 H     1 <1>   0.1500 
 11 C       -4.1794    -1.8012    -1.3043 C.2   1 <1>  -0.3000 
 12 H1      -4.4528    -2.5260    -2.0642 H     1 <1>   0.1500 
 13 H2      -4.7902    -0.9087    -1.2137 H     1 <1>   0.1500 
 14 H2      -3.4057    -0.2569     0.7132 H     1 <1>   0.0000 
 15 H3      -2.6654    -1.5995     1.5244 H     1 <1>   0.0000 
 16 C       -0.1393    -1.1432     0.6925 C.ar  1 <1>   0.0825 
 17 O       -0.2541    -2.3487     1.3431 O.3   1 <1>  -0.5325 
 18 H        0.6628    -2.6636     1.5472 H     1 <1>   0.4500 
 19 C        1.1230    -0.5977     0.4255 C.ar  1 <1>   0.0862 
 20 C        2.3427    -1.2908     0.8424 C.2   1 <1>   0.4694 
 21 O        2.2366    -2.3668     1.4273 O.2   1 <1>  -0.5700 
 22 C        3.6373    -0.6413     0.5368 C.2   1 <1>   0.0911 
 23 O        4.7845    -1.2804     0.9665 O.3   1 <1>  -0.5267 
 24 H        5.5567    -0.7184     0.7871 H     1 <1>   0.4500 
 25 C        3.6032     0.5309    -0.1236 C.2   1 <1>   0.0483 
 26 C        4.8229     1.2673    -0.4760 C.ar  1 <1>   0.0284 
 27 O        2.4503     1.1880    -0.5221 O.3   1 <1>  -0.1592 
 28 C        5.7087     0.7702    -1.4493 C.ar  1 <1>  -0.1500 
 29 H        5.4705    -0.1628    -1.9611 H     1 <1>   0.1500 
 30 C        6.9012     1.4485    -1.7774 C.ar  1 <1>  -0.1435 
 31 C        7.8158     0.8395    -2.8133 C.3   1 <1>   0.2817 
 32 C        8.8036    -0.1122    -2.2014 C.2   1 <1>  -0.2882 
 33 H        9.5029     0.2903    -1.4714 H     1 <1>   0.1500 
 34 C        8.8768    -1.4147    -2.5041 C.2   1 <1>  -0.3000 
 35 H1       9.6165    -2.0528    -2.0298 H     1 <1>   0.1500 
 36 H2       8.2113    -1.8737    -3.2283 H     1 <1>   0.1500 
 37 H2       8.3533     1.6241    -3.3578 H     1 <1>   0.0000 
 38 H3       7.2082     0.3351    -3.5765 H     1 <1>   0.0000 
 39 C        7.1851     2.6335    -1.0929 C.ar  1 <1>   0.0825 
 40 O        8.3203     3.3798    -1.2761 O.3   1 <1>  -0.5325 
 41 H        8.9343     2.8976    -1.8529 H     1 <1>   0.4500 
 42 C        6.2914     3.1328    -0.1422 C.ar  1 <1>   0.0825 
 43 O        6.5896     4.2981     0.5073 O.3   1 <1>  -0.5325 
 44 H        7.4532     4.5615     0.1284 H     1 <1>   0.4500 
 45 C        5.1159     2.4689     0.1717 C.ar  1 <1>  -0.1500 
 46 H        4.4486     2.8829     0.9225 H     1 <1>   0.1500 
@<TRIPOS>BOND
  1   1   2  ar  
  2   1  19  ar  
  3   1  27  1   
  4   2   3  1   
  5   2   4  ar  
  6   4   5  1   
  7   4   7  ar  
  8   5   6  1   
  9   7   8  1   
 10   7  16  ar  
 11   8   9  1   
 12   8  14  1   
 13   8  15  1   
 14   9  10  1   
 15   9  11  2   
 16  11  12  1   
 17  11  13  1   
 18  16  17  1   
 19  16  19  ar  
 20  17  18  1   
 21  19  20  1   
 22  20  21  2   
 23  20  22  1   
 24  22  23  1   
 25  22  25  2   
 26  23  24  1   
 27  25  26  1   
 28  25  27  1   
 29  26  28  ar  
 30  26  45  ar  
 31  28  29  1   
 32  28  30  ar  
 33  30  31  1   
 34  30  39  ar  
 35  31  32  1   
 36  31  37  1   
 37  31  38  1   
 38  32  33  1   
 39  32  34  2   
 40  34  35  1   
 41  34  36  1   
 42  39  40  1   
 43  39  42  ar  
 44  40  41  1   
 45  42  43  1   
 46  42  45  ar  
 47  43  44  1   
 48  45  46  1   
@<TRIPOS>SUBSTRUCTURE
  1 <1>   0 RESIDUE 1 * * 1
# MOE 2007.09 (io_trps.svl 2007.09)
