@<TRIPOS>MOLECULE
J01_07
79 81 1 0 0 
SMALL
USER_CHARGES


@<TRIPOS>ATOM
  1 C        1.4734    -0.3065    -0.1897 C.ar  1 <1>   0.0825 
  2 O        2.0632     0.3127    -1.2615 O.3   1 <1>  -0.3625 
  3 C        1.2346     1.1481    -2.0610 C.3   1 <1>   0.2800 
  4 H1       1.8180     1.4585    -2.9332 H     1 <1>   0.0000 
  5 H2       0.9476     2.0524    -1.5149 H     1 <1>   0.0000 
  6 H3       0.3548     0.6071    -2.4256 H     1 <1>   0.0000 
  7 C        0.2070     0.0077     0.3076 C.ar  1 <1>  -0.1500 
  8 H       -0.3933     0.8091    -0.1100 H     1 <1>   0.1500 
  9 C       -0.3557    -0.7699     1.3215 C.ar  1 <1>  -0.1500 
 10 H       -1.3788    -0.5837     1.6378 H     1 <1>   0.1500 
 11 O       -0.3683    -2.6333     2.7123 O.3   1 <1>  -0.3625 
 12 C        0.3568    -1.8280     1.8836 C.ar  1 <1>   0.0825 
 13 C        1.6777    -2.0372     1.5064 C.ar  1 <1>  -0.1500 
 14 H        2.2852    -2.7939     1.9893 H     1 <1>   0.1500 
 15 C        2.2130    -1.3458     0.4088 C.ar  1 <1>  -0.1435 
 16 C        3.4802    -1.8843    -0.2272 C.3   1 <1>   0.1435 
 17 C        3.1731    -3.0926    -1.1383 C.3   1 <1>   0.3001 
 18 H1       4.0837    -3.3790    -1.6752 H     1 <1>   0.0000 
 19 N        2.1750    -2.7660    -2.1494 N.am  1 <1>  -0.7301 
 20 C        1.0190    -3.3612    -2.5546 C.2   1 <1>   0.5690 
 21 C        0.5460    -4.7423    -2.0619 C.3   1 <1>   0.3611 
 22 H1      -0.5357    -4.7792    -2.2433 H     1 <1>   0.0000 
 23 N        0.7421    -5.0359    -0.6551 N.am  1 <1>  -0.7301 
 24 H1       1.5050    -5.6661    -0.3843 H     1 <1>   0.3700 
 25 C       -0.0782    -4.5776     0.3635 C.2   1 <1>   0.5690 
 26 O       -1.1750    -4.0631     0.1808 O.2   1 <1>  -0.5700 
 27 C        0.5425    -4.8536     1.7485 C.3   1 <1>   0.3611 
 28 H        1.6302    -4.7701     1.6502 H     1 <1>   0.0000 
 29 H1       0.8434    -6.8093    -2.6615 H     1 <1>   0.0000 
 30 C        0.9159    -7.2953     1.5950 C.2   1 <1>   0.5690 
 31 C        0.6388    -8.7079     2.1514 C.3   1 <1>   0.3611 
 32 N        1.9581    -9.3567     2.2714 N.am  1 <1>  -0.7301 
 33 C        2.9182    -9.2257     3.2340 C.2   1 <1>   0.5690 
 34 C        2.7186    -8.2105     4.3668 C.3   1 <1>   0.3310 
 35 C        2.5347    -8.9705     5.6772 C.3   1 <1>   0.0000 
 36 H1       2.3862    -8.2800     6.5146 H     1 <1>   0.0000 
 37 H2       3.4002    -9.6028     5.9072 H     1 <1>   0.0000 
 38 H3       1.6580    -9.6255     5.6213 H     1 <1>   0.0000 
 39 H2       1.8381    -7.5891     4.2113 H     1 <1>   0.0000 
 40 N        3.9081    -7.3413     4.4722 N.3   1 <1>  -0.9000 
 41 H1       4.7380    -7.9410     4.4775 H     1 <1>   0.3600 
 42 C        4.0122    -6.3975     3.3672 C.3   1 <1>   0.2700 
 43 H1       4.9057    -5.7802     3.5034 H     1 <1>   0.0000 
 44 H2       3.1522    -5.7221     3.3481 H     1 <1>   0.0000 
 45 H3       4.1012    -6.8992     2.3991 H     1 <1>   0.0000 
 46 O        3.9422    -9.9113     3.1584 O.2   1 <1>  -0.5700 
 47 H2       2.2303    -9.9944     1.5311 H     1 <1>   0.3700 
 48 C       -0.2693    -9.5244     1.1873 C.3   1 <1>   0.0000 
 49 C       -0.5098   -10.9337     1.7549 C.3   1 <1>   0.0000 
 50 H1      -1.0568   -11.5621     1.0459 H     1 <1>   0.0000 
 51 H2       0.4310   -11.4517     1.9658 H     1 <1>   0.0000 
 52 H3      -1.0851   -10.8889     2.6859 H     1 <1>   0.0000 
 53 H2       0.2586    -9.6364     0.2297 H     1 <1>   0.0000 
 54 C       -1.6139    -8.8195     0.9026 C.3   1 <1>   0.0000 
 55 C       -2.4620    -9.5146    -0.1559 C.3   1 <1>   0.0000 
 56 H1      -3.3343    -8.8987    -0.3986 H     1 <1>   0.0000 
 57 H2      -2.8336   -10.4818     0.1937 H     1 <1>   0.0000 
 58 H3      -1.8920    -9.6706    -1.0771 H     1 <1>   0.0000 
 59 H2      -1.4326    -7.7995     0.5472 H     1 <1>   0.0000 
 60 H3      -2.1986    -8.7412     1.8262 H     1 <1>   0.0000 
 61 H3       0.1957    -8.6654     3.1494 H     1 <1>   0.0000 
 62 O        1.7131    -7.1152     0.6652 O.2   1 <1>  -0.5700 
 63 C        1.2263    -5.8135    -2.9106 C.3   1 <1>   0.0000 
 64 H2       2.3097    -5.8231    -2.7446 H     1 <1>   0.0000 
 65 H3       1.0554    -5.6394    -3.9783 H     1 <1>   0.0000 
 66 N        0.2553    -6.2257     2.1756 N.am  1 <1>  -0.6602 
 67 C        0.0508    -3.9792     2.9214 C.3   1 <1>   0.2800 
 68 C       -0.7074    -6.2363     3.2699 C.3   1 <1>   0.3001 
 69 H1      -1.5389    -6.9093     3.0545 H     1 <1>   0.0000 
 70 H2      -0.1979    -6.5833     4.1736 H     1 <1>   0.0000 
 71 O        0.4201    -2.8187    -3.4943 O.2   1 <1>  -0.5700 
 72 H2       2.3450    -1.9061    -2.6601 H     1 <1>   0.3700 
 73 H3       2.8655    -3.9503    -0.5443 H     1 <1>   0.0000 
 74 H2       4.1885    -2.1844     0.5550 H     1 <1>   0.0000 
 75 H3       3.9864    -1.0997    -0.8016 H     1 <1>   0.0000 
 76 H        0.8112    -3.9783     3.7152 H     1 <1>   0.0000 
 77 C       -1.1523    -4.7897     3.4212 C.3   1 <1>   0.0000 
 78 H1      -1.4275    -4.5398     4.4507 H     1 <1>   0.0000 
 79 H2      -2.0331    -4.5878     2.7989 H     1 <1>   0.0000 
@<TRIPOS>BOND
  1   1   2  1   
  2   1   7  ar  
  3   1  15  ar  
  4   2   3  1   
  5   3   4  1   
  6   3   5  1   
  7   3   6  1   
  8   7   8  1   
  9   7   9  ar  
 10   9  10  1   
 11   9  12  ar  
 12  11  12  1   
 13  11  67  1   
 14  12  13  ar  
 15  13  14  1   
 16  13  15  ar  
 17  15  16  1   
 18  16  17  1   
 19  16  74  1   
 20  16  75  1   
 21  17  18  1   
 22  17  19  1   
 23  17  73  1   
 24  19  20  am  
 25  19  72  1   
 26  20  21  1   
 27  20  71  2   
 28  21  22  1   
 29  21  23  1   
 30  21  63  1   
 31  23  24  1   
 32  23  25  am  
 33  25  26  2   
 34  25  27  1   
 35  27  28  1   
 36  27  66  1   
 37  27  67  1   
 38  29  63  1   
 39  30  31  1   
 40  30  62  2   
 41  30  66  am  
 42  31  32  1   
 43  31  48  1   
 44  31  61  1   
 45  32  33  am  
 46  32  47  1   
 47  33  34  1   
 48  33  46  2   
 49  34  35  1   
 50  34  39  1   
 51  34  40  1   
 52  35  36  1   
 53  35  37  1   
 54  35  38  1   
 55  40  41  1   
 56  40  42  1   
 57  42  43  1   
 58  42  44  1   
 59  42  45  1   
 60  48  49  1   
 61  48  53  1   
 62  48  54  1   
 63  49  50  1   
 64  49  51  1   
 65  49  52  1   
 66  54  55  1   
 67  54  59  1   
 68  54  60  1   
 69  55  56  1   
 70  55  57  1   
 71  55  58  1   
 72  63  64  1   
 73  63  65  1   
 74  66  68  1   
 75  67  76  1   
 76  67  77  1   
 77  68  69  1   
 78  68  70  1   
 79  68  77  1   
 80  77  78  1   
 81  77  79  1   
@<TRIPOS>SUBSTRUCTURE
  1 <1>   0 RESIDUE 1 * * 1
# MOE 2007.09 (io_trps.svl 2007.09)
