@<TRIPOS>MOLECULE
J01_10
77 81 1 0 0 
SMALL
USER_CHARGES


@<TRIPOS>ATOM
  1 C        1.4539     0.1733     0.8914 C.ar  1 <1>   0.0825 
  2 C        0.1839     0.7484     0.7911 C.ar  1 <1>  -0.1500 
  3 H        0.0798     1.8272     0.8907 H     1 <1>   0.1500 
  4 O       -2.1153     0.6656     0.4708 O.3   1 <1>  -0.3625 
  5 C       -0.9449    -0.0411     0.5617 C.ar  1 <1>   0.0825 
  6 C       -0.7914    -1.4239     0.4395 C.ar  1 <1>  -0.1500 
  7 H       -1.6344    -2.0834     0.2734 H     1 <1>   0.1500 
  8 C        0.4831    -2.0020     0.5443 C.ar  1 <1>   0.0825 
  9 O        0.5981    -3.3585     0.4252 O.3   1 <1>  -0.5325 
 10 C        1.6127    -1.2100     0.7771 C.ar  1 <1>   0.0862 
 11 C        2.9720    -1.7637     0.9496 C.2   1 <1>   0.4228 
 12 O        3.2399    -2.9462     0.7607 O.2   1 <1>  -0.5700 
 13 C        4.0256    -0.7986     1.4230 C.3   1 <1>   0.0610 
 14 H1       5.0129    -1.1851     1.1457 H     1 <1>   0.0000 
 15 H2       3.9638    -0.7425     2.5162 H     1 <1>   0.0000 
 16 C        3.7688     0.5430     0.7566 C.3   1 <1>   0.4235 
 17 H1       3.7756     0.4423    -0.3387 H     1 <1>   0.0000 
 18 C        4.8210     1.5575     1.1554 C.ar  1 <1>  -0.1435 
 19 O        2.4799     1.0504     1.1301 O.3   1 <1>  -0.3625 
 20 C        5.8932     1.8265     0.2958 C.ar  1 <1>  -0.1500 
 21 H        5.9835     1.3272    -0.6652 H     1 <1>   0.1500 
 22 C        6.8646     2.7482     0.6727 C.ar  1 <1>   0.0825 
 23 O        7.8999     2.9899    -0.1906 O.3   1 <1>  -0.5325 
 24 H        8.4542     3.6512     0.2683 H     1 <1>   0.4500 
 25 C        6.8092     3.4222     1.8968 C.ar  1 <1>   0.0825 
 26 O        7.8398     4.3002     2.1166 O.3   1 <1>  -0.3625 
 27 C        7.8176     5.0113     3.3496 C.3   1 <1>   0.2800 
 28 H1       8.6939     5.6662     3.3729 H     1 <1>   0.0000 
 29 H2       7.8903     4.3265     4.2009 H     1 <1>   0.0000 
 30 H3       6.9266     5.6436     3.4243 H     1 <1>   0.0000 
 31 H       -3.3588    -0.8754     1.0683 H     1 <1>   0.0000 
 32 C        5.7500     3.1527     2.7599 C.ar  1 <1>  -0.1500 
 33 H        5.6531     3.6406     3.7237 H     1 <1>   0.1500 
 34 C        4.7663     2.2245     2.3917 C.ar  1 <1>  -0.1500 
 35 H        3.9479     2.0281     3.0824 H     1 <1>   0.1500 
 36 H       -0.2644    -3.7843     0.3030 H     1 <1>   0.4500 
 37 C       -3.3514    -0.0600     0.3329 C.3   1 <1>   0.5630 
 38 C       -4.4878     0.9342     0.6579 C.3   1 <1>   0.2800 
 39 H1      -4.4192     1.8246     0.0208 H     1 <1>   0.0000 
 40 O       -4.3997     1.3663     2.0227 O.3   1 <1>  -0.6800 
 41 C       -5.8528     0.2500     0.4847 C.3   1 <1>   0.2800 
 42 H1      -6.6605     0.9823     0.5941 H     1 <1>   0.0000 
 43 O       -5.9928    -0.7205     1.5229 O.3   1 <1>  -0.6800 
 44 H1      -3.6540    -2.4507    -2.5862 H     1 <1>   0.0000 
 45 H2      -4.9390    -1.4164    -3.2391 H     1 <1>   0.0000 
 46 O       -5.5837    -3.1467    -2.3046 O.3   1 <1>  -0.5600 
 47 C       -5.6321    -4.0434    -3.4200 C.3   1 <1>   0.5600 
 48 H       -5.9860    -3.4882    -4.2974 H     1 <1>   0.0000 
 49 H       -6.8740     0.8274    -1.9921 H     1 <1>   0.4000 
 50 H       -5.8575    -0.2247     2.3599 H     1 <1>   0.4000 
 51 C       -5.9250    -0.4664    -0.8683 C.3   1 <1>   0.2800 
 52 H1      -6.8268    -1.0868    -0.9307 H     1 <1>   0.0000 
 53 O       -5.9563     0.5005    -1.9145 O.3   1 <1>  -0.6800 
 54 C       -4.6789    -1.3470    -1.0524 C.3   1 <1>   0.2830 
 55 H1      -4.6394    -2.1127    -0.2650 H     1 <1>   0.0000 
 56 C       -4.6640    -2.0699    -2.4041 C.3   1 <1>   0.2800 
 57 O       -3.5277    -0.5380    -0.9847 O.3   1 <1>   0.4340 
 58 H       -3.5458     1.8289     2.1333 H     1 <1>   0.4000 
 59 O       -6.6254    -5.0257    -3.0932 O.3   1 <1>  -0.5600 
 60 C       -6.7926    -6.0672    -4.0609 C.3   1 <1>   0.2800 
 61 H1      -7.1106    -5.6168    -5.0097 H     1 <1>   0.0000 
 62 C       -7.9112    -6.9723    -3.5591 C.3   1 <1>   0.0000 
 63 H1      -8.8465    -6.4070    -3.4813 H     1 <1>   0.0000 
 64 H2      -7.6997    -7.3552    -2.5551 H     1 <1>   0.0000 
 65 H3      -8.0726    -7.8172    -4.2352 H     1 <1>   0.0000 
 66 C       -5.4722    -6.8271    -4.2499 C.3   1 <1>   0.2800 
 67 H1      -5.5666    -7.6672    -4.9463 H     1 <1>   0.0000 
 68 O       -5.0071    -7.3455    -2.9847 O.3   1 <1>  -0.6800 
 69 H       -5.5557    -8.1257    -2.7772 H     1 <1>   0.4000 
 70 C       -4.4255    -5.8262    -4.7470 C.3   1 <1>   0.2800 
 71 H1      -4.7300    -5.4117    -5.7147 H     1 <1>   0.0000 
 72 O       -3.1761    -6.4887    -4.9399 O.3   1 <1>  -0.6800 
 73 H       -2.8845    -6.7619    -4.0469 H     1 <1>   0.4000 
 74 C       -4.2608    -4.7010    -3.7184 C.3   1 <1>   0.2800 
 75 H1      -3.5376    -3.9691    -4.0902 H     1 <1>   0.0000 
 76 O       -3.6886    -5.2424    -2.5085 O.3   1 <1>  -0.6800 
 77 H       -4.2336    -6.0434    -2.3018 H     1 <1>   0.4000 
@<TRIPOS>BOND
  1   1   2  ar  
  2   1  10  ar  
  3   1  19  1   
  4   2   3  1   
  5   2   5  ar  
  6   4   5  1   
  7   4  37  1   
  8   5   6  ar  
  9   6   7  1   
 10   6   8  ar  
 11   8   9  1   
 12   8  10  ar  
 13   9  36  1   
 14  10  11  1   
 15  11  12  2   
 16  11  13  1   
 17  13  14  1   
 18  13  15  1   
 19  13  16  1   
 20  16  17  1   
 21  16  18  1   
 22  16  19  1   
 23  18  20  ar  
 24  18  34  ar  
 25  20  21  1   
 26  20  22  ar  
 27  22  23  1   
 28  22  25  ar  
 29  23  24  1   
 30  25  26  1   
 31  25  32  ar  
 32  26  27  1   
 33  27  28  1   
 34  27  29  1   
 35  27  30  1   
 36  31  37  1   
 37  32  33  1   
 38  32  34  ar  
 39  34  35  1   
 40  37  38  1   
 41  37  57  1   
 42  38  39  1   
 43  38  40  1   
 44  38  41  1   
 45  40  58  1   
 46  41  42  1   
 47  41  43  1   
 48  41  51  1   
 49  43  50  1   
 50  44  56  1   
 51  45  56  1   
 52  46  47  1   
 53  46  56  1   
 54  47  48  1   
 55  47  59  1   
 56  47  74  1   
 57  49  53  1   
 58  51  52  1   
 59  51  53  1   
 60  51  54  1   
 61  54  55  1   
 62  54  56  1   
 63  54  57  1   
 64  59  60  1   
 65  60  61  1   
 66  60  62  1   
 67  60  66  1   
 68  62  63  1   
 69  62  64  1   
 70  62  65  1   
 71  66  67  1   
 72  66  68  1   
 73  66  70  1   
 74  68  69  1   
 75  70  71  1   
 76  70  72  1   
 77  70  74  1   
 78  72  73  1   
 79  74  75  1   
 80  74  76  1   
 81  76  77  1   
@<TRIPOS>SUBSTRUCTURE
  1 <1>   0 RESIDUE 1 * * 1
# MOE 2007.09 (io_trps.svl 2007.09)
