@<TRIPOS>MOLECULE
J02_39
141 145 1 0 0 
SMALL
USER_CHARGES


@<TRIPOS>ATOM
  1 O        0.9233    -0.8695    -0.3158 O.3   1 <1>  -0.5600 
  2 C       -0.0328     0.1725    -0.4838 C.3   1 <1>   0.2800 
  3 C        0.5636     1.5609    -0.2663 C.3   1 <1>   0.0000 
  4 H2      -0.2280     2.3136    -0.1915 H     1 <1>   0.0000 
  5 H3       1.2245     1.8594    -1.0849 H     1 <1>   0.0000 
  6 C        4.3542    -1.7704     1.9303 C.3   1 <1>   0.3691 
  7 H        5.2422    -2.4130     1.9093 H     1 <1>   0.0000 
  8 H2      -0.7671     0.0281     0.3182 H     1 <1>   0.0000 
  9 C       -0.7754     0.0310    -1.8178 C.3   1 <1>   0.0000 
 10 H1      -0.9680     1.0183    -2.2552 H     1 <1>   0.0000 
 11 H2      -1.7645    -0.4099    -1.6402 H     1 <1>   0.0000 
 12 C       -0.0338    -0.8537    -2.8136 C.3   1 <1>   0.0000 
 13 H1      -0.3820    -0.6420    -3.8306 H     1 <1>   0.0000 
 14 H2      -0.2607    -1.9081    -2.6141 H     1 <1>   0.0000 
 15 C        1.4644    -0.6230    -2.7038 C.3   1 <1>   0.0000 
 16 H1       1.6650     0.4270    -2.9574 H     1 <1>   0.0000 
 17 H2       1.9983    -1.2059    -3.4639 H     1 <1>   0.0000 
 18 C        1.9939    -0.9371    -1.2791 C.3   1 <1>   0.5260 
 19 C        2.4796    -2.3969    -1.2280 C.3   1 <1>   0.0000 
 20 C        3.2433    -2.7229     0.0598 C.3   1 <1>   0.4301 
 21 H1       3.1400    -2.5715    -2.0895 H     1 <1>   0.0000 
 22 H2       1.6371    -3.0925    -1.3361 H     1 <1>   0.0000 
 23 C        4.3041    -3.7866    -0.3152 C.2   1 <1>   0.6590 
 24 O        3.6987    -4.9932    -0.5325 O.3   1 <1>  -0.4300 
 25 C        4.5476    -6.0832    -0.9270 C.3   1 <1>   0.2800 
 26 H1       5.2051    -5.7727    -1.7478 H     1 <1>   0.0000 
 27 H2       3.8874    -6.8603    -1.3276 H     1 <1>   0.0000 
 28 C        5.3558    -6.6560     0.2383 C.3   1 <1>   0.0000 
 29 H1       5.8562    -7.5735    -0.0928 H     1 <1>   0.0000 
 30 C        4.5004    -6.9351     1.4764 C.3   1 <1>   0.0000 
 31 C        5.3289    -7.5777     2.5931 C.3   1 <1>   0.0000 
 32 C        4.5753    -7.6758     3.9248 C.3   1 <1>   0.0000 
 33 H1       5.1548    -8.3140     4.6030 H     1 <1>   0.0000 
 34 H2       3.6070    -8.1670     3.7722 H     1 <1>   0.0000 
 35 C        4.3745    -6.3075     4.5799 C.3   1 <1>   0.0000 
 36 C        3.7158    -6.4102     5.9566 C.3   1 <1>   0.0000 
 37 C        3.5521    -5.0170     6.5667 C.3   1 <1>   0.0000 
 38 C        2.8556    -5.0562     7.9280 C.3   1 <1>   0.0000 
 39 C        2.7360    -3.6427     8.5008 C.3   1 <1>   0.0000 
 40 C        1.9166    -3.5551     9.7899 C.3   1 <1>   0.0000 
 41 H1       1.8104    -2.4900    10.0214 H     1 <1>   0.0000 
 42 C        2.5582    -4.2748    10.9770 C.3   1 <1>   0.0000 
 43 C        1.7952    -4.1024    12.2995 C.3   1 <1>   0.0000 
 44 H1       2.3282    -4.6907    13.0574 H     1 <1>   0.0000 
 45 H2       0.7928    -4.5390    12.2175 H     1 <1>   0.0000 
 46 C        1.7221    -2.6511    12.7899 C.3   1 <1>   0.0000 
 47 H1       1.8316    -2.6414    13.8819 H     1 <1>   0.0000 
 48 C        0.3900    -1.9742    12.4481 C.3   1 <1>   0.0000 
 49 C        0.4941    -0.4534    12.5724 C.3   1 <1>   0.0000 
 50 C       -0.8282     0.2293    12.2184 C.3   1 <1>   0.0610 
 51 C       -0.6959     1.7448    12.1373 C.2   1 <1>   0.5690 
 52 N       -1.8676     2.4687    11.8989 N.am  1 <1>  -0.6602 
 53 C       -1.7716     3.9254    11.7567 C.3   1 <1>   0.3001 
 54 C       -1.7661     4.3895    10.2965 C.3   1 <1>   0.0000 
 55 H1      -1.7689     5.4868    10.2862 H     1 <1>   0.0000 
 56 H2      -2.6896     4.0750     9.7956 H     1 <1>   0.0000 
 57 C       -0.5629     3.8775     9.5054 C.3   1 <1>   0.0610 
 58 C       -0.5269     4.4303     8.0965 C.2   1 <1>   0.5690 
 59 N        0.4334     3.8594     7.3059 N.am  1 <1>  -0.8000 
 60 H1       0.5273     4.1761     6.3481 H     1 <1>   0.3700 
 61 H2       1.0602     3.1306     7.6242 H     1 <1>   0.3700 
 62 O       -1.2638     5.3149     7.6755 O.2   1 <1>  -0.5700 
 63 H2      -0.5881     2.7840     9.4385 H     1 <1>   0.0000 
 64 H3       0.3697     4.1678    10.0031 H     1 <1>   0.0000 
 65 H2      -0.8669     4.2915    12.2551 H     1 <1>   0.0000 
 66 H3      -2.6207     4.3758    12.2830 H     1 <1>   0.0000 
 67 C       -3.2069     1.8737    11.7928 C.3   1 <1>   0.3001 
 68 C       -3.9224     1.8479    13.1454 C.3   1 <1>   0.0000 
 69 C       -5.2896     1.1788    13.0281 C.3   1 <1>   0.2700 
 70 N       -5.9425     1.1318    14.3302 N.3   1 <1>  -0.9900 
 71 H1      -6.8672     0.7132    14.2344 H     1 <1>   0.3600 
 72 H2      -6.0935     2.0782    14.6780 H     1 <1>   0.3600 
 73 H2      -5.1776     0.1568    12.6505 H     1 <1>   0.0000 
 74 H3      -5.9224     1.7281    12.3224 H     1 <1>   0.0000 
 75 H2      -4.0388     2.8720    13.5218 H     1 <1>   0.0000 
 76 H3      -3.3077     1.3153    13.8816 H     1 <1>   0.0000 
 77 H2      -3.1309     0.8581    11.3947 H     1 <1>   0.0000 
 78 H3      -3.7892     2.4501    11.0654 H     1 <1>   0.0000 
 79 O        0.4045     2.2901    12.2456 O.2   1 <1>  -0.5700 
 80 H2      -1.5802    -0.0335    12.9687 H     1 <1>   0.0000 
 81 H3      -1.1662    -0.1282    11.2390 H     1 <1>   0.0000 
 82 H2       1.2864    -0.0940    11.9037 H     1 <1>   0.0000 
 83 H3       0.7904    -0.1778    13.5920 H     1 <1>   0.0000 
 84 H2      -0.3904    -2.3519    13.1202 H     1 <1>   0.0000 
 85 H3       0.0743    -2.2285    11.4312 H     1 <1>   0.0000 
 86 H3       2.5671    -2.0770    12.3915 H     1 <1>   0.0000 
 87 H2       3.5877    -3.9192    11.1084 H     1 <1>   0.0000 
 88 H3       2.6219    -5.3481    10.7640 H     1 <1>   0.0000 
 89 H3       0.9084    -3.9497     9.6170 H     1 <1>   0.0000 
 90 H2       2.2581    -2.9948     7.7549 H     1 <1>   0.0000 
 91 H3       3.7375    -3.2305     8.6760 H     1 <1>   0.0000 
 92 H2       3.4270    -5.6942     8.6112 H     1 <1>   0.0000 
 93 H3       1.8587    -5.4995     7.8195 H     1 <1>   0.0000 
 94 H2       2.9727    -4.3855     5.8814 H     1 <1>   0.0000 
 95 H3       4.5389    -4.5494     6.6748 H     1 <1>   0.0000 
 96 H2       4.3275    -7.0351     6.6180 H     1 <1>   0.0000 
 97 H3       2.7360    -6.8934     5.8626 H     1 <1>   0.0000 
 98 H2       3.7475    -5.6769     3.9415 H     1 <1>   0.0000 
 99 H3       5.3444    -5.8041     4.6773 H     1 <1>   0.0000 
100 H2       6.2585    -7.0153     2.7442 H     1 <1>   0.0000 
101 H3       5.6199    -8.5875     2.2784 H     1 <1>   0.0000 
102 H2       4.0682    -5.9930     1.8243 H     1 <1>   0.0000 
103 H3       3.6659    -7.5962     1.2143 H     1 <1>   0.0000 
104 H3       6.1446    -5.9468     0.5158 H     1 <1>   0.0000 
105 O        5.5060    -3.5841    -0.4373 O.2   1 <1>  -0.5700 
106 C        2.4351    -3.1684     1.2984 C.3   1 <1>   0.0000 
107 C        3.1868    -2.5731     2.5198 C.3   1 <1>   0.0000 
108 H1       2.5037    -1.9389     3.0965 H     1 <1>   0.0000 
109 H2       3.5503    -3.3581     3.1900 H     1 <1>   0.0000 
110 H2       2.3409    -4.2539     1.3981 H     1 <1>   0.0000 
111 H3       1.4170    -2.7649     1.2801 H     1 <1>   0.0000 
112 H1       1.1550     1.5850     0.6551 H     1 <1>   0.0000 
113 N        3.8776    -1.5245     0.5897 N.pl3 1 <1>  -0.7882 
114 C        3.8955    -0.3310    -0.0595 C.2   1 <1>   0.5500 
115 N        3.1155    -0.0079    -1.0374 N.2   1 <1>  -0.6960 
116 C        4.6939    -0.4632     2.6174 C.3   1 <1>   0.0000 
117 H2       3.7708     0.0708     2.8883 H     1 <1>   0.0000 
118 C        5.5333     0.4341     1.6663 C.3   1 <1>   0.6491 
119 N        4.7552     0.5899     0.4556 N.pl3 1 <1>  -0.8191 
120 H1       5.2103    -0.6412     3.5674 H     1 <1>   0.0000 
121 H        4.8124     1.4662    -0.0374 H     1 <1>   0.4000 
122 C        6.9024    -0.1797     1.3139 C.3   1 <1>   0.0000 
123 H1       7.3695     0.3763     0.4922 H     1 <1>   0.0000 
124 H2       6.7754    -1.1892     0.9053 H     1 <1>   0.0000 
125 C        7.8938    -0.2493     2.4708 C.3   1 <1>   0.1382 
126 H1       8.7432    -0.8575     2.1328 H     1 <1>   0.0000 
127 H2       7.4701    -0.7753     3.3321 H     1 <1>   0.0000 
128 C        8.4495     1.0679     2.9124 C.2   1 <1>  -0.2882 
129 H        9.4073     1.0107     3.4288 H     1 <1>   0.1500 
130 C        7.9305     2.2861     2.7038 C.2   1 <1>  -0.2882 
131 H        8.5124     3.1363     3.0618 H     1 <1>   0.1500 
132 C        6.6021     2.6535     2.0961 C.3   1 <1>   0.4182 
133 C        6.6487     3.1742     0.6509 C.3   1 <1>   0.0000 
134 H1       5.6327     3.4525     0.3451 H     1 <1>   0.0000 
135 H2       6.9698     2.3947    -0.0453 H     1 <1>   0.0000 
136 C        7.5547     4.3852     0.4673 C.3   1 <1>   0.0000 
137 H1       7.4798     4.7571    -0.5597 H     1 <1>   0.0000 
138 H2       8.6032     4.1333     0.6530 H     1 <1>   0.0000 
139 H3       7.2673     5.1978     1.1419 H     1 <1>   0.0000 
140 H2       6.2634     3.5077     2.6992 H     1 <1>   0.0000 
141 O        5.5942     1.6818     2.3541 O.3   1 <1>  -0.5600 
@<TRIPOS>BOND
  1   1   2  1   
  2   1  18  1   
  3   2   3  1   
  4   2   8  1   
  5   2   9  1   
  6   3   4  1   
  7   3   5  1   
  8   3 112  1   
  9   6   7  1   
 10   6 107  1   
 11   6 113  1   
 12   6 116  1   
 13   9  10  1   
 14   9  11  1   
 15   9  12  1   
 16  12  13  1   
 17  12  14  1   
 18  12  15  1   
 19  15  16  1   
 20  15  17  1   
 21  15  18  1   
 22  18  19  1   
 23  18 115  1   
 24  19  20  1   
 25  19  21  1   
 26  19  22  1   
 27  20  23  1   
 28  20 106  1   
 29  20 113  1   
 30  23  24  1   
 31  23 105  2   
 32  24  25  1   
 33  25  26  1   
 34  25  27  1   
 35  25  28  1   
 36  28  29  1   
 37  28  30  1   
 38  28 104  1   
 39  30  31  1   
 40  30 102  1   
 41  30 103  1   
 42  31  32  1   
 43  31 100  1   
 44  31 101  1   
 45  32  33  1   
 46  32  34  1   
 47  32  35  1   
 48  35  36  1   
 49  35  98  1   
 50  35  99  1   
 51  36  37  1   
 52  36  96  1   
 53  36  97  1   
 54  37  38  1   
 55  37  94  1   
 56  37  95  1   
 57  38  39  1   
 58  38  92  1   
 59  38  93  1   
 60  39  40  1   
 61  39  90  1   
 62  39  91  1   
 63  40  41  1   
 64  40  42  1   
 65  40  89  1   
 66  42  43  1   
 67  42  87  1   
 68  42  88  1   
 69  43  44  1   
 70  43  45  1   
 71  43  46  1   
 72  46  47  1   
 73  46  48  1   
 74  46  86  1   
 75  48  49  1   
 76  48  84  1   
 77  48  85  1   
 78  49  50  1   
 79  49  82  1   
 80  49  83  1   
 81  50  51  1   
 82  50  80  1   
 83  50  81  1   
 84  51  52  am  
 85  51  79  2   
 86  52  53  1   
 87  52  67  1   
 88  53  54  1   
 89  53  65  1   
 90  53  66  1   
 91  54  55  1   
 92  54  56  1   
 93  54  57  1   
 94  57  58  1   
 95  57  63  1   
 96  57  64  1   
 97  58  59  am  
 98  58  62  2   
 99  59  60  1   
100  59  61  1   
101  67  68  1   
102  67  77  1   
103  67  78  1   
104  68  69  1   
105  68  75  1   
106  68  76  1   
107  69  70  1   
108  69  73  1   
109  69  74  1   
110  70  71  1   
111  70  72  1   
112 106 107  1   
113 106 110  1   
114 106 111  1   
115 107 108  1   
116 107 109  1   
117 113 114  1   
118 114 115  2   
119 114 119  1   
120 116 117  1   
121 116 118  1   
122 116 120  1   
123 118 119  1   
124 118 122  1   
125 118 141  1   
126 119 121  1   
127 122 123  1   
128 122 124  1   
129 122 125  1   
130 125 126  1   
131 125 127  1   
132 125 128  1   
133 128 129  1   
134 128 130  2   
135 130 131  1   
136 130 132  1   
137 132 133  1   
138 132 140  1   
139 132 141  1   
140 133 134  1   
141 133 135  1   
142 133 136  1   
143 136 137  1   
144 136 138  1   
145 136 139  1   
@<TRIPOS>SUBSTRUCTURE
  1 <1>   0 RESIDUE 1 * * 1
# MOE 2007.09 (io_trps.svl 2007.09)
