@<TRIPOS>MOLECULE
J02_19
39 40 1 0 0 
SMALL
USER_CHARGES


@<TRIPOS>ATOM
  1 C        1.0650     0.7750    -0.6450 C.ar  1 <1>  -0.1500 
  2 H        1.9240     1.3890    -0.8970 H     1 <1>   0.1500 
  3 C       -0.1900     1.3930    -0.6650 C.ar  1 <1>  -0.1500 
  4 H       -0.2560     2.4450    -0.9270 H     1 <1>   0.1500 
  5 C       -1.3220     0.6560    -0.3500 C.ar  1 <1>   0.0820 
  6 O       -2.5640     1.2170    -0.3560 O.3   1 <1>  -0.5320 
  7 H       -2.4880     2.1530    -0.6050 H     1 <1>   0.4500 
  8 C       -1.2180    -0.6880    -0.0160 C.ar  1 <1>  -0.1500 
  9 H       -2.1240    -1.2410     0.2260 H     1 <1>   0.1500 
 10 C        0.0390    -1.3170     0.0060 C.ar  1 <1>   0.0860 
 11 C        1.2020    -0.5810    -0.3120 C.ar  1 <1>   0.1170 
 12 N        2.4650    -1.2280    -0.2850 N.am  1 <1>  -0.5470 
 13 H1       2.4010    -2.2170    -0.0190 H     1 <1>   0.3700 
 14 C        3.7070    -0.6930    -0.5650 C.2   1 <1>   0.6160 
 15 C        4.7990    -1.6940    -0.4160 C.2   1 <1>  -0.1360 
 16 H        4.5440    -2.6940    -0.0880 H     1 <1>   0.1500 
 17 C        6.0610    -1.3270    -0.6710 C.2   1 <1>  -0.1780 
 18 H        6.2770    -0.3040    -0.9740 H     1 <1>   0.1500 
 19 C        7.2350    -2.2020    -0.5540 C.ar  1 <1>   0.0280 
 20 O        3.9540     0.4580    -0.9020 O.2   1 <1>  -0.5700 
 21 C        7.1930    -3.5710    -0.8310 C.ar  1 <1>  -0.1500 
 22 H        6.2670    -4.0530    -1.1330 H     1 <1>   0.1500 
 23 C        8.3520    -4.3480    -0.7420 C.ar  1 <1>  -0.1500 
 24 H        8.2830    -5.4100    -0.9630 H     1 <1>   0.1500 
 25 C        9.5740    -3.7640    -0.3860 C.ar  1 <1>   0.0820 
 26 O       10.6780    -4.5670    -0.3140 O.3   1 <1>  -0.5320 
 27 H       10.4220    -5.4790    -0.5280 H     1 <1>   0.4500 
 28 C        9.6450    -2.3940    -0.1220 C.ar  1 <1>   0.0820 
 29 O       10.7380    -1.6470     0.2290 O.3   1 <1>  -0.3620 
 30 C       11.9960    -2.2960     0.3320 C.3   1 <1>   0.2800 
 31 H1      12.7370    -1.5370     0.6040 H     1 <1>   0.0000 
 32 H2      12.3060    -2.7180    -0.6290 H     1 <1>   0.0000 
 33 H3      11.9940    -3.0440     1.1300 H     1 <1>   0.0000 
 34 C        8.4710    -1.6280    -0.2140 C.ar  1 <1>  -0.1500 
 35 H        8.5370    -0.5600    -0.0100 H     1 <1>   0.1500 
 36 C        0.0320    -2.7420     0.3720 C.2   1 <1>   0.6340 
 37 O       -0.9590    -3.3980     0.6500 O.2   1 <1>  -0.5700 
 38 O        1.2590    -3.3160     0.3830 O.3   1 <1>  -0.6500 
 39 H        1.0620    -4.2450     0.6430 H     1 <1>   0.5000 
@<TRIPOS>BOND
  1   1   2  1   
  2   1   3  ar  
  3   1  11  ar  
  4   3   4  1   
  5   3   5  ar  
  6   5   6  1   
  7   5   8  ar  
  8   6   7  1   
  9   8   9  1   
 10   8  10  ar  
 11  10  11  ar  
 12  10  36  1   
 13  11  12  1   
 14  12  13  1   
 15  12  14  am  
 16  14  15  1   
 17  14  20  2   
 18  15  16  1   
 19  15  17  2   
 20  17  18  1   
 21  17  19  1   
 22  19  21  ar  
 23  19  34  ar  
 24  21  22  1   
 25  21  23  ar  
 26  23  24  1   
 27  23  25  ar  
 28  25  26  1   
 29  25  28  ar  
 30  26  27  1   
 31  28  29  1   
 32  28  34  ar  
 33  29  30  1   
 34  30  31  1   
 35  30  32  1   
 36  30  33  1   
 37  34  35  1   
 38  36  37  2   
 39  36  38  1   
 40  38  39  1   
@<TRIPOS>SUBSTRUCTURE
  1 <1>   0 RESIDUE 1 * * 1
# MOE 2007.09 (io_trps.svl 2007.09)
