@<TRIPOS>MOLECULE
J02_29
81 85 1 0 0 
SMALL
USER_CHARGES


@<TRIPOS>ATOM
  1 C        0.6960     0.3660    -0.7000 C.3   1 <1>   0.0610 
  2 C        2.0110     1.0130    -0.2950 C.2   1 <1>   0.4480 
  3 C        2.0740     2.3170     0.4790 C.3   1 <1>   0.2040 
  4 C        2.8570     2.1330     1.7590 C.ar  1 <1>  -0.1440 
  5 H2       1.0850     2.7150     0.7080 H     1 <1>   0.0000 
  6 H3       2.5460     3.0720    -0.1600 H     1 <1>   0.0000 
  7 O        3.0840     0.4720    -0.6120 O.2   1 <1>  -0.5700 
  8 H2       0.7270     0.3300    -1.8010 H     1 <1>   0.0000 
  9 C       -0.6240     1.0240    -0.3010 C.3   1 <1>   0.0610 
 10 C       -0.9410     2.1850    -1.2510 C.2   1 <1>   0.4480 
 11 C       -2.3870     2.6300    -1.4180 C.3   1 <1>   0.2040 
 12 C       -2.5190     4.0250    -1.9950 C.ar  1 <1>  -0.1440 
 13 H2      -2.9210     2.5880    -0.4670 H     1 <1>   0.0000 
 14 H3      -2.8830     1.9080    -2.0780 H     1 <1>   0.0000 
 15 O       -0.0190     2.7540    -1.8440 O.2   1 <1>  -0.5700 
 16 H2      -0.5650     1.4090     0.7190 H     1 <1>   0.0000 
 17 C       -1.6100    -0.1410    -0.4270 C.3   1 <1>   0.4240 
 18 H1      -2.0000    -0.1800    -1.4530 H     1 <1>   0.0000 
 19 C       -2.8010    -0.2060     0.5110 C.ar  1 <1>  -0.1440 
 20 O       -0.8580    -1.3560    -0.2440 O.3   1 <1>  -0.5600 
 21 C        0.5510    -1.0750    -0.2060 C.3   1 <1>   0.4240 
 22 H1       1.0160    -1.7600    -0.9260 H     1 <1>   0.0000 
 23 C        1.0990    -1.4100     1.1710 C.ar  1 <1>  -0.1440 
 24 C       -3.0500     0.7020     1.5460 C.ar  1 <1>  -0.1500 
 25 H       -2.3930     1.5450     1.7440 H     1 <1>   0.1500 
 26 C       -4.1710     0.5580     2.3700 C.ar  1 <1>  -0.1500 
 27 H       -4.3280     1.2860     3.1610 H     1 <1>   0.1500 
 28 C       -5.0630    -0.5010     2.1790 C.ar  1 <1>   0.0820 
 29 O       -6.1380    -0.6030     3.0160 O.3   1 <1>  -0.5320 
 30 H       -6.1510     0.1570     3.6210 H     1 <1>   0.4500 
 31 C       -4.8430    -1.4250     1.1570 C.ar  1 <1>   0.0820 
 32 O       -5.5930    -2.5170     0.8150 O.3   1 <1>  -0.3620 
 33 C       -6.7950    -2.7630     1.5290 C.3   1 <1>   0.2800 
 34 H1      -7.2640    -3.6490     1.0880 H     1 <1>   0.0000 
 35 H2      -7.5020    -1.9350     1.4170 H     1 <1>   0.0000 
 36 H3      -6.5930    -2.9940     2.5790 H     1 <1>   0.0000 
 37 C       -3.7150    -1.2630     0.3390 C.ar  1 <1>  -0.1500 
 38 H       -3.5390    -1.9960    -0.4500 H     1 <1>   0.1500 
 39 C       -2.7880     4.1420    -3.3740 C.ar  1 <1>  -0.1500 
 40 H       -2.9040     3.2510    -3.9890 H     1 <1>   0.1500 
 41 C       -2.8970     5.3910    -3.9860 C.ar  1 <1>  -0.1500 
 42 H       -3.0990     5.4450    -5.0510 H     1 <1>   0.1500 
 43 C       -2.7300     6.5360    -3.2220 C.ar  1 <1>   0.0820 
 44 O       -2.8150     7.7810    -3.7730 O.3   1 <1>  -0.5320 
 45 H       -3.0450     7.7040    -4.7140 H     1 <1>   0.4500 
 46 C       -2.4610     6.4510    -1.8600 C.ar  1 <1>  -0.1500 
 47 H       -2.3270     7.3750    -1.3020 H     1 <1>   0.1500 
 48 C       -2.3520     5.2010    -1.2310 C.ar  1 <1>   0.0860 
 49 C       -2.0460     5.1500     0.2080 C.2   1 <1>   0.6340 
 50 O       -1.6820     4.1690     0.8400 O.2   1 <1>  -0.5700 
 51 O       -2.2230     6.3390     0.8210 O.3   1 <1>  -0.6500 
 52 H       -1.9670     6.1850     1.7540 H     1 <1>   0.5000 
 53 C        2.1380     1.8430     2.9350 C.ar  1 <1>  -0.1500 
 54 H        1.0510     1.7890     2.9140 H     1 <1>   0.1500 
 55 C        2.7920     1.6120     4.1470 C.ar  1 <1>  -0.1500 
 56 H        2.2050     1.3870     5.0320 H     1 <1>   0.1500 
 57 C        4.1780     1.6730     4.1960 C.ar  1 <1>   0.0820 
 58 O        4.8610     1.4500     5.3550 O.3   1 <1>  -0.5320 
 59 H        4.2350     1.1630     6.0400 H     1 <1>   0.4500 
 60 C        4.9150     1.9700     3.0570 C.ar  1 <1>  -0.1500 
 61 H        6.0000     2.0300     3.1250 H     1 <1>   0.1500 
 62 C        4.2610     2.1900     1.8350 C.ar  1 <1>   0.0860 
 63 C        5.1350     2.5560     0.7160 C.2   1 <1>   0.6340 
 64 O        5.9300     3.4800     0.8100 O.2   1 <1>  -0.5700 
 65 O        5.0660     1.7460    -0.3600 O.3   1 <1>  -0.6500 
 66 H        4.3360     1.0600    -0.3810 H     1 <1>   0.5000 
 67 C        2.4240    -1.8650     1.2960 C.ar  1 <1>  -0.1500 
 68 H        3.0430    -1.9770     0.4060 H     1 <1>   0.1500 
 69 C        2.9950    -2.1720     2.5410 C.ar  1 <1>   0.0820 
 70 O        4.2990    -2.5820     2.4550 O.3   1 <1>  -0.3620 
 71 C        5.0930    -2.4800     3.6290 C.3   1 <1>   0.2800 
 72 H1       6.1410    -2.5670     3.3250 H     1 <1>   0.0000 
 73 H2       4.8840    -3.3100     4.3110 H     1 <1>   0.0000 
 74 H3       4.9770    -1.5090     4.1210 H     1 <1>   0.0000 
 75 C        2.2040    -2.0640     3.6870 C.ar  1 <1>   0.0820 
 76 O        2.6890    -2.3940     4.9220 O.3   1 <1>  -0.5320 
 77 H        1.9710    -2.3100     5.5700 H     1 <1>   0.4500 
 78 C        0.8790    -1.6300     3.5830 C.ar  1 <1>  -0.1500 
 79 H        0.2450    -1.5440     4.4620 H     1 <1>   0.1500 
 80 C        0.3350    -1.3020     2.3380 C.ar  1 <1>  -0.1500 
 81 H       -0.7020    -0.9860     2.2960 H     1 <1>   0.1500 
@<TRIPOS>BOND
  1   1   2  1   
  2   1   8  1   
  3   1   9  1   
  4   1  21  1   
  5   2   3  1   
  6   2   7  2   
  7   3   4  1   
  8   3   5  1   
  9   3   6  1   
 10   4  53  ar  
 11   4  62  ar  
 12   9  10  1   
 13   9  16  1   
 14   9  17  1   
 15  10  11  1   
 16  10  15  2   
 17  11  12  1   
 18  11  13  1   
 19  11  14  1   
 20  12  39  ar  
 21  12  48  ar  
 22  17  18  1   
 23  17  19  1   
 24  17  20  1   
 25  19  24  ar  
 26  19  37  ar  
 27  20  21  1   
 28  21  22  1   
 29  21  23  1   
 30  23  67  ar  
 31  23  80  ar  
 32  24  25  1   
 33  24  26  ar  
 34  26  27  1   
 35  26  28  ar  
 36  28  29  1   
 37  28  31  ar  
 38  29  30  1   
 39  31  32  1   
 40  31  37  ar  
 41  32  33  1   
 42  33  34  1   
 43  33  35  1   
 44  33  36  1   
 45  37  38  1   
 46  39  40  1   
 47  39  41  ar  
 48  41  42  1   
 49  41  43  ar  
 50  43  44  1   
 51  43  46  ar  
 52  44  45  1   
 53  46  47  1   
 54  46  48  ar  
 55  48  49  1   
 56  49  50  2   
 57  49  51  1   
 58  51  52  1   
 59  53  54  1   
 60  53  55  ar  
 61  55  56  1   
 62  55  57  ar  
 63  57  58  1   
 64  57  60  ar  
 65  58  59  1   
 66  60  61  1   
 67  60  62  ar  
 68  62  63  1   
 69  63  64  2   
 70  63  65  1   
 71  65  66  1   
 72  67  68  1   
 73  67  69  ar  
 74  69  70  1   
 75  69  75  ar  
 76  70  71  1   
 77  71  72  1   
 78  71  73  1   
 79  71  74  1   
 80  75  76  1   
 81  75  78  ar  
 82  76  77  1   
 83  78  79  1   
 84  78  80  ar  
 85  80  81  1   
@<TRIPOS>SUBSTRUCTURE
  1 <1>   0 RESIDUE 1 * * 1
# MOE 2007.09 (io_trps.svl 2007.09)
