@<TRIPOS>MOLECULE
J02_36
64 66 1 0 0 
SMALL
USER_CHARGES


@<TRIPOS>ATOM
  1 C        1.7270     1.7530     0.6670 C.ar  1 <1>   0.0860 
  2 C        1.1600     3.0250     0.5140 C.ar  1 <1>  -0.1500 
  3 H        1.7690     3.8660     0.1890 H     1 <1>   0.1500 
  4 C       -0.1980     3.2230     0.7660 C.ar  1 <1>  -0.1500 
  5 H       -0.6370     4.2100     0.6400 H     1 <1>   0.1500 
  6 C       -0.9920     2.1550     1.1800 C.ar  1 <1>  -0.1500 
  7 H       -2.0500     2.3100     1.3770 H     1 <1>   0.1500 
  8 C       -0.4300     0.8880     1.3520 C.ar  1 <1>  -0.1500 
  9 H       -1.0640     0.0740     1.6900 H     1 <1>   0.1500 
 10 C        0.9310     0.6900     1.1010 C.ar  1 <1>   0.0820 
 11 C        3.1480     1.6070     0.3790 C.2   1 <1>   0.5140 
 12 O        1.4780    -0.5440     1.3210 O.3   1 <1>  -0.5320 
 13 H        0.7810    -1.1670     1.5850 H     1 <1>   0.4500 
 14 O        3.4680     0.4770    -0.2920 O.3   1 <1>  -0.4300 
 15 C        4.8900     0.4800    -0.3960 C.3   1 <1>   0.2800 
 16 H1       5.1580     0.3080    -1.4430 H     1 <1>   0.0000 
 17 C        5.4420    -0.6520     0.4600 C.3   1 <1>   0.0000 
 18 H1       5.0530    -1.6150     0.1100 H     1 <1>   0.0000 
 19 H2       5.1280    -0.5490     1.5040 H     1 <1>   0.0000 
 20 H3       6.5350    -0.6800     0.4210 H     1 <1>   0.0000 
 21 C        5.3030     1.8530     0.1120 C.3   1 <1>   0.3070 
 22 N        4.0690     2.4790     0.6490 N.2   1 <1>  -0.6960 
 23 C        5.8770     2.7390    -0.9930 C.2   1 <1>   0.5690 
 24 H2       6.0620     1.7990     0.9020 H     1 <1>   0.0000 
 25 O        6.6430     2.3190    -1.8560 O.2   1 <1>  -0.5700 
 26 N        5.5120     4.0630    -0.8630 N.am  1 <1>  -0.7300 
 27 C        6.0010     5.1140    -1.7280 C.3   1 <1>   0.3000 
 28 C        7.3690     5.6150    -1.2790 C.3   1 <1>   0.0000 
 29 C        7.8870     6.7020    -2.2190 C.3   1 <1>   0.2700 
 30 N        9.1960     7.1680    -1.7610 N.3   1 <1>  -0.9000 
 31 C        9.7390     8.1850    -2.6610 C.3   1 <1>   0.2700 
 32 C       11.1320     8.6120    -2.1950 C.3   1 <1>   0.0000 
 33 C       11.7040     9.6740    -3.1260 C.3   1 <1>   0.3000 
 34 N       13.0340    10.0870    -2.7380 N.am  1 <1>  -0.7300 
 35 C       13.7360    11.0320    -3.4560 C.2   1 <1>   0.5440 
 36 C       15.0980    11.3760    -2.9670 C.ar  1 <1>   0.0860 
 37 O       13.2890    11.5840    -4.4580 O.2   1 <1>  -0.5700 
 38 H2      13.4930     9.6860    -1.9160 H     1 <1>   0.3700 
 39 H2      11.0670    10.5660    -3.1340 H     1 <1>   0.0000 
 40 H3      11.7590     9.2980    -4.1540 H     1 <1>   0.0000 
 41 H2      11.8050     7.7450    -2.1700 H     1 <1>   0.0000 
 42 H3      11.0860     9.0050    -1.1710 H     1 <1>   0.0000 
 43 H2       9.0760     9.0590    -2.6770 H     1 <1>   0.0000 
 44 H3       9.8040     7.7910    -3.6830 H     1 <1>   0.0000 
 45 H2       9.8420     6.3800    -1.7070 H     1 <1>   0.3600 
 46 H2       7.1780     7.5380    -2.2360 H     1 <1>   0.0000 
 47 H3       7.9620     6.2990    -3.2360 H     1 <1>   0.0000 
 48 H2       8.0790     4.7780    -1.2480 H     1 <1>   0.0000 
 49 H3       7.2990     6.0030    -0.2540 H     1 <1>   0.0000 
 50 H2       5.2640     5.9230    -1.7010 H     1 <1>   0.0000 
 51 H3       6.0500     4.7280    -2.7520 H     1 <1>   0.0000 
 52 H2       4.8540     4.2630    -0.1100 H     1 <1>   0.3700 
 53 C       15.6920    10.7970    -1.8460 C.ar  1 <1>   0.0820 
 54 O       15.0540     9.8450    -1.0870 O.3   1 <1>  -0.5320 
 55 H       15.7060     9.6320    -0.3830 H     1 <1>   0.4500 
 56 C       16.9800    11.1720    -1.4510 C.ar  1 <1>   0.0820 
 57 O       17.4940    10.5560    -0.3410 O.3   1 <1>  -0.5320 
 58 H       18.3880    10.9070    -0.1800 H     1 <1>   0.4500 
 59 C       17.6980    12.1270    -2.1600 C.ar  1 <1>  -0.1500 
 60 H       18.6980    12.4250    -1.8620 H     1 <1>   0.1500 
 61 C       17.1140    12.7130    -3.2820 C.ar  1 <1>  -0.1500 
 62 H       17.6600    13.4630    -3.8510 H     1 <1>   0.1500 
 63 C       15.8250    12.3410    -3.6830 C.ar  1 <1>  -0.1500 
 64 H       15.3900    12.8130    -4.5630 H     1 <1>   0.1500 
@<TRIPOS>BOND
  1   1   2  ar  
  2   1  10  ar  
  3   1  11  1   
  4   2   3  1   
  5   2   4  ar  
  6   4   5  1   
  7   4   6  ar  
  8   6   7  1   
  9   6   8  ar  
 10   8   9  1   
 11   8  10  ar  
 12  10  12  1   
 13  11  14  1   
 14  11  22  2   
 15  12  13  1   
 16  14  15  1   
 17  15  16  1   
 18  15  17  1   
 19  15  21  1   
 20  17  18  1   
 21  17  19  1   
 22  17  20  1   
 23  21  22  1   
 24  21  23  1   
 25  21  24  1   
 26  23  25  2   
 27  23  26  am  
 28  26  27  1   
 29  26  52  1   
 30  27  28  1   
 31  27  50  1   
 32  27  51  1   
 33  28  29  1   
 34  28  48  1   
 35  28  49  1   
 36  29  30  1   
 37  29  46  1   
 38  29  47  1   
 39  30  31  1   
 40  30  45  1   
 41  31  32  1   
 42  31  43  1   
 43  31  44  1   
 44  32  33  1   
 45  32  41  1   
 46  32  42  1   
 47  33  34  1   
 48  33  39  1   
 49  33  40  1   
 50  34  35  am  
 51  34  38  1   
 52  35  36  1   
 53  35  37  2   
 54  36  53  ar  
 55  36  63  ar  
 56  53  54  1   
 57  53  56  ar  
 58  54  55  1   
 59  56  57  1   
 60  56  59  ar  
 61  57  58  1   
 62  59  60  1   
 63  59  61  ar  
 64  61  62  1   
 65  61  63  ar  
 66  63  64  1   
@<TRIPOS>SUBSTRUCTURE
  1 <1>   0 RESIDUE 1 * * 1
# MOE 2007.09 (io_trps.svl 2007.09)
