@<TRIPOS>MOLECULE
J02_31
63 65 1 0 0 
SMALL
USER_CHARGES


@<TRIPOS>ATOM
  1 C        1.6590     0.8280    -0.4860 C.ar  1 <1>   0.0860 
  2 C        2.9450     1.5110    -0.7670 C.2   1 <1>   0.5440 
  3 O        3.7700     1.6430     0.1330 O.2   1 <1>  -0.5700 
  4 N        3.1320     1.9920    -2.0500 N.am  1 <1>  -0.7300 
  5 C        4.3560     2.6770    -2.4320 C.3   1 <1>   0.3000 
  6 C        5.5020     1.7050    -2.7080 C.3   1 <1>   0.0000 
  7 C        6.8070     2.4490    -3.0110 C.3   1 <1>   0.0000 
  8 C        7.9580     1.4700    -3.2490 C.3   1 <1>   0.3000 
  9 N        9.2220     2.1290    -3.6230 N.am  1 <1>  -0.6600 
 10 H2       7.6750     0.7700    -4.0450 H     1 <1>   0.0000 
 11 H3       8.1320     0.8540    -2.3590 H     1 <1>   0.0000 
 12 H2       7.0480     3.1040    -2.1680 H     1 <1>   0.0000 
 13 H3       6.6730     3.0920    -3.8890 H     1 <1>   0.0000 
 14 H2       5.2350     1.0550    -3.5510 H     1 <1>   0.0000 
 15 H3       5.6520     1.0480    -1.8430 H     1 <1>   0.0000 
 16 H2       4.6270     3.3700    -1.6280 H     1 <1>   0.0000 
 17 H3       4.1310     3.2670    -3.3270 H     1 <1>   0.0000 
 18 H2       2.4040     1.8960    -2.7470 H     1 <1>   0.3700 
 19 C        1.1690     0.8650     0.8260 C.ar  1 <1>  -0.1500 
 20 H        1.7220     1.3880     1.6040 H     1 <1>   0.1500 
 21 C       -0.0350     0.2360     1.1450 C.ar  1 <1>  -0.1500 
 22 H       -0.4130     0.2710     2.1630 H     1 <1>   0.1500 
 23 C       -0.7490    -0.4410     0.1570 C.ar  1 <1>  -0.1500 
 24 H       -1.6850    -0.9340     0.4060 H     1 <1>   0.1500 
 25 C       -0.2580    -0.4940    -1.1470 C.ar  1 <1>  -0.1500 
 26 H       -0.8120    -1.0350    -1.9110 H     1 <1>   0.1500 
 27 C        0.9470     0.1360    -1.4710 C.ar  1 <1>  -0.1500 
 28 H        1.3180     0.0470    -2.4870 H     1 <1>   0.1500 
 29 C       10.0900     2.5570    -2.5130 C.3   1 <1>   0.3000 
 30 H1      11.1320     2.3200    -2.7240 H     1 <1>   0.0000 
 31 H2       9.8300     1.9500    -1.6380 H     1 <1>   0.0000 
 32 C        9.9190     4.0330    -2.1450 C.3   1 <1>   0.0000 
 33 H1      10.0850     4.1420    -1.0660 H     1 <1>   0.0000 
 34 H2       8.8920     4.3620    -2.3330 H     1 <1>   0.0000 
 35 C       10.8790     4.9960    -2.8460 C.3   1 <1>   0.0000 
 36 H1      11.8880     4.8750    -2.4320 H     1 <1>   0.0000 
 37 H2      10.5740     6.0210    -2.6000 H     1 <1>   0.0000 
 38 C       10.9160     4.8480    -4.3650 C.3   1 <1>   0.2700 
 39 H1      11.3900     5.7410    -4.7930 H     1 <1>   0.0000 
 40 H2       9.8900     4.8580    -4.7530 H     1 <1>   0.0000 
 41 N       11.6630     3.6230    -4.7090 N.3   1 <1>  -0.8100 
 42 C       12.9400     3.9970    -5.3360 C.3   1 <1>   0.2700 
 43 H1      13.5710     3.1260    -5.5360 H     1 <1>   0.0000 
 44 H2      13.5190     4.6330    -4.6560 H     1 <1>   0.0000 
 45 H3      12.8030     4.5430    -6.2770 H     1 <1>   0.0000 
 46 C       10.8670     2.7140    -5.5610 C.3   1 <1>   0.6720 
 47 C       11.6550     1.4200    -5.8990 C.2   1 <1>   0.4230 
 48 O       12.1120     1.1610    -7.0100 O.2   1 <1>  -0.5700 
 49 C       11.8240     0.3920    -4.8560 C.ar  1 <1>   0.0860 
 50 O       10.5800     3.3650    -6.8120 O.3   1 <1>  -0.6800 
 51 H        9.9180     2.7940    -7.2500 H     1 <1>   0.4000 
 52 C        9.4730     2.2980    -4.9830 C.2   1 <1>   0.5690 
 53 O        8.5920     2.0340    -5.8220 O.2   1 <1>  -0.5700 
 54 C       12.8350     0.5090    -3.9030 C.ar  1 <1>  -0.1500 
 55 H       13.5100     1.3600    -3.9000 H     1 <1>   0.1500 
 56 C       12.9820    -0.4860    -2.9360 C.ar  1 <1>  -0.1500 
 57 H       13.7630    -0.4030    -2.1850 H     1 <1>   0.1500 
 58 C       12.1310    -1.5930    -2.9360 C.ar  1 <1>  -0.1500 
 59 H       12.2500    -2.3680    -2.1820 H     1 <1>   0.1500 
 60 C       11.1360    -1.7140    -3.9070 C.ar  1 <1>  -0.1500 
 61 H       10.4800    -2.5820    -3.9080 H     1 <1>   0.1500 
 62 C       10.9840    -0.7240    -4.8770 C.ar  1 <1>  -0.1500 
 63 H       10.2140    -0.8280    -5.6380 H     1 <1>   0.1500 
@<TRIPOS>BOND
  1   1   2  1   
  2   1  19  ar  
  3   1  27  ar  
  4   2   3  2   
  5   2   4  am  
  6   4   5  1   
  7   4  18  1   
  8   5   6  1   
  9   5  16  1   
 10   5  17  1   
 11   6   7  1   
 12   6  14  1   
 13   6  15  1   
 14   7   8  1   
 15   7  12  1   
 16   7  13  1   
 17   8   9  1   
 18   8  10  1   
 19   8  11  1   
 20   9  29  1   
 21   9  52  am  
 22  19  20  1   
 23  19  21  ar  
 24  21  22  1   
 25  21  23  ar  
 26  23  24  1   
 27  23  25  ar  
 28  25  26  1   
 29  25  27  ar  
 30  27  28  1   
 31  29  30  1   
 32  29  31  1   
 33  29  32  1   
 34  32  33  1   
 35  32  34  1   
 36  32  35  1   
 37  35  36  1   
 38  35  37  1   
 39  35  38  1   
 40  38  39  1   
 41  38  40  1   
 42  38  41  1   
 43  41  42  1   
 44  41  46  1   
 45  42  43  1   
 46  42  44  1   
 47  42  45  1   
 48  46  47  1   
 49  46  50  1   
 50  46  52  1   
 51  47  48  2   
 52  47  49  1   
 53  49  54  ar  
 54  49  62  ar  
 55  50  51  1   
 56  52  53  2   
 57  54  55  1   
 58  54  56  ar  
 59  56  57  1   
 60  56  58  ar  
 61  58  59  1   
 62  58  60  ar  
 63  60  61  1   
 64  60  62  ar  
 65  62  63  1   
@<TRIPOS>SUBSTRUCTURE
  1 <1>   0 RESIDUE 1 * * 1
# MOE 2007.09 (io_trps.svl 2007.09)
