@<TRIPOS>MOLECULE
J02_33
52 53 1 0 0 
SMALL
USER_CHARGES


@<TRIPOS>ATOM
  1 C        1.4240     0.6940    -0.8830 C.ar  1 <1>   0.0280 
  2 C        2.8030     1.1810    -1.0020 C.2   1 <1>  -0.1780 
  3 H        2.9480     2.2450    -0.8210 H     1 <1>   0.1500 
  4 C        3.8450     0.4060    -1.3280 C.2   1 <1>  -0.1360 
  5 H        3.7330    -0.6500    -1.5380 H     1 <1>   0.1500 
  6 C        5.1950     1.0020    -1.4150 C.2   1 <1>   0.6160 
  7 N        6.1710     0.0830    -1.7400 N.am  1 <1>  -0.7300 
  8 C        7.5650     0.4650    -1.8360 C.3   1 <1>   0.3000 
  9 C        7.8810     1.1220    -3.1800 C.3   1 <1>   0.0000 
 10 C        9.2930     1.7110    -3.1970 C.3   1 <1>   0.0000 
 11 C        9.5780     2.4170    -4.5240 C.3   1 <1>   0.5030 
 12 N       10.8810     3.1930    -4.4240 N.4   1 <1>  -0.6650 
 13 H       11.5370     2.7490    -3.7630 H     1 <1>   0.4500 
 14 H2       8.7760     3.1080    -4.8150 H     1 <1>   0.0000 
 15 H3       9.6820     1.6600    -5.3100 H     1 <1>   0.0000 
 16 H2      10.0290     0.9120    -3.0420 H     1 <1>   0.0000 
 17 H3       9.3980     2.4010    -2.3540 H     1 <1>   0.0000 
 18 H2       7.1570     1.9210    -3.3830 H     1 <1>   0.0000 
 19 H3       7.7670     0.3860    -3.9850 H     1 <1>   0.0000 
 20 H2       8.1650    -0.4400    -1.7010 H     1 <1>   0.0000 
 21 H3       7.7920     1.1490    -1.0100 H     1 <1>   0.0000 
 22 H2       5.9290    -0.8850    -1.9150 H     1 <1>   0.3700 
 23 O        5.4110     2.1930    -1.2200 O.2   1 <1>  -0.5700 
 24 C        0.3710     1.5460    -1.2290 C.ar  1 <1>  -0.1500 
 25 H        0.5700     2.5470    -1.6080 H     1 <1>   0.1500 
 26 C       -0.9550     1.1240    -1.1020 C.ar  1 <1>  -0.1500 
 27 H       -1.7470     1.8120    -1.3840 H     1 <1>   0.1500 
 28 C       -1.2470    -0.1550    -0.6160 C.ar  1 <1>   0.0820 
 29 O       -2.5600    -0.5210    -0.4990 O.3   1 <1>  -0.5320 
 30 H       -3.1230     0.2180    -0.7830 H     1 <1>   0.4500 
 31 C       -0.2100    -1.0200    -0.2520 C.ar  1 <1>   0.0820 
 32 O       -0.2910    -2.2920     0.2450 O.3   1 <1>  -0.3620 
 33 C       -1.5680    -2.9050     0.3140 C.3   1 <1>   0.2800 
 34 H1      -1.4210    -3.9340     0.6590 H     1 <1>   0.0000 
 35 H2      -2.0420    -2.9610    -0.6710 H     1 <1>   0.0000 
 36 H3      -2.2070    -2.4080     1.0510 H     1 <1>   0.0000 
 37 C        1.1170    -0.5770    -0.3810 C.ar  1 <1>  -0.1500 
 38 H        1.9120    -1.2510    -0.0680 H     1 <1>   0.1500 
 39 C       10.6340     4.5870    -4.0240 C.2   1 <1>   0.2180 
 40 C       10.0930     5.0070    -2.6840 C.3   1 <1>   0.4180 
 41 O       10.2050     6.4120    -2.5080 O.3   1 <1>  -0.6800 
 42 H        9.8100     6.6310    -1.6450 H     1 <1>   0.4000 
 43 H2      10.6550     4.5170    -1.8840 H     1 <1>   0.0000 
 44 H3       9.0360     4.7360    -2.6030 H     1 <1>   0.0000 
 45 C       11.0230     5.4050    -5.0180 C.2   1 <1>  -0.1500 
 46 H       10.9880     6.4860    -5.0040 H     1 <1>   0.1500 
 47 C       11.5710     4.6240    -6.0830 C.2   1 <1>  -0.1500 
 48 H       12.0210     5.0230    -6.9800 H     1 <1>   0.1500 
 49 C       11.5100     3.3440    -5.7230 C.2   1 <1>   0.3700 
 50 C       12.0960     2.2130    -6.4510 C.2   1 <1>   0.4960 
 51 H       12.0300     1.2370    -5.9440 H     1 <1>   0.0600 
 52 O       12.6370     2.3310    -7.5430 O.2   1 <1>  -0.5700 
@<TRIPOS>BOND
  1   1   2  1   
  2   1  24  ar  
  3   1  37  ar  
  4   2   3  1   
  5   2   4  2   
  6   4   5  1   
  7   4   6  1   
  8   6   7  am  
  9   6  23  2   
 10   7   8  1   
 11   7  22  1   
 12   8   9  1   
 13   8  20  1   
 14   8  21  1   
 15   9  10  1   
 16   9  18  1   
 17   9  19  1   
 18  10  11  1   
 19  10  16  1   
 20  10  17  1   
 21  11  12  1   
 22  11  14  1   
 23  11  15  1   
 24  12  13  1   
 25  12  39  1   
 26  12  49  1   
 27  24  25  1   
 28  24  26  ar  
 29  26  27  1   
 30  26  28  ar  
 31  28  29  1   
 32  28  31  ar  
 33  29  30  1   
 34  31  32  1   
 35  31  37  ar  
 36  32  33  1   
 37  33  34  1   
 38  33  35  1   
 39  33  36  1   
 40  37  38  1   
 41  39  40  1   
 42  39  45  2   
 43  40  41  1   
 44  40  43  1   
 45  40  44  1   
 46  41  42  1   
 47  45  46  1   
 48  45  47  1   
 49  47  48  1   
 50  47  49  2   
 51  49  50  1   
 52  50  51  1   
 53  50  52  2   
@<TRIPOS>SUBSTRUCTURE
  1 <1>   0 RESIDUE 1 * * 1
# MOE 2007.09 (io_trps.svl 2007.09)
