@<TRIPOS>MOLECULE
J02_30
75 77 1 0 0 
SMALL
USER_CHARGES


@<TRIPOS>ATOM
  1 C        0.8660     0.7020     0.3440 C.ar  1 <1>  -0.1500 
  2 H        1.6460     1.4410     0.1780 H     1 <1>   0.1500 
  3 C       -0.3610     1.1290     0.8660 C.ar  1 <1>  -0.1500 
  4 H       -0.5040     2.1780     1.1050 H     1 <1>   0.1500 
  5 C       -1.3730     0.1980     1.0610 C.ar  1 <1>   0.0820 
  6 O       -2.5950     0.5430     1.5680 O.3   1 <1>  -0.5320 
  7 H       -2.5820     1.4980     1.7530 H     1 <1>   0.4500 
  8 C       -1.1690    -1.1390     0.7350 C.ar  1 <1>   0.0820 
  9 O       -2.1770    -2.0390     0.9310 O.3   1 <1>  -0.5320 
 10 H       -2.9050    -1.4990     1.3010 H     1 <1>   0.4500 
 11 C        0.0430    -1.5710     0.2150 C.ar  1 <1>  -0.1500 
 12 H        0.1720    -2.6220    -0.0300 H     1 <1>   0.1500 
 13 C        1.0840    -0.6510     0.0270 C.ar  1 <1>   0.0280 
 14 C        2.3480    -1.1280    -0.5440 C.2   1 <1>  -0.1780 
 15 H        2.2640    -1.9020    -1.3050 H     1 <1>   0.1500 
 16 C        3.5490    -0.6890    -0.1540 C.2   1 <1>  -0.1360 
 17 H        3.6820     0.0570     0.6200 H     1 <1>   0.1500 
 18 C        4.7610    -1.2500    -0.7670 C.2   1 <1>   0.7060 
 19 O        5.8340    -0.6810    -0.1610 O.3   1 <1>  -0.4300 
 20 C        7.1630    -1.0760    -0.5870 C.3   1 <1>   0.3410 
 21 O        4.7850    -2.0880    -1.6550 O.2   1 <1>  -0.5700 
 22 C        7.4210    -2.5220    -0.1380 C.3   1 <1>   0.0000 
 23 H1       6.8220    -3.2270    -0.7290 H     1 <1>   0.0000 
 24 H2       7.0440    -2.6490     0.8880 H     1 <1>   0.0000 
 25 C        8.8830    -2.9790    -0.1950 C.3   1 <1>   0.2800 
 26 H1       9.1760    -3.1760    -1.2330 H     1 <1>   0.0000 
 27 O        8.8890    -4.2530     0.5120 O.3   1 <1>  -0.4300 
 28 C        9.9830    -5.0400     0.3840 C.2   1 <1>   0.7060 
 29 C        9.7520    -6.2990     1.1030 C.2   1 <1>  -0.1360 
 30 H        8.7760    -6.4500     1.5470 H     1 <1>   0.1500 
 31 C       10.7380    -7.1990     1.1750 C.2   1 <1>  -0.1780 
 32 H       11.6920    -7.0010     0.6880 H     1 <1>   0.1500 
 33 C       10.6340    -8.4920     1.8610 C.ar  1 <1>   0.0280 
 34 O       11.0120    -4.7290    -0.2010 O.2   1 <1>  -0.5700 
 35 C        9.8530    -1.9730     0.4580 C.3   1 <1>   0.2800 
 36 O       11.2180    -2.2480     0.0890 O.3   1 <1>  -0.6800 
 37 H       11.3260    -3.2150    -0.0640 H     1 <1>   0.4000 
 38 H2       9.8130    -2.0620     1.5500 H     1 <1>   0.0000 
 39 C        9.5780    -0.5260     0.0210 C.3   1 <1>   0.2800 
 40 H1       9.9140    -0.4080    -1.0180 H     1 <1>   0.0000 
 41 O       10.3600     0.3420     0.8720 O.3   1 <1>  -0.4300 
 42 C       10.7620     1.5210     0.3250 C.2   1 <1>   0.6590 
 43 C       11.6340     2.2610     1.3030 C.3   1 <1>   0.0610 
 44 C       12.6370     3.1380     0.5670 C.3   1 <1>   0.0610 
 45 C       13.6370     3.7360     1.5210 C.2   1 <1>   0.6590 
 46 O       14.7020     4.2160     0.8180 O.3   1 <1>  -0.4300 
 47 C       15.7140     4.8270     1.6220 C.3   1 <1>   0.2800 
 48 H1      16.5140     5.1660     0.9590 H     1 <1>   0.0000 
 49 H2      16.1310     4.1030     2.3280 H     1 <1>   0.0000 
 50 H3      15.3090     5.6960     2.1500 H     1 <1>   0.0000 
 51 O        6.7040     0.1820    -2.5980 O.3   1 <1>  -0.6500 
 52 O        8.0910    -1.5560    -2.8180 O.2   1 <1>  -0.5700 
 53 O       13.5010     3.8050     2.7340 O.2   1 <1>  -0.5700 
 54 H2      12.1270     3.9540     0.0430 H     1 <1>   0.0000 
 55 H3      13.1780     2.5350    -0.1720 H     1 <1>   0.0000 
 56 H2      12.1720     1.5320     1.9220 H     1 <1>   0.0000 
 57 H3      10.9920     2.8570     1.9600 H     1 <1>   0.0000 
 58 O       10.4470     1.9360    -0.7810 O.2   1 <1>  -0.5700 
 59 C        8.1110    -0.1380     0.1670 C.3   1 <1>   0.0000 
 60 C        7.3710    -0.8800    -2.0990 C.2   1 <1>   0.6590 
 61 H1       7.9630     0.8980    -0.1660 H     1 <1>   0.0000 
 62 H2       7.8440    -0.1140     1.2330 H     1 <1>   0.0000 
 63 C        9.8840    -8.6640     3.0330 C.ar  1 <1>  -0.1500 
 64 H        9.3340    -7.8340     3.4690 H     1 <1>   0.1500 
 65 C        9.8400    -9.9050     3.6780 C.ar  1 <1>  -0.1500 
 66 H        9.2490   -10.0080     4.5830 H     1 <1>   0.1500 
 67 C       10.5580   -10.9800     3.1580 C.ar  1 <1>   0.0820 
 68 O       10.5250   -12.1970     3.7810 O.3   1 <1>  -0.5320 
 69 H        9.9440   -12.1330     4.5550 H     1 <1>   0.4500 
 70 C       11.3210   -10.8170     2.0030 C.ar  1 <1>   0.0820 
 71 O       12.0280   -11.8770     1.5080 O.3   1 <1>  -0.5320 
 72 H       12.5060   -11.6010     0.7100 H     1 <1>   0.4500 
 73 C       11.3640    -9.5790     1.3570 C.ar  1 <1>  -0.1500 
 74 H       11.9610    -9.4560     0.4560 H     1 <1>   0.1500 
 75 H        6.8960     0.1790    -3.5600 H     1 <1>   0.5000 
@<TRIPOS>BOND
  1   1   2  1   
  2   1   3  ar  
  3   1  13  ar  
  4   3   4  1   
  5   3   5  ar  
  6   5   6  1   
  7   5   8  ar  
  8   6   7  1   
  9   8   9  1   
 10   8  11  ar  
 11   9  10  1   
 12  11  12  1   
 13  11  13  ar  
 14  13  14  1   
 15  14  15  1   
 16  14  16  2   
 17  16  17  1   
 18  16  18  1   
 19  18  19  1   
 20  18  21  2   
 21  19  20  1   
 22  20  22  1   
 23  20  59  1   
 24  20  60  1   
 25  22  23  1   
 26  22  24  1   
 27  22  25  1   
 28  25  26  1   
 29  25  27  1   
 30  25  35  1   
 31  27  28  1   
 32  28  29  1   
 33  28  34  2   
 34  29  30  1   
 35  29  31  2   
 36  31  32  1   
 37  31  33  1   
 38  33  63  ar  
 39  33  73  ar  
 40  35  36  1   
 41  35  38  1   
 42  35  39  1   
 43  36  37  1   
 44  39  40  1   
 45  39  41  1   
 46  39  59  1   
 47  41  42  1   
 48  42  43  1   
 49  42  58  2   
 50  43  44  1   
 51  43  56  1   
 52  43  57  1   
 53  44  45  1   
 54  44  54  1   
 55  44  55  1   
 56  45  46  1   
 57  45  53  2   
 58  46  47  1   
 59  47  48  1   
 60  47  49  1   
 61  47  50  1   
 62  51  60  1   
 63  51  75  1   
 64  52  60  2   
 65  59  61  1   
 66  59  62  1   
 67  63  64  1   
 68  63  65  ar  
 69  65  66  1   
 70  65  67  ar  
 71  67  68  1   
 72  67  70  ar  
 73  68  69  1   
 74  70  71  1   
 75  70  73  ar  
 76  71  72  1   
 77  73  74  1   
@<TRIPOS>SUBSTRUCTURE
  1 <1>   0 RESIDUE 1 * * 1
# MOE 2007.09 (io_trps.svl 2007.09)
