@<TRIPOS>MOLECULE
J03_12
31 33 1 0 0 
SMALL
USER_CHARGES


@<TRIPOS>ATOM
  1 C        1.3079     0.5120    -0.6945 C.ar  1 <1>   0.0825 
  2 C        0.1250     1.1084    -1.1320 C.ar  1 <1>  -0.1500 
  3 H        0.1709     2.0258    -1.7111 H     1 <1>   0.1500 
  4 C       -1.0961     0.5130    -0.8144 C.ar  1 <1>   0.0825 
  5 O       -2.2769     1.0655    -1.2189 O.3   1 <1>  -0.5325 
  6 H       -2.0901     1.8875    -1.7029 H     1 <1>   0.4500 
  7 C       -1.1516    -0.6648    -0.0718 C.ar  1 <1>  -0.1500 
  8 H       -2.1080    -1.1185     0.1691 H     1 <1>   0.1500 
  9 C        0.0336    -1.2492     0.3603 C.ar  1 <1>   0.0825 
 10 O       -0.0466    -2.4037     1.0946 O.3   1 <1>  -0.5325 
 11 H        0.8812    -2.6660     1.3206 H     1 <1>   0.4500 
 12 C        1.2616    -0.6603     0.0480 C.ar  1 <1>   0.0862 
 13 C        2.5157    -1.2606     0.5007 C.2   1 <1>   0.4694 
 14 O        2.4676    -2.2961     1.1608 O.2   1 <1>  -0.5700 
 15 C        3.7721    -0.5680     0.1379 C.2   1 <1>   0.0911 
 16 O        4.9556    -1.1193     0.5892 O.3   1 <1>  -0.5267 
 17 H        5.6976    -0.5434     0.3387 H     1 <1>   0.4500 
 18 C        3.6714     0.5585    -0.5909 C.2   1 <1>   0.0483 
 19 C        4.8482     1.3384    -0.9840 C.ar  1 <1>   0.0284 
 20 O        2.4859     1.1288    -1.0238 O.3   1 <1>  -0.1592 
 21 C        5.6674     0.9220    -2.0421 C.ar  1 <1>  -0.1500 
 22 H        5.4300     0.0216    -2.6051 H     1 <1>   0.1500 
 23 C        6.7984     1.6655    -2.3887 C.ar  1 <1>  -0.1500 
 24 H        7.4309     1.3404    -3.2114 H     1 <1>   0.1500 
 25 C        7.1166     2.8258    -1.6821 C.ar  1 <1>  -0.1500 
 26 H        7.9991     3.3925    -1.9626 H     1 <1>   0.1500 
 27 C        6.2963     3.2356    -0.6346 C.ar  1 <1>   0.0825 
 28 O        6.5672     4.3609     0.0863 O.3   1 <1>  -0.5325 
 29 H        7.3837     4.7608    -0.2550 H     1 <1>   0.4500 
 30 C        5.1671     2.5053    -0.2818 C.ar  1 <1>  -0.1500 
 31 H        4.5450     2.8493     0.5408 H     1 <1>   0.1500 
@<TRIPOS>BOND
  1   1   2  ar  
  2   1  12  ar  
  3   1  20  1   
  4   2   3  1   
  5   2   4  ar  
  6   4   5  1   
  7   4   7  ar  
  8   5   6  1   
  9   7   8  1   
 10   7   9  ar  
 11   9  10  1   
 12   9  12  ar  
 13  10  11  1   
 14  12  13  1   
 15  13  14  2   
 16  13  15  1   
 17  15  16  1   
 18  15  18  2   
 19  16  17  1   
 20  18  19  1   
 21  18  20  1   
 22  19  21  ar  
 23  19  30  ar  
 24  21  22  1   
 25  21  23  ar  
 26  23  24  1   
 27  23  25  ar  
 28  25  26  1   
 29  25  27  ar  
 30  27  28  1   
 31  27  30  ar  
 32  28  29  1   
 33  30  31  1   
@<TRIPOS>SUBSTRUCTURE
  1 <1>   0 RESIDUE 1 * * 1
# MOE 2007.09 (io_trps.svl 2007.09)
