@<TRIPOS>MOLECULE
J03_08
53 56 1 0 0 
SMALL
USER_CHARGES


@<TRIPOS>ATOM
  1 C        0.9970     0.7912     0.1090 C.ar  1 <1>  -0.1516 
  2 C       -0.2081     1.2832     0.6077 C.ar  1 <1>   0.0000 
  3 C       -1.1079     0.1777     0.7430 C.ar  1 <1>   0.0000 
  4 C       -0.4296    -0.9647     0.3229 C.ar  1 <1>  -0.1516 
  5 N        0.8316    -0.5679    -0.0519 N.pl3 1 <1>   0.0332 
  6 H        1.5439    -1.1925    -0.4003 H     1 <1>   0.2700 
  7 C       -2.4418     0.0462     1.1862 C.ar  1 <1>  -0.1500 
  8 H       -2.9987     0.9171     1.5201 H     1 <1>   0.1500 
  9 C       -3.0471    -1.2169     1.1933 C.ar  1 <1>  -0.1500 
 10 H       -4.0735    -1.3026     1.5367 H     1 <1>   0.1500 
 11 C       -2.3349    -2.3323     0.7654 C.ar  1 <1>   0.0825 
 12 O       -2.9054    -3.5750     0.7633 O.3   1 <1>  -0.5325 
 13 H       -3.8165    -3.5023     1.0922 H     1 <1>   0.4500 
 14 C       -1.0155    -2.2363     0.3216 C.ar  1 <1>  -0.1500 
 15 H       -0.4743    -3.1160    -0.0093 H     1 <1>   0.1500 
 16 C        2.1159     1.6071    -0.1515 C.ar  1 <1>  -0.1435 
 17 C        1.9756     2.9792     0.1391 C.ar  1 <1>   0.0825 
 18 C        0.7731     3.5128     0.6302 C.ar  1 <1>  -0.1435 
 19 C        0.6450     4.9837     0.9165 C.3   1 <1>   0.1435 
 20 H1      -0.3569     5.2382     1.2781 H     1 <1>   0.0000 
 21 H2       0.8248     5.5647     0.0060 H     1 <1>   0.0000 
 22 H3       1.3623     5.2833     1.6874 H     1 <1>   0.0000 
 23 C       -0.3194     2.6636     0.8677 C.ar  1 <1>  -0.1500 
 24 H       -1.2526     3.0630     1.2549 H     1 <1>   0.1500 
 25 C        3.4084     1.0594    -0.6815 C.3   1 <1>   0.1435 
 26 H1       3.2140     0.3196    -1.4666 H     1 <1>   0.0000 
 27 H2       3.9352     0.5450     0.1304 H     1 <1>   0.0000 
 28 C        4.2678     2.1749    -1.2512 C.3   1 <1>   0.0000 
 29 H1       3.8188     2.4980    -2.2013 H     1 <1>   0.0000 
 30 H2       5.2682     1.7978    -1.4900 H     1 <1>   0.0000 
 31 C        4.3191     3.3709    -0.2892 C.3   1 <1>   0.2800 
 32 C        5.0737     4.5202    -0.9798 C.3   1 <1>   0.0000 
 33 H1       4.5377     4.8514    -1.8774 H     1 <1>   0.0000 
 34 H2       6.0864     4.2327    -1.2776 H     1 <1>   0.0000 
 35 H3       5.1385     5.3959    -0.3236 H     1 <1>   0.0000 
 36 C        4.9584     3.0730     1.0931 C.3   1 <1>   0.0000 
 37 H1       4.9528     4.0007     1.6838 H     1 <1>   0.0000 
 38 C        6.3792     2.5055     1.0504 C.3   1 <1>   0.1382 
 39 C        6.9086     2.2770     2.4401 C.2   1 <1>  -0.2882 
 40 H        6.5431     1.3651     2.9122 H     1 <1>   0.1500 
 41 C        7.7700     3.0523     3.1269 C.2   1 <1>  -0.2764 
 42 C        8.2256     2.6570     4.5072 C.3   1 <1>   0.1382 
 43 H1       7.7947     1.7039     4.8314 H     1 <1>   0.0000 
 44 H2       7.9325     3.4192     5.2367 H     1 <1>   0.0000 
 45 H3       9.3154     2.5533     4.5304 H     1 <1>   0.0000 
 46 C        8.3421     4.3525     2.6339 C.3   1 <1>   0.1382 
 47 H1       7.8973     4.6954     1.6968 H     1 <1>   0.0000 
 48 H2       9.4216     4.2543     2.4797 H     1 <1>   0.0000 
 49 H3       8.1703     5.1429     3.3726 H     1 <1>   0.0000 
 50 H2       7.0456     3.1561     0.4786 H     1 <1>   0.0000 
 51 H3       6.3859     1.5394     0.5330 H     1 <1>   0.0000 
 52 H3       4.3156     2.3893     1.6632 H     1 <1>   0.0000 
 53 O        2.9904     3.8867    -0.0590 O.3   1 <1>  -0.3625 
@<TRIPOS>BOND
  1   1   2  ar  
  2   1   5  1   
  3   1  16  ar  
  4   2   3  1   
  5   2  23  ar  
  6   3   4  ar  
  7   3   7  ar  
  8   4   5  1   
  9   4  14  ar  
 10   5   6  1   
 11   7   8  1   
 12   7   9  ar  
 13   9  10  1   
 14   9  11  ar  
 15  11  12  1   
 16  11  14  ar  
 17  12  13  1   
 18  14  15  1   
 19  16  17  ar  
 20  16  25  1   
 21  17  18  ar  
 22  17  53  1   
 23  18  19  1   
 24  18  23  ar  
 25  19  20  1   
 26  19  21  1   
 27  19  22  1   
 28  23  24  1   
 29  25  26  1   
 30  25  27  1   
 31  25  28  1   
 32  28  29  1   
 33  28  30  1   
 34  28  31  1   
 35  31  32  1   
 36  31  36  1   
 37  31  53  1   
 38  32  33  1   
 39  32  34  1   
 40  32  35  1   
 41  36  37  1   
 42  36  38  1   
 43  36  52  1   
 44  38  39  1   
 45  38  50  1   
 46  38  51  1   
 47  39  40  1   
 48  39  41  2   
 49  41  42  1   
 50  41  46  1   
 51  42  43  1   
 52  42  44  1   
 53  42  45  1   
 54  46  47  1   
 55  46  48  1   
 56  46  49  1   
@<TRIPOS>SUBSTRUCTURE
  1 <1>   0 RESIDUE 1 * * 1
# MOE 2007.09 (io_trps.svl 2007.09)
