@<TRIPOS>MOLECULE
J03_23
21 21 1 0 0 
SMALL
USER_CHARGES


@<TRIPOS>ATOM
  1 C        1.1836     0.6654     0.3714 C.2   1 <1>   0.5412 
  2 O        2.2031     1.2307     0.7396 O.2   1 <1>  -0.5700 
  3 C       -0.0714     1.4008     0.1897 C.2   1 <1>  -0.1356 
  4 H       -0.0528     2.4641     0.3967 H     1 <1>   0.1500 
  5 C       -1.1750     0.7789    -0.2123 C.2   1 <1>  -0.1356 
  6 H       -2.1093     1.3104    -0.3518 H     1 <1>   0.1500 
  7 C       -1.1937    -0.6658    -0.4925 C.2   1 <1>   0.5412 
  8 O       -2.2310    -1.1968    -0.8659 O.2   1 <1>  -0.5700 
  9 C        0.0722    -1.4327    -0.3054 C.2   1 <1>  -0.1238 
 10 C        0.0075    -2.9203    -0.6172 C.3   1 <1>   0.1382 
 11 C        1.3486    -3.5476    -1.0212 C.3   1 <1>   0.0000 
 12 H1       1.2008    -4.5812    -1.3539 H     1 <1>   0.0000 
 13 H2       2.0577    -3.5718    -0.1866 H     1 <1>   0.0000 
 14 H3       1.8079    -2.9974    -1.8497 H     1 <1>   0.0000 
 15 H2      -0.6574    -3.0603    -1.4801 H     1 <1>   0.0000 
 16 C       -0.5841    -3.6898     0.5682 C.3   1 <1>   0.0000 
 17 H1      -1.5800    -3.3176     0.8316 H     1 <1>   0.0000 
 18 H2       0.0518    -3.6044     1.4567 H     1 <1>   0.0000 
 19 H3      -0.6840    -4.7540     0.3279 H     1 <1>   0.0000 
 20 C        1.1686    -0.7780     0.0937 C.2   1 <1>  -0.1356 
 21 H        2.1191    -1.2751     0.2467 H     1 <1>   0.1500 
@<TRIPOS>BOND
  1   1   2  2   
  2   1   3  1   
  3   1  20  1   
  4   3   4  1   
  5   3   5  2   
  6   5   6  1   
  7   5   7  1   
  8   7   8  2   
  9   7   9  1   
 10   9  10  1   
 11   9  20  2   
 12  10  11  1   
 13  10  15  1   
 14  10  16  1   
 15  11  12  1   
 16  11  13  1   
 17  11  14  1   
 18  16  17  1   
 19  16  18  1   
 20  16  19  1   
 21  20  21  1   
@<TRIPOS>SUBSTRUCTURE
  1 <1>   0 RESIDUE 1 * * 1
# MOE 2007.09 (io_trps.svl 2007.09)
