@<TRIPOS>MOLECULE
J04_01
43 48 1 0 0 
SMALL
USER_CHARGES


@<TRIPOS>ATOM
  1 C        1.3423     0.5847    -0.5146 C.ar  1 <1>  -0.1500 
  2 H        2.2755     1.1236    -0.3912 H     1 <1>   0.1500 
  3 C        0.1855     1.2525    -0.9369 C.ar  1 <1>  -0.1500 
  4 H        0.2261     2.3199    -1.1425 H     1 <1>   0.1500 
  5 C       -1.0292     0.5614    -1.0992 C.ar  1 <1>  -0.1500 
  6 H       -1.9145     1.1006    -1.4286 H     1 <1>   0.1500 
  7 C       -1.1053    -0.8070    -0.8420 C.ar  1 <1>  -0.1500 
  8 H       -2.0333    -1.3547    -0.9635 H     1 <1>   0.1500 
  9 C        0.0525    -1.4298    -0.4286 C.ar  1 <1>   0.0862 
 10 C        1.2666    -0.7697    -0.2584 C.ar  1 <1>   0.1000 
 11 C        0.2948    -2.8210    -0.0868 C.2   1 <1>   0.4228 
 12 O       -0.5717    -3.6778    -0.1281 O.2   1 <1>  -0.5700 
 13 C        1.7882    -2.9799     0.2743 C.3   1 <1>   0.4301 
 14 H1       2.2648    -3.5893    -0.5034 H     1 <1>   0.0000 
 15 C        2.0503    -3.5303     1.6834 C.3   1 <1>   0.2045 
 16 H        1.4997    -2.9723     2.4504 H     1 <1>   0.0000 
 17 N        2.2867    -1.5987     0.1634 N.pl3 1 <1>  -0.8691 
 18 H        3.2342    -1.3241     0.4012 H     1 <1>   0.4000 
 19 C        1.8275    -5.0155     1.8560 C.ar  1 <1>  -0.1435 
 20 C        3.0359    -5.6554     2.1642 C.ar  1 <1>   0.1170 
 21 N        4.0608    -4.7037     2.2501 N.am  1 <1>  -0.2370 
 22 C        3.5520    -3.4335     2.0021 C.2   1 <1>   0.4490 
 23 C        3.1029    -7.0241     2.3691 C.ar  1 <1>  -0.1500 
 24 H        4.0352    -7.5257     2.6046 H     1 <1>   0.1500 
 25 C        1.9216    -7.7621     2.2789 C.ar  1 <1>  -0.1500 
 26 H        1.9436    -8.8375     2.4377 H     1 <1>   0.1500 
 27 C        0.7037    -7.1250     2.0013 C.ar  1 <1>  -0.1500 
 28 H       -0.2109    -7.7111     1.9492 H     1 <1>   0.1500 
 29 C        0.6500    -5.7432     1.7966 C.ar  1 <1>  -0.1500 
 30 H       -0.3067    -5.2686     1.6061 H     1 <1>   0.1500 
 31 C        5.3910    -4.9378     2.5450 C.2   1 <1>   0.5438 
 32 O        5.9115    -6.0281     2.7556 O.2   1 <1>  -0.5700 
 33 C        6.2217    -3.7156     2.6013 C.ar  1 <1>   0.0862 
 34 C        5.6145    -2.4773     2.3502 C.ar  1 <1>   0.1790 
 35 N        4.2481    -2.3441     2.0361 N.2   1 <1>  -0.6290 
 36 C        7.5844    -3.8021     2.9074 C.ar  1 <1>  -0.1500 
 37 H        8.0505    -4.7653     3.1027 H     1 <1>   0.1500 
 38 C        8.3527    -2.6402     2.9653 C.ar  1 <1>  -0.1500 
 39 H        9.4118    -2.7002     3.2040 H     1 <1>   0.1500 
 40 C        7.7616    -1.4013     2.7193 C.ar  1 <1>  -0.1500 
 41 H        8.3606    -0.4950     2.7667 H     1 <1>   0.1500 
 42 C        6.3998    -1.3227     2.4132 C.ar  1 <1>  -0.1500 
 43 H        5.9461    -0.3530     2.2248 H     1 <1>   0.1500 
@<TRIPOS>BOND
  1   1   2  1   
  2   1   3  ar  
  3   1  10  ar  
  4   3   4  1   
  5   3   5  ar  
  6   5   6  1   
  7   5   7  ar  
  8   7   8  1   
  9   7   9  ar  
 10   9  10  ar  
 11   9  11  1   
 12  10  17  1   
 13  11  12  2   
 14  11  13  1   
 15  13  14  1   
 16  13  15  1   
 17  13  17  1   
 18  15  16  1   
 19  15  19  1   
 20  15  22  1   
 21  17  18  1   
 22  19  20  ar  
 23  19  29  ar  
 24  20  21  1   
 25  20  23  ar  
 26  21  22  1   
 27  21  31  am  
 28  22  35  2   
 29  23  24  1   
 30  23  25  ar  
 31  25  26  1   
 32  25  27  ar  
 33  27  28  1   
 34  27  29  ar  
 35  29  30  1   
 36  31  32  2   
 37  31  33  1   
 38  33  34  ar  
 39  33  36  ar  
 40  34  35  1   
 41  34  42  ar  
 42  36  37  1   
 43  36  38  ar  
 44  38  39  1   
 45  38  40  ar  
 46  40  41  1   
 47  40  42  ar  
 48  42  43  1   
@<TRIPOS>SUBSTRUCTURE
  1 <1>   0 RESIDUE 1 * * 1
# MOE 2007.09 (io_trps.svl 2007.09)
