@<TRIPOS>MOLECULE
J06_08
73 76 1 0 0 
SMALL
USER_CHARGES


@<TRIPOS>ATOM
  1 C        4.0167     0.2680     1.2961 C.ar  1 <1>   0.0284 
  2 C        4.1177     1.1852     0.1539 C.2   1 <1>  -0.1784 
  3 H        3.2303     1.7792    -0.0568 H     1 <1>   0.1500 
  4 C        5.2197     1.3346    -0.5882 C.2   1 <1>  -0.1356 
  5 H        6.1350     0.7853    -0.4022 H     1 <1>   0.1500 
  6 C        5.2295     2.2933    -1.7012 C.2   1 <1>   0.7056 
  7 O        6.4576     2.2456    -2.2849 O.3   1 <1>  -0.4300 
  8 C        6.6179     3.0870    -3.4589 C.3   1 <1>   0.2800 
  9 H        5.7486     2.8912    -4.1023 H     1 <1>   0.0000 
 10 O        4.3051     3.0242    -2.0346 O.2   1 <1>  -0.5700 
 11 C        3.1941     0.6248     2.3753 C.ar  1 <1>  -0.1500 
 12 H        2.6629     1.5744     2.3752 H     1 <1>   0.1500 
 13 C        3.0495    -0.2270     3.4731 C.ar  1 <1>  -0.1500 
 14 H        2.4150     0.0626     4.3069 H     1 <1>   0.1500 
 15 C        3.7156    -1.4500     3.4984 C.ar  1 <1>  -0.1500 
 16 H        3.6014    -2.1137     4.3509 H     1 <1>   0.1500 
 17 C        4.5218    -1.8256     2.4259 C.ar  1 <1>  -0.1500 
 18 H        5.0306    -2.7863     2.4426 H     1 <1>   0.1500 
 19 C        4.6685    -0.9732     1.3277 C.ar  1 <1>  -0.1500 
 20 H        5.2897    -1.2999     0.4973 H     1 <1>   0.1500 
 21 C        6.6277     4.5579    -2.9968 C.3   1 <1>   0.2800 
 22 H1       6.6369     4.5882    -1.8983 H     1 <1>   0.0000 
 23 O        5.4069     5.1972    -3.3738 O.3   1 <1>  -0.6800 
 24 H        4.6876     4.6592    -2.9712 H     1 <1>   0.4000 
 25 C        7.8511     5.3565    -3.4508 C.3   1 <1>   0.0000 
 26 H1       7.8979     6.2562    -2.8205 H     1 <1>   0.0000 
 27 C        7.7668     5.8738    -4.8898 C.3   1 <1>   0.0000 
 28 H1       8.6577     6.4554    -5.1475 H     1 <1>   0.0000 
 29 H2       6.9076     6.5431    -5.0080 H     1 <1>   0.0000 
 30 H3       7.6642     5.0802    -5.6307 H     1 <1>   0.0000 
 31 C        9.0778     4.4850    -3.1360 C.3   1 <1>   0.2800 
 32 H1       9.0402     4.1803    -2.0811 H     1 <1>   0.0000 
 33 C       10.4018     5.2282    -3.3596 C.3   1 <1>   0.2800 
 34 O       11.4532     4.5556    -2.6672 O.3   1 <1>  -0.6800 
 35 H       12.2828     5.0010    -2.9102 H     1 <1>   0.4000 
 36 H2      10.3528     6.2492    -2.9689 H     1 <1>   0.0000 
 37 H3      10.6658     5.2521    -4.4218 H     1 <1>   0.0000 
 38 O        9.1178     3.2762    -3.8961 O.3   1 <1>  -0.5600 
 39 C        7.8772     2.6664    -4.2546 C.3   1 <1>   0.4235 
 40 C        8.0180     1.1440    -4.3614 C.ar  1 <1>  -0.1435 
 41 H2       7.7332     3.0270    -5.2785 H     1 <1>   0.0000 
 42 C        7.2753     0.4560    -5.3457 C.ar  1 <1>   0.0825 
 43 O        6.4717     1.2296    -6.1464 O.3   1 <1>  -0.3625 
 44 C        5.6343     0.5717    -7.0900 C.3   1 <1>   0.2800 
 45 H1       5.0404     1.3373    -7.5985 H     1 <1>   0.0000 
 46 H2       4.9389    -0.1126    -6.5929 H     1 <1>   0.0000 
 47 H3       6.2292     0.0540    -7.8493 H     1 <1>   0.0000 
 48 C        7.3805    -0.9340    -5.4547 C.ar  1 <1>  -0.1500 
 49 H        6.8253    -1.4707    -6.2190 H     1 <1>   0.1500 
 50 C        8.1971    -1.6803    -4.5875 C.ar  1 <1>  -0.1435 
 51 C        8.2479    -3.1730    -4.7777 C.3   1 <1>   0.1435 
 52 H1       7.8627    -3.6862    -3.8910 H     1 <1>   0.0000 
 53 H2       9.2708    -3.4984    -4.9918 H     1 <1>   0.0000 
 54 H3       7.6308    -3.4937    -5.6244 H     1 <1>   0.0000 
 55 C        8.9138    -1.0046    -3.5833 C.ar  1 <1>   0.0862 
 56 C        8.8216     0.3931    -3.4711 C.ar  1 <1>   0.0825 
 57 C        9.7688    -1.7182    -2.6157 C.2   1 <1>   0.4694 
 58 O        9.9261    -2.9320    -2.6163 O.2   1 <1>  -0.5700 
 59 C       10.4579    -0.9138    -1.6057 C.2   1 <1>  -0.1356 
 60 H       11.0950    -1.4349    -0.9024 H     1 <1>   0.1500 
 61 C       10.3021     0.4113    -1.5988 C.2   1 <1>  -0.0615 
 62 C       10.9846     1.2944    -0.5822 C.3   1 <1>   0.1382 
 63 H       11.0057     0.7767     0.3859 H     1 <1>   0.0000 
 64 H1      10.3768     2.1972    -0.4405 H     1 <1>   0.0000 
 65 C       12.4143     1.6811    -0.9940 C.3   1 <1>   0.2800 
 66 H       12.4377     2.0042    -2.0405 H     1 <1>   0.0000 
 67 C       12.9614     2.7962    -0.1095 C.3   1 <1>   0.0000 
 68 H1      13.9858     3.0480    -0.4044 H     1 <1>   0.0000 
 69 H2      13.0041     2.4817     0.9393 H     1 <1>   0.0000 
 70 H3      12.3473     3.6988    -0.1758 H     1 <1>   0.0000 
 71 O       13.2881     0.5518    -0.8771 O.3   1 <1>  -0.6800 
 72 H       13.4065     0.3523     0.0674 H     1 <1>   0.4000 
 73 O        9.4861     1.0891    -2.4836 O.3   1 <1>  -0.1592 
@<TRIPOS>BOND
  1   1   2  1   
  2   1  11  ar  
  3   1  19  ar  
  4   2   3  1   
  5   2   4  2   
  6   4   5  1   
  7   4   6  1   
  8   6   7  1   
  9   6  10  2   
 10   7   8  1   
 11   8   9  1   
 12   8  21  1   
 13   8  39  1   
 14  11  12  1   
 15  11  13  ar  
 16  13  14  1   
 17  13  15  ar  
 18  15  16  1   
 19  15  17  ar  
 20  17  18  1   
 21  17  19  ar  
 22  19  20  1   
 23  21  22  1   
 24  21  23  1   
 25  21  25  1   
 26  23  24  1   
 27  25  26  1   
 28  25  27  1   
 29  25  31  1   
 30  27  28  1   
 31  27  29  1   
 32  27  30  1   
 33  31  32  1   
 34  31  33  1   
 35  31  38  1   
 36  33  34  1   
 37  33  36  1   
 38  33  37  1   
 39  34  35  1   
 40  38  39  1   
 41  39  40  1   
 42  39  41  1   
 43  40  42  ar  
 44  40  56  ar  
 45  42  43  1   
 46  42  48  ar  
 47  43  44  1   
 48  44  45  1   
 49  44  46  1   
 50  44  47  1   
 51  48  49  1   
 52  48  50  ar  
 53  50  51  1   
 54  50  55  ar  
 55  51  52  1   
 56  51  53  1   
 57  51  54  1   
 58  55  56  ar  
 59  55  57  1   
 60  56  73  1   
 61  57  58  2   
 62  57  59  1   
 63  59  60  1   
 64  59  61  2   
 65  61  62  1   
 66  61  73  1   
 67  62  63  1   
 68  62  64  1   
 69  62  65  1   
 70  65  66  1   
 71  65  67  1   
 72  65  71  1   
 73  67  68  1   
 74  67  69  1   
 75  67  70  1   
 76  71  72  1   
@<TRIPOS>SUBSTRUCTURE
  1 <1>   0 RESIDUE 1 * * 1
# MOE 2007.09 (io_trps.svl 2007.09)
