@<TRIPOS>MOLECULE
J06_07
72 75 1 0 0 
SMALL
USER_CHARGES


@<TRIPOS>ATOM
  1 C        1.9857     0.1383     0.0704 C.ar  1 <1>   0.0284 
  2 C        2.6991     1.1176    -0.7568 C.2   1 <1>  -0.1784 
  3 H        2.0923     1.9257    -1.1623 H     1 <1>   0.1500 
  4 C        4.0148     1.0777    -0.9913 C.2   1 <1>  -0.1356 
  5 H        4.6646     0.3118    -0.5855 H     1 <1>   0.1500 
  6 C        4.6419     2.1247    -1.8136 C.2   1 <1>   0.7056 
  7 O        5.9716     1.8543    -1.8781 O.3   1 <1>  -0.4300 
  8 C        6.7931     2.7914    -2.6104 C.3   1 <1>   0.2800 
  9 H        6.1577     3.3588    -3.3048 H     1 <1>   0.0000 
 10 O        4.0519     3.0578    -2.3376 O.2   1 <1>  -0.5700 
 11 C        0.9169     0.5824     0.8641 C.ar  1 <1>  -0.1500 
 12 H        0.6474     1.6367     0.8832 H     1 <1>   0.1500 
 13 C        0.1890    -0.3149     1.6509 C.ar  1 <1>  -0.1500 
 14 H       -0.6276     0.0581     2.2612 H     1 <1>   0.1500 
 15 C        0.5231    -1.6652     1.6340 C.ar  1 <1>   0.0825 
 16 O       -0.1625    -2.5773     2.3831 O.3   1 <1>  -0.5325 
 17 H       -0.8494    -2.1089     2.8853 H     1 <1>   0.4500 
 18 C        1.5691    -2.1275     0.8432 C.ar  1 <1>  -0.1500 
 19 H        1.8133    -3.1859     0.8334 H     1 <1>   0.1500 
 20 C        2.2968    -1.2285     0.0587 C.ar  1 <1>  -0.1500 
 21 H        3.0997    -1.6124    -0.5657 H     1 <1>   0.1500 
 22 C        7.3939     3.7790    -1.6100 C.3   1 <1>   0.2800 
 23 H1       7.9012     3.2377    -0.8031 H     1 <1>   0.0000 
 24 O        6.3593     4.5588    -0.9904 O.3   1 <1>  -0.6800 
 25 H        5.9428     5.0748    -1.7095 H     1 <1>   0.4000 
 26 C        8.3544     4.7243    -2.3189 C.3   1 <1>   0.2800 
 27 H1       8.7583     5.4457    -1.5987 H     1 <1>   0.0000 
 28 O        7.6115     5.4747    -3.2885 O.3   1 <1>  -0.6800 
 29 H        8.1473     6.2393    -3.5640 H     1 <1>   0.4000 
 30 C        9.4714     3.8913    -2.9499 C.3   1 <1>   0.2800 
 31 H1      10.0082     3.3831    -2.1473 H     1 <1>   0.0000 
 32 C       10.4624     4.7777    -3.7165 C.3   1 <1>   0.2800 
 33 O       11.6741     4.0656    -3.9587 O.3   1 <1>  -0.6800 
 34 H       12.2059     4.6071    -4.5679 H     1 <1>   0.4000 
 35 H2      10.7186     5.6717    -3.1396 H     1 <1>   0.0000 
 36 H3      10.0501     5.0760    -4.6863 H     1 <1>   0.0000 
 37 O        8.9900     2.8984    -3.8649 O.3   1 <1>  -0.5600 
 38 C        7.8709     2.0825    -3.4879 C.3   1 <1>   0.4235 
 39 C        8.1865     0.6046    -3.1734 C.ar  1 <1>  -0.1435 
 40 H2       7.3830     2.0041    -4.4701 H     1 <1>   0.0000 
 41 C        7.1961    -0.3590    -3.5176 C.ar  1 <1>   0.0825 
 42 O        6.0583     0.1246    -4.1233 O.3   1 <1>  -0.3625 
 43 C        4.9815    -0.7745    -4.3619 C.3   1 <1>   0.2800 
 44 H1       4.1482    -0.1941    -4.7694 H     1 <1>   0.0000 
 45 H2       4.6382    -1.2391    -3.4317 H     1 <1>   0.0000 
 46 H3       5.2578    -1.5278    -5.1065 H     1 <1>   0.0000 
 47 C        7.4011    -1.7185    -3.2633 C.ar  1 <1>  -0.1500 
 48 H        6.6425    -2.4515    -3.5245 H     1 <1>   0.1500 
 49 C        8.5875    -2.1819    -2.6803 C.ar  1 <1>  -0.1435 
 50 C        8.7217    -3.6635    -2.4466 C.3   1 <1>   0.1435 
 51 H1       8.8837    -3.8724    -1.3845 H     1 <1>   0.0000 
 52 H2       9.5398    -4.0744    -3.0463 H     1 <1>   0.0000 
 53 H3       7.8128    -4.2027    -2.7368 H     1 <1>   0.0000 
 54 C        9.5896    -1.2488    -2.3578 C.ar  1 <1>   0.0862 
 55 C        9.3902     0.1318    -2.5941 C.ar  1 <1>   0.0825 
 56 C       10.8778    -1.6840    -1.7786 C.2   1 <1>   0.4694 
 57 O       11.1726    -2.8521    -1.5557 O.2   1 <1>  -0.5700 
 58 C       11.8510    -0.6411    -1.4641 C.2   1 <1>  -0.1356 
 59 H       12.7920    -0.9573    -1.0305 H     1 <1>   0.1500 
 60 C       11.5672     0.6347    -1.7324 C.2   1 <1>  -0.0615 
 61 C       12.5447     1.7425    -1.4067 C.3   1 <1>   0.1382 
 62 H       12.9053     1.5956    -0.3795 H     1 <1>   0.0000 
 63 H1      12.0121     2.6994    -1.4065 H     1 <1>   0.0000 
 64 C       13.7451     1.8162    -2.3694 C.3   1 <1>   0.2800 
 65 H       13.4091     1.7390    -3.4093 H     1 <1>   0.0000 
 66 C       14.5220     3.1157    -2.1842 C.3   1 <1>   0.0000 
 67 H1      15.3837     3.1434    -2.8599 H     1 <1>   0.0000 
 68 H2      14.9186     3.1946    -1.1658 H     1 <1>   0.0000 
 69 H3      13.8971     3.9909    -2.3815 H     1 <1>   0.0000 
 70 O       14.6508     0.7334    -2.1257 O.3   1 <1>  -0.6800 
 71 H       14.9807     0.8240    -1.2157 H     1 <1>   0.4000 
 72 O       10.3646     1.0551    -2.2799 O.3   1 <1>  -0.1592 
@<TRIPOS>BOND
  1   1   2  1   
  2   1  11  ar  
  3   1  20  ar  
  4   2   3  1   
  5   2   4  2   
  6   4   5  1   
  7   4   6  1   
  8   6   7  1   
  9   6  10  2   
 10   7   8  1   
 11   8   9  1   
 12   8  22  1   
 13   8  38  1   
 14  11  12  1   
 15  11  13  ar  
 16  13  14  1   
 17  13  15  ar  
 18  15  16  1   
 19  15  18  ar  
 20  16  17  1   
 21  18  19  1   
 22  18  20  ar  
 23  20  21  1   
 24  22  23  1   
 25  22  24  1   
 26  22  26  1   
 27  24  25  1   
 28  26  27  1   
 29  26  28  1   
 30  26  30  1   
 31  28  29  1   
 32  30  31  1   
 33  30  32  1   
 34  30  37  1   
 35  32  33  1   
 36  32  35  1   
 37  32  36  1   
 38  33  34  1   
 39  37  38  1   
 40  38  39  1   
 41  38  40  1   
 42  39  41  ar  
 43  39  55  ar  
 44  41  42  1   
 45  41  47  ar  
 46  42  43  1   
 47  43  44  1   
 48  43  45  1   
 49  43  46  1   
 50  47  48  1   
 51  47  49  ar  
 52  49  50  1   
 53  49  54  ar  
 54  50  51  1   
 55  50  52  1   
 56  50  53  1   
 57  54  55  ar  
 58  54  56  1   
 59  55  72  1   
 60  56  57  2   
 61  56  58  1   
 62  58  59  1   
 63  58  60  2   
 64  60  61  1   
 65  60  72  1   
 66  61  62  1   
 67  61  63  1   
 68  61  64  1   
 69  64  65  1   
 70  64  66  1   
 71  64  70  1   
 72  66  67  1   
 73  66  68  1   
 74  66  69  1   
 75  70  71  1   
@<TRIPOS>SUBSTRUCTURE
  1 <1>   0 RESIDUE 1 * * 1
# MOE 2007.09 (io_trps.svl 2007.09)
