J08_55
  MOE2015           3D
J08_55
 60 64  0  0  1  0  0  0  0  0999 V2000
    1.1363    0.7723   -0.4218 C   0  0  0  0  0  0  0  0  0  0  0  0
    2.0596    1.3474   -0.4088 H   0  0  0  0  0  0  0  0  0  0  0  0
   -0.0471    1.5096   -0.5161 C   0  0  0  0  0  0  0  0  0  0  0  0
    0.1352    2.8652   -0.6201 O   0  0  0  0  0  0  0  0  0  0  0  0
   -0.7226    3.6430    0.2112 C   0  0  0  0  0  0  0  0  0  0  0  0
   -0.1859    4.5602    0.4732 H   0  0  0  0  0  0  0  0  0  0  0  0
   -0.9830    3.1337    1.1461 H   0  0  0  0  0  0  0  0  0  0  0  0
   -1.6214    3.9353   -0.3394 H   0  0  0  0  0  0  0  0  0  0  0  0
   -1.2690    0.8483   -0.5584 C   0  0  0  0  0  0  0  0  0  0  0  0
   -2.3925    1.6102   -0.7369 O   0  0  0  0  0  0  0  0  0  0  0  0
   -3.6520    0.9533   -0.7835 C   0  0  0  0  0  0  0  0  0  0  0  0
   -4.4220    1.7180   -0.9240 H   0  0  0  0  0  0  0  0  0  0  0  0
   -3.8641    0.4384    0.1592 H   0  0  0  0  0  0  0  0  0  0  0  0
   -3.7078    0.2661   -1.6342 H   0  0  0  0  0  0  0  0  0  0  0  0
   -1.2641   -0.5491   -0.4415 C   0  0  0  0  0  0  0  0  0  0  0  0
   -2.2200   -1.0576   -0.4638 H   0  0  0  0  0  0  0  0  0  0  0  0
   -0.0758   -1.3322   -0.3064 C   0  0  0  0  0  0  0  0  0  0  0  0
    1.1608   -0.6390   -0.3175 C   0  0  0  0  0  0  0  0  0  0  0  0
   -0.0868   -2.7679   -0.1699 C   0  0  0  0  0  0  0  0  0  0  0  0
    1.1353   -3.4812   -0.0375 C   0  0  0  0  0  0  0  0  0  0  0  0
    2.3655   -2.7707   -0.0266 C   0  0  0  0  0  0  0  0  0  0  0  0
    2.3809   -1.3627   -0.2148 C   0  0  0  0  0  0  0  0  0  0  0  0
   -1.2837   -3.5348   -0.1448 C   0  0  0  0  0  0  0  0  0  0  0  0
   -2.2579   -3.0618   -0.2229 H   0  0  0  0  0  0  0  0  0  0  0  0
   -1.2956   -4.9262   -0.0009 C   0  0  0  0  0  0  0  0  0  0  0  0
   -2.5140   -5.5490    0.0471 O   0  0  0  0  0  0  0  0  0  0  0  0
   -2.9405   -5.6767    1.4058 C   0  0  0  0  0  0  0  0  0  0  0  0
   -3.9032   -6.1966    1.4056 H   0  0  0  0  0  0  0  0  0  0  0  0
   -3.0858   -4.6941    1.8680 H   0  0  0  0  0  0  0  0  0  0  0  0
   -2.2335   -6.2735    1.9925 H   0  0  0  0  0  0  0  0  0  0  0  0
   -0.1024   -5.6232    0.0598 C   0  0  0  0  0  0  0  0  0  0  0  0
    0.0401   -6.9791    0.1690 O   0  0  0  0  0  0  0  0  0  0  0  0
   -0.8374   -7.7443   -0.6534 C   0  0  0  0  0  0  0  0  0  0  0  0
   -0.3466   -8.7008   -0.8590 H   0  0  0  0  0  0  0  0  0  0  0  0
   -1.0378   -7.2620   -1.6167 H   0  0  0  0  0  0  0  0  0  0  0  0
   -1.7675   -7.9616   -0.1210 H   0  0  0  0  0  0  0  0  0  0  0  0
    1.0888   -4.8968    0.0707 C   0  0  0  0  0  0  0  0  0  0  0  0
    2.0027   -5.4815    0.1497 H   0  0  0  0  0  0  0  0  0  0  0  0
    3.6755   -3.5380    0.1480 C   0  0  0  0  0  0  0  0  0  0  0  0
    3.9057   -4.0666   -0.7842 H   0  0  0  0  0  0  0  0  0  0  0  0
    3.6233   -4.2444    0.9838 H   0  0  0  0  0  0  0  0  0  0  0  0
    4.8622   -2.6778    0.4690 N   0  3  3  0  0  0  0  0  0  0  0  0
    4.7533   -2.4313    1.4424 H   0  0  0  0  0  0  0  0  0  0  0  0
    4.8958   -1.5355   -0.4965 C   0  0  3  0  0  0  0  0  0  0  0  0
    4.8256   -1.9877   -1.4979 H   0  0  0  0  0  0  0  0  0  0  0  0
    3.7154   -0.6133   -0.2586 C   0  0  0  0  0  0  0  0  0  0  0  0
    3.7094    0.1130   -1.0795 H   0  0  0  0  0  0  0  0  0  0  0  0
    3.8323   -0.0655    0.6845 H   0  0  0  0  0  0  0  0  0  0  0  0
    6.1858   -3.3480    0.2399 C   0  0  0  0  0  0  0  0  0  0  0  0
    6.0849   -3.9994   -0.6345 H   0  0  0  0  0  0  0  0  0  0  0  0
    6.4407   -3.9360    1.1265 H   0  0  0  0  0  0  0  0  0  0  0  0
    7.1554   -2.1994   -0.0467 C   0  0  3  0  0  0  0  0  0  0  0  0
    7.7837   -2.4382   -0.9114 H   0  0  0  0  0  0  0  0  0  0  0  0
    8.0274   -1.9735    1.0613 C   0  0  0  0  0  0  0  0  0  0  0  0
    8.6351   -2.8620    1.2325 H   0  0  0  0  0  0  0  0  0  0  0  0
    7.4359   -1.7608    1.9518 H   0  0  0  0  0  0  0  0  0  0  0  0
    8.6769   -1.1251    0.8454 H   0  0  0  0  0  0  0  0  0  0  0  0
    6.2893   -0.9629   -0.3078 C   0  0  0  0  0  0  0  0  0  0  0  0
    6.6282   -0.4008   -1.1833 H   0  0  0  0  0  0  0  0  0  0  0  0
    6.3304   -0.2908    0.5574 H   0  0  0  0  0  0  0  0  0  0  0  0
  1  2  1  0  0  0  0
  1  3  2  0  0  0  0
  1 18  1  0  0  0  0
  3  4  1  0  0  0  0
  3  9  1  0  0  0  0
  4  5  1  0  0  0  0
  5  6  1  0  0  0  0
  5  7  1  0  0  0  0
  5  8  1  0  0  0  0
  9 10  1  0  0  0  0
  9 15  2  0  0  0  0
 10 11  1  0  0  0  0
 11 12  1  0  0  0  0
 11 13  1  0  0  0  0
 11 14  1  0  0  0  0
 15 16  1  0  0  0  0
 15 17  1  0  0  0  0
 17 18  1  0  0  0  0
 17 19  2  0  0  0  0
 18 22  2  0  0  0  0
 19 20  1  0  0  0  0
 19 23  1  0  0  0  0
 20 21  2  0  0  0  0
 20 37  1  0  0  0  0
 21 22  1  0  0  0  0
 21 39  1  0  0  0  0
 22 46  1  0  0  0  0
 23 24  1  0  0  0  0
 23 25  2  0  0  0  0
 25 26  1  0  0  0  0
 25 31  1  0  0  0  0
 26 27  1  0  0  0  0
 27 28  1  0  0  0  0
 27 29  1  0  0  0  0
 27 30  1  0  0  0  0
 31 32  1  0  0  0  0
 31 37  2  0  0  0  0
 32 33  1  0  0  0  0
 33 34  1  0  0  0  0
 33 35  1  0  0  0  0
 33 36  1  0  0  0  0
 37 38  1  0  0  0  0
 39 40  1  0  0  0  0
 39 41  1  0  0  0  0
 39 42  1  0  0  0  0
 42 43  1  0  0  0  0
 42 44  1  0  0  0  0
 42 49  1  0  0  0  0
 44 45  1  0  0  0  0
 44 46  1  0  0  0  0
 44 58  1  0  0  0  0
 46 47  1  0  0  0  0
 46 48  1  0  0  0  0
 49 50  1  0  0  0  0
 49 51  1  0  0  0  0
 49 52  1  0  0  0  0
 52 53  1  0  0  0  0
 52 54  1  0  0  0  0
 52 58  1  0  0  0  0
 54 55  1  0  0  0  0
 54 56  1  0  0  0  0
 54 57  1  0  0  0  0
 58 59  1  0  0  0  0
 58 60  1  0  0  0  0
M  CHG  1  42   1
M  END
$$$$
