@<TRIPOS>MOLECULE
J08_66
66 68 1 0 0 
SMALL
USER_CHARGES


@<TRIPOS>ATOM
  1 C        1.2387     0.7232     1.2127 C.ar  1 <1>  -0.1435 
  2 C        2.6026     1.3498     1.3730 C.3   1 <1>   0.1435 
  3 H1       2.8708     1.3660     2.4374 H     1 <1>   0.0000 
  4 H2       2.5619     2.4025     1.0644 H     1 <1>   0.0000 
  5 C        3.6620     0.6027     0.5660 C.3   1 <1>   0.0610 
  6 H1       3.6530    -0.4631     0.8231 H     1 <1>   0.0000 
  7 H2       3.4571     0.6979    -0.5065 H     1 <1>   0.0000 
  8 C        5.0656     1.1267     0.8289 C.2   1 <1>   0.4480 
  9 C        6.1741     0.4341     0.0410 C.3   1 <1>   0.0610 
 10 H1       5.9197     0.4840    -1.0201 H     1 <1>   0.0000 
 11 H2       6.1099    -0.6228     0.3315 H     1 <1>   0.0000 
 12 C        7.6134     0.9290     0.3082 C.3   1 <1>   0.0000 
 13 H        7.7262     0.9397     1.4027 H     1 <1>   0.0000 
 14 C        7.9501     2.3668    -0.2109 C.3   1 <1>   0.2800 
 15 H        9.0292     2.4270    -0.3986 H     1 <1>   0.0000 
 16 C        8.6355    -0.1109    -0.2215 C.3   1 <1>   0.0000 
 17 H1       8.7903     0.0173    -1.2978 H     1 <1>   0.0000 
 18 H2       8.2385    -1.1260    -0.0915 H     1 <1>   0.0000 
 19 C        9.9801    -0.0311     0.5183 C.3   1 <1>   0.1435 
 20 H1      10.3622     0.9954     0.5396 H     1 <1>   0.0000 
 21 H2       9.8434    -0.3156     1.5697 H     1 <1>   0.0000 
 22 C       11.0210    -0.9287    -0.1036 C.ar  1 <1>  -0.1435 
 23 O        5.2779     2.0234     1.6404 O.2   1 <1>  -0.5700 
 24 C        0.4181     1.0620     0.1260 C.ar  1 <1>  -0.1500 
 25 H        0.7652     1.7951    -0.5970 H     1 <1>   0.1500 
 26 C       -0.8337     0.4599    -0.0180 C.ar  1 <1>   0.0825 
 27 O       -1.6424     0.7867    -1.0722 O.3   1 <1>  -0.5325 
 28 H       -1.1990     1.4566    -1.6158 H     1 <1>   0.4500 
 29 C       -1.2727    -0.4824     0.9125 C.ar  1 <1>   0.0825 
 30 O       -2.5014    -1.0630     0.7568 O.3   1 <1>  -0.5325 
 31 H       -2.6508    -1.6805     1.4895 H     1 <1>   0.4500 
 32 C       -0.4641    -0.8299     1.9926 C.ar  1 <1>  -0.1500 
 33 H       -0.7872    -1.5617     2.7267 H     1 <1>   0.1500 
 34 C        0.7885    -0.2292     2.1396 C.ar  1 <1>  -0.1500 
 35 H        1.4121    -0.5086     2.9863 H     1 <1>   0.1500 
 36 C       11.0512    -2.2987     0.1954 C.ar  1 <1>  -0.1500 
 37 H       10.3233    -2.7224     0.8837 H     1 <1>   0.1500 
 38 C       12.0130    -3.1321    -0.3819 C.ar  1 <1>  -0.1500 
 39 H       12.0141    -4.1882    -0.1304 H     1 <1>   0.1500 
 40 C       12.9506    -2.5979    -1.2639 C.ar  1 <1>   0.0825 
 41 O       13.9008    -3.4002    -1.8333 O.3   1 <1>  -0.5325 
 42 H       13.7935    -4.3067    -1.5046 H     1 <1>   0.4500 
 43 C       12.9252    -1.2370    -1.5714 C.ar  1 <1>   0.0825 
 44 O       13.8536    -0.7242    -2.4355 O.3   1 <1>  -0.5325 
 45 H       13.7079     0.2312    -2.5240 H     1 <1>   0.4500 
 46 C       11.9632    -0.4028    -0.9997 C.ar  1 <1>  -0.1500 
 47 H       11.9403     0.6564    -1.2399 H     1 <1>   0.1500 
 48 O        7.6869     3.2489     0.8925 O.3   1 <1>  -0.5600 
 49 C        8.1225     4.5744     0.6751 C.3   1 <1>   0.5600 
 50 H1       9.2074     4.6100     0.5240 H     1 <1>   0.0000 
 51 O        7.8376     5.3168     1.8500 O.3   1 <1>  -0.6800 
 52 H        7.1774     4.7557     2.2998 H     1 <1>   0.4000 
 53 C        7.3649     5.2001    -0.4870 C.3   1 <1>   0.2800 
 54 O        7.8326     6.5286    -0.7514 O.3   1 <1>  -0.6800 
 55 H        7.8374     6.9799     0.1167 H     1 <1>   0.4000 
 56 H2       6.2960     5.2853    -0.2541 H     1 <1>   0.0000 
 57 C        7.5604     4.3519    -1.7384 C.3   1 <1>   0.2800 
 58 H1       8.5951     4.4476    -2.0926 H     1 <1>   0.0000 
 59 O        6.7261     4.8815    -2.7741 O.3   1 <1>  -0.6800 
 60 H        6.8815     5.8472    -2.7600 H     1 <1>   0.4000 
 61 C        7.2189     2.8685    -1.4847 C.3   1 <1>   0.0000 
 62 C        7.5655     2.0530    -2.7360 C.3   1 <1>   0.0000 
 63 H1       7.2511     1.0110    -2.6504 H     1 <1>   0.0000 
 64 H2       8.6445     2.0647    -2.9254 H     1 <1>   0.0000 
 65 H3       7.0666     2.4591    -3.6223 H     1 <1>   0.0000 
 66 H2       6.1335     2.8144    -1.3320 H     1 <1>   0.0000 
@<TRIPOS>BOND
  1   1   2  1   
  2   1  24  ar  
  3   1  34  ar  
  4   2   3  1   
  5   2   4  1   
  6   2   5  1   
  7   5   6  1   
  8   5   7  1   
  9   5   8  1   
 10   8   9  1   
 11   8  23  2   
 12   9  10  1   
 13   9  11  1   
 14   9  12  1   
 15  12  13  1   
 16  12  14  1   
 17  12  16  1   
 18  14  15  1   
 19  14  48  1   
 20  14  61  1   
 21  16  17  1   
 22  16  18  1   
 23  16  19  1   
 24  19  20  1   
 25  19  21  1   
 26  19  22  1   
 27  22  36  ar  
 28  22  46  ar  
 29  24  25  1   
 30  24  26  ar  
 31  26  27  1   
 32  26  29  ar  
 33  27  28  1   
 34  29  30  1   
 35  29  32  ar  
 36  30  31  1   
 37  32  33  1   
 38  32  34  ar  
 39  34  35  1   
 40  36  37  1   
 41  36  38  ar  
 42  38  39  1   
 43  38  40  ar  
 44  40  41  1   
 45  40  43  ar  
 46  41  42  1   
 47  43  44  1   
 48  43  46  ar  
 49  44  45  1   
 50  46  47  1   
 51  48  49  1   
 52  49  50  1   
 53  49  51  1   
 54  49  53  1   
 55  51  52  1   
 56  53  54  1   
 57  53  56  1   
 58  53  57  1   
 59  54  55  1   
 60  57  58  1   
 61  57  59  1   
 62  57  61  1   
 63  59  60  1   
 64  61  62  1   
 65  61  66  1   
 66  62  63  1   
 67  62  64  1   
 68  62  65  1   
@<TRIPOS>SUBSTRUCTURE
  1 <1>   0 RESIDUE 1 * * 1
# MOE 2007.09 (io_trps.svl 2007.09)
