@<TRIPOS>MOLECULE
J08_47
123 130 1 0 0 
SMALL
USER_CHARGES


@<TRIPOS>ATOM
  1 C        2.0129     0.2716    -2.6650 C.3   1 <1>   0.0000 
  2 C        1.6630     0.7320    -4.1021 C.3   1 <1>   0.0000 
  3 H1       2.3028     0.2798    -4.8606 H     1 <1>   0.0000 
  4 H2       1.7245     1.8197    -4.2066 H     1 <1>   0.0000 
  5 H3       0.6460     0.4700    -4.4028 H     1 <1>   0.0000 
  6 C        0.6822     0.2451    -1.8433 C.3   1 <1>   0.0000 
  7 H1       0.1704     1.2125    -1.9134 H     1 <1>   0.0000 
  8 H2       0.9080     0.0932    -0.7794 H     1 <1>   0.0000 
  9 C       -0.3007    -0.8457    -2.2889 C.3   1 <1>   0.0000 
 10 H1      -0.6919    -0.6259    -3.2871 H     1 <1>   0.0000 
 11 H2      -1.1707    -0.8104    -1.6250 H     1 <1>   0.0000 
 12 C        0.3217    -2.2459    -2.2900 C.3   1 <1>   0.2800 
 13 H       -0.3834    -2.9340    -2.7766 H     1 <1>   0.0000 
 14 O        0.5695    -2.7005    -0.9544 O.3   1 <1>  -0.5600 
 15 C       -0.5950    -3.0835    -0.2211 C.3   1 <1>   0.5600 
 16 H       -1.3908    -3.3628    -0.9218 H     1 <1>   0.0000 
 17 C        1.6627    -2.2941    -3.0849 C.3   1 <1>   0.2800 
 18 C        1.4226    -2.0457    -4.4705 C.3   1 <1>   0.0000 
 19 H1       0.9840    -1.0552    -4.5913 H     1 <1>   0.0000 
 20 H2       0.7361    -2.7971    -4.8607 H     1 <1>   0.0000 
 21 O3       2.6564    -2.1107    -5.1865 O.3   1 <1>   0.0000 
 22 H3       3.2389    -1.4401    -4.8224 H     1 <1>   0.0000 
 23 C        2.2808    -3.6986    -2.9524 C.3   1 <1>   0.0000 
 24 H1       1.5373    -4.4691    -3.1891 H     1 <1>   0.0000 
 25 H2       2.6616    -3.8879    -1.9437 H     1 <1>   0.0000 
 26 H3       3.0966    -3.8488    -3.6677 H     1 <1>   0.0000 
 27 C        2.6276    -1.1762    -2.5780 C.3   1 <1>   0.0000 
 28 H        2.7643    -1.3880    -1.5046 H     1 <1>   0.0000 
 29 C        4.0570    -1.2306    -3.1594 C.3   1 <1>   0.0000 
 30 H1       4.0510    -1.0898    -4.2434 H     1 <1>   0.0000 
 31 H2       4.4863    -2.2251    -2.9929 H     1 <1>   0.0000 
 32 C        5.0046    -0.2264    -2.4692 C.3   1 <1>   0.0000 
 33 H1       6.0026    -0.3273    -2.9128 H     1 <1>   0.0000 
 34 H2       5.0825    -0.5478    -1.4238 H     1 <1>   0.0000 
 35 C        5.4908     2.3133    -1.6198 C.3   1 <1>   0.0000 
 36 C        6.0019     3.5019    -2.5087 C.3   1 <1>   0.0000 
 37 H1       5.1780     4.1009    -2.9081 H     1 <1>   0.0000 
 38 H2       6.6215     3.1513    -3.3395 H     1 <1>   0.0000 
 39 H3       6.6577     4.1923    -1.9746 H     1 <1>   0.0000 
 40 C        4.5358     1.2578    -2.5260 C.3   1 <1>   0.0000 
 41 C        3.0500     1.2447    -1.9706 C.3   1 <1>   0.1382 
 42 H        3.1237     0.7930    -0.9694 H     1 <1>   0.0000 
 43 C        4.6052     1.6751    -4.0223 C.3   1 <1>   0.0000 
 44 H1       4.1331     2.6450    -4.2038 H     1 <1>   0.0000 
 45 H2       4.1396     0.9684    -4.7024 H     1 <1>   0.0000 
 46 H3       5.6412     1.7060    -4.3750 H     1 <1>   0.0000 
 47 C        4.6748     2.9298    -0.3878 C.3   1 <1>   0.4182 
 48 O        4.4586     1.8585     0.5766 O.3   1 <1>  -0.5600 
 49 C        3.3369     3.4219    -0.8933 C.2   1 <1>  -0.2882 
 50 H        3.0006     4.4262    -0.6654 H     1 <1>   0.1500 
 51 C        2.5848     2.6500    -1.6938 C.2   1 <1>  -0.2882 
 52 H        1.6454     3.0200    -2.0889 H     1 <1>   0.1500 
 53 C        6.7677     1.6243    -1.0580 C.3   1 <1>   0.0000 
 54 H1       7.4826     1.4132    -1.8642 H     1 <1>   0.0000 
 55 H2       6.5374     0.6447    -0.6301 H     1 <1>   0.0000 
 56 C        7.4683     2.4392     0.0449 C.3   1 <1>   0.2800 
 57 H1       8.0107     3.2735    -0.4163 H     1 <1>   0.0000 
 58 O        8.4554     1.5917     0.6342 O.3   1 <1>  -0.6800 
 59 H        9.1023     2.1570     1.0900 H     1 <1>   0.4000 
 60 C        6.4821     2.9913     1.1220 C.3   1 <1>   0.0000 
 61 C        5.5150     1.8845     1.5607 C.3   1 <1>   0.2800 
 62 H1       5.9778     0.8945     1.6214 H     1 <1>   0.0000 
 63 H2       5.0427     2.0774     2.5283 H     1 <1>   0.0000 
 64 C        5.4939     3.9530     0.4468 C.3   1 <1>   0.0000 
 65 H        6.0047     4.6910    -0.1738 H     1 <1>   0.0000 
 66 C        7.2584     3.6098     2.2961 C.3   1 <1>   0.0000 
 67 H1       8.0556     4.2537     1.9038 H     1 <1>   0.0000 
 68 H2       7.7604     2.8219     2.8717 H     1 <1>   0.0000 
 69 C        6.4034     4.4330     3.2592 C.3   1 <1>   0.0000 
 70 H1       7.0636     4.9353     3.9781 H     1 <1>   0.0000 
 71 H2       5.7818     3.7514     3.8536 H     1 <1>   0.0000 
 72 C        5.5075     5.4660     2.5512 C.3   1 <1>   0.0000 
 73 C        6.3561     6.5912     1.9280 C.3   1 <1>   0.0000 
 74 H1       7.0617     6.2204     1.1790 H     1 <1>   0.0000 
 75 H2       6.9402     7.1119     2.6956 H     1 <1>   0.0000 
 76 H3       5.7193     7.3356     1.4363 H     1 <1>   0.0000 
 77 C        4.5651     6.1041     3.5906 C.3   1 <1>   0.0000 
 78 H1       3.9044     6.8438     3.1245 H     1 <1>   0.0000 
 79 H2       5.1316     6.6116     4.3796 H     1 <1>   0.0000 
 80 H3       3.9317     5.3494     4.0703 H     1 <1>   0.0000 
 81 C        4.6575     4.7570     1.4742 C.3   1 <1>   0.0000 
 82 H1       4.0660     5.5125     0.9415 H     1 <1>   0.0000 
 83 H2       3.9278     4.1005     1.9661 H     1 <1>   0.0000 
 84 O       -1.0510    -2.0058     0.6012 O.3   1 <1>  -0.5600 
 85 C       -2.1951    -2.3121     1.4088 C.3   1 <1>   0.2800 
 86 C       -3.4624    -2.3694     0.5523 C.3   1 <1>   0.0000 
 87 H1      -3.5211    -1.4890    -0.0969 H     1 <1>   0.0000 
 88 H2      -4.3613    -2.3975     1.1761 H     1 <1>   0.0000 
 89 H3      -3.4796    -3.2463    -0.1014 H     1 <1>   0.0000 
 90 H2      -2.3253    -1.4567     2.0834 H     1 <1>   0.0000 
 91 C       -1.9680    -3.5609     2.2830 C.3   1 <1>   0.2800 
 92 O       -3.1746    -3.9031     2.9758 O.3   1 <1>  -0.6800 
 93 H       -2.9884    -4.7921     3.3633 H     1 <1>   0.4000 
 94 H2      -1.2228    -3.3287     3.0540 H     1 <1>   0.0000 
 95 C       -1.4553    -4.7507     1.4409 C.3   1 <1>   0.2800 
 96 H1      -2.2427    -5.1075     0.7649 H     1 <1>   0.0000 
 97 O       -1.0024    -5.8364     2.2830 O.3   1 <1>  -0.5600 
 98 C       -1.9949    -6.8549     2.4680 C.3   1 <1>   0.5600 
 99 H       -2.3437    -7.1818     1.4789 H     1 <1>   0.0000 
100 C       -0.2392    -4.3146     0.6265 C.3   1 <1>   0.2800 
101 H1       0.1110    -5.1306    -0.0162 H     1 <1>   0.0000 
102 O        0.8402    -4.0446     1.5378 O.3   1 <1>  -0.6800 
103 H        0.8297    -4.7792     2.1811 H     1 <1>   0.4000 
104 O       -3.0711    -6.3237     3.2351 O.3   1 <1>  -0.5600 
105 C       -4.1467    -7.2643     3.3756 C.3   1 <1>   0.2800 
106 H1      -4.4702    -7.5889     2.3776 H     1 <1>   0.0000 
107 C       -5.3088    -6.5103     4.0267 C.3   1 <1>   0.2800 
108 O       -5.7322    -5.4430     3.1758 O.3   1 <1>  -0.6800 
109 H       -4.9745    -4.8311     3.0657 H     1 <1>   0.4000 
110 H2      -5.0136    -6.0708     4.9852 H     1 <1>   0.0000 
111 H3      -6.1686    -7.1663     4.1889 H     1 <1>   0.0000 
112 C       -3.6577    -8.4508     4.2114 C.3   1 <1>   0.2800 
113 O       -4.6536    -9.4676     4.3276 O.3   1 <1>  -0.6800 
114 H       -5.2959    -9.1893     5.0044 H     1 <1>   0.4000 
115 H2      -3.3908    -8.1279     5.2261 H     1 <1>   0.0000 
116 C       -2.4193    -9.0850     3.5563 C.3   1 <1>   0.2800 
117 H1      -2.7033    -9.6376     2.6516 H     1 <1>   0.0000 
118 O       -1.8896   -10.0634     4.4638 O.3   1 <1>  -0.6800 
119 H       -2.6329   -10.6648     4.6646 H     1 <1>   0.4000 
120 C       -1.3522    -8.0357     3.2140 C.3   1 <1>   0.2800 
121 O       -0.3377    -8.6172     2.3837 O.3   1 <1>  -0.6800 
122 H        0.2969    -7.9044     2.1835 H     1 <1>   0.4000 
123 H2      -0.8573    -7.6943     4.1315 H     1 <1>   0.0000 
@<TRIPOS>BOND
  1   1   2  1   
  2   1   6  1   
  3   1  27  1   
  4   1  41  1   
  5   2   3  1   
  6   2   4  1   
  7   2   5  1   
  8   6   7  1   
  9   6   8  1   
 10   6   9  1   
 11   9  10  1   
 12   9  11  1   
 13   9  12  1   
 14  12  13  1   
 15  12  14  1   
 16  12  17  1   
 17  14  15  1   
 18  15  16  1   
 19  15  84  1   
 20  15 100  1   
 21  17  18  1   
 22  17  23  1   
 23  17  27  1   
 24  18  19  1   
 25  18  20  1   
 26  18  21  1   
 27  21  22  1   
 28  23  24  1   
 29  23  25  1   
 30  23  26  1   
 31  27  28  1   
 32  27  29  1   
 33  29  30  1   
 34  29  31  1   
 35  29  32  1   
 36  32  33  1   
 37  32  34  1   
 38  32  40  1   
 39  35  36  1   
 40  35  40  1   
 41  35  47  1   
 42  35  53  1   
 43  36  37  1   
 44  36  38  1   
 45  36  39  1   
 46  40  41  1   
 47  40  43  1   
 48  41  42  1   
 49  41  51  1   
 50  43  44  1   
 51  43  45  1   
 52  43  46  1   
 53  47  48  1   
 54  47  49  1   
 55  47  64  1   
 56  48  61  1   
 57  49  50  1   
 58  49  51  2   
 59  51  52  1   
 60  53  54  1   
 61  53  55  1   
 62  53  56  1   
 63  56  57  1   
 64  56  58  1   
 65  56  60  1   
 66  58  59  1   
 67  60  61  1   
 68  60  64  1   
 69  60  66  1   
 70  61  62  1   
 71  61  63  1   
 72  64  65  1   
 73  64  81  1   
 74  66  67  1   
 75  66  68  1   
 76  66  69  1   
 77  69  70  1   
 78  69  71  1   
 79  69  72  1   
 80  72  73  1   
 81  72  77  1   
 82  72  81  1   
 83  73  74  1   
 84  73  75  1   
 85  73  76  1   
 86  77  78  1   
 87  77  79  1   
 88  77  80  1   
 89  81  82  1   
 90  81  83  1   
 91  84  85  1   
 92  85  86  1   
 93  85  90  1   
 94  85  91  1   
 95  86  87  1   
 96  86  88  1   
 97  86  89  1   
 98  91  92  1   
 99  91  94  1   
100  91  95  1   
101  92  93  1   
102  95  96  1   
103  95  97  1   
104  95 100  1   
105  97  98  1   
106  98  99  1   
107  98 104  1   
108  98 120  1   
109 100 101  1   
110 100 102  1   
111 102 103  1   
112 104 105  1   
113 105 106  1   
114 105 107  1   
115 105 112  1   
116 107 108  1   
117 107 110  1   
118 107 111  1   
119 108 109  1   
120 112 113  1   
121 112 115  1   
122 112 116  1   
123 113 114  1   
124 116 117  1   
125 116 118  1   
126 116 120  1   
127 118 119  1   
128 120 121  1   
129 120 123  1   
130 121 122  1   
@<TRIPOS>SUBSTRUCTURE
  1 ****  14 GROUP 4 **** **** 0

# MOE 2015.10 (io_trps.svl 2015.10)
