@<TRIPOS>MOLECULE
J08_06
42 46 1 0 0 
SMALL
USER_CHARGES


@<TRIPOS>ATOM
  1 C        1.0985     0.9449     0.0567 C.ar  1 <1>   0.0284 
  2 C        2.4628     1.3652    -0.2546 C.2   1 <1>  -0.1784 
  3 H        2.5841     2.4067    -0.5428 H     1 <1>   0.1500 
  4 C        3.5044     0.5285    -0.2286 C.2   1 <1>  -0.1238 
  5 C        0.1922     0.7294    -0.9895 C.ar  1 <1>  -0.1500 
  6 H        0.4704     0.8818    -2.0270 H     1 <1>   0.1500 
  7 C       -1.0767     0.3010    -0.6620 C.ar  1 <1>   0.0825 
  8 C       -1.4596     0.0914     0.6423 C.ar  1 <1>   0.0825 
  9 C       -0.5956     0.3032     1.6949 C.ar  1 <1>  -0.1500 
 10 H       -0.9102     0.1393     2.7193 H     1 <1>   0.1500 
 11 C        0.6997     0.7372     1.3948 C.ar  1 <1>  -0.1500 
 12 H        1.4009     0.9134     2.2081 H     1 <1>   0.1500 
 13 O       -2.0744     0.0314    -1.5456 O.3   1 <1>  -0.3625 
 14 C       -3.1317    -0.3624    -0.6482 C.3   1 <1>   0.5600 
 15 H1      -3.4481    -1.3800    -0.9048 H     1 <1>   0.0000 
 16 H2      -3.9820     0.3150    -0.7888 H     1 <1>   0.0000 
 17 O       -2.7467    -0.3370     0.7418 O.3   1 <1>  -0.3625 
 18 C        3.5669    -0.9223     0.1234 C.3   1 <1>   0.1382 
 19 C        3.2131    -1.8129    -1.0827 C.3   1 <1>   0.1435 
 20 C        2.7569    -3.1897    -0.6540 C.ar  1 <1>  -0.1435 
 21 H2       4.0615    -1.8984    -1.7746 H     1 <1>   0.0000 
 22 H3       2.4007    -1.3700    -1.6738 H     1 <1>   0.0000 
 23 H2       2.9419    -1.1620     0.9906 H     1 <1>   0.0000 
 24 C        5.0318    -1.0243     0.5113 C.3   1 <1>   0.2800 
 25 H1       5.4692    -2.0033     0.2931 H     1 <1>   0.0000 
 26 H2       5.1887    -0.8126     1.5760 H     1 <1>   0.0000 
 27 O        5.7214    -0.0208    -0.2451 O.3   1 <1>  -0.4300 
 28 C        4.8616     0.9893    -0.5578 C.2   1 <1>   0.7056 
 29 O        5.1655     2.0644    -1.0467 O.2   1 <1>  -0.5700 
 30 C        1.4497    -3.3596    -0.1381 C.ar  1 <1>  -0.1500 
 31 H        0.7802    -2.5051    -0.0590 H     1 <1>   0.1500 
 32 C        0.9944    -4.6143     0.2738 C.ar  1 <1>  -0.1500 
 33 H       -0.0061    -4.7458     0.6689 H     1 <1>   0.1500 
 34 C        1.8611    -5.6781     0.1570 C.ar  1 <1>   0.0825 
 35 C        3.1330    -5.5261    -0.3430 C.ar  1 <1>   0.0825 
 36 C        3.6123    -4.2981    -0.7545 C.ar  1 <1>  -0.1500 
 37 H        4.6198    -4.2079    -1.1464 H     1 <1>   0.1500 
 38 O        1.5885    -6.9644     0.5029 O.3   1 <1>  -0.3625 
 39 C        2.8291    -7.6107     0.1526 C.3   1 <1>   0.5600 
 40 H1       2.6241    -8.3810    -0.5999 H     1 <1>   0.0000 
 41 H2       3.2383    -8.0932     1.0476 H     1 <1>   0.0000 
 42 O        3.8189    -6.7018    -0.3745 O.3   1 <1>  -0.3625 
@<TRIPOS>BOND
  1   1   2  1   
  2   1   5  ar  
  3   1  11  ar  
  4   2   3  1   
  5   2   4  2   
  6   4  18  1   
  7   4  28  1   
  8   5   6  1   
  9   5   7  ar  
 10   7   8  ar  
 11   7  13  1   
 12   8   9  ar  
 13   8  17  1   
 14   9  10  1   
 15   9  11  ar  
 16  11  12  1   
 17  13  14  1   
 18  14  15  1   
 19  14  16  1   
 20  14  17  1   
 21  18  19  1   
 22  18  23  1   
 23  18  24  1   
 24  19  20  1   
 25  19  21  1   
 26  19  22  1   
 27  20  30  ar  
 28  20  36  ar  
 29  24  25  1   
 30  24  26  1   
 31  24  27  1   
 32  27  28  1   
 33  28  29  2   
 34  30  31  1   
 35  30  32  ar  
 36  32  33  1   
 37  32  34  ar  
 38  34  35  ar  
 39  34  38  1   
 40  35  36  ar  
 41  35  42  1   
 42  36  37  1   
 43  38  39  1   
 44  39  40  1   
 45  39  41  1   
 46  39  42  1   
@<TRIPOS>SUBSTRUCTURE
  1 <1>   0 RESIDUE 1 * * 1
# MOE 2007.09 (io_trps.svl 2007.09)
