@<TRIPOS>MOLECULE
J08_29
129 135 1 0 0 
SMALL
USER_CHARGES


@<TRIPOS>ATOM
  1 C        2.7535     0.7052    -0.1701 C.3   1 <1>   0.0000 
  2 C        2.4823     1.3840     1.1984 C.3   1 <1>   0.0000 
  3 H1       1.5563     1.9620     1.2108 H     1 <1>   0.0000 
  4 H2       3.2790     2.0683     1.4995 H     1 <1>   0.0000 
  5 H3       2.4060     0.6643     2.0175 H     1 <1>   0.0000 
  6 C        3.4181    -0.6837     0.0900 C.3   1 <1>   0.0000 
  7 H1       4.2903    -0.5859     0.7442 H     1 <1>   0.0000 
  8 H2       3.7923    -1.0945    -0.8573 H     1 <1>   0.0000 
  9 C        2.4872    -1.7178     0.7138 C.3   1 <1>   0.0000 
 10 H1       2.2347    -1.4574     1.7476 H     1 <1>   0.0000 
 11 H2       3.0249    -2.6712     0.7984 H     1 <1>   0.0000 
 12 C        1.2157    -1.9293    -0.1048 C.3   1 <1>   0.2800 
 13 O        0.4000    -2.8604     0.6181 O.3   1 <1>  -0.5600 
 14 C        0.5175    -4.2013     0.1249 C.3   1 <1>   0.5600 
 15 H        1.5671    -4.4006    -0.1331 H     1 <1>   0.0000 
 16 H1       0.7819    -5.8816    -1.8749 H     1 <1>   0.0000 
 17 O       -0.8259    -7.9416    -1.1814 O.3   1 <1>  -0.6800 
 18 H       -1.0057    -8.5076    -0.3970 H     1 <1>   0.4000 
 19 H2       1.5054    -2.3553    -1.0768 H     1 <1>   0.0000 
 20 C        0.4337    -0.6076    -0.3847 C.3   1 <1>   0.0000 
 21 C       -0.3075    -0.1082     0.8684 C.3   1 <1>   0.0000 
 22 H1      -1.1100    -0.7986     1.1553 H     1 <1>   0.0000 
 23 H2      -0.7765     0.8662     0.6988 H     1 <1>   0.0000 
 24 H3       0.3471    -0.0226     1.7345 H     1 <1>   0.0000 
 25 C       -0.6731    -0.9453    -1.4228 C.3   1 <1>   0.0000 
 26 H1      -1.3417    -0.0973    -1.6011 H     1 <1>   0.0000 
 27 H2      -1.3079    -1.7691    -1.0776 H     1 <1>   0.0000 
 28 H3      -0.2397    -1.2435    -2.3839 H     1 <1>   0.0000 
 29 C        1.4374     0.4429    -0.9968 C.3   1 <1>   0.0000 
 30 H        1.7782    -0.0356    -1.9310 H     1 <1>   0.0000 
 31 H1       0.4939     2.3911    -0.5987 H     1 <1>   0.0000 
 32 H2      -0.1106     1.5879    -2.0247 H     1 <1>   0.0000 
 33 C        0.7996     1.7724    -1.4461 C.3   1 <1>   0.0000 
 34 C        1.7537     2.5441    -2.3625 C.3   1 <1>   0.0000 
 35 H1       1.2558     3.4635    -2.6920 H     1 <1>   0.0000 
 36 H2       1.8724     1.9252    -3.2574 H     1 <1>   0.0000 
 37 C        3.1418     2.8677    -1.7406 C.3   1 <1>   0.0000 
 38 C        2.9179     3.9777    -0.6667 C.3   1 <1>   0.0000 
 39 H1       3.8553     4.3173    -0.2161 H     1 <1>   0.0000 
 40 H2       2.2631     3.6632     0.1431 H     1 <1>   0.0000 
 41 H3       2.4206     4.8561    -1.0920 H     1 <1>   0.0000 
 42 C        3.7275     1.5698    -1.0828 C.3   1 <1>   0.0610 
 43 H        3.9928     0.8930    -1.9089 H     1 <1>   0.0000 
 44 C        4.1876     3.4081    -2.8732 C.3   1 <1>   0.1382 
 45 C        3.8297     4.8845    -3.2264 C.3   1 <1>   0.0000 
 46 H1       4.1014     5.5717    -2.4172 H     1 <1>   0.0000 
 47 H2       2.7604     4.9972    -3.4327 H     1 <1>   0.0000 
 48 H3       4.3393     5.2563    -4.1191 H     1 <1>   0.0000 
 49 C        5.6565     3.3180    -2.3853 C.2   1 <1>  -0.2764 
 50 C        6.0226     2.7026    -1.2506 C.2   1 <1>  -0.1356 
 51 H        7.0478     2.6433    -0.9072 H     1 <1>   0.1500 
 52 C        5.0747     1.9119    -0.4432 C.2   1 <1>   0.4946 
 53 O        5.4422     1.5048     0.6528 O.2   1 <1>  -0.5700 
 54 C        4.1362     2.5832    -4.2006 C.3   1 <1>   0.0000 
 55 H1       3.1710     2.7336    -4.6992 H     1 <1>   0.0000 
 56 H2       4.2088     1.5109    -3.9879 H     1 <1>   0.0000 
 57 C        5.2216     2.9471    -5.2352 C.3   1 <1>   0.0000 
 58 H1       4.9757     3.9200    -5.6779 H     1 <1>   0.0000 
 59 H2       5.1643     2.2325    -6.0671 H     1 <1>   0.0000 
 60 C        6.6654     2.9824    -4.6662 C.3   1 <1>   0.0000 
 61 C        7.1174     1.5217    -4.4060 C.3   1 <1>   0.0000 
 62 H1       8.1322     1.4603    -4.0036 H     1 <1>   0.0000 
 63 H2       7.1073     0.9435    -5.3376 H     1 <1>   0.0000 
 64 H3       6.4623     1.0016    -3.7007 H     1 <1>   0.0000 
 65 C        6.6967     3.8580    -3.3768 C.3   1 <1>   0.1382 
 66 H        6.3721     4.8706    -3.6388 H     1 <1>   0.0000 
 67 C        7.6007     3.6182    -5.7236 C.3   1 <1>   0.0000 
 68 H1       7.1872     4.5810    -6.0503 H     1 <1>   0.0000 
 69 H2       7.6360     2.9881    -6.6217 H     1 <1>   0.0000 
 70 C        9.0297     3.8470    -5.2237 C.3   1 <1>   0.0000 
 71 H1       9.5902     4.3631    -6.0144 H     1 <1>   0.0000 
 72 H2       9.5298     2.8777    -5.1013 H     1 <1>   0.0000 
 73 C        9.1140     4.6439    -3.9027 C.3   1 <1>   0.0610 
 74 C        8.8042     6.1347    -4.1334 C.3   1 <1>   0.0000 
 75 H1       8.8864     6.7005    -3.1980 H     1 <1>   0.0000 
 76 H2       7.8003     6.2982    -4.5348 H     1 <1>   0.0000 
 77 H3       9.5113     6.5834    -4.8409 H     1 <1>   0.0000 
 78 C        8.1413     4.0385    -2.8539 C.3   1 <1>   0.0000 
 79 H1       8.1243     4.6808    -1.9622 H     1 <1>   0.0000 
 80 H2       8.5423     3.0740    -2.5173 H     1 <1>   0.0000 
 81 O       -0.2896    -4.3167    -1.0430 O.3   1 <1>  -0.5600 
 82 C       -0.2548    -5.6095    -1.6334 C.3   1 <1>   0.3410 
 83 C       -0.8664    -6.6039    -0.6541 C.3   1 <1>   0.2800 
 84 H2      -1.9216    -6.3653    -0.4678 H     1 <1>   0.0000 
 85 C       -0.0898    -6.5924     0.6635 C.3   1 <1>   0.2800 
 86 H        0.8981    -7.0474     0.5163 H     1 <1>   0.0000 
 87 O       -0.7940    -7.5009     1.5223 O.3   1 <1>  -0.6800 
 88 H       -0.8885    -7.0946     2.4227 H     1 <1>   0.4000 
 89 C        0.0781    -5.1766     1.2441 C.3   1 <1>   0.2800 
 90 H       -0.8574    -4.8357     1.7025 H     1 <1>   0.0000 
 91 C       -0.9991    -5.5786    -2.9793 C.2   1 <1>   0.5690 
 92 N       -1.3538    -6.8385    -3.4452 N.am  1 <1>  -0.4210 
 93 N       -1.9686    -6.9770    -4.6937 N.3   1 <1>  -0.7290 
 94 H1      -1.2274    -7.0406    -5.3949 H     1 <1>   0.3600 
 95 H2      -2.4315    -6.0827    -4.8959 H     1 <1>   0.3600 
 96 H2      -1.1795    -7.6660    -2.8539 H     1 <1>   0.3700 
 97 O       -1.2130    -4.5473    -3.6168 O.2   1 <1>  -0.5700 
 98 C        0.8475    -4.9079     3.5581 C.3   1 <1>   0.5600 
 99 H        1.8201    -4.6804     4.0125 H     1 <1>   0.0000 
100 O        1.1576    -5.2113     2.1988 O.3   1 <1>  -0.5600 
101 C        0.2522    -6.1201     4.2975 C.3   1 <1>   0.2800 
102 H1       0.8801    -7.0078     4.1686 H     1 <1>   0.0000 
103 O       -1.0389    -6.4580     3.7380 O.3   1 <1>  -0.6800 
104 H       -1.6890    -5.8409     4.1648 H     1 <1>   0.4000 
105 C        0.1040    -5.7556     5.7807 C.3   1 <1>   0.2800 
106 H1       1.0913    -5.5769     6.2218 H     1 <1>   0.0000 
107 O       -0.4927    -6.8379     6.4925 O.3   1 <1>  -0.6800 
108 H       -1.4306    -6.8620     6.2185 H     1 <1>   0.4000 
109 C       -0.7661    -4.5030     5.9183 C.3   1 <1>   0.2800 
110 H1      -0.8821    -4.2245     6.9717 H     1 <1>   0.0000 
111 O       -2.0797    -4.8591     5.4243 O.3   1 <1>  -0.6800 
112 H       -2.6497    -4.0800     5.6255 H     1 <1>   0.4000 
113 C       -0.1687    -3.3625     5.0740 C.3   1 <1>   0.3410 
114 H1       0.7946    -3.0465     5.4946 H     1 <1>   0.0000 
115 O        0.0321    -3.7428     3.7081 O.3   1 <1>  -0.5600 
116 C       -1.1027    -2.1562     5.0902 C.2   1 <1>   0.5690 
117 N       -0.6446    -1.0957     4.3267 N.am  1 <1>  -0.4210 
118 N       -1.3439     0.1174     4.3296 N.3   1 <1>  -0.7290 
119 H1      -1.8887     0.1550     5.1993 H     1 <1>   0.3600 
120 H2      -2.0506     0.0667     3.5909 H     1 <1>   0.3600 
121 H2       0.1900    -1.1969     3.7493 H     1 <1>   0.3700 
122 O       -2.1470    -2.1326     5.7436 O.2   1 <1>  -0.5700 
123 C       10.5452     4.5641    -3.3458 C.2   1 <1>   0.6590 
124 O       11.4637     4.8625    -4.3110 O.3   1 <1>  -0.4300 
125 C       12.8224     4.8317    -3.8688 C.3   1 <1>   0.2800 
126 H1      13.4615     5.0796    -4.7207 H     1 <1>   0.0000 
127 H2      13.0868     3.8301    -3.5158 H     1 <1>   0.0000 
128 H3      12.9855     5.5763    -3.0835 H     1 <1>   0.0000 
129 O       10.8250     4.2996    -2.1831 O.2   1 <1>  -0.5700 
@<TRIPOS>BOND
  1   1   2  1   
  2   1   6  1   
  3   1  29  1   
  4   1  42  1   
  5   2   3  1   
  6   2   4  1   
  7   2   5  1   
  8   6   7  1   
  9   6   8  1   
 10   6   9  1   
 11   9  10  1   
 12   9  11  1   
 13   9  12  1   
 14  12  13  1   
 15  12  19  1   
 16  12  20  1   
 17  13  14  1   
 18  14  15  1   
 19  14  81  1   
 20  14  89  1   
 21  16  82  1   
 22  17  18  1   
 23  17  83  1   
 24  20  21  1   
 25  20  25  1   
 26  20  29  1   
 27  21  22  1   
 28  21  23  1   
 29  21  24  1   
 30  25  26  1   
 31  25  27  1   
 32  25  28  1   
 33  29  30  1   
 34  29  33  1   
 35  31  33  1   
 36  32  33  1   
 37  33  34  1   
 38  34  35  1   
 39  34  36  1   
 40  34  37  1   
 41  37  38  1   
 42  37  42  1   
 43  37  44  1   
 44  38  39  1   
 45  38  40  1   
 46  38  41  1   
 47  42  43  1   
 48  42  52  1   
 49  44  45  1   
 50  44  49  1   
 51  44  54  1   
 52  45  46  1   
 53  45  47  1   
 54  45  48  1   
 55  49  50  2   
 56  49  65  1   
 57  50  51  1   
 58  50  52  1   
 59  52  53  2   
 60  54  55  1   
 61  54  56  1   
 62  54  57  1   
 63  57  58  1   
 64  57  59  1   
 65  57  60  1   
 66  60  61  1   
 67  60  65  1   
 68  60  67  1   
 69  61  62  1   
 70  61  63  1   
 71  61  64  1   
 72  65  66  1   
 73  65  78  1   
 74  67  68  1   
 75  67  69  1   
 76  67  70  1   
 77  70  71  1   
 78  70  72  1   
 79  70  73  1   
 80  73  74  1   
 81  73  78  1   
 82  73 123  1   
 83  74  75  1   
 84  74  76  1   
 85  74  77  1   
 86  78  79  1   
 87  78  80  1   
 88  81  82  1   
 89  82  83  1   
 90  82  91  1   
 91  83  84  1   
 92  83  85  1   
 93  85  86  1   
 94  85  87  1   
 95  85  89  1   
 96  87  88  1   
 97  89  90  1   
 98  89 100  1   
 99  91  92  am  
100  91  97  2   
101  92  93  1   
102  92  96  1   
103  93  94  1   
104  93  95  1   
105  98  99  1   
106  98 100  1   
107  98 101  1   
108  98 115  1   
109 101 102  1   
110 101 103  1   
111 101 105  1   
112 103 104  1   
113 105 106  1   
114 105 107  1   
115 105 109  1   
116 107 108  1   
117 109 110  1   
118 109 111  1   
119 109 113  1   
120 111 112  1   
121 113 114  1   
122 113 115  1   
123 113 116  1   
124 116 117  am  
125 116 122  2   
126 117 118  1   
127 117 121  1   
128 118 119  1   
129 118 120  1   
130 123 124  1   
131 123 129  2   
132 124 125  1   
133 125 126  1   
134 125 127  1   
135 125 128  1   
@<TRIPOS>SUBSTRUCTURE
  1 <1>   0 RESIDUE 1 * * 1
# MOE 2007.09 (io_trps.svl 2007.09)
