@<TRIPOS>MOLECULE
J08_42
88 94 1 0 0 
SMALL
USER_CHARGES


@<TRIPOS>ATOM
  1 C        3.5733    -0.0084    -0.5943 C.ar  1 <1>  -0.1435 
  2 C        2.7124     1.2286    -0.5065 C.3   1 <1>   0.1435 
  3 H1       2.9443     1.9001    -1.3424 H     1 <1>   0.0000 
  4 H2       2.9601     1.7603     0.4203 H     1 <1>   0.0000 
  5 C        1.2200     0.9030    -0.5495 C.3   1 <1>   0.2700 
  6 H1       0.9308     0.6372    -1.5754 H     1 <1>   0.0000 
  7 H2       0.6388     1.8025    -0.3107 H     1 <1>   0.0000 
  8 N        0.8463    -0.1971     0.3476 N.3   1 <1>  -0.8100 
  9 C        1.5213    -1.4619    -0.0833 C.3   1 <1>   0.4135 
 10 H1       1.0916    -1.6907    -1.0685 H     1 <1>   0.0000 
 11 C        1.0964    -2.6226     0.8756 C.3   1 <1>   0.1435 
 12 H1       0.0183    -2.5503     1.0769 H     1 <1>   0.0000 
 13 H2       1.6062    -2.4838     1.8383 H     1 <1>   0.0000 
 14 C        1.3328    -4.0434     0.4114 C.ar  1 <1>  -0.1435 
 15 C        3.0302    -1.2906    -0.3549 C.ar  1 <1>  -0.1435 
 16 C        3.8896    -2.3880    -0.5278 C.ar  1 <1>  -0.1500 
 17 H        3.5380    -3.4074    -0.4599 H     1 <1>   0.1500 
 18 C        5.2394    -2.2206    -0.8607 C.ar  1 <1>   0.0825 
 19 O        5.9985    -3.3325    -1.1397 O.3   1 <1>  -0.1650 
 20 C        5.7773    -0.9484    -1.0657 C.ar  1 <1>   0.0825 
 21 O        7.0953    -0.8953    -1.4333 O.3   1 <1>  -0.3625 
 22 C        7.7273     0.3766    -1.3904 C.3   1 <1>   0.2800 
 23 H1       8.7944     0.2260    -1.5801 H     1 <1>   0.0000 
 24 H2       7.6271     0.8402    -0.4032 H     1 <1>   0.0000 
 25 H3       7.3397     1.0323    -2.1767 H     1 <1>   0.0000 
 26 C        4.9377     0.1551    -0.9182 C.ar  1 <1>  -0.1500 
 27 H        5.3060     1.1634    -1.0863 H     1 <1>   0.1500 
 28 C        1.0574     0.1568     1.7532 C.3   1 <1>   0.2700 
 29 H1       0.5321    -0.5391     2.4153 H     1 <1>   0.0000 
 30 H2       0.6314     1.1432     1.9710 H     1 <1>   0.0000 
 31 H3       2.1138     0.1718     2.0412 H     1 <1>   0.0000 
 32 C        1.9835    -4.9420     1.2707 C.ar  1 <1>  -0.1500 
 33 H        2.2585    -4.6405     2.2793 H     1 <1>   0.1500 
 34 C        2.3335    -6.2199     0.8339 C.ar  1 <1>  -0.1500 
 35 H        2.8556    -6.8714     1.5283 H     1 <1>   0.1500 
 36 C        2.0317    -6.6216    -0.4700 C.ar  1 <1>   0.0825 
 37 O        2.3860    -7.8328    -1.0338 O.3   1 <1>  -0.1650 
 38 C        3.2120    -8.6489    -0.2982 C.ar  1 <1>   0.0825 
 39 C        1.3150    -5.7602    -1.3041 C.ar  1 <1>  -0.1500 
 40 H        1.0512    -6.0762    -2.3103 H     1 <1>   0.1500 
 41 C        0.9535    -4.4835    -0.8635 C.ar  1 <1>  -0.1500 
 42 H        0.4088    -3.8297    -1.5402 H     1 <1>   0.1500 
 43 C        2.6794    -9.6753     0.4873 C.ar  1 <1>   0.0825 
 44 O        1.3506    -9.9869     0.5763 O.3   1 <1>  -0.3625 
 45 C        0.7287   -10.1947    -0.6902 C.3   1 <1>   0.2800 
 46 H1      -0.0865   -10.9105    -0.5455 H     1 <1>   0.0000 
 47 H2       0.2879    -9.2624    -1.0543 H     1 <1>   0.0000 
 48 H3       1.4141   -10.6167    -1.4345 H     1 <1>   0.0000 
 49 C        3.5285   -10.4029     1.3133 C.ar  1 <1>  -0.1500 
 50 H        3.1277   -11.1811     1.9569 H     1 <1>   0.1500 
 51 C        4.8989   -10.1383     1.3120 C.ar  1 <1>  -0.1500 
 52 H        5.5430   -10.7279     1.9632 H     1 <1>   0.1500 
 53 C        5.4565    -9.1414     0.4865 C.ar  1 <1>  -0.1435 
 54 C        6.9578    -8.9638     0.5519 C.3   1 <1>   0.1435 
 55 H1       7.2179    -8.9660     1.6161 H     1 <1>   0.0000 
 56 C        7.6933    -7.7883    -0.1612 C.3   1 <1>   0.4135 
 57 H        7.4374    -7.8730    -1.2265 H     1 <1>   0.0000 
 58 H3       7.3738    -9.8969     0.1408 H     1 <1>   0.0000 
 59 C        4.5973    -8.4174    -0.3413 C.ar  1 <1>  -0.1500 
 60 H        4.9685    -7.6485    -1.0082 H     1 <1>   0.1500 
 61 N        9.1445    -8.0600     0.0171 N.3   1 <1>  -0.8100 
 62 C        9.9084    -7.7796    -1.1972 C.3   1 <1>   0.2700 
 63 H1       9.5365    -8.3802    -2.0348 H     1 <1>   0.0000 
 64 H2      10.9606    -8.0546    -1.0624 H     1 <1>   0.0000 
 65 H3       9.8596    -6.7223    -1.4809 H     1 <1>   0.0000 
 66 C        9.7605    -7.4074     1.1938 C.3   1 <1>   0.2700 
 67 H1      10.3973    -6.5733     0.8636 H     1 <1>   0.0000 
 68 H2      10.4312    -8.1291     1.6750 H     1 <1>   0.0000 
 69 C        8.7974    -6.8356     2.2546 C.3   1 <1>   0.1435 
 70 H1       9.3961    -6.2646     2.9735 H     1 <1>   0.0000 
 71 H2       8.2896    -7.6244     2.8162 H     1 <1>   0.0000 
 72 C        7.7921    -5.9469     1.5641 C.ar  1 <1>  -0.1435 
 73 C        7.3317    -6.3858     0.3113 C.ar  1 <1>  -0.1435 
 74 C        7.4378    -4.6716     2.0353 C.ar  1 <1>   0.0825 
 75 C        6.7775    -3.7574     1.1904 C.ar  1 <1>   0.0825 
 76 C        6.4426    -4.1449    -0.1145 C.ar  1 <1>   0.0825 
 77 C        6.6852    -5.4667    -0.5260 C.ar  1 <1>  -0.1500 
 78 O        7.8595    -4.2448     3.2721 O.3   1 <1>  -0.3625 
 79 C        7.1182    -4.8880     4.3118 C.3   1 <1>   0.2800 
 80 H1       7.2116    -4.2757     5.2138 H     1 <1>   0.0000 
 81 H2       7.5340    -5.8750     4.5334 H     1 <1>   0.0000 
 82 H3       6.0521    -4.9733     4.0705 H     1 <1>   0.0000 
 83 O        6.6062    -2.4552     1.5881 O.3   1 <1>  -0.3625 
 84 C        5.5800    -2.3281     2.5710 C.3   1 <1>   0.2800 
 85 H1       5.0943    -1.3582     2.4260 H     1 <1>   0.0000 
 86 H2       6.0200    -2.3301     3.5720 H     1 <1>   0.0000 
 87 H3       4.8117    -3.1064     2.4925 H     1 <1>   0.0000 
 88 H        6.4248    -5.7515    -1.5440 H     1 <1>   0.1500 
@<TRIPOS>BOND
  1   1   2  1   
  2   1  15  ar  
  3   1  26  ar  
  4   2   3  1   
  5   2   4  1   
  6   2   5  1   
  7   5   6  1   
  8   5   7  1   
  9   5   8  1   
 10   8   9  1   
 11   8  28  1   
 12   9  10  1   
 13   9  11  1   
 14   9  15  1   
 15  11  12  1   
 16  11  13  1   
 17  11  14  1   
 18  14  32  ar  
 19  14  41  ar  
 20  15  16  ar  
 21  16  17  1   
 22  16  18  ar  
 23  18  19  1   
 24  18  20  ar  
 25  19  76  1   
 26  20  21  1   
 27  20  26  ar  
 28  21  22  1   
 29  22  23  1   
 30  22  24  1   
 31  22  25  1   
 32  26  27  1   
 33  28  29  1   
 34  28  30  1   
 35  28  31  1   
 36  32  33  1   
 37  32  34  ar  
 38  34  35  1   
 39  34  36  ar  
 40  36  37  1   
 41  36  39  ar  
 42  37  38  1   
 43  38  43  ar  
 44  38  59  ar  
 45  39  40  1   
 46  39  41  ar  
 47  41  42  1   
 48  43  44  1   
 49  43  49  ar  
 50  44  45  1   
 51  45  46  1   
 52  45  47  1   
 53  45  48  1   
 54  49  50  1   
 55  49  51  ar  
 56  51  52  1   
 57  51  53  ar  
 58  53  54  1   
 59  53  59  ar  
 60  54  55  1   
 61  54  56  1   
 62  54  58  1   
 63  56  57  1   
 64  56  61  1   
 65  56  73  1   
 66  59  60  1   
 67  61  62  1   
 68  61  66  1   
 69  62  63  1   
 70  62  64  1   
 71  62  65  1   
 72  66  67  1   
 73  66  68  1   
 74  66  69  1   
 75  69  70  1   
 76  69  71  1   
 77  69  72  1   
 78  72  73  ar  
 79  72  74  ar  
 80  73  77  ar  
 81  74  75  ar  
 82  74  78  1   
 83  75  76  ar  
 84  75  83  1   
 85  76  77  ar  
 86  77  88  1   
 87  78  79  1   
 88  79  80  1   
 89  79  81  1   
 90  79  82  1   
 91  83  84  1   
 92  84  85  1   
 93  84  86  1   
 94  84  87  1   
@<TRIPOS>SUBSTRUCTURE
  1 <1>   0 RESIDUE 1 * * 1
# MOE 2007.09 (io_trps.svl 2007.09)
