@<TRIPOS>MOLECULE
J08_11
47 48 1 0 0 
SMALL
USER_CHARGES


@<TRIPOS>ATOM
  1 C        1.1886     0.9034     1.6890 C.ar  1 <1>   0.0825 
  2 O        2.1367     1.6939     2.2927 O.3   1 <1>  -0.5325 
  3 H        3.0142     1.4348     1.9147 H     1 <1>   0.4500 
  4 C       -0.0979     0.9532     2.2237 C.ar  1 <1>  -0.1500 
  5 H       -0.2728     1.6209     3.0604 H     1 <1>   0.1500 
  6 C       -1.1074     0.1464     1.6930 C.ar  1 <1>   0.0825 
  7 O       -2.3987     0.1173     2.1517 O.3   1 <1>  -0.3625 
  8 C       -2.7640     1.0601     3.1516 C.3   1 <1>   0.2800 
  9 H1      -3.8330     0.9371     3.3506 H     1 <1>   0.0000 
 10 H2      -2.6063     2.0870     2.8058 H     1 <1>   0.0000 
 11 H3      -2.2277     0.8686     4.0867 H     1 <1>   0.0000 
 12 C       -0.8091    -0.7280     0.6266 C.ar  1 <1>  -0.1435 
 13 C       -1.8737    -1.6217     0.0194 C.3   1 <1>   0.2817 
 14 C       -2.6229    -0.9392    -1.0934 C.2   1 <1>  -0.2882 
 15 H       -2.0090    -0.7153    -1.9655 H     1 <1>   0.1500 
 16 C       -3.9255    -0.5961    -1.1359 C.2   1 <1>  -0.2764 
 17 C       -4.4971     0.0834    -2.3532 C.3   1 <1>   0.1382 
 18 H1      -5.3023    -0.5221    -2.7821 H     1 <1>   0.0000 
 19 H2      -3.7468     0.2395    -3.1355 H     1 <1>   0.0000 
 20 H3      -4.9039     1.0637    -2.0839 H     1 <1>   0.0000 
 21 C       -4.9223    -0.8215    -0.0333 C.3   1 <1>   0.1382 
 22 H1      -4.5058    -1.3237     0.8414 H     1 <1>   0.0000 
 23 H2      -5.7510    -1.4381    -0.3974 H     1 <1>   0.0000 
 24 H3      -5.3298     0.1371     0.3050 H     1 <1>   0.0000 
 25 H2      -2.5284    -2.0073     0.8061 H     1 <1>   0.0000 
 26 H3      -1.3949    -2.5189    -0.3954 H     1 <1>   0.0000 
 27 C        0.4950    -0.7567     0.0890 C.ar  1 <1>  -0.1500 
 28 H        0.7083    -1.4504    -0.7207 H     1 <1>   0.1500 
 29 C        1.4933     0.0735     0.6012 C.ar  1 <1>   0.0862 
 30 C        2.8834     0.0760     0.0874 C.2   1 <1>   0.4694 
 31 C        3.2445    -0.4392    -1.2474 C.2   1 <1>  -0.1356 
 32 H        4.2064    -0.9408    -1.2861 H     1 <1>   0.1500 
 33 C        2.5359    -0.1899    -2.3535 C.2   1 <1>  -0.1784 
 34 C        2.9420    -0.6410    -3.6928 C.ar  1 <1>   0.0284 
 35 H2       1.6304     0.4107    -2.3181 H     1 <1>   0.1500 
 36 O        3.7584     0.5329     0.8211 O.2   1 <1>  -0.5700 
 37 C        3.5279    -1.8963    -3.9166 C.ar  1 <1>  -0.1500 
 38 H        3.7106    -2.5800    -3.0908 H     1 <1>   0.1500 
 39 C        3.8807    -2.3014    -5.2089 C.ar  1 <1>  -0.1500 
 40 H        4.3354    -3.2768    -5.3523 H     1 <1>   0.1500 
 41 C        3.6367    -1.4527    -6.2838 C.ar  1 <1>   0.0825 
 42 O        3.9690    -1.8059    -7.5596 O.3   1 <1>  -0.5325 
 43 H        4.4022    -2.6749    -7.5360 H     1 <1>   0.4500 
 44 C        3.0400    -0.2132    -6.0866 C.ar  1 <1>  -0.1500 
 45 H        2.8490     0.4392    -6.9339 H     1 <1>   0.1500 
 46 C        2.6885     0.1896    -4.7947 C.ar  1 <1>  -0.1500 
 47 H        2.2250     1.1644    -4.6588 H     1 <1>   0.1500 
@<TRIPOS>BOND
  1   1   2  1   
  2   1   4  ar  
  3   1  29  ar  
  4   2   3  1   
  5   4   5  1   
  6   4   6  ar  
  7   6   7  1   
  8   6  12  ar  
  9   7   8  1   
 10   8   9  1   
 11   8  10  1   
 12   8  11  1   
 13  12  13  1   
 14  12  27  ar  
 15  13  14  1   
 16  13  25  1   
 17  13  26  1   
 18  14  15  1   
 19  14  16  2   
 20  16  17  1   
 21  16  21  1   
 22  17  18  1   
 23  17  19  1   
 24  17  20  1   
 25  21  22  1   
 26  21  23  1   
 27  21  24  1   
 28  27  28  1   
 29  27  29  ar  
 30  29  30  1   
 31  30  31  1   
 32  30  36  2   
 33  31  32  1   
 34  31  33  2   
 35  33  34  1   
 36  33  35  1   
 37  34  37  ar  
 38  34  46  ar  
 39  37  38  1   
 40  37  39  ar  
 41  39  40  1   
 42  39  41  ar  
 43  41  42  1   
 44  41  44  ar  
 45  42  43  1   
 46  44  45  1   
 47  44  46  ar  
 48  46  47  1   
@<TRIPOS>SUBSTRUCTURE
  1 <1>   0 RESIDUE 1 * * 1
# MOE 2007.09 (io_trps.svl 2007.09)
