@<TRIPOS>MOLECULE
J08_30
165 173 1 0 0 
SMALL
USER_CHARGES


@<TRIPOS>ATOM
  1 C        2.7132     0.5013    -0.2867 C.3   1 <1>   0.0000 
  2 C        2.4992     1.1556     1.1030 C.3   1 <1>   0.0000 
  3 H1       1.5642     1.7144     1.1691 H     1 <1>   0.0000 
  4 H2       3.2966     1.8514     1.3740 H     1 <1>   0.0000 
  5 H3       2.4763     0.4237     1.9142 H     1 <1>   0.0000 
  6 C        3.4295    -0.8709    -0.0830 C.3   1 <1>   0.0000 
  7 H1       4.3350    -0.7546     0.5212 H     1 <1>   0.0000 
  8 H2       3.7599    -1.2603    -1.0553 H     1 <1>   0.0000 
  9 C        2.5653    -1.9392     0.5795 C.3   1 <1>   0.0000 
 10 H1       2.3675    -1.6991     1.6299 H     1 <1>   0.0000 
 11 H2       3.1356    -2.8761     0.6196 H     1 <1>   0.0000 
 12 C        1.2537    -2.1785    -0.1665 C.3   1 <1>   0.2800 
 13 O        0.4845    -3.1139     0.5978 O.3   1 <1>  -0.5600 
 14 C        0.6529    -4.4704     0.1705 C.3   1 <1>   0.5600 
 15 H        1.7257    -4.6761     0.0567 H     1 <1>   0.0000 
 16 H1       1.1737    -6.2598    -1.6376 H     1 <1>   0.0000 
 17 O       -0.5831    -8.2569    -1.1497 O.3   1 <1>  -0.6800 
 18 H       -0.9674    -8.7819    -0.4152 H     1 <1>   0.4000 
 19 H2       1.4950    -2.5988    -1.1535 H     1 <1>   0.0000 
 20 C        0.4246    -0.8738    -0.3883 C.3   1 <1>   0.0000 
 21 C       -0.2578    -0.4143     0.9145 C.3   1 <1>   0.0000 
 22 H1      -1.0539    -1.1074     1.2131 H     1 <1>   0.0000 
 23 H2      -0.7242     0.5694     0.8036 H     1 <1>   0.0000 
 24 H3       0.4366    -0.3730     1.7531 H     1 <1>   0.0000 
 25 C       -0.7284    -1.2308    -1.3684 C.3   1 <1>   0.0000 
 26 H1      -1.4372    -0.4051    -1.4859 H     1 <1>   0.0000 
 27 H2      -1.3093    -2.0880    -1.0092 H     1 <1>   0.0000 
 28 H3      -0.3410    -1.4898    -2.3601 H     1 <1>   0.0000 
 29 C        1.3607     0.2123    -1.0403 C.3   1 <1>   0.0000 
 30 H        1.6602    -0.2436    -1.9996 H     1 <1>   0.0000 
 31 H1       0.3893     2.1295    -0.5588 H     1 <1>   0.0000 
 32 H2      -0.2780     1.3264    -1.9563 H     1 <1>   0.0000 
 33 C        0.6602     1.5294    -1.4310 C.3   1 <1>   0.0000 
 34 C        1.5360     2.3389    -2.3913 C.3   1 <1>   0.0000 
 35 H1       0.9954     3.2492    -2.6760 H     1 <1>   0.0000 
 36 H2       1.6151     1.7355    -3.3009 H     1 <1>   0.0000 
 37 C        2.9509     2.6911    -1.8504 C.3   1 <1>   0.0000 
 38 C        2.7650     3.7845    -0.7523 C.3   1 <1>   0.0000 
 39 H1       3.7194     4.1474    -0.3589 H     1 <1>   0.0000 
 40 H2       2.1738     3.4432     0.0946 H     1 <1>   0.0000 
 41 H3       2.2166     4.6520    -1.1353 H     1 <1>   0.0000 
 42 C        3.6082     1.4030    -1.2429 C.3   1 <1>   0.0610 
 43 H        3.8432     0.7426    -2.0913 H     1 <1>   0.0000 
 44 C        3.9130     3.2680    -3.0390 C.3   1 <1>   0.1382 
 45 C        3.5010     4.7395    -3.3505 C.3   1 <1>   0.0000 
 46 H1       3.8054     5.4233    -2.5502 H     1 <1>   0.0000 
 47 H2       2.4189     4.8293    -3.4903 H     1 <1>   0.0000 
 48 H3       3.9473     5.1333    -4.2674 H     1 <1>   0.0000 
 49 C        5.4116     3.2068    -2.6447 C.2   1 <1>  -0.2764 
 50 C        5.8604     2.5921    -1.5397 C.2   1 <1>  -0.1356 
 51 H        6.9055     2.5535    -1.2594 H     1 <1>   0.1500 
 52 C        4.9809     1.7777    -0.6804 C.2   1 <1>   0.4946 
 53 O        5.4215     1.3822     0.3924 O.2   1 <1>  -0.5700 
 54 C        3.7972     2.4569    -4.3710 C.3   1 <1>   0.0000 
 55 H1       2.8004     2.5924    -4.8078 H     1 <1>   0.0000 
 56 H2       3.9046     1.3841    -4.1762 H     1 <1>   0.0000 
 57 C        4.8089     2.8549    -5.4661 C.3   1 <1>   0.0000 
 58 H1       4.5166     3.8276    -5.8804 H     1 <1>   0.0000 
 59 H2       4.7146     2.1486    -6.3017 H     1 <1>   0.0000 
 60 C        6.2839     2.9139    -4.9866 C.3   1 <1>   0.0000 
 61 C        6.7797     1.4602    -4.7698 C.3   1 <1>   0.0000 
 62 H1       7.8181     1.4157    -4.4306 H     1 <1>   0.0000 
 63 H2       6.7240     0.8906    -5.7051 H     1 <1>   0.0000 
 64 H3       6.1794     0.9203    -4.0314 H     1 <1>   0.0000 
 65 C        6.3762     3.7779    -3.6926 C.3   1 <1>   0.1382 
 66 H        6.0158     4.7860    -3.9238 H     1 <1>   0.0000 
 67 C        7.1406     3.5783    -6.0923 C.3   1 <1>   0.0000 
 68 H1       6.6892     4.5356    -6.3831 H     1 <1>   0.0000 
 69 H2       7.1336     2.9574    -6.9974 H     1 <1>   0.0000 
 70 C        8.5926     3.8310    -5.6769 C.3   1 <1>   0.0000 
 71 H1       9.0956     4.3665    -6.4930 H     1 <1>   0.0000 
 72 H2       9.1172     2.8703    -5.5959 H     1 <1>   0.0000 
 73 C        8.7395     4.6157    -4.3547 C.3   1 <1>   0.0610 
 74 C        8.3938     6.1026    -4.5521 C.3   1 <1>   0.0000 
 75 H1       8.5154     6.6608    -3.6164 H     1 <1>   0.0000 
 76 H2       7.3675     6.2527    -4.8986 H     1 <1>   0.0000 
 77 H3       9.0564     6.5693    -5.2905 H     1 <1>   0.0000 
 78 C        7.8454     3.9829    -3.2557 C.3   1 <1>   0.0000 
 79 H1       7.8697     4.6173    -2.3585 H     1 <1>   0.0000 
 80 H2       8.2857     3.0243    -2.9529 H     1 <1>   0.0000 
 81 O        0.0017    -4.6411    -1.0853 O.3   1 <1>  -0.5600 
 82 C        0.1163    -5.9620    -1.6055 C.3   1 <1>   0.3410 
 83 C       -0.6828    -6.8945    -0.7022 C.3   1 <1>   0.2800 
 84 H2      -1.7470    -6.6274    -0.7188 H     1 <1>   0.0000 
 85 C       -0.1465    -6.8226     0.7363 C.3   1 <1>   0.2800 
 86 H        0.7990    -7.3764     0.8008 H     1 <1>   0.0000 
 87 O       -1.0737    -7.5654     1.5477 O.3   1 <1>  -0.6800 
 88 H       -1.1151    -7.1599     2.4544 H     1 <1>   0.4000 
 89 C        0.0593    -5.3888     1.2595 C.3   1 <1>   0.2800 
 90 H       -0.8945    -4.9847     1.6190 H     1 <1>   0.0000 
 91 C       -0.3562    -5.9745    -3.0742 C.2   1 <1>   0.5690 
 92 N       -0.5138    -7.2354    -3.6094 N.am  1 <1>  -0.7301 
 93 C       -0.7953    -7.4458    -5.0155 C.3   1 <1>   0.5911 
 94 S       -1.4785    -9.1313    -5.1815 S.3   1 <1>  -0.4600 
 95 C       -2.1651    -9.0253    -6.8673 C.3   1 <1>   0.3735 
 96 C       -3.1396   -10.1475    -7.1229 C.ar  1 <1>  -0.1435 
 97 H2      -1.3541    -9.0747    -7.6005 H     1 <1>   0.0000 
 98 H3      -2.6736    -8.0644    -7.0036 H     1 <1>   0.0000 
 99 H3      -1.5298    -6.6965    -5.3289 H     1 <1>   0.0000 
100 H1      -0.4385    -8.0450    -2.9873 H     1 <1>   0.3700 
101 O       -0.5013    -4.9529    -3.7439 O.2   1 <1>  -0.5700 
102 C        0.6476    -4.9710     3.6025 C.3   1 <1>   0.5600 
103 H        1.5918    -4.7422     4.1125 H     1 <1>   0.0000 
104 O        1.0405    -5.4565     2.3178 O.3   1 <1>  -0.5600 
105 C       -0.0733    -6.0676     4.4131 C.3   1 <1>   0.2800 
106 H1       0.5292    -6.9804     4.4617 H     1 <1>   0.0000 
107 O       -1.3078    -6.4414     3.7573 O.3   1 <1>  -0.6800 
108 H       -1.9716    -5.7526     4.0305 H     1 <1>   0.4000 
109 C       -0.3738    -5.5220     5.8167 C.3   1 <1>   0.2800 
110 H1       0.5622    -5.3149     6.3477 H     1 <1>   0.0000 
111 O       -1.0908    -6.4910     6.5785 O.3   1 <1>  -0.6800 
112 H       -1.9736    -6.5666     6.1663 H     1 <1>   0.4000 
113 C       -1.2044    -4.2428     5.6926 C.3   1 <1>   0.2800 
114 H1      -1.4630    -3.8398     6.6778 H     1 <1>   0.0000 
115 O       -2.4467    -4.6205     5.0475 O.3   1 <1>  -0.6800 
116 H       -2.9241    -3.7708     4.8733 H     1 <1>   0.4000 
117 C       -0.4286    -3.2261     4.8330 C.3   1 <1>   0.3410 
118 H1       0.4980    -2.9321     5.3418 H     1 <1>   0.0000 
119 O       -0.1033    -3.7557     3.5464 O.3   1 <1>  -0.5600 
120 C       -1.3006    -1.9923     4.6225 C.2   1 <1>   0.5690 
121 N       -0.6094    -0.8011     4.5341 N.am  1 <1>  -0.7301 
122 C       -1.3286     0.4732     4.4169 C.3   1 <1>   0.3611 
123 C       -0.3674     1.6393     4.1573 C.3   1 <1>   0.2300 
124 S       -1.2437     3.1315     3.5772 S.3   1 <1>  -0.4600 
125 C        0.1853     4.2443     3.3787 C.3   1 <1>   0.3735 
126 C       -0.2175     5.5655     2.7758 C.ar  1 <1>  -0.1435 
127 H2       0.9336     3.7639     2.7382 H     1 <1>   0.0000 
128 H3       0.6533     4.4059     4.3561 H     1 <1>   0.0000 
129 H2       0.3587     1.3605     3.3886 H     1 <1>   0.0000 
130 H3       0.1913     1.8910     5.0659 H     1 <1>   0.0000 
131 H3      -2.0587     0.3501     3.6079 H     1 <1>   0.0000 
132 H1       0.4048    -0.8047     4.5407 H     1 <1>   0.3700 
133 O       -2.5301    -2.0735     4.5825 O.2   1 <1>  -0.5700 
134 C       10.1930     4.5557    -3.8835 C.2   1 <1>   0.6590 
135 O       11.0849     4.8240    -4.8599 O.3   1 <1>  -0.6500 
136 H       11.9583     4.7696    -4.4185 H     1 <1>   0.5000 
137 O       10.5806     4.3320    -2.7476 O.2   1 <1>  -0.5700 
138 C       -2.7040   -11.3602    -7.6769 C.ar  1 <1>  -0.1500 
139 H       -1.6587   -11.5003    -7.9432 H     1 <1>   0.1500 
140 C       -3.6050   -12.4054    -7.8883 C.ar  1 <1>  -0.1500 
141 H       -3.2584   -13.3420    -8.3162 H     1 <1>   0.1500 
142 C       -4.9473   -12.2507    -7.5457 C.ar  1 <1>  -0.1500 
143 H       -5.6469   -13.0656    -7.7077 H     1 <1>   0.1500 
144 C       -5.3902   -11.0522    -6.9888 C.ar  1 <1>  -0.1500 
145 H       -6.4349   -10.9329    -6.7158 H     1 <1>   0.1500 
146 C       -4.4917   -10.0061    -6.7760 C.ar  1 <1>  -0.1500 
147 H       -4.8501    -9.0816    -6.3285 H     1 <1>   0.1500 
148 C        0.4496    -7.3062    -5.9053 C.2   1 <1>   0.6590 
149 O        0.4594    -7.3581    -7.1291 O.2   1 <1>  -0.5700 
150 O        1.6131    -7.1455    -5.2354 O.3   1 <1>  -0.6500 
151 H        2.2996    -7.0727    -5.9301 H     1 <1>   0.5000 
152 C       -0.2633     5.7288     1.3826 C.ar  1 <1>  -0.1500 
153 H       -0.0083     4.9008     0.7251 H     1 <1>   0.1500 
154 C       -0.6443     6.9502     0.8233 C.ar  1 <1>  -0.1500 
155 H       -0.6769     7.0662    -0.2566 H     1 <1>   0.1500 
156 C       -0.9890     8.0190     1.6493 C.ar  1 <1>  -0.1500 
157 H       -1.2882     8.9690     1.2144 H     1 <1>   0.1500 
158 C       -0.9553     7.8664     3.0345 C.ar  1 <1>  -0.1500 
159 H       -1.2295     8.6970     3.6794 H     1 <1>   0.1500 
160 C       -0.5751     6.6455     3.5962 C.ar  1 <1>  -0.1500 
161 H       -0.5630     6.5409     4.6788 H     1 <1>   0.1500 
162 C       -2.0518     0.6885     5.7400 C.2   1 <1>   0.6590 
163 O       -1.6004     0.4726     6.8556 O.2   1 <1>  -0.5700 
164 O       -3.3014     1.1703     5.5804 O.3   1 <1>  -0.6500 
165 H       -3.6701     1.2357     6.4854 H     1 <1>   0.5000 
@<TRIPOS>BOND
  1   1   2  1   
  2   1   6  1   
  3   1  29  1   
  4   1  42  1   
  5   2   3  1   
  6   2   4  1   
  7   2   5  1   
  8   6   7  1   
  9   6   8  1   
 10   6   9  1   
 11   9  10  1   
 12   9  11  1   
 13   9  12  1   
 14  12  13  1   
 15  12  19  1   
 16  12  20  1   
 17  13  14  1   
 18  14  15  1   
 19  14  81  1   
 20  14  89  1   
 21  16  82  1   
 22  17  18  1   
 23  17  83  1   
 24  20  21  1   
 25  20  25  1   
 26  20  29  1   
 27  21  22  1   
 28  21  23  1   
 29  21  24  1   
 30  25  26  1   
 31  25  27  1   
 32  25  28  1   
 33  29  30  1   
 34  29  33  1   
 35  31  33  1   
 36  32  33  1   
 37  33  34  1   
 38  34  35  1   
 39  34  36  1   
 40  34  37  1   
 41  37  38  1   
 42  37  42  1   
 43  37  44  1   
 44  38  39  1   
 45  38  40  1   
 46  38  41  1   
 47  42  43  1   
 48  42  52  1   
 49  44  45  1   
 50  44  49  1   
 51  44  54  1   
 52  45  46  1   
 53  45  47  1   
 54  45  48  1   
 55  49  50  2   
 56  49  65  1   
 57  50  51  1   
 58  50  52  1   
 59  52  53  2   
 60  54  55  1   
 61  54  56  1   
 62  54  57  1   
 63  57  58  1   
 64  57  59  1   
 65  57  60  1   
 66  60  61  1   
 67  60  65  1   
 68  60  67  1   
 69  61  62  1   
 70  61  63  1   
 71  61  64  1   
 72  65  66  1   
 73  65  78  1   
 74  67  68  1   
 75  67  69  1   
 76  67  70  1   
 77  70  71  1   
 78  70  72  1   
 79  70  73  1   
 80  73  74  1   
 81  73  78  1   
 82  73 134  1   
 83  74  75  1   
 84  74  76  1   
 85  74  77  1   
 86  78  79  1   
 87  78  80  1   
 88  81  82  1   
 89  82  83  1   
 90  82  91  1   
 91  83  84  1   
 92  83  85  1   
 93  85  86  1   
 94  85  87  1   
 95  85  89  1   
 96  87  88  1   
 97  89  90  1   
 98  89 104  1   
 99  91  92  am  
100  91 101  2   
101  92  93  1   
102  92 100  1   
103  93  94  1   
104  93  99  1   
105  93 148  1   
106  94  95  1   
107  95  96  1   
108  95  97  1   
109  95  98  1   
110  96 138  ar  
111  96 146  ar  
112 102 103  1   
113 102 104  1   
114 102 105  1   
115 102 119  1   
116 105 106  1   
117 105 107  1   
118 105 109  1   
119 107 108  1   
120 109 110  1   
121 109 111  1   
122 109 113  1   
123 111 112  1   
124 113 114  1   
125 113 115  1   
126 113 117  1   
127 115 116  1   
128 117 118  1   
129 117 119  1   
130 117 120  1   
131 120 121  am  
132 120 133  2   
133 121 122  1   
134 121 132  1   
135 122 123  1   
136 122 131  1   
137 122 162  1   
138 123 124  1   
139 123 129  1   
140 123 130  1   
141 124 125  1   
142 125 126  1   
143 125 127  1   
144 125 128  1   
145 126 152  ar  
146 126 160  ar  
147 134 135  1   
148 134 137  2   
149 135 136  1   
150 138 139  1   
151 138 140  ar  
152 140 141  1   
153 140 142  ar  
154 142 143  1   
155 142 144  ar  
156 144 145  1   
157 144 146  ar  
158 146 147  1   
159 148 149  2   
160 148 150  1   
161 150 151  1   
162 152 153  1   
163 152 154  ar  
164 154 155  1   
165 154 156  ar  
166 156 157  1   
167 156 158  ar  
168 158 159  1   
169 158 160  ar  
170 160 161  1   
171 162 163  2   
172 162 164  1   
173 164 165  1   
@<TRIPOS>SUBSTRUCTURE
  1 <1>   0 RESIDUE 1 * * 1
# MOE 2007.09 (io_trps.svl 2007.09)
