@<TRIPOS>MOLECULE
J08_69
69 71 1 0 0 
SMALL
USER_CHARGES


@<TRIPOS>ATOM
  1 C        1.3947    -1.4628     1.2373 C.ar  1 <1>  -0.1435 
  2 C        2.8439    -1.6019     1.6461 C.3   1 <1>   0.1435 
  3 H1       3.4466    -1.7231     0.7392 H     1 <1>   0.0000 
  4 H2       2.9655    -2.5333     2.2138 H     1 <1>   0.0000 
  5 C        3.3411    -0.4398     2.5234 C.3   1 <1>   0.0000 
  6 H1       2.4990     0.1064     2.9686 H     1 <1>   0.0000 
  7 H2       3.8922    -0.8531     3.3793 H     1 <1>   0.0000 
  8 C        4.2672     0.5461     1.7888 C.3   1 <1>   0.2800 
  9 H1       3.8161     0.8323     0.8314 H     1 <1>   0.0000 
 10 O        4.4368     1.6911     2.6402 O.3   1 <1>  -0.5600 
 11 C        4.0489     2.9205     2.0127 C.3   1 <1>   0.5600 
 12 H        4.5379     2.9780     1.0307 H     1 <1>   0.0000 
 13 C        5.6574    -0.0675     1.5392 C.3   1 <1>   0.0000 
 14 H1       5.5635    -1.0185     1.0040 H     1 <1>   0.0000 
 15 H2       6.1393    -0.2801     2.5022 H     1 <1>   0.0000 
 16 C        6.5713     0.8640     0.7358 C.3   1 <1>   0.0000 
 17 H        6.0974     1.1039    -0.2236 H     1 <1>   0.0000 
 18 H1       6.7123     1.8070     1.2749 H     1 <1>   0.0000 
 19 C        7.9393     0.2270     0.4883 C.3   1 <1>   0.0000 
 20 H1       7.8141    -0.7221    -0.0480 H     1 <1>   0.0000 
 21 H2       8.4093    -0.0131     1.4505 H     1 <1>   0.0000 
 22 C        8.8448     1.1633    -0.3150 C.3   1 <1>   0.1435 
 23 H1       8.3986     1.3732    -1.2955 H     1 <1>   0.0000 
 24 H2       8.9306     2.1339     0.1902 H     1 <1>   0.0000 
 25 C       10.2205     0.5755    -0.5050 C.ar  1 <1>  -0.1435 
 26 C        0.9720    -0.3931     0.4371 C.ar  1 <1>  -0.1500 
 27 H        1.6937     0.3251     0.0614 H     1 <1>   0.1500 
 28 C       -0.3786    -0.2401     0.1181 C.ar  1 <1>   0.0825 
 29 O       -0.7832     0.8624    -0.5876 O.3   1 <1>  -0.5325 
 30 H       -0.2996     1.6518    -0.2272 H     1 <1>   0.4500 
 31 C       -1.3111    -1.1873     0.5327 C.ar  1 <1>   0.0825 
 32 O       -2.6278    -1.0291     0.2031 O.3   1 <1>  -0.5325 
 33 H       -3.1289    -1.7963     0.5224 H     1 <1>   0.4500 
 34 C       -0.9008    -2.2772     1.2978 C.ar  1 <1>  -0.1500 
 35 H       -1.6109    -3.0257     1.6372 H     1 <1>   0.1500 
 36 C        0.4452    -2.4077     1.6558 C.ar  1 <1>  -0.1500 
 37 H        0.7462    -3.2554     2.2682 H     1 <1>   0.1500 
 38 C       11.2399     0.8523     0.4181 C.ar  1 <1>  -0.1500 
 39 H       11.0468     1.5042     1.2677 H     1 <1>   0.1500 
 40 C       12.5111     0.2960     0.2623 C.ar  1 <1>  -0.1500 
 41 H       13.2809     0.5288     0.9914 H     1 <1>   0.1500 
 42 C       12.7670    -0.5453    -0.8186 C.ar  1 <1>   0.0825 
 43 O       14.0072    -1.0976    -0.9847 O.3   1 <1>  -0.5325 
 44 H       14.5853    -0.7999    -0.2650 H     1 <1>   0.4500 
 45 C       11.7583    -0.8317    -1.7394 C.ar  1 <1>   0.0825 
 46 O       12.0266    -1.6625    -2.7923 O.3   1 <1>  -0.5325 
 47 H       11.2372    -1.7367    -3.3507 H     1 <1>   0.4500 
 48 C       10.4868    -0.2777    -1.5858 C.ar  1 <1>  -0.1500 
 49 H        9.6959    -0.5036    -2.2956 H     1 <1>   0.1500 
 50 C        4.5376     4.0734     2.9030 C.3   1 <1>   0.2800 
 51 O        5.9682     4.0148     3.0002 O.3   1 <1>  -0.6800 
 52 H        6.1686     3.1240     3.3462 H     1 <1>   0.4000 
 53 H2       4.1451     3.9729     3.9224 H     1 <1>   0.0000 
 54 C        4.0993     5.4141     2.3046 C.3   1 <1>   0.2800 
 55 H1       4.6949     5.6401     1.4110 H     1 <1>   0.0000 
 56 O        4.3506     6.4857     3.2259 O.3   1 <1>  -0.6800 
 57 C        2.6001     5.4219     1.9723 C.3   1 <1>   0.2800 
 58 O        2.3169     6.6287     1.2614 O.3   1 <1>  -0.6800 
 59 H        1.3512     6.7565     1.2502 H     1 <1>   0.4000 
 60 H2       2.0367     5.4546     2.9140 H     1 <1>   0.0000 
 61 C        2.2250     4.1781     1.1631 C.3   1 <1>   0.2800 
 62 H1       2.7052     4.1836     0.1756 H     1 <1>   0.0000 
 63 C        0.7133     4.0507     0.9512 C.3   1 <1>   0.2800 
 64 O        0.4408     2.6978     0.5620 O.3   1 <1>  -0.6800 
 65 H        1.0063     2.2008     1.2031 H     1 <1>   0.4000 
 66 H2       0.3457     4.7331     0.1799 H     1 <1>   0.0000 
 67 H3       0.1623     4.2322     1.8797 H     1 <1>   0.0000 
 68 O        2.6306     2.9840     1.8609 O.3   1 <1>  -0.5600 
 69 H        3.9622     7.2784     2.8078 H     1 <1>   0.4000 
@<TRIPOS>BOND
  1   1   2  1   
  2   1  26  ar  
  3   1  36  ar  
  4   2   3  1   
  5   2   4  1   
  6   2   5  1   
  7   5   6  1   
  8   5   7  1   
  9   5   8  1   
 10   8   9  1   
 11   8  10  1   
 12   8  13  1   
 13  10  11  1   
 14  11  12  1   
 15  11  50  1   
 16  11  68  1   
 17  13  14  1   
 18  13  15  1   
 19  13  16  1   
 20  16  17  1   
 21  16  18  1   
 22  16  19  1   
 23  19  20  1   
 24  19  21  1   
 25  19  22  1   
 26  22  23  1   
 27  22  24  1   
 28  22  25  1   
 29  25  38  ar  
 30  25  48  ar  
 31  26  27  1   
 32  26  28  ar  
 33  28  29  1   
 34  28  31  ar  
 35  29  30  1   
 36  31  32  1   
 37  31  34  ar  
 38  32  33  1   
 39  34  35  1   
 40  34  36  ar  
 41  36  37  1   
 42  38  39  1   
 43  38  40  ar  
 44  40  41  1   
 45  40  42  ar  
 46  42  43  1   
 47  42  45  ar  
 48  43  44  1   
 49  45  46  1   
 50  45  48  ar  
 51  46  47  1   
 52  48  49  1   
 53  50  51  1   
 54  50  53  1   
 55  50  54  1   
 56  51  52  1   
 57  54  55  1   
 58  54  56  1   
 59  54  57  1   
 60  56  69  1   
 61  57  58  1   
 62  57  60  1   
 63  57  61  1   
 64  58  59  1   
 65  61  62  1   
 66  61  63  1   
 67  61  68  1   
 68  63  64  1   
 69  63  66  1   
 70  63  67  1   
 71  64  65  1   
@<TRIPOS>SUBSTRUCTURE
  1 <1>   0 RESIDUE 1 * * 1
# MOE 2007.09 (io_trps.svl 2007.09)
