@<TRIPOS>MOLECULE
J12_05
29 29 1 0 0 
SMALL
USER_CHARGES


@<TRIPOS>ATOM
  1 C        1.2466     0.6602    -0.2914 C.3   1 <1>   0.1382 
  2 H1       1.4718     0.5737    -1.3617 H     1 <1>   0.0000 
  3 H2       2.0445     1.2681     0.1526 H     1 <1>   0.0000 
  4 C       -0.0746     1.3645    -0.1358 C.2   1 <1>  -0.2764 
  5 C       -0.0813     2.8338    -0.4412 C.3   1 <1>   0.1382 
  6 H1       0.5973     3.3654     0.2337 H     1 <1>   0.0000 
  7 H2      -1.0774     3.2743    -0.3279 H     1 <1>   0.0000 
  8 H3       0.2450     3.0080    -1.4716 H     1 <1>   0.0000 
  9 C       -1.1824     0.7083     0.2455 C.2   1 <1>  -0.2882 
 10 H       -2.1192     1.2480     0.3633 H     1 <1>   0.1500 
 11 C       -1.2275    -0.7688     0.5205 C.3   1 <1>   0.1382 
 12 H1      -2.1192    -1.1613     0.0168 H     1 <1>   0.0000 
 13 H2      -1.3746    -0.8927     1.6007 H     1 <1>   0.0000 
 14 C        0.0271    -1.5614     0.0604 C.3   1 <1>   0.2800 
 15 O       -0.0216    -1.7526    -1.3622 O.3   1 <1>  -0.6800 
 16 H       -0.9118    -2.0587    -1.6024 H     1 <1>   0.4000 
 17 C        0.0858    -2.9653     0.7497 C.3   1 <1>   0.0000 
 18 C        1.2992    -3.8006     0.3133 C.3   1 <1>   0.0000 
 19 H1       1.2792    -4.7891     0.7860 H     1 <1>   0.0000 
 20 H2       2.2397    -3.3296     0.6126 H     1 <1>   0.0000 
 21 H3       1.3174    -3.9504    -0.7710 H     1 <1>   0.0000 
 22 C       -1.1791    -3.8051     0.5101 C.3   1 <1>   0.0000 
 23 H1      -2.0721    -3.3098     0.9020 H     1 <1>   0.0000 
 24 H2      -1.1029    -4.7708     1.0225 H     1 <1>   0.0000 
 25 H3      -1.3355    -4.0071    -0.5544 H     1 <1>   0.0000 
 26 H3       0.1699    -2.8091     1.8338 H     1 <1>   0.0000 
 27 C        1.2894    -0.7287     0.3588 C.3   1 <1>   0.0000 
 28 H1       1.4103    -0.6179     1.4443 H     1 <1>   0.0000 
 29 H2       2.1888    -1.2270    -0.0198 H     1 <1>   0.0000 
@<TRIPOS>BOND
  1   1   2  1   
  2   1   3  1   
  3   1   4  1   
  4   1  27  1   
  5   4   5  1   
  6   4   9  2   
  7   5   6  1   
  8   5   7  1   
  9   5   8  1   
 10   9  10  1   
 11   9  11  1   
 12  11  12  1   
 13  11  13  1   
 14  11  14  1   
 15  14  15  1   
 16  14  17  1   
 17  14  27  1   
 18  15  16  1   
 19  17  18  1   
 20  17  22  1   
 21  17  26  1   
 22  18  19  1   
 23  18  20  1   
 24  18  21  1   
 25  22  23  1   
 26  22  24  1   
 27  22  25  1   
 28  27  28  1   
 29  27  29  1   
@<TRIPOS>SUBSTRUCTURE
  1 <1>   0 RESIDUE 1 * * 1
# MOE 2007.09 (io_trps.svl 2007.09)
