@<TRIPOS>MOLECULE
J12_06
39 41 1 0 0 
SMALL
USER_CHARGES


@<TRIPOS>ATOM
  1 C        0.6811     0.7706    -0.0352 C.3   1 <1>  -0.1950 
  2 H        1.2316     0.3111     0.7840 H     1 <1>   0.1000 
  3 C       -0.5645     1.5307     0.3470 C.3   1 <1>  -0.1950 
  4 C        0.6891     2.2899    -0.0925 C.3   1 <1>  -0.1900 
  5 C        0.7610     2.9983    -1.4219 C.3   1 <1>   0.0950 
  6 H1       0.2635     2.4687    -2.2368 H     1 <1>   0.0000 
  7 H2       1.8068     3.1353    -1.7177 H     1 <1>   0.0000 
  8 H3       0.2990     3.9884    -1.3432 H     1 <1>   0.0000 
  9 C        1.4471     3.0180     0.9943 C.3   1 <1>   0.0950 
 10 H1       1.0349     4.0225     1.1364 H     1 <1>   0.0000 
 11 H2       2.5041     3.1121     0.7242 H     1 <1>   0.0000 
 12 H3       1.3930     2.4955     1.9556 H     1 <1>   0.0000 
 13 H2      -0.7783     1.4842     1.4125 H     1 <1>   0.1000 
 14 C       -1.8385     1.5464    -0.4742 C.3   1 <1>   0.0950 
 15 H       -1.6902     2.0341    -1.4416 H     1 <1>   0.0000 
 16 C       -2.5025     0.1636    -0.6855 C.3   1 <1>   0.1382 
 17 C       -1.7397    -0.9522    -1.3704 C.2   1 <1>  -0.2764 
 18 C       -2.3114    -1.6399    -2.3770 C.2   1 <1>  -0.3000 
 19 H1      -1.7898    -2.4426    -2.8894 H     1 <1>   0.1500 
 20 H2      -3.3191    -1.4235    -2.7185 H     1 <1>   0.1500 
 21 C       -0.3353    -1.2991    -0.9369 C.3   1 <1>   0.1382 
 22 H1       0.0154    -2.1799    -1.4907 H     1 <1>   0.0000 
 23 H2      -0.3383    -1.5913     0.1203 H     1 <1>   0.0000 
 24 C        0.6530    -0.1599    -1.2004 C.3   1 <1>   0.0950 
 25 H1       0.4225     0.3384    -2.1467 H     1 <1>   0.0000 
 26 H2       1.6595    -0.5814    -1.3132 H     1 <1>   0.0000 
 27 C       -2.9843     2.2583     0.2917 C.3   1 <1>   0.0000 
 28 H       -3.7895     2.4623    -0.4297 H     1 <1>   0.0000 
 29 C       -2.6334     3.5859     0.9478 C.3   1 <1>   0.0000 
 30 H1      -2.2142     4.2803     0.2125 H     1 <1>   0.0000 
 31 H2      -1.9104     3.4723     1.7611 H     1 <1>   0.0000 
 32 H3      -3.5314     4.0470     1.3730 H     1 <1>   0.0000 
 33 C       -3.5038     1.1935     1.2780 C.3   1 <1>   0.0000 
 34 H1      -4.5934     1.2584     1.3726 H     1 <1>   0.0000 
 35 H2      -3.0815     1.3194     2.2814 H     1 <1>   0.0000 
 36 C       -3.0794    -0.1661     0.6968 C.3   1 <1>   0.0000 
 37 H1      -3.9298    -0.8531     0.6292 H     1 <1>   0.0000 
 38 H2      -2.3296    -0.6331     1.3460 H     1 <1>   0.0000 
 39 H       -3.3777     0.3620    -1.3279 H     1 <1>   0.0000 
@<TRIPOS>BOND
  1   1   2  1   
  2   1   3  1   
  3   1   4  1   
  4   1  24  1   
  5   3   4  1   
  6   3  13  1   
  7   3  14  1   
  8   4   5  1   
  9   4   9  1   
 10   5   6  1   
 11   5   7  1   
 12   5   8  1   
 13   9  10  1   
 14   9  11  1   
 15   9  12  1   
 16  14  15  1   
 17  14  16  1   
 18  14  27  1   
 19  16  17  1   
 20  16  36  1   
 21  16  39  1   
 22  17  18  2   
 23  17  21  1   
 24  18  19  1   
 25  18  20  1   
 26  21  22  1   
 27  21  23  1   
 28  21  24  1   
 29  24  25  1   
 30  24  26  1   
 31  27  28  1   
 32  27  29  1   
 33  27  33  1   
 34  29  30  1   
 35  29  31  1   
 36  29  32  1   
 37  33  34  1   
 38  33  35  1   
 39  33  36  1   
 40  36  37  1   
 41  36  38  1   
@<TRIPOS>SUBSTRUCTURE
  1 <1>   0 RESIDUE 1 * * 1
# MOE 2007.09 (io_trps.svl 2007.09)
