@<TRIPOS>MOLECULE
J13_06
45 48 1 0 0 
SMALL
USER_CHARGES


@<TRIPOS>ATOM
  1 C        1.3358     0.6186     0.8468 C.ar  1 <1>   0.0862 
  2 C        0.1178     1.2125     1.1912 C.ar  1 <1>  -0.1500 
  3 H       -0.0731     2.2587     0.9644 H     1 <1>   0.1500 
  4 C       -0.8579     0.4534     1.8360 C.ar  1 <1>  -0.1500 
  5 H       -1.8065     0.9079     2.1116 H     1 <1>   0.1500 
  6 C       -0.6159    -0.8884     2.1322 C.ar  1 <1>  -0.1500 
  7 H       -1.3762    -1.4780     2.6392 H     1 <1>   0.1500 
  8 C        0.6037    -1.4751     1.7822 C.ar  1 <1>  -0.1500 
  9 H        0.7882    -2.5207     2.0156 H     1 <1>   0.1500 
 10 C        1.5945    -0.7297     1.1371 C.ar  1 <1>   0.1790 
 11 N        2.8141    -1.3620     0.8198 N.2   1 <1>  -0.6290 
 12 C        3.7087    -0.6325     0.2434 C.2   1 <1>   0.4490 
 13 N        3.5407     0.7015    -0.0855 N.am  1 <1>  -0.4201 
 14 C        2.3870     1.4061     0.1759 C.2   1 <1>   0.5438 
 15 O        2.2112     2.5878    -0.1016 O.2   1 <1>  -0.5700 
 16 C        5.0926    -1.0815    -0.1507 C.3   1 <1>   0.2045 
 17 C        5.1594    -1.9917    -1.3598 C.ar  1 <1>  -0.1435 
 18 H2       5.5269    -1.6009     0.7132 H     1 <1>   0.0000 
 19 C        5.8126     0.2612    -0.3698 C.3   1 <1>   0.0000 
 20 H1       6.6066     0.2316    -1.1227 H     1 <1>   0.0000 
 21 H2       6.2698     0.5753     0.5779 H     1 <1>   0.0000 
 22 C        4.7096     1.2450    -0.7289 C.3   1 <1>   0.3001 
 23 H1       4.5227     1.2744    -1.8077 H     1 <1>   0.0000 
 24 H2       4.9124     2.2627    -0.3819 H     1 <1>   0.0000 
 25 C        4.3535    -1.8255    -2.4942 C.ar  1 <1>  -0.1500 
 26 H        3.6144    -1.0278    -2.5060 H     1 <1>   0.1500 
 27 C        4.4886    -2.6697    -3.6183 C.ar  1 <1>   0.0862 
 28 C        5.4465    -3.7128    -3.6253 C.ar  1 <1>   0.1000 
 29 N        5.5911    -4.5464    -4.7250 N.pl3 1 <1>  -0.8691 
 30 H1       4.9690    -4.3530    -5.5198 H     1 <1>   0.4000 
 31 C        6.5265    -5.6372    -4.8378 C.3   1 <1>   0.3691 
 32 H1       6.4131    -6.1175    -5.8147 H     1 <1>   0.0000 
 33 H2       6.3431    -6.3962    -4.0707 H     1 <1>   0.0000 
 34 H3       7.5590    -5.2822    -4.7597 H     1 <1>   0.0000 
 35 C        6.2416    -3.8649    -2.4812 C.ar  1 <1>  -0.1500 
 36 H        6.9938    -4.6471    -2.4311 H     1 <1>   0.1500 
 37 C        6.1065    -3.0213    -1.3733 C.ar  1 <1>  -0.1500 
 38 H        6.7599    -3.1804    -0.5171 H     1 <1>   0.1500 
 39 C        3.6325    -2.4644    -4.8130 C.2   1 <1>   0.6338 
 40 O        3.7122    -3.1464    -5.8296 O.2   1 <1>  -0.5700 
 41 O        2.7673    -1.4323    -4.6263 O.3   1 <1>  -0.4300 
 42 C        1.9103    -1.1696    -5.7397 C.3   1 <1>   0.2800 
 43 H1       1.2651    -0.3264    -5.4786 H     1 <1>   0.0000 
 44 H2       1.2789    -2.0386    -5.9494 H     1 <1>   0.0000 
 45 H3       2.5002    -0.8963    -6.6201 H     1 <1>   0.0000 
@<TRIPOS>BOND
  1   1   2  ar  
  2   1  10  ar  
  3   1  14  1   
  4   2   3  1   
  5   2   4  ar  
  6   4   5  1   
  7   4   6  ar  
  8   6   7  1   
  9   6   8  ar  
 10   8   9  1   
 11   8  10  ar  
 12  10  11  1   
 13  11  12  2   
 14  12  13  1   
 15  12  16  1   
 16  13  14  am  
 17  13  22  1   
 18  14  15  2   
 19  16  17  1   
 20  16  18  1   
 21  16  19  1   
 22  17  25  ar  
 23  17  37  ar  
 24  19  20  1   
 25  19  21  1   
 26  19  22  1   
 27  22  23  1   
 28  22  24  1   
 29  25  26  1   
 30  25  27  ar  
 31  27  28  ar  
 32  27  39  1   
 33  28  29  1   
 34  28  35  ar  
 35  29  30  1   
 36  29  31  1   
 37  31  32  1   
 38  31  33  1   
 39  31  34  1   
 40  35  36  1   
 41  35  37  ar  
 42  37  38  1   
 43  39  40  2   
 44  39  41  1   
 45  41  42  1   
 46  42  43  1   
 47  42  44  1   
 48  42  45  1   
@<TRIPOS>SUBSTRUCTURE
  1 <1>   0 RESIDUE 1 * * 1
# MOE 2007.09 (io_trps.svl 2007.09)
