@<TRIPOS>MOLECULE
J14_04
51 53 1 0 0 
SMALL
USER_CHARGES


@<TRIPOS>ATOM
  1 C        1.1931     0.4948    -0.5122 C.ar  1 <1>   0.3962 
  2 C       -0.0223     0.0071    -1.1755 C.2   1 <1>   0.5438 
  3 O       -0.2085     0.1034    -2.3845 O.2   1 <1>  -0.5700 
  4 N       -0.9536    -0.5720    -0.3386 N.am  1 <1>  -0.4900 
  5 H       -1.7964    -0.9116    -0.7787 H     1 <1>   0.3700 
  6 C       -0.7927    -0.7029     1.0166 C.2   1 <1>   0.5600 
  7 N       -1.8011    -1.2957     1.6960 N.pl3 1 <1>  -0.8500 
  8 H1      -1.6953    -1.4010     2.6978 H     1 <1>   0.4000 
  9 H2      -2.6481    -1.6382     1.2674 H     1 <1>   0.4000 
 10 N        0.2692    -0.2834     1.6286 N.2   1 <1>  -0.6290 
 11 C        1.2740     0.3226     0.8612 C.ar  1 <1>   0.4890 
 12 N        2.3603     0.7474     1.5446 N.ar  1 <1>  -0.6200 
 13 C        3.3315     1.3417     0.8104 C.ar  1 <1>   0.1600 
 14 H        4.1971     1.6754     1.3734 H     1 <1>   0.1500 
 15 C        3.2434     1.5172    -0.5683 C.ar  1 <1>   0.1665 
 16 C        4.3546     2.2012    -1.3236 C.3   1 <1>   0.5126 
 17 N        5.5697     1.4073    -1.2578 N.pl3 1 <1>  -0.8691 
 18 C        6.8515     1.8974    -1.1137 C.ar  1 <1>   0.1000 
 19 H2       5.4608     0.4021    -1.3501 H     1 <1>   0.4000 
 20 H2       4.4754     3.1954    -0.8796 H     1 <1>   0.0000 
 21 H3       4.0709     2.3414    -2.3725 H     1 <1>   0.0000 
 22 N        2.1617     1.0862    -1.2600 N.ar  1 <1>  -0.6200 
 23 C        7.8918     0.9902    -0.8547 C.ar  1 <1>  -0.1500 
 24 H        7.6853    -0.0769    -0.8071 H     1 <1>   0.1500 
 25 C        9.2026     1.4232    -0.6379 C.ar  1 <1>  -0.1500 
 26 H        9.9845     0.6942    -0.4357 H     1 <1>   0.1500 
 27 C        9.4935     2.7862    -0.6622 C.ar  1 <1>   0.0862 
 28 C        8.4839     3.7049    -0.9492 C.ar  1 <1>  -0.1500 
 29 H        8.6939     4.7685    -1.0275 H     1 <1>   0.1500 
 30 C        7.1754     3.2583    -1.1680 C.ar  1 <1>  -0.1500 
 31 H        6.4204     4.0044    -1.3972 H     1 <1>   0.1500 
 32 C       10.8799     3.2149    -0.3942 C.2   1 <1>   0.5438 
 33 N       11.0241     4.4191     0.2576 N.am  1 <1>  -0.7301 
 34 C       12.3256     5.0200     0.5551 C.3   1 <1>   0.3611 
 35 C       12.9829     4.3276     1.7558 C.3   1 <1>   0.0000 
 36 H1      12.8299     3.2423     1.6957 H     1 <1>   0.0000 
 37 H2      12.4973     4.6472     2.6876 H     1 <1>   0.0000 
 38 C       14.4871     4.5976     1.8388 C.3   1 <1>   0.0610 
 39 H2      14.6826     5.6649     1.9776 H     1 <1>   0.0000 
 40 H3      14.9712     4.2617     0.9150 H     1 <1>   0.0000 
 41 H3      12.9370     4.9334    -0.3499 H     1 <1>   0.0000 
 42 H2      10.2125     4.9540     0.5602 H     1 <1>   0.3700 
 43 O       11.8174     2.4997    -0.7294 O.2   1 <1>  -0.5700 
 44 C       12.0962     6.5041     0.8489 C.2   1 <1>   0.6590 
 45 O       12.9589     7.3388     1.0698 O.2   1 <1>  -0.5700 
 46 O       10.7833     6.8479     0.8854 O.3   1 <1>  -0.6500 
 47 H       10.7913     7.8081     1.0918 H     1 <1>   0.5000 
 48 C       15.1172     3.8635     2.9922 C.2   1 <1>   0.6590 
 49 O       14.5503     3.2160     3.8555 O.2   1 <1>  -0.5700 
 50 O       16.4589     4.0062     2.9981 O.3   1 <1>  -0.6500 
 51 H       16.7652     3.5021     3.7807 H     1 <1>   0.5000 
@<TRIPOS>BOND
  1   1   2  1   
  2   1  11  ar  
  3   1  22  ar  
  4   2   3  2   
  5   2   4  am  
  6   4   5  1   
  7   4   6  1   
  8   6   7  1   
  9   6  10  2   
 10   7   8  1   
 11   7   9  1   
 12  10  11  1   
 13  11  12  ar  
 14  12  13  ar  
 15  13  14  1   
 16  13  15  ar  
 17  15  16  1   
 18  15  22  ar  
 19  16  17  1   
 20  16  20  1   
 21  16  21  1   
 22  17  18  1   
 23  17  19  1   
 24  18  23  ar  
 25  18  30  ar  
 26  23  24  1   
 27  23  25  ar  
 28  25  26  1   
 29  25  27  ar  
 30  27  28  ar  
 31  27  32  1   
 32  28  29  1   
 33  28  30  ar  
 34  30  31  1   
 35  32  33  am  
 36  32  43  2   
 37  33  34  1   
 38  33  42  1   
 39  34  35  1   
 40  34  41  1   
 41  34  44  1   
 42  35  36  1   
 43  35  37  1   
 44  35  38  1   
 45  38  39  1   
 46  38  40  1   
 47  38  48  1   
 48  44  45  2   
 49  44  46  1   
 50  46  47  1   
 51  48  49  2   
 52  48  50  1   
 53  50  51  1   
@<TRIPOS>SUBSTRUCTURE
  1 <1>   0 RESIDUE 1 * * 1
# MOE 2007.09 (io_trps.svl 2007.09)
