@<TRIPOS>MOLECULE
J14_05
54 56 1 0 0 
SMALL
USER_CHARGES


@<TRIPOS>ATOM
  1 C        0.3464     0.7287     1.7532 C.3   1 <1>   0.1435 
  2 H1      -0.3208     0.3201     2.5207 H     1 <1>   0.0000 
  3 H2       1.1662     1.2200     2.2917 H     1 <1>   0.0000 
  4 C       -0.3654     1.7350     0.8873 C.ar  1 <1>  -0.1435 
  5 C       -1.5183     1.3716     0.1769 C.ar  1 <1>   0.0284 
  6 C       -2.1515     0.0432     0.4183 C.2   1 <1>  -0.0284 
  7 C       -1.5095    -1.2319     0.0722 C.2   1 <1>  -0.1382 
  8 C       -0.0452    -1.4904     0.4600 C.3   1 <1>   0.4383 
  9 N        0.5989    -2.2399    -0.6250 N.am  1 <1>  -0.7301 
 10 H1       0.4666    -1.9057    -1.5729 H     1 <1>   0.3700 
 11 H2      -0.0974    -2.1495     1.3392 H     1 <1>   0.0000 
 12 C        0.9237    -0.3554     0.8517 C.3   1 <1>   0.0000 
 13 H1       1.3603     0.0957    -0.0514 H     1 <1>   0.0000 
 14 H2       1.7711    -0.8169     1.3786 H     1 <1>   0.0000 
 15 C       -3.3825     0.1245     0.9693 C.2   1 <1>  -0.1500 
 16 H       -3.7895     1.0983     1.2427 H     1 <1>   0.1500 
 17 C       -4.3076    -0.9534     1.2246 C.2   1 <1>  -0.1500 
 18 H       -4.9628    -0.8069     2.0804 H     1 <1>   0.1500 
 19 C       -4.5228    -2.0132     0.4365 C.2   1 <1>   0.0911 
 20 O       -5.5714    -2.8652     0.7545 O.3   1 <1>  -0.3567 
 21 C       -5.5046    -4.1700     0.1900 C.3   1 <1>   0.2800 
 22 H1      -6.2412    -4.7940     0.7052 H     1 <1>   0.0000 
 23 H2      -4.5190    -4.6240     0.3384 H     1 <1>   0.0000 
 24 H3      -5.7737    -4.1495    -0.8699 H     1 <1>   0.0000 
 25 C       -3.6606    -2.2323    -0.7595 C.2   1 <1>   0.5412 
 26 O       -4.1027    -2.5620    -1.8529 O.2   1 <1>  -0.5700 
 27 C       -2.2079    -2.2262    -0.5110 C.2   1 <1>  -0.1356 
 28 H       -1.7358    -3.1599    -0.7986 H     1 <1>   0.1500 
 29 C        0.1834     3.0178     0.7141 C.ar  1 <1>  -0.1500 
 30 H        1.0836     3.2995     1.2574 H     1 <1>   0.1500 
 31 C       -0.3823     3.9434    -0.1695 C.ar  1 <1>   0.0825 
 32 O        0.2639     5.1504    -0.2093 O.3   1 <1>  -0.3625 
 33 C        0.2998     5.8006    -1.4761 C.3   1 <1>   0.2800 
 34 H1       1.1741     6.4590    -1.4841 H     1 <1>   0.0000 
 35 H2      -0.5840     6.4309    -1.6078 H     1 <1>   0.0000 
 36 H3       0.4127     5.0938    -2.3056 H     1 <1>   0.0000 
 37 C       -1.5375     3.5910    -0.8707 C.ar  1 <1>   0.0825 
 38 O       -2.1526     4.4847    -1.7107 O.3   1 <1>  -0.3625 
 39 C       -3.2339     5.1283    -1.0331 C.3   1 <1>   0.2800 
 40 H1      -3.6416     5.8893    -1.7052 H     1 <1>   0.0000 
 41 H2      -2.8901     5.6315    -0.1223 H     1 <1>   0.0000 
 42 H3      -4.0369     4.4222    -0.7973 H     1 <1>   0.0000 
 43 C       -2.0701     2.2967    -0.7348 C.ar  1 <1>   0.0825 
 44 O       -3.1997     1.9531    -1.4453 O.3   1 <1>  -0.3625 
 45 C       -2.8415     1.5002    -2.7514 C.3   1 <1>   0.2800 
 46 H1      -3.7528     1.1473    -3.2434 H     1 <1>   0.0000 
 47 H2      -2.1359     0.6631    -2.7071 H     1 <1>   0.0000 
 48 H3      -2.4258     2.3147    -3.3537 H     1 <1>   0.0000 
 49 C        1.3832    -3.3519    -0.4037 C.2   1 <1>   0.5690 
 50 C        1.9395    -3.9421    -1.6709 C.3   1 <1>   0.0610 
 51 H1       2.7779    -4.6018    -1.4310 H     1 <1>   0.0000 
 52 H2       2.2979    -3.1522    -2.3373 H     1 <1>   0.0000 
 53 H3       1.1584    -4.5170    -2.1756 H     1 <1>   0.0000 
 54 O        1.5988    -3.8461     0.6979 O.2   1 <1>  -0.5700 
@<TRIPOS>BOND
  1   1   2  1   
  2   1   3  1   
  3   1   4  1   
  4   1  12  1   
  5   4   5  ar  
  6   4  29  ar  
  7   5   6  1   
  8   5  43  ar  
  9   6   7  1   
 10   6  15  2   
 11   7   8  1   
 12   7  27  2   
 13   8   9  1   
 14   8  11  1   
 15   8  12  1   
 16   9  10  1   
 17   9  49  am  
 18  12  13  1   
 19  12  14  1   
 20  15  16  1   
 21  15  17  1   
 22  17  18  1   
 23  17  19  2   
 24  19  20  1   
 25  19  25  1   
 26  20  21  1   
 27  21  22  1   
 28  21  23  1   
 29  21  24  1   
 30  25  26  2   
 31  25  27  1   
 32  27  28  1   
 33  29  30  1   
 34  29  31  ar  
 35  31  32  1   
 36  31  37  ar  
 37  32  33  1   
 38  33  34  1   
 39  33  35  1   
 40  33  36  1   
 41  37  38  1   
 42  37  43  ar  
 43  38  39  1   
 44  39  40  1   
 45  39  41  1   
 46  39  42  1   
 47  43  44  1   
 48  44  45  1   
 49  45  46  1   
 50  45  47  1   
 51  45  48  1   
 52  49  50  1   
 53  49  54  2   
 54  50  51  1   
 55  50  52  1   
 56  50  53  1   
@<TRIPOS>SUBSTRUCTURE
  1 <1>   0 RESIDUE 1 * * 1
# MOE 2007.09 (io_trps.svl 2007.09)
