@<TRIPOS>MOLECULE
J14_13
30 32 1 0 0 
SMALL
USER_CHARGES


@<TRIPOS>ATOM
  1 C        1.3349     0.7994     0.0383 C.ar  1 <1>   0.0000 
  2 C        0.1335     1.4996    -0.0968 C.ar  1 <1>  -0.1516 
  3 C       -1.0929     0.8525    -0.2943 C.ar  1 <1>  -0.1500 
  4 H       -2.0160     1.4146    -0.3968 H     1 <1>   0.1500 
  5 C       -1.1038    -0.5480    -0.3561 C.ar  1 <1>   0.0825 
  6 O       -2.3485    -1.0893    -0.5517 O.3   1 <1>  -0.3625 
  7 C       -2.4322    -2.5071    -0.6255 C.3   1 <1>   0.2800 
  8 H1      -3.4822    -2.7717    -0.7832 H     1 <1>   0.0000 
  9 H2      -2.1097    -2.9711     0.3124 H     1 <1>   0.0000 
 10 H3      -1.8608    -2.8929    -1.4762 H     1 <1>   0.0000 
 11 C        0.0846    -1.2669    -0.2213 C.ar  1 <1>  -0.1500 
 12 H        0.1030    -2.3513    -0.2641 H     1 <1>   0.1500 
 13 C        1.3072    -0.6064    -0.0231 C.ar  1 <1>  -0.1500 
 14 H        2.2237    -1.1800     0.0811 H     1 <1>   0.1500 
 15 C        2.3500     1.7705     0.2226 C.2   1 <1>  -0.1810 
 16 C        1.7664     3.0180     0.1913 C.2   1 <1>  -0.2366 
 17 N        0.4225     2.8452     0.0073 N.pl3 1 <1>   0.0332 
 18 H       -0.2662     3.5827    -0.0479 H     1 <1>   0.2700 
 19 C        3.8112     1.6626     0.4524 C.3   1 <1>   0.1810 
 20 H1       3.9923     1.5500     1.5283 H     1 <1>   0.0000 
 21 H2       4.2316     0.7854    -0.0505 H     1 <1>   0.0000 
 22 C        4.5054     2.9410    -0.0540 C.3   1 <1>   0.2460 
 23 H1       5.5266     2.9711     0.3421 H     1 <1>   0.0000 
 24 H2       4.5919     2.9100    -1.1477 H     1 <1>   0.0000 
 25 N        3.8257     4.2106     0.3113 N.2   1 <1>  -0.6960 
 26 C        2.5326     4.2264     0.3604 C.2   1 <1>   0.4740 
 27 C        1.8144     5.5212     0.6211 C.3   1 <1>   0.0610 
 28 H1       2.5310     6.3325     0.7775 H     1 <1>   0.0000 
 29 H2       1.1890     5.4242     1.5132 H     1 <1>   0.0000 
 30 H3       1.1813     5.7697    -0.2355 H     1 <1>   0.0000 
@<TRIPOS>BOND
  1   1   2  ar  
  2   1  13  ar  
  3   1  15  1   
  4   2   3  ar  
  5   2  17  1   
  6   3   4  1   
  7   3   5  ar  
  8   5   6  1   
  9   5  11  ar  
 10   6   7  1   
 11   7   8  1   
 12   7   9  1   
 13   7  10  1   
 14  11  12  1   
 15  11  13  ar  
 16  13  14  1   
 17  15  16  2   
 18  15  19  1   
 19  16  17  1   
 20  16  26  1   
 21  17  18  1   
 22  19  20  1   
 23  19  21  1   
 24  19  22  1   
 25  22  23  1   
 26  22  24  1   
 27  22  25  1   
 28  25  26  2   
 29  26  27  1   
 30  27  28  1   
 31  27  29  1   
 32  27  30  1   
@<TRIPOS>SUBSTRUCTURE
  1 <1>   0 RESIDUE 1 * * 1
# MOE 2007.09 (io_trps.svl 2007.09)
