@<TRIPOS>MOLECULE
J18_11
30 32 1 0 0 
SMALL
USER_CHARGES


@<TRIPOS>ATOM
  1 C        1.3696     0.5732    -0.4042 C.ar  1 <1>   0.0825 
  2 C        0.1983     1.2773    -0.6872 C.ar  1 <1>  -0.1500 
  3 H        0.2438     2.2649    -1.1375 H     1 <1>   0.1500 
  4 C       -1.0326     0.7079    -0.3886 C.ar  1 <1>   0.0825 
  5 O       -2.1507     1.4325    -0.6804 O.3   1 <1>  -0.5325 
  6 H       -2.9387     0.9264    -0.4226 H     1 <1>   0.4500 
  7 C       -1.1124    -0.5564     0.1879 C.ar  1 <1>  -0.1500 
  8 H       -2.0799    -0.9913     0.4167 H     1 <1>   0.1500 
  9 C        0.0658    -1.2580     0.4690 C.ar  1 <1>   0.0825 
 10 O       -0.0264    -2.4979     1.0358 O.3   1 <1>  -0.5325 
 11 H       -0.9558    -2.7397     1.1733 H     1 <1>   0.4500 
 12 C        1.3150    -0.6974     0.1753 C.ar  1 <1>   0.0862 
 13 C        2.5901    -1.3776     0.4479 C.2   1 <1>   0.4694 
 14 O        2.6840    -2.4923     0.9437 O.2   1 <1>  -0.5700 
 15 C        3.8195    -0.6513     0.0933 C.2   1 <1>  -0.1356 
 16 H        4.7540    -1.1489     0.3205 H     1 <1>   0.1500 
 17 C        3.7372     0.5594    -0.4655 C.2   1 <1>   0.0483 
 18 C        4.9381     1.3346    -0.8310 C.ar  1 <1>   0.0284 
 19 O        2.5435     1.2068    -0.7280 O.3   1 <1>  -0.1592 
 20 C        6.0519     0.7295    -1.4367 C.ar  1 <1>  -0.1500 
 21 H        6.0550    -0.3360    -1.6566 H     1 <1>   0.1500 
 22 C        7.1774     1.4839    -1.7866 C.ar  1 <1>  -0.1500 
 23 H        8.0227     0.9870    -2.2527 H     1 <1>   0.1500 
 24 C        7.1889     2.8525    -1.5384 C.ar  1 <1>   0.0825 
 25 O        8.2651     3.6260    -1.8639 O.3   1 <1>  -0.5325 
 26 H        8.9518     3.0548    -2.2456 H     1 <1>   0.4500 
 27 C        6.0948     3.4753    -0.9508 C.ar  1 <1>  -0.1500 
 28 H        6.1101     4.5450    -0.7646 H     1 <1>   0.1500 
 29 C        4.9729     2.7197    -0.6005 C.ar  1 <1>  -0.1500 
 30 H        4.1266     3.2244    -0.1388 H     1 <1>   0.1500 
@<TRIPOS>BOND
  1   1   2  ar  
  2   1  12  ar  
  3   1  19  1   
  4   2   3  1   
  5   2   4  ar  
  6   4   5  1   
  7   4   7  ar  
  8   5   6  1   
  9   7   8  1   
 10   7   9  ar  
 11   9  10  1   
 12   9  12  ar  
 13  10  11  1   
 14  12  13  1   
 15  13  14  2   
 16  13  15  1   
 17  15  16  1   
 18  15  17  2   
 19  17  18  1   
 20  17  19  1   
 21  18  20  ar  
 22  18  29  ar  
 23  20  21  1   
 24  20  22  ar  
 25  22  23  1   
 26  22  24  ar  
 27  24  25  1   
 28  24  27  ar  
 29  25  26  1   
 30  27  28  1   
 31  27  29  ar  
 32  29  30  1   
@<TRIPOS>SUBSTRUCTURE
  1 <1>   0 RESIDUE 1 * * 1
# MOE 2007.09 (io_trps.svl 2007.09)
