@<TRIPOS>MOLECULE
J18_21
20 20 1 0 0 
SMALL
USER_CHARGES


@<TRIPOS>ATOM
  1 C        1.1807     0.5636    -0.0080 C.ar  1 <1>   0.0862 
  2 C        0.1078     1.3281     0.4509 C.ar  1 <1>  -0.1500 
  3 H        0.2223     2.3913     0.6495 H     1 <1>   0.1500 
  4 C       -1.1359     0.7286     0.6617 C.ar  1 <1>  -0.1500 
  5 H       -1.9556     1.3461     1.0195 H     1 <1>   0.1500 
  6 C       -1.3136    -0.6383     0.4147 C.ar  1 <1>   0.0825 
  7 O       -2.5492    -1.1798     0.6359 O.3   1 <1>  -0.5325 
  8 H       -3.1555    -0.4901     0.9523 H     1 <1>   0.4500 
  9 C       -0.2464    -1.4179    -0.0461 C.ar  1 <1>   0.0825 
 10 O       -0.2301    -2.7546    -0.3398 O.3   1 <1>  -0.3625 
 11 C       -1.4263    -3.5005    -0.1731 C.3   1 <1>   0.2800 
 12 H1      -1.2104    -4.5358    -0.4562 H     1 <1>   0.0000 
 13 H2      -2.2155    -3.1418    -0.8412 H     1 <1>   0.0000 
 14 H3      -1.7454    -3.5126     0.8737 H     1 <1>   0.0000 
 15 C        0.9974    -0.8022    -0.2533 C.ar  1 <1>  -0.1500 
 16 H        1.8294    -1.4071    -0.6118 H     1 <1>   0.1500 
 17 C        2.5045     1.1423    -0.2450 C.2   1 <1>   0.6338 
 18 O        3.4839     0.5335    -0.6447 O.2   1 <1>  -0.5700 
 19 O        2.5558     2.4610     0.0262 O.3   1 <1>  -0.6500 
 20 H        3.4798     2.7233    -0.1698 H     1 <1>   0.5000 
@<TRIPOS>BOND
  1   1   2  ar  
  2   1  15  ar  
  3   1  17  1   
  4   2   3  1   
  5   2   4  ar  
  6   4   5  1   
  7   4   6  ar  
  8   6   7  1   
  9   6   9  ar  
 10   7   8  1   
 11   9  10  1   
 12   9  15  ar  
 13  10  11  1   
 14  11  12  1   
 15  11  13  1   
 16  11  14  1   
 17  15  16  1   
 18  17  18  2   
 19  17  19  1   
 20  19  20  1   
@<TRIPOS>SUBSTRUCTURE
  1 <1>   0 RESIDUE 1 * * 1
# MOE 2007.09 (io_trps.svl 2007.09)
