@<TRIPOS>MOLECULE
J19_19
35 37 1 0 0 
SMALL
USER_CHARGES


@<TRIPOS>ATOM
  1 C        1.1400     0.5580    -0.1550 C.ar  1 <1>  -0.1500 
  2 H        2.1230     0.9760    -0.3460 H     1 <1>   0.1500 
  3 C       -0.0120     1.2920    -0.4390 C.ar  1 <1>   0.0820 
  4 O        0.0840     2.5520    -0.9620 O.3   1 <1>  -0.5320 
  5 H        1.0190     2.7910    -1.0780 H     1 <1>   0.4500 
  6 C       -1.2950     0.7600    -0.1970 C.ar  1 <1>   0.0000 
  7 C       -1.3980    -0.5360     0.3430 C.ar  1 <1>   0.2100 
  8 C       -0.2440    -1.2730     0.6280 C.ar  1 <1>  -0.1500 
  9 H       -0.3030    -2.2760     1.0450 H     1 <1>   0.1500 
 10 C        1.0090    -0.7210     0.3770 C.ar  1 <1>   0.0820 
 11 O        2.0940    -1.4890     0.6750 O.3   1 <1>  -0.5320 
 12 H        2.9100    -1.0050     0.4580 H     1 <1>   0.4500 
 13 C       -2.4870     1.4350    -0.4600 C.ar  1 <1>  -0.1500 
 14 H       -2.4680     2.4360    -0.8830 H     1 <1>   0.1500 
 15 C       -3.6760     0.7930    -0.1710 C.ar  1 <1>   0.0820 
 16 O       -4.8680     1.4020    -0.4300 O.3   1 <1>  -0.5320 
 17 C       -3.6410    -0.5010     0.3760 C.ar  1 <1>   0.2100 
 18 C       -4.8360    -1.2830     0.7380 C.ar  1 <1>   0.0000 
 19 O       -2.5230    -1.0480     0.5750 O.2   1 <1>   0.5800 
 20 C       -5.9110    -0.7070     1.4480 C.ar  1 <1>  -0.1500 
 21 H       -5.8610     0.3450     1.7170 H     1 <1>   0.1500 
 22 C       -7.0250    -1.4690     1.8110 C.ar  1 <1>   0.0820 
 23 O       -8.1270    -1.0250     2.4950 O.3   1 <1>  -0.3620 
 24 C       -8.1760     0.3640     2.8010 C.3   1 <1>   0.2800 
 25 H1      -9.1250     0.5610     3.3080 H     1 <1>   0.0000 
 26 H2      -8.1520     0.9710     1.8900 H     1 <1>   0.0000 
 27 H3      -7.3680     0.6440     3.4860 H     1 <1>   0.0000 
 28 C       -7.0560    -2.8220     1.4710 C.ar  1 <1>   0.0820 
 29 O       -8.1320    -3.5910     1.8200 O.3   1 <1>  -0.5320 
 30 H       -8.7380    -2.9830     2.2880 H     1 <1>   0.4500 
 31 H       -4.7240     2.2680    -0.8520 H     1 <1>   0.4500 
 32 C       -6.0140    -3.4200     0.7780 C.ar  1 <1>  -0.1500 
 33 H       -6.0640    -4.4740     0.5210 H     1 <1>   0.1500 
 34 C       -4.9080    -2.6530     0.4140 C.ar  1 <1>  -0.1500 
 35 H       -4.1120    -3.1460    -0.1420 H     1 <1>   0.1500 
@<TRIPOS>BOND
  1   1   2  1   
  2   1   3  ar  
  3   1  10  ar  
  4   3   4  1   
  5   3   6  ar  
  6   4   5  1   
  7   6   7  ar  
  8   6  13  ar  
  9   7   8  ar  
 10   7  19  ar  
 11   8   9  1   
 12   8  10  ar  
 13  10  11  1   
 14  11  12  1   
 15  13  14  1   
 16  13  15  ar  
 17  15  16  1   
 18  15  17  ar  
 19  16  31  1   
 20  17  18  1   
 21  17  19  ar  
 22  18  20  ar  
 23  18  34  ar  
 24  20  21  1   
 25  20  22  ar  
 26  22  23  1   
 27  22  28  ar  
 28  23  24  1   
 29  24  25  1   
 30  24  26  1   
 31  24  27  1   
 32  28  29  1   
 33  28  32  ar  
 34  29  30  1   
 35  32  33  1   
 36  32  34  ar  
 37  34  35  1   
@<TRIPOS>SUBSTRUCTURE
  1 <1>   0 RESIDUE 1 * * 1
# MOE 2007.09 (io_trps.svl 2007.09)
