@<TRIPOS>MOLECULE
J19_08
35 37 1 0 0 
SMALL
USER_CHARGES


@<TRIPOS>ATOM
  1 C        1.3588     1.1153     0.1861 C.ar  1 <1>   0.0284 
  2 C        2.6583     1.7988     0.2658 C.2   1 <1>   0.0483 
  3 C        0.5935     1.2096    -0.9836 C.ar  1 <1>  -0.1500 
  4 H        0.9761     1.7922    -1.8188 H     1 <1>   0.1500 
  5 C       -0.6501     0.5672    -1.0786 C.ar  1 <1>   0.0825 
  6 O       -1.3562     0.7004    -2.2429 O.3   1 <1>  -0.5325 
  7 H       -0.8285     1.2106    -2.8798 H     1 <1>   0.4500 
  8 C       -1.1454    -0.1824    -0.0062 C.ar  1 <1>   0.0825 
  9 O       -2.3245    -0.8722     0.0837 O.3   1 <1>  -0.3625 
 10 C       -3.1990    -0.8715    -1.0351 C.3   1 <1>   0.2800 
 11 H1      -4.0716    -1.4775    -0.7711 H     1 <1>   0.0000 
 12 H2      -2.7313    -1.3411    -1.9061 H     1 <1>   0.0000 
 13 H3      -3.5614     0.1374    -1.2556 H     1 <1>   0.0000 
 14 C       -0.3692    -0.2762     1.1576 C.ar  1 <1>  -0.1500 
 15 H       -0.7359    -0.8604     1.9993 H     1 <1>   0.1500 
 16 C        0.8716     0.3606     1.2566 C.ar  1 <1>  -0.1500 
 17 H        1.4490     0.2531     2.1728 H     1 <1>   0.1500 
 18 O        3.5886     1.2643    -0.6037 O.3   1 <1>  -0.1592 
 19 C        4.8368     1.8271    -0.6586 C.ar  1 <1>   0.0825 
 20 C        5.2273     2.9058     0.1349 C.ar  1 <1>   0.0862 
 21 C        4.2423     3.4568     1.0833 C.2   1 <1>   0.4694 
 22 C        2.8854     2.8391     1.0852 C.2   1 <1>   0.0911 
 23 O        4.5045     4.3820     1.8432 O.2   1 <1>  -0.5700 
 24 C        5.7240     1.2561    -1.5740 C.ar  1 <1>  -0.1500 
 25 H        5.4154     0.4147    -2.1884 H     1 <1>   0.1500 
 26 C        7.0088     1.7691    -1.6982 C.ar  1 <1>   0.0825 
 27 O        7.8414     1.1817    -2.6049 O.3   1 <1>  -0.5325 
 28 H        8.7074     1.6226    -2.5848 H     1 <1>   0.4500 
 29 C        7.4210     2.8466    -0.9215 C.ar  1 <1>  -0.1500 
 30 H        8.4257     3.2430    -1.0274 H     1 <1>   0.1500 
 31 C        6.5261     3.4137    -0.0061 C.ar  1 <1>   0.0825 
 32 O        6.9442     4.4771     0.7427 O.3   1 <1>  -0.5325 
 33 H        7.8651     4.7001     0.5349 H     1 <1>   0.4500 
 34 O        1.9409     3.3954     1.9300 O.3   1 <1>  -0.5267 
 35 H        1.0788     2.9723     1.7841 H     1 <1>   0.4500 
@<TRIPOS>BOND
  1   1   2  1   
  2   1   3  ar  
  3   1  16  ar  
  4   2  18  1   
  5   2  22  2   
  6   3   4  1   
  7   3   5  ar  
  8   5   6  1   
  9   5   8  ar  
 10   6   7  1   
 11   8   9  1   
 12   8  14  ar  
 13   9  10  1   
 14  10  11  1   
 15  10  12  1   
 16  10  13  1   
 17  14  15  1   
 18  14  16  ar  
 19  16  17  1   
 20  18  19  1   
 21  19  20  ar  
 22  19  24  ar  
 23  20  21  1   
 24  20  31  ar  
 25  21  22  1   
 26  21  23  2   
 27  22  34  1   
 28  24  25  1   
 29  24  26  ar  
 30  26  27  1   
 31  26  29  ar  
 32  27  28  1   
 33  29  30  1   
 34  29  31  ar  
 35  31  32  1   
 36  32  33  1   
 37  34  35  1   
@<TRIPOS>SUBSTRUCTURE
  1 <1>   0 RESIDUE 1 * * 1
# MOE 2007.09 (io_trps.svl 2007.09)
