@<TRIPOS>MOLECULE
J19_11
52 55 1 0 0 
SMALL
USER_CHARGES


@<TRIPOS>ATOM
  1 C        0.7937     0.9189    -0.2237 C.ar  1 <1>   0.0862 
  2 C       -0.4225     1.5130     0.1228 C.ar  1 <1>  -0.1500 
  3 H       -0.6438     2.5357    -0.1749 H     1 <1>   0.1500 
  4 C       -1.3686     0.7812     0.8436 C.ar  1 <1>  -0.1500 
  5 H       -2.3130     1.2487     1.1060 H     1 <1>   0.1500 
  6 C       -1.0884    -0.5363     1.2022 C.ar  1 <1>   0.0825 
  7 O       -1.9892    -1.2899     1.8967 O.3   1 <1>  -0.5325 
  8 H       -2.7861    -0.7587     2.0597 H     1 <1>   0.4500 
  9 C        0.1243    -1.1296     0.8617 C.ar  1 <1>  -0.1500 
 10 H        0.3276    -2.1566     1.1513 H     1 <1>   0.1500 
 11 C        1.0755    -0.3931     0.1588 C.ar  1 <1>   0.0825 
 12 O        2.2463    -1.0349    -0.1438 O.3   1 <1>  -0.3625 
 13 C        3.3417    -0.1351    -0.3804 C.3   1 <1>   0.4235 
 14 C        4.5576    -0.9616    -0.7598 C.ar  1 <1>  -0.1435 
 15 H2       3.5530     0.3793     0.5687 H     1 <1>   0.0000 
 16 C        2.9939     0.8738    -1.4690 C.3   1 <1>   0.0610 
 17 H1       2.7559     0.3869    -2.4220 H     1 <1>   0.0000 
 18 H2       3.8240     1.5716    -1.6250 H     1 <1>   0.0000 
 19 C        1.7773     1.6495    -1.0358 C.2   1 <1>   0.4228 
 20 O        1.5737     2.8088    -1.3812 O.2   1 <1>  -0.5700 
 21 C        4.4561    -2.0488    -1.6416 C.ar  1 <1>  -0.1500 
 22 H        3.4914    -2.3113    -2.0733 H     1 <1>   0.1500 
 23 C        5.5774    -2.8244    -1.9685 C.ar  1 <1>  -0.1500 
 24 H        5.4265    -3.6539    -2.6501 H     1 <1>   0.1500 
 25 C        6.8226    -2.5231    -1.4197 C.ar  1 <1>   0.0825 
 26 O        7.9924    -3.2000    -1.6244 O.3   1 <1>  -0.3625 
 27 C        7.9700    -4.4658    -2.2906 C.3   1 <1>   0.5600 
 28 H        7.3649    -4.4085    -3.2014 H     1 <1>   0.0000 
 29 C        6.9361    -1.4225    -0.5659 C.ar  1 <1>  -0.1500 
 30 H        7.9043    -1.1687    -0.1400 H     1 <1>   0.1500 
 31 C        5.8183    -0.6491    -0.2361 C.ar  1 <1>  -0.1500 
 32 H        5.9468     0.1915     0.4419 H     1 <1>   0.1500 
 33 O        9.2881    -4.7870    -2.7730 O.3   1 <1>  -0.5600 
 34 C       10.2723    -4.9378    -1.7385 C.3   1 <1>   0.2800 
 35 H1      10.3666    -3.9838    -1.2034 H     1 <1>   0.0000 
 36 C       11.6064    -5.2237    -2.4359 C.3   1 <1>   0.2800 
 37 H1      11.9272    -4.3401    -2.9995 H     1 <1>   0.0000 
 38 H2      11.5073    -6.0435    -3.1563 H     1 <1>   0.0000 
 39 O       12.6132    -5.5624    -1.4920 O.3   1 <1>  -0.6800 
 40 H       13.4552    -5.6066    -1.9790 H     1 <1>   0.4000 
 41 C        9.8877    -6.0251    -0.7178 C.3   1 <1>   0.2800 
 42 H1      10.5633    -6.0023     0.1458 H     1 <1>   0.0000 
 43 O       10.0054    -7.3408    -1.2765 O.3   1 <1>  -0.6800 
 44 H       10.9602    -7.5172    -1.3634 H     1 <1>   0.4000 
 45 C        8.4516    -5.8140    -0.2231 C.3   1 <1>   0.2800 
 46 H1       8.4293    -4.9438     0.4437 H     1 <1>   0.0000 
 47 O        8.0445    -6.9525     0.5413 O.3   1 <1>  -0.6800 
 48 H        8.1381    -7.6903    -0.0998 H     1 <1>   0.4000 
 49 C        7.4577    -5.5926    -1.3695 C.3   1 <1>   0.2800 
 50 H1       6.4832    -5.3429    -0.9373 H     1 <1>   0.0000 
 51 O        7.2675    -6.8223    -2.0859 O.3   1 <1>  -0.6800 
 52 H        6.7635    -6.6387    -2.8961 H     1 <1>   0.4000 
@<TRIPOS>BOND
  1   1   2  ar  
  2   1  11  ar  
  3   1  19  1   
  4   2   3  1   
  5   2   4  ar  
  6   4   5  1   
  7   4   6  ar  
  8   6   7  1   
  9   6   9  ar  
 10   7   8  1   
 11   9  10  1   
 12   9  11  ar  
 13  11  12  1   
 14  12  13  1   
 15  13  14  1   
 16  13  15  1   
 17  13  16  1   
 18  14  21  ar  
 19  14  31  ar  
 20  16  17  1   
 21  16  18  1   
 22  16  19  1   
 23  19  20  2   
 24  21  22  1   
 25  21  23  ar  
 26  23  24  1   
 27  23  25  ar  
 28  25  26  1   
 29  25  29  ar  
 30  26  27  1   
 31  27  28  1   
 32  27  33  1   
 33  27  49  1   
 34  29  30  1   
 35  29  31  ar  
 36  31  32  1   
 37  33  34  1   
 38  34  35  1   
 39  34  36  1   
 40  34  41  1   
 41  36  37  1   
 42  36  38  1   
 43  36  39  1   
 44  39  40  1   
 45  41  42  1   
 46  41  43  1   
 47  41  45  1   
 48  43  44  1   
 49  45  46  1   
 50  45  47  1   
 51  45  49  1   
 52  47  48  1   
 53  49  50  1   
 54  49  51  1   
 55  51  52  1   
@<TRIPOS>SUBSTRUCTURE
  1 <1>   0 RESIDUE 1 * * 1
# MOE 2007.09 (io_trps.svl 2007.09)
