@<TRIPOS>MOLECULE
J19_14
57 60 1 0 0 
SMALL
USER_CHARGES


@<TRIPOS>ATOM
  1 C        1.0833     0.4282    -0.0631 C.ar  1 <1>   0.0284 
  2 C       -0.1101     1.1477     0.0960 C.ar  1 <1>   0.0825 
  3 C       -1.3750     0.5318     0.1615 C.ar  1 <1>   0.0284 
  4 C       -2.6088     1.3348     0.3821 C.2   1 <1>  -0.0284 
  5 C       -3.0515     2.0772    -0.6509 C.2   1 <1>  -0.3000 
  6 H1      -3.9308     2.7081    -0.5603 H     1 <1>   0.1500 
  7 H2      -2.5436     2.0885    -1.6104 H     1 <1>   0.1500 
  8 C       -3.3070     1.3471     1.6771 C.2   1 <1>  -0.1382 
  9 C       -2.4387     1.7157     2.8522 C.3   1 <1>   0.1382 
 10 H1      -3.0138     1.9558     3.7496 H     1 <1>   0.0000 
 11 H2      -1.8409     2.6061     2.6260 H     1 <1>   0.0000 
 12 H3      -1.7573     0.8953     3.1013 H     1 <1>   0.0000 
 13 C       -4.6177     1.0381     1.7530 C.2   1 <1>  -0.2882 
 14 C       -5.4742     0.9625     2.9758 C.3   1 <1>   0.1382 
 15 H1      -4.9167     1.0499     3.9101 H     1 <1>   0.0000 
 16 H2      -5.9931    -0.0014     2.9972 H     1 <1>   0.0000 
 17 H3      -6.2298     1.7536     2.9489 H     1 <1>   0.0000 
 18 H2      -5.1461     0.7811     0.8351 H     1 <1>   0.1500 
 19 C       -1.4309    -0.8676     0.0623 C.ar  1 <1>   0.0825 
 20 O       -2.6472    -1.5085     0.1528 O.3   1 <1>  -0.3625 
 21 C       -3.2138    -1.6918    -1.1465 C.3   1 <1>   0.2800 
 22 H1      -2.5851    -2.3371    -1.7691 H     1 <1>   0.0000 
 23 H2      -3.3858    -0.7364    -1.6519 H     1 <1>   0.0000 
 24 H3      -4.1822    -2.1850    -1.0201 H     1 <1>   0.0000 
 25 C       -0.2534    -1.6301    -0.0494 C.ar  1 <1>   0.0284 
 26 C        0.9915    -0.9778    -0.1326 C.ar  1 <1>   0.0825 
 27 C        2.3562     1.1875    -0.1365 C.2   1 <1>  -0.0568 
 28 C        3.7150     0.6407    -0.3546 C.ar  1 <1>   0.0284 
 29 C        2.3230     2.5221    -0.0130 C.2   1 <1>  -0.1356 
 30 H        3.2224     3.1289    -0.0605 H     1 <1>   0.1500 
 31 C        1.0939     3.2863     0.1896 C.2   1 <1>   0.7056 
 32 O        1.1169     4.5038     0.3139 O.2   1 <1>  -0.5700 
 33 O       -0.0835     2.5582     0.2234 O.3   1 <1>  -0.2325 
 34 C        4.2044     0.4689    -1.6569 C.ar  1 <1>  -0.1500 
 35 H        3.5850     0.7179    -2.5151 H     1 <1>   0.1500 
 36 C        5.4914    -0.0315    -1.8628 C.ar  1 <1>  -0.1500 
 37 H        5.8658    -0.1661    -2.8739 H     1 <1>   0.1500 
 38 C        6.2959    -0.3601    -0.7718 C.ar  1 <1>  -0.1500 
 39 H        7.2976    -0.7495    -0.9336 H     1 <1>   0.1500 
 40 C        5.8158    -0.1905     0.5268 C.ar  1 <1>  -0.1500 
 41 H        6.4423    -0.4500     1.3759 H     1 <1>   0.1500 
 42 C        4.5297     0.3103     0.7371 C.ar  1 <1>  -0.1500 
 43 H        4.1644     0.4331     1.7539 H     1 <1>   0.1500 
 44 C       -0.2935    -3.0913    -0.0415 C.2   1 <1>  -0.1784 
 45 H       -1.2265    -3.6040     0.1658 H     1 <1>   0.1500 
 46 C        0.8264    -3.7653    -0.3105 C.2   1 <1>  -0.2882 
 47 H        0.8006    -4.8514    -0.3396 H     1 <1>   0.1500 
 48 C        2.1330    -3.0753    -0.5984 C.3   1 <1>   0.4182 
 49 C        2.4599    -3.1691    -2.0931 C.3   1 <1>   0.0000 
 50 H1       3.4170    -2.6832    -2.3147 H     1 <1>   0.0000 
 51 H2       1.7050    -2.6493    -2.6951 H     1 <1>   0.0000 
 52 H3       2.5147    -4.2085    -2.4352 H     1 <1>   0.0000 
 53 C        3.2494    -3.7416     0.2152 C.3   1 <1>   0.0000 
 54 H1       3.0589    -3.6474     1.2912 H     1 <1>   0.0000 
 55 H2       4.2129    -3.2522     0.0300 H     1 <1>   0.0000 
 56 H3       3.3541    -4.8056    -0.0243 H     1 <1>   0.0000 
 57 O        2.1616    -1.6851    -0.2288 O.3   1 <1>  -0.3625 
@<TRIPOS>BOND
  1   1   2  ar  
  2   1  26  ar  
  3   1  27  1   
  4   2   3  ar  
  5   2  33  1   
  6   3   4  1   
  7   3  19  ar  
  8   4   5  2   
  9   4   8  1   
 10   5   6  1   
 11   5   7  1   
 12   8   9  1   
 13   8  13  2   
 14   9  10  1   
 15   9  11  1   
 16   9  12  1   
 17  13  14  1   
 18  13  18  1   
 19  14  15  1   
 20  14  16  1   
 21  14  17  1   
 22  19  20  1   
 23  19  25  ar  
 24  20  21  1   
 25  21  22  1   
 26  21  23  1   
 27  21  24  1   
 28  25  26  ar  
 29  25  44  1   
 30  26  57  1   
 31  27  28  1   
 32  27  29  2   
 33  28  34  ar  
 34  28  42  ar  
 35  29  30  1   
 36  29  31  1   
 37  31  32  2   
 38  31  33  1   
 39  34  35  1   
 40  34  36  ar  
 41  36  37  1   
 42  36  38  ar  
 43  38  39  1   
 44  38  40  ar  
 45  40  41  1   
 46  40  42  ar  
 47  42  43  1   
 48  44  45  1   
 49  44  46  2   
 50  46  47  1   
 51  46  48  1   
 52  48  49  1   
 53  48  53  1   
 54  48  57  1   
 55  49  50  1   
 56  49  51  1   
 57  49  52  1   
 58  53  54  1   
 59  53  55  1   
 60  53  56  1   
@<TRIPOS>SUBSTRUCTURE
  1 <1>   0 RESIDUE 1 * * 1
# MOE 2007.09 (io_trps.svl 2007.09)
