JBB20_0028.mol
  ChemDraw04102412162D

 23 25  0  0  0  0  0  0  0  0999 V2000
   -2.1346   -0.2054    0.0000 C   0  0  0  0  0  0  0  0  0  0  0  0
   -2.1346    0.6162    0.0000 C   0  0  0  0  0  0  0  0  0  0  0  0
   -1.4231    1.0270    0.0000 C   0  0  0  0  0  0  0  0  0  0  0  0
   -0.7115    0.6162    0.0000 C   0  0  0  0  0  0  0  0  0  0  0  0
   -0.7115   -0.2054    0.0000 C   0  0  0  0  0  0  0  0  0  0  0  0
   -1.4231   -0.6162    0.0000 O   0  0  0  0  0  0  0  0  0  0  0  0
   -2.8462    1.0270    0.0000 C   0  0  0  0  0  0  0  0  0  0  0  0
   -3.5577    0.6162    0.0000 C   0  0  0  0  0  0  0  0  0  0  0  0
   -3.5577   -0.2054    0.0000 C   0  0  0  0  0  0  0  0  0  0  0  0
   -2.8462   -0.6162    0.0000 C   0  0  0  0  0  0  0  0  0  0  0  0
   -1.4231    1.8486    0.0000 O   0  0  0  0  0  0  0  0  0  0  0  0
   -2.8462    1.8486    0.0000 O   0  0  0  0  0  0  0  0  0  0  0  0
    0.0000   -0.6162    0.0000 C   0  0  0  0  0  0  0  0  0  0  0  0
    1.4231   -0.6162    0.0000 C   0  0  0  0  0  0  0  0  0  0  0  0
    1.4231   -1.4378    0.0000 C   0  0  0  0  0  0  0  0  0  0  0  0
    2.1346   -1.8486    0.0000 C   0  0  0  0  0  0  0  0  0  0  0  0
    2.8462   -1.4378    0.0000 C   0  0  0  0  0  0  0  0  0  0  0  0
    2.8462   -0.6162    0.0000 C   0  0  0  0  0  0  0  0  0  0  0  0
    2.1346   -0.2054    0.0000 C   0  0  0  0  0  0  0  0  0  0  0  0
    3.5577   -0.2054    0.0000 O   0  0  0  0  0  0  0  0  0  0  0  0
    3.5577   -1.8486    0.0000 O   0  0  0  0  0  0  0  0  0  0  0  0
    0.7115   -0.2054    0.0000 O   0  0  0  0  0  0  0  0  0  0  0  0
    0.0000   -1.4378    0.0000 O   0  0  0  0  0  0  0  0  0  0  0  0
  1  2  1  0      
  2  3  1  0      
  3  4  1  0      
  4  5  2  0      
  5  6  1  0      
  1  6  1  0      
  7  8  1  0      
  8  9  2  0      
  9 10  1  0      
 10  1  2  0      
  7  2  2  0      
  3 11  2  0      
  7 12  1  0      
  5 13  1  0      
 14 15  2  0      
 15 16  1  0      
 16 17  2  0      
 17 18  1  0      
 18 19  2  0      
 19 14  1  0      
 18 20  1  0      
 17 21  1  0      
 13 22  1  0      
 22 14  1  0      
 13 23  2  0      
M  END
