MCSJ47_0001.mol
  ChemDraw04182414522D

 24 26  0  0  1  0  0  0  0  0999 V2000
   -3.0943    0.8109    0.0000 C   0  0  0  0  0  0  0  0  0  0  0  0
   -3.0943   -0.0141    0.0000 C   0  0  0  0  0  0  0  0  0  0  0  0
   -2.3798   -0.4266    0.0000 C   0  0  0  0  0  0  0  0  0  0  0  0
   -1.6654   -0.0141    0.0000 C   0  0  0  0  0  0  0  0  0  0  0  0
   -1.6654    0.8109    0.0000 C   0  0  0  0  0  0  0  0  0  0  0  0
   -2.3798    1.2234    0.0000 C   0  0  0  0  0  0  0  0  0  0  0  0
   -2.3798   -1.2516    0.0000 C   0  0  0  0  0  0  0  0  0  0  0  0
   -1.6654   -1.6641    0.0000 O   0  0  0  0  0  0  0  0  0  0  0  0
   -0.9509   -1.2516    0.0000 C   0  0  0  0  0  0  0  0  0  0  0  0
   -0.9509   -0.4266    0.0000 C   0  0  0  0  0  0  0  0  0  0  0  0
   -0.2364   -1.6641    0.0000 C   0  0  0  0  0  0  0  0  0  0  0  0
    0.4781   -1.2516    0.0000 C   0  0  0  0  0  0  0  0  0  0  0  0
    0.4781   -0.4266    0.0000 C   0  0  0  0  0  0  0  0  0  0  0  0
   -0.2364   -0.0141    0.0000 C   0  0  0  0  0  0  0  0  0  0  0  0
   -2.3798    2.0484    0.0000 C   0  0  0  0  0  0  0  0  0  0  0  0
   -3.2048   -1.2516    0.0000 C   0  0  0  0  0  0  0  0  0  0  0  0
   -2.5934   -2.0484    0.0000 C   0  0  0  0  0  0  0  0  0  0  0  0
   -0.2364    0.8109    0.0000 O   0  0  0  0  0  0  0  0  0  0  0  0
    1.1925   -1.6641    0.0000 C   0  0  0  0  0  0  0  0  0  0  0  0
    1.7759   -1.0807    0.0000 C   0  0  0  0  0  0  0  0  0  0  0  0
    2.4904   -1.4932    0.0000 C   0  0  0  0  0  0  0  0  0  0  0  0
    3.2048   -1.0807    0.0000 C   0  0  0  0  0  0  0  0  0  0  0  0
   -0.9509    0.3984    0.0000 H   0  0  0  0  0  0  0  0  0  0  0  0
   -3.0943   -0.8391    0.0000 H   0  0  0  0  0  0  0  0  0  0  0  0
  1  2  1  0      
  2  3  1  0      
  3  4  1  0      
  4  5  1  0      
  5  6  2  0      
  6  1  1  0      
  3  7  1  0      
  7  8  1  0      
  8  9  1  0      
  9 10  2  0      
 10  4  1  0      
  9 11  1  0      
 11 12  2  0      
 12 13  1  0      
 13 14  2  0      
 14 10  1  0      
  6 15  1  0      
  7 16  1  0      
  7 17  1  0      
 14 18  1  0      
 12 19  1  0      
 19 20  1  0      
 20 21  1  0      
 21 22  1  0      
  4 23  1  6      
  3 24  1  1      
M  END
