MCSJ31_0003.mol
  ChemDraw04172415462D

 41 44  0  0  1  0  0  0  0  0999 V2000
   -4.4323    1.2727    0.0000 C   0  0  0  0  0  0  0  0  0  0  0  0
   -4.7739    0.5218    0.0000 C   0  0  0  0  0  0  0  0  0  0  0  0
   -4.2944   -0.1495    0.0000 C   0  0  0  0  0  0  0  0  0  0  0  0
   -3.4732   -0.0699    0.0000 C   0  0  0  0  0  0  0  0  0  0  0  0
   -3.1316    0.6811    0.0000 C   0  0  0  0  0  0  0  0  0  0  0  0
   -3.6112    1.3524    0.0000 C   0  0  0  0  0  0  0  0  0  0  0  0
   -2.8646   -0.6268    0.0000 C   0  0  0  0  0  0  0  0  0  0  0  0
   -2.1468   -0.2201    0.0000 C   0  0  0  0  0  0  0  0  0  0  0  0
   -2.3119    0.5883    0.0000 O   0  0  0  0  0  0  0  0  0  0  0  0
   -2.8712   -1.4518    0.0000 C   0  0  0  0  0  0  0  0  0  0  0  0
   -2.1601   -1.8700    0.0000 N   0  0  0  0  0  0  0  0  0  0  0  0
   -1.4423   -1.4633    0.0000 C   0  0  0  0  0  0  0  0  0  0  0  0
   -1.4357   -0.6383    0.0000 C   0  0  0  0  0  0  0  0  0  0  0  0
   -2.7134    1.3922    0.0000 H   0  0  0  0  0  0  0  0  0  0  0  0
   -3.7345   -0.8524    0.0000 O   0  0  0  0  0  0  0  0  0  0  0  0
   -0.7179   -0.2315    0.0000 C   0  0  0  0  0  0  0  0  0  0  0  0
   -2.1667   -2.6950    0.0000 C   0  0  0  0  0  0  0  0  0  0  0  0
   -0.7312   -1.8815    0.0000 O   0  0  0  0  0  0  0  0  0  0  0  0
   -4.5428   -1.0175    0.0000 C   0  0  0  0  0  0  0  0  0  0  0  0
   -0.0068   -0.6497    0.0000 O   0  0  0  0  0  0  0  0  0  0  0  0
    0.7110   -0.2430    0.0000 C   0  0  0  0  0  0  0  0  0  0  0  0
    0.7176    0.5820    0.0000 C   0  0  0  0  0  0  0  0  0  0  0  0
    0.0064    1.0002    0.0000 C   0  0  0  0  0  0  0  0  0  0  0  0
   -0.7113    0.5934    0.0000 C   0  0  0  0  0  0  0  0  0  0  0  0
    1.4353    0.9887    0.0000 C   0  0  0  0  0  0  0  0  0  0  0  0
   -0.7179   -1.0565    0.0000 C   0  0  0  0  0  0  0  0  0  0  0  0
    1.4221   -0.6612    0.0000 C   0  0  0  0  0  0  0  0  0  0  0  0
    1.4155   -1.4862    0.0000 C   0  0  0  0  0  0  0  0  0  0  0  0
    2.1399   -0.2545    0.0000 C   0  0  0  0  0  0  0  0  0  0  0  0
    2.8510   -0.6727    0.0000 C   0  0  0  0  0  0  0  0  0  0  0  0
    2.8444   -1.4976    0.0000 C   0  0  0  0  0  0  0  0  0  0  0  0
    3.5688   -0.2659    0.0000 C   0  0  0  0  0  0  0  0  0  0  0  0
    4.2799   -0.6841    0.0000 C   0  0  0  0  0  0  0  0  0  0  0  0
    4.9976   -0.2774    0.0000 C   0  0  0  0  0  0  0  0  0  0  0  0
    5.7088   -0.6956    0.0000 C   0  0  0  0  0  0  0  0  0  0  0  0
    4.2733   -1.5091    0.0000 C   0  0  0  0  0  0  0  0  0  0  0  0
    0.7110   -1.0680    0.0000 C   0  0  0  0  0  0  0  0  0  0  0  0
   -4.9119    1.9440    0.0000 O   0  0  0  0  0  0  0  0  0  0  0  0
   -4.0908    2.0237    0.0000 O   0  0  0  0  0  0  0  0  0  0  0  0
   -4.5703    2.6950    0.0000 C   0  0  0  0  0  0  0  0  0  0  0  0
   -5.7088    1.7305    0.0000 C   0  0  0  0  0  0  0  0  0  0  0  0
  1  2  1  0      
  2  3  1  0      
  3  4  1  0      
  4  5  1  0      
  5  6  1  0      
  6  1  1  0      
  4  7  1  0      
  7  8  1  0      
  8  9  1  0      
  9  5  1  0      
  7 10  2  0      
 10 11  1  0      
 11 12  1  0      
 12 13  1  0      
 13  8  2  0      
  5 14  1  6      
  4 15  1  6      
 13 16  1  0      
 11 17  1  0      
 12 18  2  0      
 15 19  1  0      
 16 20  1  0      
 20 21  1  0      
 21 22  1  0      
 22 23  1  0      
 23 24  1  0      
 24 16  1  0      
 22 25  1  1      
 16 26  1  6      
 21 27  1  0      
 27 28  1  0      
 27 29  2  0      
 29 30  1  0      
 30 31  1  1      
 30 32  1  0      
 32 33  1  0      
 33 34  1  0      
 34 35  1  0      
 33 36  1  6      
 21 37  1  6      
  1 38  1  0      
  1 39  1  0      
 39 40  1  0      
 38 41  1  0      
M  END
