MCSJ46_0005.mol
  ChemDraw04182414492D

 35 39  0  0  0  0  0  0  0  0999 V2000
   -3.6264   -0.3243    0.0000 C   0  0  0  0  0  0  0  0  0  0  0  0
   -3.6264   -1.1493    0.0000 C   0  0  0  0  0  0  0  0  0  0  0  0
   -2.9119   -1.5618    0.0000 C   0  0  0  0  0  0  0  0  0  0  0  0
   -2.1975   -1.1493    0.0000 C   0  0  0  0  0  0  0  0  0  0  0  0
   -2.1975   -0.3243    0.0000 C   0  0  0  0  0  0  0  0  0  0  0  0
   -2.9119    0.0882    0.0000 C   0  0  0  0  0  0  0  0  0  0  0  0
   -3.0834    0.8952    0.0000 C   0  0  0  0  0  0  0  0  0  0  0  0
   -3.9039    0.9815    0.0000 C   0  0  0  0  0  0  0  0  0  0  0  0
   -4.2395    0.2278    0.0000 O   0  0  0  0  0  0  0  0  0  0  0  0
   -1.4830   -1.5618    0.0000 C   0  0  0  0  0  0  0  0  0  0  0  0
   -0.7685   -1.1493    0.0000 C   0  0  0  0  0  0  0  0  0  0  0  0
   -0.0148   -1.4848    0.0000 C   0  0  0  0  0  0  0  0  0  0  0  0
    0.5372   -0.8717    0.0000 C   0  0  0  0  0  0  0  0  0  0  0  0
    0.1247   -0.1572    0.0000 C   0  0  0  0  0  0  0  0  0  0  0  0
   -0.6823   -0.3288    0.0000 O   0  0  0  0  0  0  0  0  0  0  0  0
    1.3985   -0.9831    0.0000 C   0  0  0  0  0  0  0  0  0  0  0  0
    0.4603    0.5964    0.0000 O   0  0  0  0  0  0  0  0  0  0  0  0
    1.7762   -1.7165    0.0000 C   0  0  0  0  0  0  0  0  0  0  0  0
    2.6003   -1.7561    0.0000 C   0  0  0  0  0  0  0  0  0  0  0  0
    3.0466   -1.0623    0.0000 C   0  0  0  0  0  0  0  0  0  0  0  0
    2.6689   -0.3288    0.0000 C   0  0  0  0  0  0  0  0  0  0  0  0
    1.8448   -0.2892    0.0000 C   0  0  0  0  0  0  0  0  0  0  0  0
   -4.3164    1.6959    0.0000 C   0  0  0  0  0  0  0  0  0  0  0  0
   -3.9039    2.4104    0.0000 O   0  0  0  0  0  0  0  0  0  0  0  0
   -5.1414    1.6959    0.0000 C   0  0  0  0  0  0  0  0  0  0  0  0
   -3.4914    1.6959    0.0000 C   0  0  0  0  0  0  0  0  0  0  0  0
    1.3299   -2.4104    0.0000 O   0  0  0  0  0  0  0  0  0  0  0  0
    0.1567   -2.2918    0.0000 O   0  0  0  0  0  0  0  0  0  0  0  0
    3.8706   -1.0623    0.0000 O   0  0  0  0  0  0  0  0  0  0  0  0
    4.3170   -0.3288    0.0000 C   0  0  0  0  0  0  0  0  0  0  0  0
    3.9392    0.4046    0.0000 C   0  0  0  0  0  0  0  0  0  0  0  0
    3.1152    0.4046    0.0000 C   0  0  0  0  0  0  0  0  0  0  0  0
    4.3687    1.1090    0.0000 O   0  0  0  0  0  0  0  0  0  0  0  0
    5.1414   -0.3582    0.0000 C   0  0  0  0  0  0  0  0  0  0  0  0
    4.7589    0.3678    0.0000 C   0  0  0  0  0  0  0  0  0  0  0  0
  1  2  2  0      
  2  3  1  0      
  3  4  2  0      
  4  5  1  0      
  5  6  2  0      
  6  1  1  0      
  6  7  1  0      
  7  8  1  0      
  8  9  1  0      
  9  1  1  0      
  4 10  1  0      
 10 11  2  0      
 11 12  1  0      
 12 13  2  0      
 13 14  1  0      
 14 15  1  0      
 15 11  1  0      
 14 17  2  0      
 16 18  2  0      
 18 19  1  0      
 19 20  2  0      
 20 21  1  0      
 21 22  2  0      
 22 16  1  0      
  8 23  1  0      
 23 24  1  0      
 23 25  1  0      
 23 26  1  0      
 18 27  1  0      
 13 16  1  0      
 12 28  1  0      
 20 29  1  0      
 29 30  1  0      
 30 31  1  0      
 31 32  1  0      
 32 21  1  0      
 31 33  1  0      
 30 34  1  0      
 30 35  1  0      
M  END
