Nummularine B
  -OEChem-07172408372D

 84 87  0     1  0  0  0  0  0999 V2000
    6.6173   -1.4652    0.0000 O   0  0  0  0  0  0  0  0  0  0  0  0
    8.0125    2.4862    0.0000 O   0  0  0  0  0  0  0  0  0  0  0  0
    8.2910    0.5011    0.0000 O   0  0  0  0  0  0  0  0  0  0  0  0
    4.4871    3.2421    0.0000 O   0  0  0  0  0  0  0  0  0  0  0  0
   11.6676    1.4506    0.0000 O   0  0  0  0  0  0  0  0  0  0  0  0
    9.9939   -3.4147    0.0000 O   0  0  0  0  0  0  0  0  0  0  0  0
    7.2532    0.9295    0.0000 N   0  0  0  0  0  0  0  0  0  0  0  0
    9.1279   -0.0157    0.0000 N   0  0  0  0  0  0  0  0  0  0  0  0
    5.4557    1.8062    0.0000 N   0  0  0  0  0  0  0  0  0  0  0  0
   10.8016   -0.0157    0.0000 N   0  0  0  0  0  0  0  0  0  0  0  0
    2.8290    2.1237    0.0000 N   0  0  0  0  0  0  0  0  0  0  0  0
    7.4542   -0.0157    0.0000 C   0  0  3  0  0  0  0  0  0  0  0  0
    6.6173   -0.4989    0.0000 C   0  0  3  0  0  0  0  0  0  0  0  0
    5.8992    0.1477    0.0000 C   0  0  0  0  0  0  0  0  0  0  0  0
    6.2922    1.0305    0.0000 C   0  0  0  0  0  0  0  0  0  0  0  0
    7.1835    1.9270    0.0000 C   0  0  0  0  0  0  0  0  0  0  0  0
    6.2847    2.3654    0.0000 C   0  0  3  0  0  0  0  0  0  0  0  0
    8.2910   -0.4989    0.0000 C   0  0  0  0  0  0  0  0  0  0  0  0
    6.2149    3.3630    0.0000 C   0  0  0  0  0  0  0  0  0  0  0  0
    9.1279    0.9506    0.0000 C   0  0  3  0  0  0  0  0  0  0  0  0
    7.4542   -1.9484    0.0000 C   0  0  0  0  0  0  0  0  0  0  0  0
    5.3162    3.8013    0.0000 C   0  0  0  0  0  0  0  0  0  0  0  0
    7.0440    3.9222    0.0000 C   0  0  0  0  0  0  0  0  0  0  0  0
    8.6279    1.8166    0.0000 C   0  0  0  0  0  0  0  0  0  0  0  0
    4.5569    2.2446    0.0000 C   0  0  0  0  0  0  0  0  0  0  0  0
   10.8016    0.9506    0.0000 C   0  0  0  0  0  0  0  0  0  0  0  0
    8.2910   -1.4652    0.0000 C   0  0  0  0  0  0  0  0  0  0  0  0
    7.4542   -2.9147    0.0000 C   0  0  0  0  0  0  0  0  0  0  0  0
    3.7278    1.6854    0.0000 C   0  0  3  0  0  0  0  0  0  0  0  0
    9.1278    2.6826    0.0000 C   0  0  0  0  0  0  0  0  0  0  0  0
    9.1279   -1.9484    0.0000 C   0  0  0  0  0  0  0  0  0  0  0  0
    8.2910   -3.3978    0.0000 C   0  0  0  0  0  0  0  0  0  0  0  0
    9.1279   -2.9147    0.0000 C   0  0  0  0  0  0  0  0  0  0  0  0
    3.7976    0.6878    0.0000 C   0  0  0  0  0  0  0  0  0  0  0  0
    9.9647   -1.4652    0.0000 C   0  0  0  0  0  0  0  0  0  0  0  0
    9.9647   -0.4989    0.0000 C   0  0  0  0  0  0  0  0  0  0  0  0
    8.6278    3.5486    0.0000 C   0  0  0  0  0  0  0  0  0  0  0  0
   10.1279    2.6826    0.0000 C   0  0  0  0  0  0  0  0  0  0  0  0
    2.0000    1.5645    0.0000 C   0  0  0  0  0  0  0  0  0  0  0  0
    9.1278    4.4147    0.0000 C   0  0  0  0  0  0  0  0  0  0  0  0
   10.6278    3.5487    0.0000 C   0  0  0  0  0  0  0  0  0  0  0  0
   10.1278    4.4147    0.0000 C   0  0  0  0  0  0  0  0  0  0  0  0
    9.9939   -4.4147    0.0000 C   0  0  0  0  0  0  0  0  0  0  0  0
    7.9557    0.3487    0.0000 H   0  0  0  0  0  0  0  0  0  0  0  0
    6.0509   -0.7511    0.0000 H   0  0  0  0  0  0  0  0  0  0  0  0
    5.3623    0.4577    0.0000 H   0  0  0  0  0  0  0  0  0  0  0  0
    5.5348   -0.3539    0.0000 H   0  0  0  0  0  0  0  0  0  0  0  0
    6.4211    1.6369    0.0000 H   0  0  0  0  0  0  0  0  0  0  0  0
    5.7026    1.2221    0.0000 H   0  0  0  0  0  0  0  0  0  0  0  0
    5.7274    2.6372    0.0000 H   0  0  0  0  0  0  0  0  0  0  0  0
    6.7722    3.0912    0.0000 H   0  0  0  0  0  0  0  0  0  0  0  0
    9.6642    0.2952    0.0000 H   0  0  0  0  0  0  0  0  0  0  0  0
    5.4989    1.1877    0.0000 H   0  0  0  0  0  0  0  0  0  0  0  0
    8.5290    0.7901    0.0000 H   0  0  0  0  0  0  0  0  0  0  0  0
    5.5879    4.3586    0.0000 H   0  0  0  0  0  0  0  0  0  0  0  0
    4.7589    4.0731    0.0000 H   0  0  0  0  0  0  0  0  0  0  0  0
    5.0444    3.2441    0.0000 H   0  0  0  0  0  0  0  0  0  0  0  0
    7.3907    3.4081    0.0000 H   0  0  0  0  0  0  0  0  0  0  0  0
    7.5580    4.2688    0.0000 H   0  0  0  0  0  0  0  0  0  0  0  0
    6.6973    4.4361    0.0000 H   0  0  0  0  0  0  0  0  0  0  0  0
    8.1529    2.2151    0.0000 H   0  0  0  0  0  0  0  0  0  0  0  0
    8.1529    1.4181    0.0000 H   0  0  0  0  0  0  0  0  0  0  0  0
    8.2910   -0.8452    0.0000 H   0  0  0  0  0  0  0  0  0  0  0  0
    6.9172   -3.2247    0.0000 H   0  0  0  0  0  0  0  0  0  0  0  0
    3.6846    2.3039    0.0000 H   0  0  0  0  0  0  0  0  0  0  0  0
    8.2910   -4.0178    0.0000 H   0  0  0  0  0  0  0  0  0  0  0  0
   11.3385   -0.3257    0.0000 H   0  0  0  0  0  0  0  0  0  0  0  0
    3.1791    0.6446    0.0000 H   0  0  0  0  0  0  0  0  0  0  0  0
    3.8408    0.0693    0.0000 H   0  0  0  0  0  0  0  0  0  0  0  0
    4.4161    0.7311    0.0000 H   0  0  0  0  0  0  0  0  0  0  0  0
    2.7858    2.7422    0.0000 H   0  0  0  0  0  0  0  0  0  0  0  0
   10.5016   -1.7752    0.0000 H   0  0  0  0  0  0  0  0  0  0  0  0
   10.5016   -0.8089    0.0000 H   0  0  0  0  0  0  0  0  0  0  0  0
    8.0078    3.5486    0.0000 H   0  0  0  0  0  0  0  0  0  0  0  0
   10.4379    2.1457    0.0000 H   0  0  0  0  0  0  0  0  0  0  0  0
    1.6533    2.0785    0.0000 H   0  0  0  0  0  0  0  0  0  0  0  0
    1.4860    1.2178    0.0000 H   0  0  0  0  0  0  0  0  0  0  0  0
    2.3467    1.0505    0.0000 H   0  0  0  0  0  0  0  0  0  0  0  0
    8.8178    4.9516    0.0000 H   0  0  0  0  0  0  0  0  0  0  0  0
   11.2478    3.5487    0.0000 H   0  0  0  0  0  0  0  0  0  0  0  0
   10.4378    4.9516    0.0000 H   0  0  0  0  0  0  0  0  0  0  0  0
    9.3739   -4.4147    0.0000 H   0  0  0  0  0  0  0  0  0  0  0  0
    9.9939   -5.0347    0.0000 H   0  0  0  0  0  0  0  0  0  0  0  0
   10.6139   -4.4147    0.0000 H   0  0  0  0  0  0  0  0  0  0  0  0
  1 13  1  0  0  0  0
  1 21  1  0  0  0  0
  2 16  2  0  0  0  0
  3 18  2  0  0  0  0
  4 25  2  0  0  0  0
  5 26  2  0  0  0  0
  6 33  1  0  0  0  0
  6 43  1  0  0  0  0
  7 12  1  0  0  0  0
  7 15  1  0  0  0  0
  7 16  1  0  0  0  0
  8 18  1  0  0  0  0
  8 20  1  0  0  0  0
  8 52  1  0  0  0  0
  9 17  1  0  0  0  0
  9 25  1  0  0  0  0
  9 53  1  0  0  0  0
 10 26  1  0  0  0  0
 10 36  1  0  0  0  0
 10 67  1  0  0  0  0
 11 29  1  0  0  0  0
 11 39  1  0  0  0  0
 11 71  1  0  0  0  0
 12 13  1  0  0  0  0
 12 18  1  0  0  0  0
 12 44  1  0  0  0  0
 13 14  1  0  0  0  0
 13 45  1  0  0  0  0
 14 15  1  0  0  0  0
 14 46  1  0  0  0  0
 14 47  1  0  0  0  0
 15 48  1  0  0  0  0
 15 49  1  0  0  0  0
 16 17  1  0  0  0  0
 17 19  1  0  0  0  0
 17 50  1  0  0  0  0
 19 22  1  0  0  0  0
 19 23  1  0  0  0  0
 19 51  1  0  0  0  0
 20 24  1  0  0  0  0
 20 26  1  0  0  0  0
 20 54  1  0  0  0  0
 21 27  2  0  0  0  0
 21 28  1  0  0  0  0
 22 55  1  0  0  0  0
 22 56  1  0  0  0  0
 22 57  1  0  0  0  0
 23 58  1  0  0  0  0
 23 59  1  0  0  0  0
 23 60  1  0  0  0  0
 24 30  1  0  0  0  0
 24 61  1  0  0  0  0
 24 62  1  0  0  0  0
 25 29  1  0  0  0  0
 27 31  1  0  0  0  0
 27 63  1  0  0  0  0
 28 32  2  0  0  0  0
 28 64  1  0  0  0  0
 29 34  1  0  0  0  0
 29 65  1  0  0  0  0
 30 37  2  0  0  0  0
 30 38  1  0  0  0  0
 31 33  2  0  0  0  0
 31 35  1  0  0  0  0
 32 33  1  0  0  0  0
 32 66  1  0  0  0  0
 34 68  1  0  0  0  0
 34 69  1  0  0  0  0
 34 70  1  0  0  0  0
 35 36  2  0  0  0  0
 35 72  1  0  0  0  0
 36 73  1  0  0  0  0
 37 40  1  0  0  0  0
 37 74  1  0  0  0  0
 38 41  2  0  0  0  0
 38 75  1  0  0  0  0
 39 76  1  0  0  0  0
 39 77  1  0  0  0  0
 39 78  1  0  0  0  0
 40 42  2  0  0  0  0
 40 79  1  0  0  0  0
 41 42  1  0  0  0  0
 41 80  1  0  0  0  0
 42 81  1  0  0  0  0
 43 82  1  0  0  0  0
 43 83  1  0  0  0  0
 43 84  1  0  0  0  0
M  END
> <PUBCHEM_COMPOUND_CID>
51017057

> <PUBCHEM_COMPOUND_CANONICALIZED>
1

> <PUBCHEM_CACTVS_COMPLEXITY>
1010

> <PUBCHEM_CACTVS_HBOND_ACCEPTOR>
7

> <PUBCHEM_CACTVS_HBOND_DONOR>
4

> <PUBCHEM_CACTVS_ROTATABLE_BOND>
8

> <PUBCHEM_CACTVS_SUBSKEYS>
AAADcfB/uAAAAAAAAAAAAAAAAAAAAWAAAAAwYAAAAAAAAAABQAAAHgAQAAAADTzhmAYyBoPABACIAiFWUAACCAAgIgAIiIGOCIgOZjaEsTuXOCCm9hGYqAfYybCOAQABAAAIAAACAAIAABAAAAAAAAAAAA==

> <PUBCHEM_IUPAC_OPENEYE_NAME>
N-[1-[(13E)-10-benzyl-16-methoxy-8,11-dioxo-2-oxa-6,9,12-triazatricyclo[13.3.1.03,7]nonadeca-1(19),13,15,17-tetraene-6-carbonyl]-2-methyl-propyl]-2-(methylamino)propanamide

> <PUBCHEM_IUPAC_CAS_NAME>
N-[1-[(13E)-16-methoxy-8,11-dioxo-10-(phenylmethyl)-2-oxa-6,9,12-triazatricyclo[13.3.1.03,7]nonadeca-1(19),13,15,17-tetraen-6-yl]-3-methyl-1-oxobutan-2-yl]-2-(methylamino)propanamide

> <PUBCHEM_IUPAC_NAME_MARKUP>
<I>N</I>-[1-[(13<I>E</I>)-10-benzyl-16-methoxy-8,11-dioxo-2-oxa-6,9,12-triazatricyclo[13.3.1.0<SUP>3,7</SUP>]nonadeca-1(19),13,15,17-tetraen-6-yl]-3-methyl-1-oxobutan-2-yl]-2-(methylamino)propanamide

> <PUBCHEM_IUPAC_NAME>
N-[1-[(13E)-10-benzyl-16-methoxy-8,11-dioxo-2-oxa-6,9,12-triazatricyclo[13.3.1.03,7]nonadeca-1(19),13,15,17-tetraen-6-yl]-3-methyl-1-oxobutan-2-yl]-2-(methylamino)propanamide

> <PUBCHEM_IUPAC_SYSTEMATIC_NAME>
N-[1-[(13E)-16-methoxy-8,11-bis(oxidanylidene)-10-(phenylmethyl)-2-oxa-6,9,12-triazatricyclo[13.3.1.03,7]nonadeca-1(19),13,15,17-tetraen-6-yl]-3-methyl-1-oxidanylidene-butan-2-yl]-2-(methylamino)propanamide

> <PUBCHEM_IUPAC_TRADITIONAL_NAME>
N-[1-[(13E)-10-benzyl-8,11-diketo-16-methoxy-2-oxa-6,9,12-triazatricyclo[13.3.1.03,7]nonadeca-1(19),13,15,17-tetraene-6-carbonyl]-2-methyl-propyl]-2-(methylamino)propionamide

> <PUBCHEM_IUPAC_INCHI>
InChI=1S/C32H41N5O6/c1-19(2)27(36-29(38)20(3)33-4)32(41)37-16-14-26-28(37)31(40)35-24(17-21-9-7-6-8-10-21)30(39)34-15-13-22-18-23(43-26)11-12-25(22)42-5/h6-13,15,18-20,24,26-28,33H,14,16-17H2,1-5H3,(H,34,39)(H,35,40)(H,36,38)/b15-13+

> <PUBCHEM_IUPAC_INCHIKEY>
ZAVCUVYFGQXSRX-FYWRMAATSA-N

> <PUBCHEM_XLOGP3_AA>
3.1

> <PUBCHEM_EXACT_MASS>
591.30568404

> <PUBCHEM_MOLECULAR_FORMULA>
C32H41N5O6

> <PUBCHEM_MOLECULAR_WEIGHT>
591.7

> <PUBCHEM_OPENEYE_CAN_SMILES>
CC(C)C(C(=O)N1CCC2C1C(=O)NC(C(=O)NC=CC3=C(C=CC(=C3)O2)OC)CC4=CC=CC=C4)NC(=O)C(C)NC

> <PUBCHEM_OPENEYE_ISO_SMILES>
CC(C)C(C(=O)N1CCC2C1C(=O)NC(C(=O)N/C=C/C3=C(C=CC(=C3)O2)OC)CC4=CC=CC=C4)NC(=O)C(C)NC

> <PUBCHEM_CACTVS_TPSA>
138

> <PUBCHEM_MONOISOTOPIC_WEIGHT>
591.30568404

> <PUBCHEM_TOTAL_CHARGE>
0

> <PUBCHEM_HEAVY_ATOM_COUNT>
43

> <PUBCHEM_ATOM_DEF_STEREO_COUNT>
0

> <PUBCHEM_ATOM_UDEF_STEREO_COUNT>
5

> <PUBCHEM_BOND_DEF_STEREO_COUNT>
1

> <PUBCHEM_BOND_UDEF_STEREO_COUNT>
0

> <PUBCHEM_ISOTOPIC_ATOM_COUNT>
0

> <PUBCHEM_COMPONENT_COUNT>
1

> <PUBCHEM_CACTVS_TAUTO_COUNT>
-1

> <PUBCHEM_COORDINATE_TYPE>
1
5
255

> <PUBCHEM_BONDANNOTATIONS>
12  18  3
13  14  3
17  19  3
20  24  3
21  27  8
21  28  8
27  31  8
28  32  8
29  34  3
30  37  8
30  38  8
31  33  8
32  33  8
37  40  8
38  41  8
40  42  8
41  42  8

$$$$
