@<TRIPOS>MOLECULE
J11_22
40 42 1 0 0 
SMALL
USER_CHARGES


@<TRIPOS>ATOM
  1 N        0.8548     0.6357    -0.4922 N.ar  1 <1>  -0.6200 
  2 C       -0.2490     0.9274    -1.2118 C.ar  1 <1>   0.7200 
  3 N       -0.2374     2.0843    -1.9438 N.pl3 1 <1>  -0.9000 
  4 H1      -1.0564     2.3150    -2.4811 H     1 <1>   0.4000 
  5 H2       0.5884     2.6572    -1.9136 H     1 <1>   0.4000 
  6 N       -1.3521     0.1744    -1.2665 N.ar  1 <1>  -0.6200 
  7 C       -1.2847    -0.9349    -0.5341 C.ar  1 <1>   0.3925 
  8 C       -0.2215    -1.3282     0.2246 C.ar  1 <1>  -0.1435 
  9 C        0.8597    -0.4972     0.2331 C.ar  1 <1>   0.4100 
 10 N        1.9855    -0.7696     0.9720 N.pl3 1 <1>  -0.9000 
 11 H1       2.0777    -1.5954     1.5408 H     1 <1>   0.4000 
 12 H2       2.7354    -0.0939     0.9202 H     1 <1>   0.4000 
 13 O       -2.3478    -1.8172    -0.4940 O.3   1 <1>  -0.3625 
 14 C       -1.8274    -2.9967     0.1962 C.3   1 <1>   0.2800 
 15 C       -0.5229    -2.5872     0.9263 C.3   1 <1>   0.1435 
 16 H1       0.2695    -3.3346     0.8262 H     1 <1>   0.0000 
 17 H2      -0.6894    -2.3798     1.9893 H     1 <1>   0.0000 
 18 C       -2.8798    -3.4427     1.2330 C.3   1 <1>   0.3001 
 19 H1      -3.3121    -2.5543     1.7086 H     1 <1>   0.0000 
 20 H2      -2.4318    -4.0241     2.0461 H     1 <1>   0.0000 
 21 N       -3.9450    -4.2598     0.6449 N.am  1 <1>  -0.6602 
 22 C       -5.2094    -3.6752     0.4804 C.2   1 <1>   0.6156 
 23 C       -6.2654    -4.5220    -0.1215 C.2   1 <1>  -0.1356 
 24 H       -6.1905    -5.6002    -0.0539 H     1 <1>   0.1500 
 25 C       -7.3164    -3.9544    -0.7263 C.2   1 <1>  -0.4000 
 26 H       -7.4122    -2.8735    -0.7910 H     1 <1>   0.1500 
 27 O       -5.4496    -2.5124     0.8001 O.2   1 <1>  -0.5700 
 28 C       -3.6141    -5.6363     0.2298 C.3   1 <1>   0.3001 
 29 H1      -3.9193    -5.7512    -0.8166 H     1 <1>   0.0000 
 30 H2      -4.2313    -6.3106     0.8345 H     1 <1>   0.0000 
 31 C       -2.1419    -6.0457     0.3888 C.3   1 <1>   0.2800 
 32 H1      -2.0448    -7.1015     0.1111 H     1 <1>   0.0000 
 33 H2      -1.8284    -5.9881     1.4366 H     1 <1>   0.0000 
 34 O       -1.1782    -5.3392    -0.3943 O.3   1 <1>  -0.5600 
 35 C       -1.5570    -4.0613    -0.8898 C.3   1 <1>   0.2800 
 36 H1      -2.4044    -4.1593    -1.5801 H     1 <1>   0.0000 
 37 H2      -0.7348    -3.7207    -1.5320 H     1 <1>   0.0000 
 38 C       -8.4180    -4.8093    -1.3441 C.2   1 <1>   1.0500 
 39 O       -8.2332    -6.0592    -1.3275 O.co2 1 <1>  -0.9000 
 40 O       -9.3932    -4.1467    -1.8005 O.co2 1 <1>  -0.9000 
@<TRIPOS>BOND
  1   1   2  ar  
  2   1   9  ar  
  3   2   3  1   
  4   2   6  ar  
  5   3   4  1   
  6   3   5  1   
  7   6   7  ar  
  8   7   8  ar  
  9   7  13  1   
 10   8   9  ar  
 11   8  15  1   
 12   9  10  1   
 13  10  11  1   
 14  10  12  1   
 15  13  14  1   
 16  14  15  1   
 17  14  18  1   
 18  14  35  1   
 19  15  16  1   
 20  15  17  1   
 21  18  19  1   
 22  18  20  1   
 23  18  21  1   
 24  21  22  am  
 25  21  28  1   
 26  22  23  1   
 27  22  27  2   
 28  23  24  1   
 29  23  25  2   
 30  25  26  1   
 31  25  38  1   
 32  28  29  1   
 33  28  30  1   
 34  28  31  1   
 35  31  32  1   
 36  31  33  1   
 37  31  34  1   
 38  34  35  1   
 39  35  36  1   
 40  35  37  1   
 41  38  39  ar  
 42  38  40  ar  
@<TRIPOS>SUBSTRUCTURE
  1 <1>   0 RESIDUE 1 * * 1
# MOE 2007.09 (io_trps.svl 2007.09)
