@<TRIPOS>MOLECULE
J11_40
32 32 1 0 0 
SMALL
USER_CHARGES


@<TRIPOS>ATOM
  1 C        1.2370     0.7874    -0.2079 C.ar  1 <1>  -0.1435 
  2 C        2.5639     1.5188    -0.3063 C.3   1 <1>   0.0375 
  3 H2       2.6715     1.9317    -1.3191 H     1 <1>   0.0000 
  4 C        3.7429     0.5718    -0.0894 C.3   1 <1>   0.0000 
  5 H1       4.6918     1.1131    -0.1730 H     1 <1>   0.0000 
  6 H2       3.7436    -0.2271    -0.8395 H     1 <1>   0.0000 
  7 H3       3.7228     0.0960     0.8974 H     1 <1>   0.0000 
  8 C        0.4110     0.6778    -1.3348 C.ar  1 <1>  -0.1500 
  9 H        0.7115     1.1286    -2.2775 H     1 <1>   0.1500 
 10 C       -0.8081    -0.0025    -1.2638 C.ar  1 <1>  -0.1500 
 11 H       -1.4285    -0.0694    -2.1540 H     1 <1>   0.1500 
 12 C       -1.2292    -0.5875    -0.0631 C.ar  1 <1>  -0.1435 
 13 C       -2.5501    -1.3138     0.0145 C.3   1 <1>   0.1435 
 14 C       -3.7772    -0.3812    -0.0198 C.3   1 <1>   0.0000 
 15 C       -5.0558    -1.2115    -0.1601 C.3   1 <1>   0.0000 
 16 H1      -5.9371    -0.5636    -0.2137 H     1 <1>   0.0000 
 17 H2      -5.1850    -1.8900     0.6902 H     1 <1>   0.0000 
 18 H3      -5.0302    -1.8139    -1.0743 H     1 <1>   0.0000 
 19 H2      -3.7113     0.2790    -0.8940 H     1 <1>   0.0000 
 20 C       -3.8670     0.4964     1.2315 C.3   1 <1>   0.0000 
 21 H1      -3.0099     1.1729     1.3060 H     1 <1>   0.0000 
 22 H2      -3.9018    -0.1116     2.1419 H     1 <1>   0.0000 
 23 H3      -4.7696     1.1166     1.2057 H     1 <1>   0.0000 
 24 H2      -2.5806    -1.9380     0.9174 H     1 <1>   0.0000 
 25 H3      -2.5938    -2.0158    -0.8291 H     1 <1>   0.0000 
 26 C       -0.4075    -0.4791     1.0651 C.ar  1 <1>  -0.1500 
 27 H       -0.7112    -0.9156     2.0132 H     1 <1>   0.1500 
 28 C        0.8113     0.2011     0.9930 C.ar  1 <1>  -0.1500 
 29 H        1.4280     0.2819     1.8866 H     1 <1>   0.1500 
 30 C        2.5769     2.7212     0.6600 C.2   1 <1>   0.9060 
 31 O        2.0717     3.7846     0.1930 O.co2 1 <1>  -0.9000 
 32 O        3.1018     2.5232     1.7938 O.co2 1 <1>  -0.9000 
@<TRIPOS>BOND
  1   1   2  1   
  2   1   8  ar  
  3   1  28  ar  
  4   2   3  1   
  5   2   4  1   
  6   2  30  1   
  7   4   5  1   
  8   4   6  1   
  9   4   7  1   
 10   8   9  1   
 11   8  10  ar  
 12  10  11  1   
 13  10  12  ar  
 14  12  13  1   
 15  12  26  ar  
 16  13  14  1   
 17  13  24  1   
 18  13  25  1   
 19  14  15  1   
 20  14  19  1   
 21  14  20  1   
 22  15  16  1   
 23  15  17  1   
 24  15  18  1   
 25  20  21  1   
 26  20  22  1   
 27  20  23  1   
 28  26  27  1   
 29  26  28  ar  
 30  28  29  1   
 31  30  31  ar  
 32  30  32  ar  
@<TRIPOS>SUBSTRUCTURE
  1 <1>   0 RESIDUE 1 * * 1
# MOE 2007.09 (io_trps.svl 2007.09)
