@<TRIPOS>MOLECULE
J11_07
55 57 1 0 0 
SMALL
USER_CHARGES


@<TRIPOS>ATOM
  1 C        0.9780     0.3582    -0.0757 C.2   1 <1>   0.3611 
  2 C        2.0880     0.7831     0.8819 C.2   1 <1>   0.4480 
  3 C        1.8269     1.9457     1.8267 C.3   1 <1>   0.0610 
  4 C        3.0213     2.2046     2.7460 C.3   1 <1>   0.0000 
  5 C        2.7831     3.3888     3.6826 C.3   1 <1>   0.0000 
  6 C        3.9997     3.6248     4.5791 C.3   1 <1>   0.0610 
  7 C        3.8202     4.8054     5.5216 C.2   1 <1>   0.5690 
  8 N        4.8494     5.0103     6.4194 N.am  1 <1>  -0.6602 
  9 O        2.8260     5.5284     5.4762 O.2   1 <1>  -0.5700 
 10 H2       4.8791     3.8188     3.9542 H     1 <1>   0.0000 
 11 H3       4.1920     2.7266     5.1771 H     1 <1>   0.0000 
 12 H2       1.8969     3.2020     4.3015 H     1 <1>   0.0000 
 13 H3       2.5754     4.2905     3.0934 H     1 <1>   0.0000 
 14 H2       3.9161     2.3950     2.1396 H     1 <1>   0.0000 
 15 H3       3.2293     1.3043     3.3381 H     1 <1>   0.0000 
 16 H2       0.9424     1.7101     2.4280 H     1 <1>   0.0000 
 17 H3       1.6251     2.8376     1.2241 H     1 <1>   0.0000 
 18 O        3.1672     0.1847     0.8787 O.2   1 <1>  -0.5700 
 19 N       -0.2350     1.1492    -0.0596 N.am  1 <1>  -0.7301 
 20 H       -0.3055     2.1589    -0.0214 H     1 <1>   0.3700 
 21 C       -1.3651     0.3545    -0.1609 C.2   1 <1>   0.6900 
 22 O       -2.5131     0.7479    -0.2644 O.2   1 <1>  -0.5700 
 23 N       -0.9516    -0.9657    -0.1298 N.am  1 <1>  -0.7301 
 24 H       -1.6030    -1.7310    -0.2523 H     1 <1>   0.3700 
 25 C        0.4718    -1.0867     0.1189 C.2   1 <1>   0.3001 
 26 C        0.6876    -1.6848     1.5058 C.3   1 <1>   0.0000 
 27 H1       0.1745    -2.6496     1.5906 H     1 <1>   0.0000 
 28 H2       0.2873    -1.0355     2.2925 H     1 <1>   0.0000 
 29 H3       1.7486    -1.8604     1.7057 H     1 <1>   0.0000 
 30 C        4.8089     6.0862     7.4005 C.3   1 <1>   0.3001 
 31 H1       3.8285     6.1222     7.8859 H     1 <1>   0.0000 
 32 H2       4.9670     7.0322     6.8693 H     1 <1>   0.0000 
 33 C        5.9561     5.7746     8.3761 C.3   1 <1>   0.3001 
 34 H1       5.6063     5.0228     9.0999 H     1 <1>   0.0000 
 35 N        6.3704     6.9447     9.1680 N.am  1 <1>  -0.4691 
 36 C        6.9773     5.0843     7.4447 C.3   1 <1>   0.2800 
 37 O        7.8960     4.2909     8.1782 O.3   1 <1>  -0.6800 
 38 H        8.4665     3.8235     7.5428 H     1 <1>   0.4000 
 39 H2       7.5268     5.8016     6.8259 H     1 <1>   0.0000 
 40 C        6.0765     4.2379     6.5431 C.3   1 <1>   0.3001 
 41 H1       5.8374     3.2680     6.9939 H     1 <1>   0.0000 
 42 H2       6.5310     4.0570     5.5647 H     1 <1>   0.0000 
 43 C        5.4952     7.3598    10.1776 C.2   1 <1>   0.6900 
 44 O        4.4178     6.8204    10.4259 O.2   1 <1>  -0.5700 
 45 N        5.9059     8.4494    10.9077 N.am  1 <1>  -0.4900 
 46 H        5.2859     8.7604    11.6409 H     1 <1>   0.3700 
 47 C        7.0710     9.1529    10.7385 C.2   1 <1>   0.6156 
 48 O        7.3616    10.1166    11.4383 O.2   1 <1>  -0.5700 
 49 C        7.9528     8.6715     9.6574 C.2   1 <1>  -0.1238 
 50 C        9.2363     9.4030     9.4361 C.3   1 <1>   0.1382 
 51 H1       9.0423    10.4506     9.1835 H     1 <1>   0.0000 
 52 H2       9.8186     8.9671     8.6173 H     1 <1>   0.0000 
 53 H3       9.8569     9.3712    10.3376 H     1 <1>   0.0000 
 54 C        7.5609     7.6101     8.9438 C.2   1 <1>  -0.0410 
 55 H        8.2055     7.2394     8.1565 H     1 <1>   0.1500 
@<TRIPOS>BOND
  1   1   2  1   
  2   1  19  1   
  3   1  25  2   
  4   2   3  1   
  5   2  18  2   
  6   3   4  1   
  7   3  16  1   
  8   3  17  1   
  9   4   5  1   
 10   4  14  1   
 11   4  15  1   
 12   5   6  1   
 13   5  12  1   
 14   5  13  1   
 15   6   7  1   
 16   6  10  1   
 17   6  11  1   
 18   7   8  am  
 19   7   9  2   
 20   8  30  1   
 21   8  40  1   
 22  19  20  1   
 23  19  21  am  
 24  21  22  2   
 25  21  23  am  
 26  23  24  1   
 27  23  25  1   
 28  25  26  1   
 29  26  27  1   
 30  26  28  1   
 31  26  29  1   
 32  30  31  1   
 33  30  32  1   
 34  30  33  1   
 35  33  34  1   
 36  33  35  1   
 37  33  36  1   
 38  35  43  am  
 39  35  54  1   
 40  36  37  1   
 41  36  39  1   
 42  36  40  1   
 43  37  38  1   
 44  40  41  1   
 45  40  42  1   
 46  43  44  2   
 47  43  45  am  
 48  45  46  1   
 49  45  47  am  
 50  47  48  2   
 51  47  49  1   
 52  49  50  1   
 53  49  54  2   
 54  50  51  1   
 55  50  52  1   
 56  50  53  1   
 57  54  55  1   
@<TRIPOS>SUBSTRUCTURE
  1 ****   7 GROUP 4 **** **** 0

# MOE 2015.10 (io_trps.svl 2015.10)
