@<TRIPOS>MOLECULE
J11_27
57 60 1 0 0 
SMALL
USER_CHARGES


@<TRIPOS>ATOM
  1 C        2.4262     0.0056     0.8443 C.ar  1 <1>  -0.1500 
  2 H        3.4352     0.0502     0.4399 H     1 <1>   0.1500 
  3 C        2.0150     0.9906     1.7451 C.ar  1 <1>  -0.1500 
  4 H        2.6992     1.7861     2.0283 H     1 <1>   0.1500 
  5 C        0.7294     0.9544     2.2831 C.ar  1 <1>  -0.1500 
  6 H        0.4112     1.7203     2.9852 H     1 <1>   0.1500 
  7 C       -0.1477    -0.0654     1.9193 C.ar  1 <1>  -0.1500 
  8 H       -1.1504    -0.1010     2.3377 H     1 <1>   0.1500 
  9 C        0.2602    -1.0487     1.0166 C.ar  1 <1>  -0.1500 
 10 H       -0.4395    -1.8376     0.7435 H     1 <1>   0.1500 
 11 C        1.5550    -1.0295     0.4746 C.ar  1 <1>  -0.1435 
 12 C        1.9983    -2.0943    -0.4979 C.3   1 <1>   0.3991 
 13 N        1.9689    -3.4219     0.1038 N.pl3 1 <1>   0.3140 
 14 H2       3.0162    -1.9189    -0.8624 H     1 <1>   0.0000 
 15 H3       1.3394    -2.0992    -1.3745 H     1 <1>   0.0000 
 16 N        0.9099    -4.2178    -0.1439 N.2   1 <1>  -0.7068 
 17 C        1.1297    -5.3220     0.5880 C.2   1 <1>   0.2348 
 18 C        0.1381    -6.4032     0.6504 C.ar  1 <1>   0.0540 
 19 C        2.3766    -5.2246     1.2637 C.2   1 <1>  -0.1500 
 20 H        2.8189    -5.9521     1.9299 H     1 <1>   0.1500 
 21 C        2.9074    -3.9958     0.9268 C.2   1 <1>  -0.2046 
 22 C        4.1403    -3.3555     1.3598 C.ar  1 <1>   0.0530 
 23 C        4.1862    -2.6787     2.5867 C.ar  1 <1>  -0.1500 
 24 H        3.3046    -2.6323     3.2228 H     1 <1>   0.1500 
 25 C        5.3602    -2.0432     2.9941 C.ar  1 <1>  -0.1500 
 26 H        5.4015    -1.5100     3.9386 H     1 <1>   0.1500 
 27 C        6.4844    -2.0931     2.1771 C.ar  1 <1>   0.1900 
 28 F        7.6096    -1.4792     2.5666 F     1 <1>  -0.1900 
 29 C        6.4588    -2.7692     0.9617 C.ar  1 <1>  -0.1500 
 30 H        7.3499    -2.7993     0.3423 H     1 <1>   0.1500 
 31 C        5.2844    -3.4034     0.5518 C.ar  1 <1>  -0.1500 
 32 H        5.2662    -3.9337    -0.3977 H     1 <1>   0.1500 
 33 C       -1.2292    -6.0545     0.6806 C.ar  1 <1>  -0.1500 
 34 H       -1.5129    -5.0032     0.6440 H     1 <1>   0.1500 
 35 C       -2.2347    -7.0285     0.7566 C.ar  1 <1>  -0.1435 
 36 C       -3.6952    -6.6336     0.7598 C.3   1 <1>   0.1435 
 37 C       -4.3988    -6.9216     2.0846 C.3   1 <1>  -0.1060 
 38 H2      -3.9123    -6.3646     2.8950 H     1 <1>   0.0000 
 39 H3      -4.3196    -7.9872     2.3329 H     1 <1>   0.0000 
 40 H2      -4.1965    -7.1662    -0.0592 H     1 <1>   0.0000 
 41 H3      -3.7830    -5.5664     0.5184 H     1 <1>   0.0000 
 42 C       -1.8565    -8.3722     0.8018 C.ar  1 <1>  -0.1500 
 43 H       -2.6161    -9.1498     0.8546 H     1 <1>   0.1500 
 44 C       -0.5054    -8.7367     0.7690 C.ar  1 <1>  -0.1500 
 45 H       -0.2767    -9.7968     0.8010 H     1 <1>   0.1500 
 46 C        0.5021    -7.7647     0.6887 C.ar  1 <1>   0.0825 
 47 O        1.8428    -8.0567     0.6225 O.3   1 <1>  -0.3625 
 48 C        2.2317    -9.4281     0.6260 C.3   1 <1>   0.2800 
 49 C        3.7467    -9.4807     0.5395 C.3   1 <1>   0.0000 
 50 H1       4.1019   -10.5150     0.5396 H     1 <1>   0.0000 
 51 H2       4.1996    -8.9507     1.3841 H     1 <1>   0.0000 
 52 H3       4.0982    -8.9859    -0.3720 H     1 <1>   0.0000 
 53 H2       1.8063    -9.9478    -0.2402 H     1 <1>   0.0000 
 54 H3       1.9110    -9.9129     1.5551 H     1 <1>   0.0000 
 55 C       -5.8867    -6.5476     2.0828 C.2   1 <1>   0.9060 
 56 O       -6.2867    -5.8540     1.1075 O.co2 1 <1>  -0.9000 
 57 O       -6.5385    -6.9868     3.0746 O.co2 1 <1>  -0.9000 
@<TRIPOS>BOND
  1   1   2  1   
  2   1   3  ar  
  3   1  11  ar  
  4   3   4  1   
  5   3   5  ar  
  6   5   6  1   
  7   5   7  ar  
  8   7   8  1   
  9   7   9  ar  
 10   9  10  1   
 11   9  11  ar  
 12  11  12  1   
 13  12  13  1   
 14  12  14  1   
 15  12  15  1   
 16  13  16  1   
 17  13  21  1   
 18  16  17  2   
 19  17  18  1   
 20  17  19  1   
 21  18  33  ar  
 22  18  46  ar  
 23  19  20  1   
 24  19  21  2   
 25  21  22  1   
 26  22  23  ar  
 27  22  31  ar  
 28  23  24  1   
 29  23  25  ar  
 30  25  26  1   
 31  25  27  ar  
 32  27  28  1   
 33  27  29  ar  
 34  29  30  1   
 35  29  31  ar  
 36  31  32  1   
 37  33  34  1   
 38  33  35  ar  
 39  35  36  1   
 40  35  42  ar  
 41  36  37  1   
 42  36  40  1   
 43  36  41  1   
 44  37  38  1   
 45  37  39  1   
 46  37  55  1   
 47  42  43  1   
 48  42  44  ar  
 49  44  45  1   
 50  44  46  ar  
 51  46  47  1   
 52  47  48  1   
 53  48  49  1   
 54  48  53  1   
 55  48  54  1   
 56  49  50  1   
 57  49  51  1   
 58  49  52  1   
 59  55  56  ar  
 60  55  57  ar  
@<TRIPOS>SUBSTRUCTURE
  1 <1>   0 RESIDUE 1 * * 1
# MOE 2007.09 (io_trps.svl 2007.09)
