@<TRIPOS>MOLECULE
J11_17
31 32 1 0 0 
SMALL
USER_CHARGES


@<TRIPOS>ATOM
  1 C        0.6045     0.5457    -1.8235 C.2   1 <1>   0.6900 
  2 O        1.1205     0.8885    -2.8860 O.2   1 <1>  -0.5700 
  3 N        0.3160     1.4130    -0.7756 N.am  1 <1>  -0.4691 
  4 C        0.6608     2.8177    -0.9566 C.3   1 <1>   0.5801 
  5 H        1.5841     2.8905    -1.5450 H     1 <1>   0.0000 
  6 C       -0.2954     0.9712     0.3823 C.2   1 <1>  -0.0410 
  7 H       -0.4964     1.7212     1.1420 H     1 <1>   0.1500 
  8 C       -0.6322    -0.3071     0.5849 C.2   1 <1>  -0.1238 
  9 C       -1.2914    -0.8166     1.8242 C.3   1 <1>   0.1382 
 10 H1      -1.4671    -0.0160     2.5506 H     1 <1>   0.0000 
 11 H2      -0.6654    -1.5729     2.3091 H     1 <1>   0.0000 
 12 H3      -2.2605    -1.2670     1.5861 H     1 <1>   0.0000 
 13 C       -0.3332    -1.2825    -0.4840 C.2   1 <1>   0.6156 
 14 O       -0.6021    -2.4736    -0.3742 O.2   1 <1>  -0.5700 
 15 N        0.2625    -0.7680    -1.6092 N.am  1 <1>  -0.4900 
 16 H        0.4702    -1.4145    -2.3551 H     1 <1>   0.3700 
 17 O        0.9392     3.4638     0.3076 O.3   1 <1>  -0.5600 
 18 C        0.1546     4.6610     0.3549 C.3   1 <1>   0.2800 
 19 C        0.8834     5.8044     1.0429 C.3   1 <1>   0.2800 
 20 H1       1.0349     5.5810     2.1040 H     1 <1>   0.0000 
 21 O        0.1020     6.9912     0.9143 O.3   1 <1>  -0.6800 
 22 H        0.5763     7.6922     1.3987 H     1 <1>   0.4000 
 23 H3       1.8676     5.9732     0.5929 H     1 <1>   0.0000 
 24 H2      -0.7653     4.4485     0.9169 H     1 <1>   0.0000 
 25 C       -0.1961     4.9936    -1.0889 C.3   1 <1>   0.2800 
 26 H1       0.6489     5.4584    -1.6117 H     1 <1>   0.0000 
 27 O       -1.3196     5.8475    -1.1790 O.3   1 <1>  -0.6800 
 28 H       -1.1370     6.5793    -0.5477 H     1 <1>   0.4000 
 29 C       -0.4473     3.6152    -1.6415 C.3   1 <1>   0.0000 
 30 H1      -0.3929     3.5689    -2.7335 H     1 <1>   0.0000 
 31 H2      -1.4466     3.2615    -1.3571 H     1 <1>   0.0000 
@<TRIPOS>BOND
  1   1   2  2   
  2   1   3  am  
  3   1  15  am  
  4   3   4  1   
  5   3   6  1   
  6   4   5  1   
  7   4  17  1   
  8   4  29  1   
  9   6   7  1   
 10   6   8  2   
 11   8   9  1   
 12   8  13  1   
 13   9  10  1   
 14   9  11  1   
 15   9  12  1   
 16  13  14  2   
 17  13  15  am  
 18  15  16  1   
 19  17  18  1   
 20  18  19  1   
 21  18  24  1   
 22  18  25  1   
 23  19  20  1   
 24  19  21  1   
 25  19  23  1   
 26  21  22  1   
 27  25  26  1   
 28  25  27  1   
 29  25  29  1   
 30  27  28  1   
 31  29  30  1   
 32  29  31  1   
@<TRIPOS>SUBSTRUCTURE
  1 <1>   0 RESIDUE 1 * * 1
# MOE 2007.09 (io_trps.svl 2007.09)
