@<TRIPOS>MOLECULE
J11_60
58 61 1 0 0 
SMALL
USER_CHARGES


@<TRIPOS>ATOM
  1 C        0.4141    -0.2122    -0.6404 C.2   1 <1>  -0.2764 
  2 C        1.9200    -0.0959    -0.5145 C.3   1 <1>   0.6262 
  3 H1       2.2967     0.8644    -0.1547 H     1 <1>   0.0000 
  4 N        2.6195    -0.3619    -1.8013 N.ar  1 <1>  -0.2100 
  5 H3       2.2642    -0.8348     0.2202 H     1 <1>   0.0000 
  6 C        3.5067    -1.3810    -1.8838 C.ar  1 <1>   0.2110 
  7 H        3.6516    -1.9961    -1.0017 H     1 <1>   0.1500 
  8 C       -0.4174     0.8474    -0.4664 C.2   1 <1>  -0.1410 
  9 N       -1.7695     0.6642    -0.4925 N.am  1 <1>  -0.3940 
 10 C       -2.4178    -0.6165    -0.3195 C.3   1 <1>   0.4420 
 11 H       -2.3502    -0.9878     0.7108 H     1 <1>   0.0000 
 12 S       -1.7608    -1.7435    -1.5729 S.3   1 <1>  -0.4470 
 13 C       -0.0642    -1.6282    -0.9321 C.3   1 <1>   0.3682 
 14 H1       0.5729    -2.0933    -1.6903 H     1 <1>   0.0000 
 15 H2       0.0141    -2.2315    -0.0209 H     1 <1>   0.0000 
 16 C       -2.8906     1.4091    -0.6403 C.2   1 <1>   0.5770 
 17 O       -3.0775     2.5890    -0.8289 O.2   1 <1>  -0.5700 
 18 C       -3.7547     0.0960    -0.6653 C.3   1 <1>   0.2780 
 19 H1      -4.1560    -0.1055    -1.6665 H     1 <1>   0.0000 
 20 N       -4.8182    -0.1205     0.3524 N.am  1 <1>  -0.6550 
 21 H1      -5.5050    -0.9152     0.1954 H     1 <1>   0.3700 
 22 C        0.1727     2.2774    -0.2039 C.2   1 <1>   1.0500 
 23 O        1.0228     2.6673    -1.0598 O.co2 1 <1>  -0.9000 
 24 O       -0.1940     2.7960     0.8858 O.co2 1 <1>  -0.9000 
 25 C        4.2076    -1.6245    -3.0595 C.ar  1 <1>  -0.1500 
 26 H        4.9184    -2.4447    -3.1150 H     1 <1>   0.1500 
 27 C        3.9962    -0.8048    -4.1593 C.ar  1 <1>  -0.1500 
 28 H        4.5380    -0.9768    -5.0863 H     1 <1>   0.1500 
 29 C        3.0906     0.2423    -4.0617 C.ar  1 <1>  -0.1500 
 30 C        2.4130     0.4505    -2.8655 C.ar  1 <1>   0.2110 
 31 H        2.9112     0.8996    -4.9080 H     1 <1>   0.1500 
 32 H        1.7019     1.2614    -2.7550 H     1 <1>   0.1500 
 33 C       -4.9987     0.6349     1.4913 C.2   1 <1>   0.6300 
 34 C       -6.0473     0.1271     2.4681 C.2   1 <1>   0.5360 
 35 N       -7.3111     0.0203     2.1721 N.2   1 <1>  -0.5130 
 36 O       -7.5779     0.4251     0.8564 O.3   1 <1>  -0.2170 
 37 C       -8.4511    -0.5307     0.2147 C.3   1 <1>   0.1740 
 38 C       -8.6253    -0.0496    -1.2276 C.3   1 <1>   0.0000 
 39 H1      -9.0814     0.9470    -1.2502 H     1 <1>   0.0000 
 40 H2      -9.2529    -0.7297    -1.8139 H     1 <1>   0.0000 
 41 H3      -7.6581     0.0451    -1.7363 H     1 <1>   0.0000 
 42 C       -9.8061    -0.5854     0.9147 C.3   1 <1>   0.0000 
 43 H1      -9.7201    -1.0396     1.9082 H     1 <1>   0.0000 
 44 H2     -10.5344    -1.1751     0.3476 H     1 <1>   0.0000 
 45 H3     -10.2121     0.4219     1.0598 H     1 <1>   0.0000 
 46 C       -5.6396    -0.2769     3.8163 C.2   1 <1>   0.1412 
 47 O       -4.3419     1.6127     1.8226 O.2   1 <1>  -0.5700 
 48 N       -6.5711    -0.7389     4.7451 N.2   1 <1>  -0.5653 
 49 C       -5.9939    -1.0500     5.8796 C.2   1 <1>   0.4621 
 50 N       -6.6548    -1.5183     6.9485 N.pl3 1 <1>  -0.8840 
 51 H1      -6.1918    -1.7520     7.8172 H     1 <1>   0.4000 
 52 H2      -7.6584    -1.6504     6.9059 H     1 <1>   0.4000 
 53 S       -4.2942    -0.8127     5.9178 S.3   1 <1>  -0.0800 
 54 C       -4.3430    -0.2504     4.3004 C.2   1 <1>  -0.1100 
 55 H       -3.4368     0.0690     3.8048 H     1 <1>   0.1500 
 56 C       -7.7350    -1.9079     0.0762 C.2   1 <1>   0.9060 
 57 O       -6.4642    -1.8543    -0.0301 O.co2 1 <1>  -0.9000 
 58 O       -8.4831    -2.9268     0.0547 O.co2 1 <1>  -0.9000 
@<TRIPOS>BOND
  1   1   2  1   
  2   1   8  2   
  3   1  13  1   
  4   2   3  1   
  5   2   4  1   
  6   2   5  1   
  7   4   6  ar  
  8   4  30  ar  
  9   6   7  1   
 10   6  25  ar  
 11   8   9  1   
 12   8  22  1   
 13   9  10  1   
 14   9  16  am  
 15  10  11  1   
 16  10  12  1   
 17  10  18  1   
 18  12  13  1   
 19  13  14  1   
 20  13  15  1   
 21  16  17  2   
 22  16  18  1   
 23  18  19  1   
 24  18  20  1   
 25  20  21  1   
 26  20  33  am  
 27  22  23  ar  
 28  22  24  ar  
 29  25  26  1   
 30  25  27  ar  
 31  27  28  1   
 32  27  29  ar  
 33  29  30  ar  
 34  29  31  1   
 35  30  32  1   
 36  33  34  1   
 37  33  47  2   
 38  34  35  2   
 39  34  46  1   
 40  35  36  1   
 41  36  37  1   
 42  37  38  1   
 43  37  42  1   
 44  37  56  1   
 45  38  39  1   
 46  38  40  1   
 47  38  41  1   
 48  42  43  1   
 49  42  44  1   
 50  42  45  1   
 51  46  48  1   
 52  46  54  2   
 53  48  49  2   
 54  49  50  1   
 55  49  53  1   
 56  50  51  1   
 57  50  52  1   
 58  53  54  1   
 59  54  55  1   
 60  56  57  ar  
 61  56  58  ar  
@<TRIPOS>SUBSTRUCTURE
  1 <1>   0 RESIDUE 1 * * 1
# MOE 2007.09 (io_trps.svl 2007.09)
