@<TRIPOS>MOLECULE
J11_49
52 55 1 0 0 
SMALL
USER_CHARGES


@<TRIPOS>ATOM
  1 C        1.0406     0.8435     0.7726 C.ar  1 <1>  -0.1516 
  2 C       -0.2113     1.4510     0.7845 C.ar  1 <1>   0.2272 
  3 C       -1.3301     0.7263     1.2276 C.ar  1 <1>  -0.1500 
  4 H       -2.3092     1.1922     1.2391 H     1 <1>   0.1500 
  5 C       -1.1557    -0.5978     1.6481 C.ar  1 <1>  -0.1500 
  6 H       -2.0145    -1.1706     1.9911 H     1 <1>   0.1500 
  7 C        0.1091    -1.1875     1.6310 C.ar  1 <1>  -0.1500 
  8 H        0.2227    -2.2178     1.9626 H     1 <1>   0.1500 
  9 C        1.2364    -0.4786     1.1944 C.ar  1 <1>  -0.1500 
 10 H        2.2147    -0.9469     1.1854 H     1 <1>   0.1500 
 11 N        1.8826     1.8168     0.2842 N.pl3 1 <1>   0.0476 
 12 C        3.3029     1.6689     0.0682 C.3   1 <1>   0.2556 
 13 H1       3.5481     0.6133    -0.0689 H     1 <1>   0.0000 
 14 H2       3.8239     2.0665     0.9426 H     1 <1>   0.0000 
 15 H3       3.5924     2.2137    -0.8335 H     1 <1>   0.0000 
 16 C        1.1371     2.9529     0.0393 C.2   1 <1>   0.0065 
 17 C        1.6973     4.2219    -0.5195 C.3   1 <1>   0.4600 
 18 O        2.7293     4.6694     0.3671 O.3   1 <1>  -0.4300 
 19 C        3.4494     5.7279    -0.0980 C.2   1 <1>   0.7800 
 20 N        4.4547     6.1111     0.7762 N.am  1 <1>  -0.6602 
 21 O        3.2311     6.2622    -1.1799 O.2   1 <1>  -0.5700 
 22 H2       0.9111     4.9834    -0.5719 H     1 <1>   0.0000 
 23 H3       2.0962     4.0360    -1.5236 H     1 <1>   0.0000 
 24 N       -0.1348     2.7430     0.3284 N.2   1 <1>  -0.5653 
 25 C        4.7066     5.4743     2.0693 C.3   1 <1>   0.3001 
 26 H1       5.6831     4.9802     2.0016 H     1 <1>   0.0000 
 27 H2       3.9658     4.7012     2.2910 H     1 <1>   0.0000 
 28 C        4.7131     6.5099     3.1922 C.3   1 <1>   0.0000 
 29 H1       4.9812     6.0294     4.1397 H     1 <1>   0.0000 
 30 H2       3.7039     6.9232     3.3125 H     1 <1>   0.0000 
 31 C        5.6895     7.6500     2.8949 C.3   1 <1>   0.0000 
 32 H1       6.7125     7.2575     2.9328 H     1 <1>   0.0000 
 33 H2       5.6165     8.4133     3.6788 H     1 <1>   0.0000 
 34 C        5.3934     8.2790     1.5196 C.3   1 <1>   0.3001 
 35 N        6.3131     9.3849     1.1863 N.am  1 <1>  -0.4691 
 36 H2       4.3773     8.6903     1.5877 H     1 <1>   0.0000 
 37 C        5.3505     7.2055     0.4156 C.3   1 <1>   0.3001 
 38 H1       6.3394     6.7602     0.2542 H     1 <1>   0.0000 
 39 H2       5.0508     7.6619    -0.5343 H     1 <1>   0.0000 
 40 C        7.6699     9.1441     1.0592 C.2   1 <1>  -0.0410 
 41 H        8.0052     8.1259     1.2333 H     1 <1>   0.1500 
 42 C        8.5534    10.0925     0.7342 C.2   1 <1>  -0.1238 
 43 C       10.0206     9.8576     0.5865 C.3   1 <1>   0.1382 
 44 H1      10.2876     8.8130     0.7787 H     1 <1>   0.0000 
 45 H2      10.5817    10.4786     1.2925 H     1 <1>   0.0000 
 46 H3      10.3484    10.1022    -0.4292 H     1 <1>   0.0000 
 47 C        8.0497    11.4600     0.5008 C.2   1 <1>   0.6156 
 48 O        8.7933    12.3836     0.1905 O.2   1 <1>  -0.5700 
 49 N        6.6972    11.6306     0.6539 N.am  1 <1>  -0.4900 
 50 H        6.3315    12.5587     0.5031 H     1 <1>   0.3700 
 51 C        5.7831    10.6620     0.9919 C.2   1 <1>   0.6900 
 52 O        4.5932    10.9537     1.0960 O.2   1 <1>  -0.5700 
@<TRIPOS>BOND
  1   1   2  ar  
  2   1   9  ar  
  3   1  11  1   
  4   2   3  ar  
  5   2  24  1   
  6   3   4  1   
  7   3   5  ar  
  8   5   6  1   
  9   5   7  ar  
 10   7   8  1   
 11   7   9  ar  
 12   9  10  1   
 13  11  12  1   
 14  11  16  1   
 15  12  13  1   
 16  12  14  1   
 17  12  15  1   
 18  16  17  1   
 19  16  24  2   
 20  17  18  1   
 21  17  22  1   
 22  17  23  1   
 23  18  19  1   
 24  19  20  am  
 25  19  21  2   
 26  20  25  1   
 27  20  37  1   
 28  25  26  1   
 29  25  27  1   
 30  25  28  1   
 31  28  29  1   
 32  28  30  1   
 33  28  31  1   
 34  31  32  1   
 35  31  33  1   
 36  31  34  1   
 37  34  35  1   
 38  34  36  1   
 39  34  37  1   
 40  35  40  1   
 41  35  51  am  
 42  37  38  1   
 43  37  39  1   
 44  40  41  1   
 45  40  42  2   
 46  42  43  1   
 47  42  47  1   
 48  43  44  1   
 49  43  45  1   
 50  43  46  1   
 51  47  48  2   
 52  47  49  am  
 53  49  50  1   
 54  49  51  am  
 55  51  52  2   
@<TRIPOS>SUBSTRUCTURE
  1 <1>   0 RESIDUE 1 * * 1
# MOE 2007.09 (io_trps.svl 2007.09)
