JBB14_0002.mol
  ChemDraw04092415412D

100103  0  0  1  0  0  0  0  0999 V2000
   -0.5664    2.7213    0.0000 C   0  0  0  0  0  0  0  0  0  0  0  0
   -1.2809    2.3088    0.0000 C   0  0  0  0  0  0  0  0  0  0  0  0
   -1.2809    1.4838    0.0000 C   0  0  0  0  0  0  0  0  0  0  0  0
   -1.9954    1.0713    0.0000 C   0  0  0  0  0  0  0  0  0  0  0  0
    0.1480    2.3088    0.0000 O   0  0  0  0  0  0  0  0  0  0  0  0
   -0.5664    3.5463    0.0000 O   0  0  0  0  0  0  0  0  0  0  0  0
   -1.9954    0.2463    0.0000 C   0  0  0  0  0  0  0  0  0  0  0  0
   -1.2809   -0.1662    0.0000 N   0  0  0  0  0  0  0  0  0  0  0  0
   -2.7098   -0.1662    0.0000 O   0  0  0  0  0  0  0  0  0  0  0  0
   -1.2809   -0.9912    0.0000 C   0  0  0  0  0  0  0  0  0  0  0  0
   -1.9954   -1.4037    0.0000 C   0  0  0  0  0  0  0  0  0  0  0  0
   -1.9954   -2.2287    0.0000 C   0  0  0  0  0  0  0  0  0  0  0  0
   -2.7098   -2.6412    0.0000 C   0  0  0  0  0  0  0  0  0  0  0  0
   -2.7098   -0.9912    0.0000 C   0  0  0  0  0  0  0  0  0  0  0  0
   -0.5664   -1.4037    0.0000 C   0  0  0  0  0  0  0  0  0  0  0  0
   -0.5664   -2.2287    0.0000 N   0  0  0  0  0  0  0  0  0  0  0  0
    0.1480   -0.9912    0.0000 O   0  0  0  0  0  0  0  0  0  0  0  0
    2.2915    0.2463    0.0000 N   0  0  0  0  0  0  0  0  0  0  0  0
    3.0059   -0.1662    0.0000 C   0  0  0  0  0  0  0  0  0  0  0  0
    3.7204    0.2463    0.0000 C   0  0  0  0  0  0  0  0  0  0  0  0
    4.4349   -0.1662    0.0000 N   0  0  0  0  0  0  0  0  0  0  0  0
    5.1430    0.2354    0.0000 C   0  0  0  0  0  0  0  0  0  0  0  0
    5.8575   -0.1771    0.0000 C   0  0  0  0  0  0  0  0  0  0  0  0
    5.8575   -1.0021    0.0000 N   0  0  0  0  0  0  0  0  0  0  0  0
    6.3767   -1.6433    0.0000 C   0  0  0  0  0  0  0  0  0  0  0  0
    5.9642   -2.3577    0.0000 C   0  0  0  0  0  0  0  0  0  0  0  0
    5.1493   -2.2287    0.0000 N   0  0  0  0  0  0  0  0  0  0  0  0
    4.4349   -2.6412    0.0000 C   0  0  0  0  0  0  0  0  0  0  0  0
    4.4349   -3.4662    0.0000 C   0  0  0  0  0  0  0  0  0  0  0  0
    3.7204   -3.8787    0.0000 N   0  0  0  0  0  0  0  0  0  0  0  0
    3.7204   -4.7037    0.0000 C   0  0  0  0  0  0  0  0  0  0  0  0
    3.0059   -5.1162    0.0000 C   0  0  0  0  0  0  0  0  0  0  0  0
    2.2915   -4.7037    0.0000 N   0  0  0  0  0  0  0  0  0  0  0  0
    1.5770   -5.1162    0.0000 C   0  0  0  0  0  0  0  0  0  0  0  0
    0.8625   -4.7037    0.0000 C   0  0  0  0  0  0  0  0  0  0  0  0
    0.8625   -3.8787    0.0000 N   0  0  0  0  0  0  0  0  0  0  0  0
    0.1480   -3.4662    0.0000 C   0  0  0  0  0  0  0  0  0  0  0  0
    0.1480   -2.6412    0.0000 C   0  0  0  0  0  0  0  0  0  0  0  0
    0.8625   -2.2287    0.0000 C   0  0  0  0  0  0  0  0  0  0  0  0
    0.8625   -1.4037    0.0000 C   0  0  0  0  0  0  0  0  0  0  0  0
    1.5770   -0.9912    0.0000 C   0  0  0  0  0  0  0  0  0  0  0  0
    1.5770   -0.1662    0.0000 C   0  0  0  0  0  0  0  0  0  0  0  0
   -0.5664   -3.8787    0.0000 O   0  0  0  0  0  0  0  0  0  0  0  0
    1.5770   -5.9412    0.0000 O   0  0  0  0  0  0  0  0  0  0  0  0
    4.4349   -5.1162    0.0000 O   0  0  0  0  0  0  0  0  0  0  0  0
    3.7204   -2.2287    0.0000 O   0  0  0  0  0  0  0  0  0  0  0  0
    7.2017   -1.6433    0.0000 O   0  0  0  0  0  0  0  0  0  0  0  0
    5.1430    1.0604    0.0000 O   0  0  0  0  0  0  0  0  0  0  0  0
    3.0059   -0.9912    0.0000 O   0  0  0  0  0  0  0  0  0  0  0  0
    6.5720    0.2354    0.0000 C   0  0  0  0  0  0  0  0  0  0  0  0
    7.2167   -0.0563    0.0000 C   0  0  0  0  0  0  0  0  0  0  0  0
    7.9109    0.3620    0.0000 O   0  0  0  0  0  0  0  0  0  0  0  0
    7.0896   -0.8098    0.0000 O   0  0  0  0  0  0  0  0  0  0  0  0
    3.7204    1.0713    0.0000 C   0  0  0  0  0  0  0  0  0  0  0  0
    3.0059    1.4838    0.0000 C   0  0  0  0  0  0  0  0  0  0  0  0
    3.0059    2.3088    0.0000 N   0  0  0  0  0  0  0  0  0  0  0  0
    2.2915    1.0713    0.0000 O   0  0  0  0  0  0  0  0  0  0  0  0
    2.2915   -6.3537    0.0000 C   0  0  0  0  0  0  0  0  0  0  0  0
    3.0059   -5.9412    0.0000 C   0  0  0  0  0  0  0  0  0  0  0  0
    3.7204   -6.3537    0.0000 C   0  0  0  0  0  0  0  0  0  0  0  0
    3.7204   -7.1787    0.0000 C   0  0  0  0  0  0  0  0  0  0  0  0
    5.0825   -3.7123    0.0000 C   0  0  0  0  0  0  0  0  0  0  0  0
    5.4097   -4.6949    0.0000 C   0  0  0  0  0  0  0  0  0  0  0  0
    6.2321   -4.7604    0.0000 C   0  0  0  0  0  0  0  0  0  0  0  0
    6.5865   -5.5054    0.0000 C   0  0  0  0  0  0  0  0  0  0  0  0
    6.1186   -6.1849    0.0000 C   0  0  0  0  0  0  0  0  0  0  0  0
    5.2962   -6.1193    0.0000 C   0  0  0  0  0  0  0  0  0  0  0  0
    4.9417   -5.3744    0.0000 C   0  0  0  0  0  0  0  0  0  0  0  0
    0.1480   -5.1162    0.0000 C   0  0  0  0  0  0  0  0  0  0  0  0
    0.1480   -5.9412    0.0000 C   0  0  0  0  0  0  0  0  0  0  0  0
   -0.5664   -6.3537    0.0000 C   0  0  0  0  0  0  0  0  0  0  0  0
   -0.5664   -7.1787    0.0000 N   0  0  0  0  0  0  0  0  0  0  0  0
   -2.7098    2.3088    0.0000 C   0  0  0  0  0  0  0  0  0  0  0  0
   -3.4243    2.7213    0.0000 C   0  0  0  0  0  0  0  0  0  0  0  0
   -4.1388    2.3088    0.0000 C   0  0  0  0  0  0  0  0  0  0  0  0
   -4.1388    1.4838    0.0000 C   0  0  0  0  0  0  0  0  0  0  0  0
   -3.4243    1.0713    0.0000 C   0  0  0  0  0  0  0  0  0  0  0  0
   -1.9954    2.7213    0.0000 O   0  0  0  0  0  0  0  0  0  0  0  0
   -2.7098    1.4838    0.0000 N   0  0  0  0  0  0  0  0  0  0  0  0
   -4.8532    1.0713    0.0000 C   0  0  0  0  0  0  0  0  0  0  0  0
   -4.4431    4.0856    0.0000 C   0  0  0  0  0  0  0  0  0  0  0  0
   -4.8786    3.3688    0.0000 O   0  0  0  0  0  0  0  0  0  0  0  0
   -3.4243    3.5463    0.0000 N   0  0  0  0  0  0  0  0  0  0  0  0
   -5.5674    5.9684    0.0000 S   0  0  0  0  0  0  0  0  0  0  0  0
   -6.1484    5.3874    0.0000 C   0  0  0  0  0  0  0  0  0  0  0  0
   -5.7753    4.6553    0.0000 N   0  0  0  0  0  0  0  0  0  0  0  0
   -4.9638    4.7838    0.0000 C   0  0  0  0  0  0  0  0  0  0  0  0
   -4.8352    5.5954    0.0000 C   0  0  0  0  0  0  0  0  0  0  0  0
   -6.9599    5.5159    0.0000 C   0  0  0  0  0  0  0  0  0  0  0  0
   -7.2544    6.2830    0.0000 C   0  0  0  0  0  0  0  0  0  0  0  0
   -8.0659    6.4116    0.0000 C   0  0  0  0  0  0  0  0  0  0  0  0
   -8.3604    7.1787    0.0000 C   0  0  0  0  0  0  0  0  0  0  0  0
   -6.7373    6.9216    0.0000 C   0  0  0  0  0  0  0  0  0  0  0  0
   -7.4770    4.8774    0.0000 N   0  0  0  0  0  0  0  0  0  0  0  0
    6.3194   -3.1024    0.0000 C   0  0  0  0  0  0  0  0  0  0  0  0
    7.0270   -3.4376    0.0000 C   0  0  0  0  0  0  0  0  0  0  0  0
    7.6709   -2.9218    0.0000 N   0  0  0  0  0  0  0  0  0  0  0  0
    8.3604   -3.3748    0.0000 C   0  0  0  0  0  0  0  0  0  0  0  0
    8.1427   -4.1705    0.0000 C   0  0  0  0  0  0  0  0  0  0  0  0
    7.3186   -4.2094    0.0000 N   0  0  0  0  0  0  0  0  0  0  0  0
  1  2  1  0      
  2  3  1  0      
  4  3  1  6      
  1  5  2  0      
  1  6  1  0      
  7  8  1  0      
  7  9  2  0      
 10 11  1  0      
 11 12  1  0      
 12 13  1  0      
 11 14  1  6      
 15 16  1  0      
 15 17  2  0      
 18 19  1  0      
 19 20  1  0      
 20 21  1  0      
 21 22  1  0      
 22 23  1  0      
 23 24  1  0      
 24 25  1  0      
 25 26  1  0      
 26 27  1  0      
 27 28  1  0      
 28 29  1  0      
 29 30  1  0      
 30 31  1  0      
 31 32  1  0      
 32 33  1  6      
 33 34  1  0      
 34 35  1  0      
 35 36  1  0      
 36 37  1  0      
 37 38  1  0      
 38 39  1  0      
 39 40  1  0      
 40 41  1  0      
 41 42  1  0      
 18 42  1  0      
 37 43  2  0      
 34 44  2  0      
 31 45  2  0      
 28 46  2  0      
 25 47  2  0      
 22 48  2  0      
 19 49  2  0      
 51 52  2  0      
 51 53  1  0      
 50 51  1  0      
 23 50  1  1      
 55 56  1  0      
 55 57  2  0      
 54 55  1  0      
 20 54  1  6      
 59 58  1  6      
 59 60  1  0      
 60 61  1  0      
 32 59  1  0      
 62 63  1  0      
 63 64  1  0      
 64 65  2  0      
 65 66  1  0      
 66 67  2  0      
 67 68  1  0      
 63 68  2  0      
 29 62  1  1      
 69 70  1  0      
 70 71  1  0      
 71 72  1  0      
 35 69  1  1      
 38 16  1  1      
 10 15  1  0      
 10  8  1  6      
  4  7  1  0      
 73 74  1  0      
 74 75  1  6      
 75 76  1  0      
 76 77  1  0      
 73 78  2  0      
 73 79  1  0      
 76 80  1  0      
 81 82  2  0      
 81 83  1  0      
 84 85  1  0      
 85 86  2  0      
 86 87  1  0      
 87 88  1  0      
 84 88  1  0      
 89 90  1  0      
 90 91  1  0      
 91 92  1  0      
 90 93  1  6      
 89 94  1  1      
 85 89  1  0      
 74 83  1  0      
  4 79  1  0      
 26 95  1  6      
 96 97  2  0      
 97 98  1  0      
 98 99  2  0      
 99100  1  0      
 96100  1  0      
 95 96  1  0      
 87 81  1  1      
M  END
