JBB18_0005.mol
  ChemDraw04102410322D

 20 19  0  0  1  0  0  0  0  0999 V2000
    2.8462    0.8216    0.0000 C   0  0  0  0  0  0  0  0  0  0  0  0
    1.4231    0.8216    0.0000 N   0  0  0  0  0  0  0  0  0  0  0  0
    2.1346    0.4108    0.0000 C   0  0  0  0  0  0  0  0  0  0  0  0
    2.1346   -0.4108    0.0000 C   0  0  0  0  0  0  0  0  0  0  0  0
    2.8462   -0.8216    0.0000 S   0  0  0  0  0  0  0  0  0  0  0  0
    2.8462    1.6432    0.0000 O   0  0  0  0  0  0  0  0  0  0  0  0
    3.5577    0.4108    0.0000 N   0  0  0  0  0  0  0  0  0  0  0  0
    0.7115    0.4108    0.0000 C   0  0  0  0  0  0  0  0  0  0  0  0
    0.7115   -0.4108    0.0000 O   0  0  0  0  0  0  0  0  0  0  0  0
    0.0000    0.8216    0.0000 C   0  0  0  0  0  0  0  0  0  0  0  0
   -0.7115    0.4108    0.0000 N   0  0  0  0  0  0  0  0  0  0  0  0
   -1.4231    0.8216    0.0000 C   0  0  0  0  0  0  0  0  0  0  0  0
   -1.4231    1.6432    0.0000 O   0  0  0  0  0  0  0  0  0  0  0  0
   -2.1346    0.4108    0.0000 C   0  0  0  0  0  0  0  0  0  0  0  0
   -2.8462    0.8216    0.0000 C   0  0  0  0  0  0  0  0  0  0  0  0
   -3.5577    0.4108    0.0000 S   0  0  0  0  0  0  0  0  0  0  0  0
   -2.1346   -0.4108    0.0000 N   0  0  0  0  0  0  0  0  0  0  0  0
   -2.8462   -0.8216    0.0000 C   0  0  0  0  0  0  0  0  0  0  0  0
   -2.8462   -1.6432    0.0000 O   0  0  0  0  0  0  0  0  0  0  0  0
   -3.5577   -0.4108    0.0000 C   0  0  0  0  0  0  0  0  0  0  0  0
  2  3  1  0      
  1  3  1  0      
  3  4  1  1      
  4  5  1  0      
  1  6  2  0      
  1  7  1  0      
  8  9  2  0      
  8 10  1  0      
  2  8  1  0      
 10 11  1  0      
 11 12  1  0      
 12 13  2  0      
 14 15  1  0      
 15 16  1  0      
 14 17  1  6      
 17 18  1  0      
 18 19  2  0      
 18 20  1  0      
 12 14  1  0      
M  END
