JBB19_0006.mol
  ChemDraw04102410532D

 34 37  0  0  0  0  0  0  0  0999 V2000
    3.0437    0.0409    0.0000 N   0  0  0  0  0  0  0  0  0  0  0  0
    2.2901    0.3764    0.0000 C   0  0  0  0  0  0  0  0  0  0  0  0
    2.3763    1.1969    0.0000 C   0  0  0  0  0  0  0  0  0  0  0  0
    3.1833    1.3685    0.0000 C   0  0  0  0  0  0  0  0  0  0  0  0
    3.5958    2.0829    0.0000 C   0  0  0  0  0  0  0  0  0  0  0  0
    4.4208    2.0829    0.0000 C   0  0  0  0  0  0  0  0  0  0  0  0
    4.8333    1.3685    0.0000 C   0  0  0  0  0  0  0  0  0  0  0  0
    4.4208    0.6540    0.0000 C   0  0  0  0  0  0  0  0  0  0  0  0
    3.5958    0.6540    0.0000 C   0  0  0  0  0  0  0  0  0  0  0  0
    1.5756   -0.0360    0.0000 C   0  0  0  0  0  0  0  0  0  0  0  0
    1.5756   -0.8610    0.0000 O   0  0  0  0  0  0  0  0  0  0  0  0
    0.8611    0.3764    0.0000 N   0  0  0  0  0  0  0  0  0  0  0  0
    0.1466   -0.0360    0.0000 C   0  0  0  0  0  0  0  0  0  0  0  0
   -0.5678    0.3764    0.0000 C   0  0  0  0  0  0  0  0  0  0  0  0
   -1.2823   -0.0360    0.0000 C   0  0  0  0  0  0  0  0  0  0  0  0
   -2.7112   -0.0360    0.0000 C   0  0  0  0  0  0  0  0  0  0  0  0
   -2.7112   -0.8610    0.0000 O   0  0  0  0  0  0  0  0  0  0  0  0
   -1.9968    0.3764    0.0000 N   0  0  0  0  0  0  0  0  0  0  0  0
   -3.4257    1.2014    0.0000 C   0  0  0  0  0  0  0  0  0  0  0  0
   -4.1402    1.6140    0.0000 N   0  0  0  0  0  0  0  0  0  0  0  0
   -4.8547    1.2014    0.0000 C   0  0  0  0  0  0  0  0  0  0  0  0
   -4.8547    0.3764    0.0000 C   0  0  0  0  0  0  0  0  0  0  0  0
   -4.1402   -0.0360    0.0000 C   0  0  0  0  0  0  0  0  0  0  0  0
   -3.4257    0.3764    0.0000 N   0  0  0  0  0  0  0  0  0  0  0  0
   -5.5691    1.6140    0.0000 O   0  0  0  0  0  0  0  0  0  0  0  0
   -2.7112    1.6140    0.0000 O   0  0  0  0  0  0  0  0  0  0  0  0
   -5.5691   -0.0360    0.0000 F   0  0  0  0  0  0  0  0  0  0  0  0
    3.2153   -0.7661    0.0000 C   0  0  0  0  0  0  0  0  0  0  0  0
    3.9999   -1.0210    0.0000 C   0  0  0  0  0  0  0  0  0  0  0  0
    4.6130   -0.4690    0.0000 C   0  0  0  0  0  0  0  0  0  0  0  0
    5.3976   -0.7239    0.0000 C   0  0  0  0  0  0  0  0  0  0  0  0
    5.5691   -1.5309    0.0000 C   0  0  0  0  0  0  0  0  0  0  0  0
    4.9560   -2.0829    0.0000 C   0  0  0  0  0  0  0  0  0  0  0  0
    4.1714   -1.8280    0.0000 C   0  0  0  0  0  0  0  0  0  0  0  0
  1  2  1  0      
  2  3  2  0      
  3  4  1  0      
  4  5  1  0      
  5  6  2  0      
  6  7  1  0      
  7  8  2  0      
  8  9  1  0      
  1  9  1  0      
  4  9  2  0      
 10 11  2  0      
 10 12  1  0      
  2 10  1  0      
 13 14  1  0      
 14 15  1  0      
 16 17  2  0      
 16 18  1  0      
 19 20  1  0      
 20 21  1  0      
 21 22  1  0      
 22 23  2  0      
 23 24  1  0      
 19 24  1  0      
 16 24  1  0      
 21 25  2  0      
 19 26  2  0      
 22 27  1  0      
 15 18  1  0      
 12 13  1  0      
 28 29  1  0      
 29 30  1  0      
 30 31  2  0      
 31 32  1  0      
 32 33  2  0      
 33 34  1  0      
 29 34  2  0      
  1 28  1  0      
M  END
