JBB19_0008.mol
  ChemDraw04102410592D

 33 35  0  0  0  0  0  0  0  0999 V2000
    3.4117   -0.7971    0.0000 N   0  0  0  0  0  0  0  0  0  0  0  0
    2.6580   -0.4616    0.0000 C   0  0  0  0  0  0  0  0  0  0  0  0
    2.7442    0.3589    0.0000 C   0  0  0  0  0  0  0  0  0  0  0  0
    3.5512    0.5305    0.0000 C   0  0  0  0  0  0  0  0  0  0  0  0
    3.9637    1.2449    0.0000 C   0  0  0  0  0  0  0  0  0  0  0  0
    4.7887    1.2449    0.0000 C   0  0  0  0  0  0  0  0  0  0  0  0
    5.2012    0.5305    0.0000 C   0  0  0  0  0  0  0  0  0  0  0  0
    4.7887   -0.1840    0.0000 C   0  0  0  0  0  0  0  0  0  0  0  0
    3.9637   -0.1840    0.0000 C   0  0  0  0  0  0  0  0  0  0  0  0
    1.9435   -0.8741    0.0000 C   0  0  0  0  0  0  0  0  0  0  0  0
    1.9435   -1.6991    0.0000 O   0  0  0  0  0  0  0  0  0  0  0  0
    1.2290   -0.4616    0.0000 N   0  0  0  0  0  0  0  0  0  0  0  0
    5.2012    1.9594    0.0000 O   0  0  0  0  0  0  0  0  0  0  0  0
    3.5832   -1.6041    0.0000 C   0  0  0  0  0  0  0  0  0  0  0  0
    4.3678   -1.8590    0.0000 C   0  0  0  0  0  0  0  0  0  0  0  0
    5.0090   -1.3398    0.0000 C   0  0  0  0  0  0  0  0  0  0  0  0
    4.4969   -2.6739    0.0000 C   0  0  0  0  0  0  0  0  0  0  0  0
    0.5146   -0.8741    0.0000 C   0  0  0  0  0  0  0  0  0  0  0  0
   -0.1999   -0.4616    0.0000 C   0  0  0  0  0  0  0  0  0  0  0  0
   -0.9144   -0.8741    0.0000 C   0  0  0  0  0  0  0  0  0  0  0  0
   -2.3433   -0.8741    0.0000 C   0  0  0  0  0  0  0  0  0  0  0  0
   -2.3433   -1.6991    0.0000 O   0  0  0  0  0  0  0  0  0  0  0  0
   -1.6288   -0.4616    0.0000 N   0  0  0  0  0  0  0  0  0  0  0  0
   -3.0578    0.3634    0.0000 C   0  0  0  0  0  0  0  0  0  0  0  0
   -3.7723    0.7759    0.0000 N   0  0  0  0  0  0  0  0  0  0  0  0
   -4.4867    0.3634    0.0000 C   0  0  0  0  0  0  0  0  0  0  0  0
   -4.4867   -0.4616    0.0000 C   0  0  0  0  0  0  0  0  0  0  0  0
   -3.7723   -0.8741    0.0000 C   0  0  0  0  0  0  0  0  0  0  0  0
   -3.0578   -0.4616    0.0000 N   0  0  0  0  0  0  0  0  0  0  0  0
   -5.2012    0.7759    0.0000 O   0  0  0  0  0  0  0  0  0  0  0  0
   -2.3433    0.7759    0.0000 O   0  0  0  0  0  0  0  0  0  0  0  0
   -5.2012   -0.8741    0.0000 F   0  0  0  0  0  0  0  0  0  0  0  0
    4.7887    2.6739    0.0000 C   0  0  0  0  0  0  0  0  0  0  0  0
  1  2  1  0      
  2  3  2  0      
  3  4  1  0      
  4  5  1  0      
  5  6  2  0      
  6  7  1  0      
  7  8  2  0      
  8  9  1  0      
  1  9  1  0      
  4  9  2  0      
 10 11  2  0      
 10 12  1  0      
  2 10  1  0      
  6 13  1  0      
 14 15  1  0      
 15 16  1  0      
 17 15  1  0      
  1 14  1  0      
 18 19  1  0      
 19 20  1  0      
 21 22  2  0      
 21 23  1  0      
 24 25  1  0      
 25 26  1  0      
 26 27  1  0      
 27 28  2  0      
 28 29  1  0      
 24 29  1  0      
 21 29  1  0      
 26 30  2  0      
 24 31  2  0      
 27 32  1  0      
 20 23  1  0      
 12 18  1  0      
 13 33  1  0      
M  END
