JBB18_0003.mol
  ChemDraw04102410172D

 33 32  0  0  1  0  0  0  0  0999 V2000
    3.9309   -0.6448    0.0000 C   0  0  0  0  0  0  0  0  0  0  0  0
    2.5020   -0.6353    0.0000 N   0  0  0  0  0  0  0  0  0  0  0  0
    3.2192   -0.2276    0.0000 C   0  0  0  0  0  0  0  0  0  0  0  0
    3.2246    0.5974    0.0000 C   0  0  0  0  0  0  0  0  0  0  0  0
    3.9418    1.0052    0.0000 S   0  0  0  0  0  0  0  0  0  0  0  0
    3.9254   -1.4698    0.0000 O   0  0  0  0  0  0  0  0  0  0  0  0
    4.6481   -0.2371    0.0000 N   0  0  0  0  0  0  0  0  0  0  0  0
    1.7902   -0.2181    0.0000 C   0  0  0  0  0  0  0  0  0  0  0  0
    1.7957    0.6069    0.0000 O   0  0  0  0  0  0  0  0  0  0  0  0
    1.0731   -0.6258    0.0000 C   0  0  0  0  0  0  0  0  0  0  0  0
    0.3613   -0.2086    0.0000 N   0  0  0  0  0  0  0  0  0  0  0  0
    1.0676   -1.4508    0.0000 C   0  0  0  0  0  0  0  0  0  0  0  0
    1.7793   -1.8681    0.0000 C   0  0  0  0  0  0  0  0  0  0  0  0
    1.7738   -2.6930    0.0000 S   0  0  0  0  0  0  0  0  0  0  0  0
    2.4855   -3.1103    0.0000 C   0  0  0  0  0  0  0  0  0  0  0  0
   -0.3559   -0.6164    0.0000 C   0  0  0  0  0  0  0  0  0  0  0  0
   -1.0676   -0.1991    0.0000 C   0  0  0  0  0  0  0  0  0  0  0  0
   -0.3613   -1.4413    0.0000 O   0  0  0  0  0  0  0  0  0  0  0  0
   -1.7848   -0.6069    0.0000 N   0  0  0  0  0  0  0  0  0  0  0  0
   -1.0621    0.6258    0.0000 C   0  0  0  0  0  0  0  0  0  0  0  0
   -1.7738    1.0431    0.0000 C   0  0  0  0  0  0  0  0  0  0  0  0
   -1.7683    1.8681    0.0000 C   0  0  0  0  0  0  0  0  0  0  0  0
   -2.4801    2.2853    0.0000 C   0  0  0  0  0  0  0  0  0  0  0  0
   -2.4746    3.1103    0.0000 N   0  0  0  0  0  0  0  0  0  0  0  0
   -2.4965   -0.1897    0.0000 C   0  0  0  0  0  0  0  0  0  0  0  0
   -3.2137   -0.5974    0.0000 C   0  0  0  0  0  0  0  0  0  0  0  0
   -2.4910    0.6353    0.0000 O   0  0  0  0  0  0  0  0  0  0  0  0
   -3.9254   -0.1802    0.0000 C   0  0  0  0  0  0  0  0  0  0  0  0
   -4.6426   -0.5879    0.0000 S   0  0  0  0  0  0  0  0  0  0  0  0
   -3.2192   -1.4224    0.0000 N   0  0  0  0  0  0  0  0  0  0  0  0
   -3.9363   -1.8301    0.0000 C   0  0  0  0  0  0  0  0  0  0  0  0
   -3.9418   -2.6551    0.0000 O   0  0  0  0  0  0  0  0  0  0  0  0
   -4.6481   -1.4129    0.0000 C   0  0  0  0  0  0  0  0  0  0  0  0
  2  3  1  0      
  1  3  1  0      
  3  4  1  1      
  4  5  1  0      
  1  6  2  0      
  1  7  1  0      
  8  9  2  0      
  8 10  1  0      
  2  8  1  0      
 10 11  1  0      
 10 12  1  6      
 12 13  1  0      
 13 14  1  0      
 14 15  1  0      
 11 16  1  0      
 16 17  1  0      
 16 18  2  0      
 17 19  1  0      
 17 20  1  1      
 20 21  1  0      
 21 22  1  0      
 22 23  1  0      
 23 24  1  0      
 19 25  1  0      
 25 26  1  0      
 25 27  2  0      
 26 28  1  0      
 28 29  1  0      
 26 30  1  1      
 30 31  1  0      
 31 32  2  0      
 31 33  1  0      
M  END
