JBB1_0008.mol
  ChemDraw02202411192D

 30 33  0  0  0  0  0  0  0  0999 V2000
   -4.1373   -1.0304    0.0000 N   0  0  0  0  0  0  0  0  0  0  0  0
   -3.3792   -0.7134    0.0000 C   0  0  0  0  0  0  0  0  0  0  0  0
   -3.4465    0.1055    0.0000 S   0  0  0  0  0  0  0  0  0  0  0  0
   -4.2461    0.2946    0.0000 C   0  0  0  0  0  0  0  0  0  0  0  0
   -4.6406    1.0154    0.0000 C   0  0  0  0  0  0  0  0  0  0  0  0
   -5.4621    1.0341    0.0000 C   0  0  0  0  0  0  0  0  0  0  0  0
   -5.8890    0.3320    0.0000 C   0  0  0  0  0  0  0  0  0  0  0  0
   -5.4945   -0.3887    0.0000 C   0  0  0  0  0  0  0  0  0  0  0  0
   -4.6730   -0.4074    0.0000 C   0  0  0  0  0  0  0  0  0  0  0  0
   -2.6772   -1.1403    0.0000 O   0  0  0  0  0  0  0  0  0  0  0  0
   -1.9564   -0.7458    0.0000 C   0  0  0  0  0  0  0  0  0  0  0  0
   -1.2614   -1.1904    0.0000 C   0  0  0  0  0  0  0  0  0  0  0  0
   -0.5289   -0.8108    0.0000 C   0  0  0  0  0  0  0  0  0  0  0  0
   -0.5289    0.0133    0.0000 C   0  0  0  0  0  0  0  0  0  0  0  0
   -1.2614    0.4579    0.0000 C   0  0  0  0  0  0  0  0  0  0  0  0
   -1.9564    0.0784    0.0000 C   0  0  0  0  0  0  0  0  0  0  0  0
   -1.2426    1.2827    0.0000 F   0  0  0  0  0  0  0  0  0  0  0  0
    0.1900    0.4180    0.0000 C   0  0  0  0  0  0  0  0  0  0  0  0
    0.8999   -0.0023    0.0000 C   0  0  0  0  0  0  0  0  0  0  0  0
    1.6189    0.4023    0.0000 N   0  0  0  0  0  0  0  0  0  0  0  0
    0.8909   -0.8273    0.0000 O   0  0  0  0  0  0  0  0  0  0  0  0
    2.3288   -0.0180    0.0000 C   0  0  0  0  0  0  0  0  0  0  0  0
    3.0477    0.3866    0.0000 C   0  0  0  0  0  0  0  0  0  0  0  0
    3.7576   -0.0337    0.0000 C   0  0  0  0  0  0  0  0  0  0  0  0
    3.7441   -0.8585    0.0000 C   0  0  0  0  0  0  0  0  0  0  0  0
    4.4517   -1.2827    0.0000 C   0  0  0  0  0  0  0  0  0  0  0  0
    5.1729   -0.8585    0.0000 C   0  0  0  0  0  0  0  0  0  0  0  0
    5.1729   -0.0337    0.0000 C   0  0  0  0  0  0  0  0  0  0  0  0
    4.4517    0.3905    0.0000 C   0  0  0  0  0  0  0  0  0  0  0  0
    5.8890   -1.2682    0.0000 F   0  0  0  0  0  0  0  0  0  0  0  0
  1  2  2  0      
  3  4  1  0      
  4  5  1  0      
  5  6  2  0      
  6  7  1  0      
  7  8  2  0      
  8  9  1  0      
  1  9  1  0      
  4  9  2  0      
  2 10  1  0      
 10 11  1  0      
 11 12  2  0      
 12 13  1  0      
 13 14  2  0      
 14 15  1  0      
 15 16  2  0      
 16 11  1  0      
  2  3  1  0      
 15 17  1  0      
 14 18  1  0      
 18 19  1  0      
 19 20  1  0      
 19 21  2  0      
 20 22  1  0      
 22 23  1  0      
 23 24  1  0      
 24 25  2  0      
 25 26  1  0      
 26 27  2  0      
 27 28  1  0      
 28 29  2  0      
 29 24  1  0      
 27 30  1  0      
M  END
