JBB18_0001.mol
  ChemDraw04102410052D

 10  9  0  0  1  0  0  0  0  0999 V2000
    0.9189   -0.5888    0.0000 C   0  0  0  0  0  0  0  0  0  0  0  0
   -0.4082   -0.0591    0.0000 N   0  0  0  0  0  0  0  0  0  0  0  0
    0.4082    0.0591    0.0000 C   0  0  0  0  0  0  0  0  0  0  0  0
    0.7141    0.8254    0.0000 C   0  0  0  0  0  0  0  0  0  0  0  0
    1.5305    0.9436    0.0000 S   0  0  0  0  0  0  0  0  0  0  0  0
    0.6131   -1.3550    0.0000 O   0  0  0  0  0  0  0  0  0  0  0  0
    1.7354   -0.4705    0.0000 N   0  0  0  0  0  0  0  0  0  0  0  0
   -0.9189    0.5888    0.0000 C   0  0  0  0  0  0  0  0  0  0  0  0
   -0.6131    1.3550    0.0000 O   0  0  0  0  0  0  0  0  0  0  0  0
   -1.7354    0.4705    0.0000 C   0  0  0  0  0  0  0  0  0  0  0  0
  2  3  1  0      
  1  3  1  0      
  3  4  1  1      
  4  5  1  0      
  1  6  2  0      
  1  7  1  0      
  8  9  2  0      
  8 10  1  0      
  2  8  1  0      
M  END
