JBB14_0004.mol
  ChemDraw04092416002D

 33 33  0  0  1  0  0  0  0  0999 V2000
    1.8786   -1.0012    0.0000 C   0  0  0  0  0  0  0  0  0  0  0  0
    1.8786   -0.1762    0.0000 C   0  0  0  0  0  0  0  0  0  0  0  0
    2.5930    0.2363    0.0000 N   0  0  0  0  0  0  0  0  0  0  0  0
    1.1641    0.2363    0.0000 O   0  0  0  0  0  0  0  0  0  0  0  0
    2.5848    1.0613    0.0000 C   0  0  0  0  0  0  0  0  0  0  0  0
    3.2951    1.4809    0.0000 C   0  0  0  0  0  0  0  0  0  0  0  0
    1.8662    1.4666    0.0000 C   0  0  0  0  0  0  0  0  0  0  0  0
    3.2951    2.3304    0.0000 C   0  0  0  0  0  0  0  0  0  0  0  0
    4.1031    2.4972    0.0000 O   0  0  0  0  0  0  0  0  0  0  0  0
    2.7467    2.9467    0.0000 O   0  0  0  0  0  0  0  0  0  0  0  0
    4.3626    3.2803    0.0000 C   0  0  0  0  0  0  0  0  0  0  0  0
    1.1559    1.0470    0.0000 O   0  0  0  0  0  0  0  0  0  0  0  0
    1.8580    2.2916    0.0000 C   0  0  0  0  0  0  0  0  0  0  0  0
    1.1435    2.7041    0.0000 F   0  0  0  0  0  0  0  0  0  0  0  0
   -3.7538    1.4944    0.0000 C   0  0  0  0  0  0  0  0  0  0  0  0
   -4.3626    0.9377    0.0000 C   0  0  0  0  0  0  0  0  0  0  0  0
   -4.1849    0.1320    0.0000 C   0  0  0  0  0  0  0  0  0  0  0  0
   -3.3983   -0.1168    0.0000 C   0  0  0  0  0  0  0  0  0  0  0  0
   -2.7895    0.4399    0.0000 C   0  0  0  0  0  0  0  0  0  0  0  0
   -2.9672    1.2456    0.0000 C   0  0  0  0  0  0  0  0  0  0  0  0
   -2.0029    0.1911    0.0000 C   0  0  0  0  0  0  0  0  0  0  0  0
   -1.8252   -0.6146    0.0000 C   0  0  0  0  0  0  0  0  0  0  0  0
   -1.0386   -0.8634    0.0000 C   0  0  0  0  0  0  0  0  0  0  0  0
   -0.8608   -1.6691    0.0000 N   0  0  0  0  0  0  0  0  0  0  0  0
   -0.4298   -0.3067    0.0000 O   0  0  0  0  0  0  0  0  0  0  0  0
   -0.0743   -1.9179    0.0000 C   0  0  0  0  0  0  0  0  0  0  0  0
    0.1035   -2.7236    0.0000 C   0  0  0  0  0  0  0  0  0  0  0  0
   -0.5053   -3.2803    0.0000 C   0  0  0  0  0  0  0  0  0  0  0  0
    0.8901   -2.9724    0.0000 C   0  0  0  0  0  0  0  0  0  0  0  0
    0.5345   -1.3612    0.0000 C   0  0  0  0  0  0  0  0  0  0  0  0
    1.3211   -1.6100    0.0000 N   0  0  0  0  0  0  0  0  0  0  0  0
    0.3568   -0.5556    0.0000 O   0  0  0  0  0  0  0  0  0  0  0  0
    2.6475   -1.3001    0.0000 C   0  0  0  0  0  0  0  0  0  0  0  0
  1  2  1  0      
  2  3  1  0      
  2  4  2  0      
  3  5  1  0      
  5  6  1  6      
  5  7  1  0      
  8  9  1  0      
  8 10  2  0      
  9 11  1  0      
  7 12  2  0      
  7 13  1  0      
 13 14  1  0      
  6  8  1  0      
 15 16  2  0      
 16 17  1  0      
 17 18  2  0      
 18 19  1  0      
 19 20  2  0      
 20 15  1  0      
 19 21  1  0      
 21 22  1  0      
 22 23  1  0      
 23 24  1  0      
 23 25  2  0      
 26 24  1  1      
 26 27  1  0      
 27 28  1  0      
 27 29  1  0      
 26 30  1  0      
 30 31  1  0      
 30 32  2  0      
 31  1  1  0      
  1 33  1  6      
M  END
