JBB20_0015.mol
  ChemDraw04102411322D

 23 25  0  0  0  0  0  0  0  0999 V2000
    0.4674    0.2054    0.0000 C   0  0  0  0  0  0  0  0  0  0  0  0
   -0.2441   -0.2054    0.0000 C   0  0  0  0  0  0  0  0  0  0  0  0
    0.4674    1.0270    0.0000 O   0  0  0  0  0  0  0  0  0  0  0  0
    1.1790   -0.2054    0.0000 N   0  0  0  0  0  0  0  0  0  0  0  0
    1.8905    0.2054    0.0000 C   0  0  0  0  0  0  0  0  0  0  0  0
   -0.9557    0.2054    0.0000 S   0  0  0  0  0  0  0  0  0  0  0  0
   -2.5568   -1.1933    0.0000 N   0  0  0  0  0  0  0  0  0  0  0  0
   -1.7531   -1.0225    0.0000 C   0  0  0  0  0  0  0  0  0  0  0  0
   -1.6672   -0.2054    0.0000 C   0  0  0  0  0  0  0  0  0  0  0  0
   -2.4178    0.1288    0.0000 C   0  0  0  0  0  0  0  0  0  0  0  0
   -2.6717    0.9102    0.0000 C   0  0  0  0  0  0  0  0  0  0  0  0
   -3.4754    1.0810    0.0000 C   0  0  0  0  0  0  0  0  0  0  0  0
   -4.0251    0.4704    0.0000 C   0  0  0  0  0  0  0  0  0  0  0  0
   -3.7712   -0.3110    0.0000 C   0  0  0  0  0  0  0  0  0  0  0  0
   -2.9676   -0.4818    0.0000 C   0  0  0  0  0  0  0  0  0  0  0  0
    2.6020   -0.2054    0.0000 C   0  0  0  0  0  0  0  0  0  0  0  0
    3.3136    0.2054    0.0000 C   0  0  0  0  0  0  0  0  0  0  0  0
    4.0251   -0.2054    0.0000 C   0  0  0  0  0  0  0  0  0  0  0  0
    4.0251   -1.0270    0.0000 C   0  0  0  0  0  0  0  0  0  0  0  0
    3.3136   -1.4378    0.0000 C   0  0  0  0  0  0  0  0  0  0  0  0
    2.6020   -1.0270    0.0000 C   0  0  0  0  0  0  0  0  0  0  0  0
    3.3136    1.0270    0.0000 O   0  0  0  0  0  0  0  0  0  0  0  0
    4.0251    1.4378    0.0000 C   0  0  0  0  0  0  0  0  0  0  0  0
  1  2  1  0      
  1  3  2  0      
  1  4  1  0      
  4  5  1  0      
  7  8  1  0      
  8  9  2  0      
  9 10  1  0      
 10 11  1  0      
 11 12  2  0      
 12 13  1  0      
 13 14  2  0      
 14 15  1  0      
  7 15  1  0      
 10 15  2  0      
  6  9  1  0      
  2  6  1  0      
 16 17  1  0      
 17 18  2  0      
 18 19  1  0      
 19 20  2  0      
 20 21  1  0      
 16 21  2  0      
 17 22  1  0      
 22 23  1  0      
 16  5  1  0      
M  END
