JBB20_0034.mol
  ChemDraw04102412302D

 36 38  0  0  0  0  0  0  0  0999 V2000
   -3.9281   -1.2333    0.0000 N   0  0  0  0  0  0  0  0  0  0  0  0
   -3.2166   -0.8225    0.0000 C   0  0  0  0  0  0  0  0  0  0  0  0
   -2.5050   -1.2333    0.0000 O   0  0  0  0  0  0  0  0  0  0  0  0
   -3.2166   -0.0008    0.0000 N   0  0  0  0  0  0  0  0  0  0  0  0
   -3.9281    0.4100    0.0000 C   0  0  0  0  0  0  0  0  0  0  0  0
   -3.9281    1.2316    0.0000 O   0  0  0  0  0  0  0  0  0  0  0  0
   -4.6397   -0.0008    0.0000 C   0  0  0  0  0  0  0  0  0  0  0  0
   -4.6397   -0.8225    0.0000 C   0  0  0  0  0  0  0  0  0  0  0  0
   -2.5021    0.4117    0.0000 C   0  0  0  0  0  0  0  0  0  0  0  0
   -1.7876   -0.0008    0.0000 C   0  0  0  0  0  0  0  0  0  0  0  0
   -1.0732    0.4117    0.0000 C   0  0  0  0  0  0  0  0  0  0  0  0
   -0.3587   -0.0008    0.0000 C   0  0  0  0  0  0  0  0  0  0  0  0
    0.3558    0.4117    0.0000 C   0  0  0  0  0  0  0  0  0  0  0  0
    1.0702   -0.0008    0.0000 O   0  0  0  0  0  0  0  0  0  0  0  0
   -3.9281   -2.0583    0.0000 C   0  0  0  0  0  0  0  0  0  0  0  0
    1.7847    0.4117    0.0000 C   0  0  0  0  0  0  0  0  0  0  0  0
    2.4992   -0.0008    0.0000 C   0  0  0  0  0  0  0  0  0  0  0  0
    3.2137    0.4117    0.0000 C   0  0  0  0  0  0  0  0  0  0  0  0
    3.2137    1.2367    0.0000 C   0  0  0  0  0  0  0  0  0  0  0  0
    2.4992    1.6492    0.0000 C   0  0  0  0  0  0  0  0  0  0  0  0
    1.7847    1.2367    0.0000 C   0  0  0  0  0  0  0  0  0  0  0  0
   -3.2137   -2.4708    0.0000 C   0  0  0  0  0  0  0  0  0  0  0  0
   -2.4992   -2.0583    0.0000 C   0  0  0  0  0  0  0  0  0  0  0  0
   -1.7847   -2.4708    0.0000 C   0  0  0  0  0  0  0  0  0  0  0  0
   -1.0702   -2.0583    0.0000 C   0  0  0  0  0  0  0  0  0  0  0  0
   -0.3558   -2.4708    0.0000 O   0  0  0  0  0  0  0  0  0  0  0  0
    0.3587   -2.0583    0.0000 C   0  0  0  0  0  0  0  0  0  0  0  0
    1.0732   -2.4708    0.0000 C   0  0  0  0  0  0  0  0  0  0  0  0
    1.7876   -2.0583    0.0000 C   0  0  0  0  0  0  0  0  0  0  0  0
    1.7876   -1.2333    0.0000 C   0  0  0  0  0  0  0  0  0  0  0  0
    1.0732   -0.8208    0.0000 C   0  0  0  0  0  0  0  0  0  0  0  0
    0.3587   -1.2333    0.0000 C   0  0  0  0  0  0  0  0  0  0  0  0
    2.5021   -0.8208    0.0000 Br  0  0  0  0  0  0  0  0  0  0  0  0
    3.9281    1.6492    0.0000 C   0  0  0  0  0  0  0  0  0  0  0  0
    3.9281    2.4708    0.0000 O   0  0  0  0  0  0  0  0  0  0  0  0
    4.6397    1.2383    0.0000 O   0  0  0  0  0  0  0  0  0  0  0  0
 34 35  2  0      
 34 36  1  0      
 19 34  1  0      
  1  2  1  0      
  2  3  2  0      
  2  4  1  0      
  4  5  1  0      
  5  6  2  0      
  5  7  1  0      
  7  8  2  0      
  1  8  1  0      
  4  9  1  0      
  9 10  1  0      
 10 11  1  0      
 11 12  1  0      
 12 13  1  0      
 13 14  1  0      
  1 15  1  0      
 14 16  1  0      
 16 17  2  0      
 17 18  1  0      
 18 19  2  0      
 19 20  1  0      
 20 21  2  0      
 21 16  1  0      
 15 22  1  0      
 22 23  1  0      
 23 24  1  0      
 24 25  1  0      
 25 26  1  0      
 26 27  1  0      
 27 28  2  0      
 28 29  1  0      
 29 30  2  0      
 30 31  1  0      
 31 32  2  0      
 32 27  1  0      
 30 33  1  0      
M  STY  1   1 SUP
M  SLB  1   1   1
M  SAL   1  3  34  35  36
M  SBL   1  1   3
M  SMT   1 COOH
M  SBV   1   3   -0.7145   -0.4125
M  END
