JBB2_0001.mol
  ChemDraw03062411072D

 26 25  0  0  0  0  0  0  0  0999 V2000
   -6.0485    0.4108    0.0000 C   0  0  0  0  0  0  0  0  0  0  0  0
   -6.0485   -0.4108    0.0000 C   0  0  0  0  0  0  0  0  0  0  0  0
   -5.3369   -0.8217    0.0000 C   0  0  0  0  0  0  0  0  0  0  0  0
   -4.6253   -0.4108    0.0000 C   0  0  0  0  0  0  0  0  0  0  0  0
   -4.6253    0.4108    0.0000 C   0  0  0  0  0  0  0  0  0  0  0  0
   -5.3369    0.8217    0.0000 C   0  0  0  0  0  0  0  0  0  0  0  0
   -6.7601   -0.8217    0.0000 Br  0  0  0  0  0  0  0  0  0  0  0  0
   -3.9137    0.8217    0.0000 O   0  0  0  0  0  0  0  0  0  0  0  0
   -3.2021    0.4108    0.0000 C   0  0  0  0  0  0  0  0  0  0  0  0
   -2.4906    0.8217    0.0000 C   0  0  0  0  0  0  0  0  0  0  0  0
   -1.7790    0.4108    0.0000 N   0  3  0  0  0  0  0  0  0  0  0  0
   -1.0674    0.8217    0.0000 C   0  0  0  0  0  0  0  0  0  0  0  0
   -1.7790   -0.4108    0.0000 C   0  0  0  0  0  0  0  0  0  0  0  0
   -1.0674   -0.0000    0.0000 C   0  0  0  0  0  0  0  0  0  0  0  0
   -0.3558    0.4108    0.0000 C   0  0  0  0  0  0  0  0  0  0  0  0
    0.3558    0.8217    0.0000 C   0  0  0  0  0  0  0  0  0  0  0  0
    1.0674    0.4108    0.0000 C   0  0  0  0  0  0  0  0  0  0  0  0
    1.7790    0.8217    0.0000 C   0  0  0  0  0  0  0  0  0  0  0  0
    2.4906    0.4108    0.0000 C   0  0  0  0  0  0  0  0  0  0  0  0
    3.2021    0.8217    0.0000 C   0  0  0  0  0  0  0  0  0  0  0  0
    3.9137    0.4108    0.0000 C   0  0  0  0  0  0  0  0  0  0  0  0
    4.6253    0.8217    0.0000 C   0  0  0  0  0  0  0  0  0  0  0  0
    5.3369    0.4108    0.0000 C   0  0  0  0  0  0  0  0  0  0  0  0
    6.0485    0.8217    0.0000 C   0  0  0  0  0  0  0  0  0  0  0  0
    6.7601    0.4108    0.0000 C   0  0  0  0  0  0  0  0  0  0  0  0
   -2.4906   -0.0000    0.0000 Br  0  5  0  0  0  0  0  0  0  0  0  0
  1  2  2  0      
  2  3  1  0      
  3  4  2  0      
  4  5  1  0      
  5  6  2  0      
  6  1  1  0      
  2  7  1  0      
  5  8  1  0      
  8  9  1  0      
  9 10  1  0      
 10 11  1  0      
 11 12  1  0      
 11 13  1  0      
 11 14  1  0      
 12 15  1  0      
 15 16  1  0      
 16 17  1  0      
 17 18  1  0      
 18 19  1  0      
 19 20  1  0      
 20 21  1  0      
 21 22  1  0      
 22 23  1  0      
 23 24  1  0      
 24 25  1  0      
M  CHG  2  11   1  26  -1
M  END
