JBB39_0015.mol
  ChemDraw04112415302D

 19 20  0  0  0  0  0  0  0  0999 V2000
   -0.4426   -0.6644    0.0000 Se  0  0  0  0  0  0  0  0  0  0  0  0
    0.1117    0.0899    0.0000 N   0  0  0  0  0  0  0  0  0  0  0  0
   -0.3732    0.7574    0.0000 C   0  0  0  0  0  0  0  0  0  0  0  0
   -1.1578    0.5024    0.0000 C   0  0  0  0  0  0  0  0  0  0  0  0
   -1.8723    0.9149    0.0000 C   0  0  0  0  0  0  0  0  0  0  0  0
   -2.5867    0.5024    0.0000 C   0  0  0  0  0  0  0  0  0  0  0  0
   -2.5867   -0.3226    0.0000 C   0  0  0  0  0  0  0  0  0  0  0  0
   -1.8723   -0.7351    0.0000 C   0  0  0  0  0  0  0  0  0  0  0  0
   -1.1578   -0.3226    0.0000 C   0  0  0  0  0  0  0  0  0  0  0  0
   -0.1182    1.5420    0.0000 O   0  0  0  0  0  0  0  0  0  0  0  0
    0.9367    0.0899    0.0000 C   0  0  0  0  0  0  0  0  0  0  0  0
    1.3492    0.8044    0.0000 C   0  0  0  0  0  0  0  0  0  0  0  0
    2.1742    0.8044    0.0000 C   0  0  0  0  0  0  0  0  0  0  0  0
    2.5867    0.0899    0.0000 C   0  0  0  0  0  0  0  0  0  0  0  0
    2.1742   -0.6245    0.0000 C   0  0  0  0  0  0  0  0  0  0  0  0
    1.3492   -0.6245    0.0000 C   0  0  0  0  0  0  0  0  0  0  0  0
    0.9367    1.5189    0.0000 O   0  0  0  0  0  0  0  0  0  0  0  0
    0.4379   -0.6282    0.0000 C   0  0  0  0  0  0  0  0  0  0  0  0
   -0.4885   -1.5420    0.0000 C   0  0  0  0  0  0  0  0  0  0  0  0
  2  3  1  0      
  3  4  1  0      
  4  5  1  0      
  5  6  2  0      
  6  7  1  0      
  7  8  2  0      
  8  9  1  0      
  1  9  1  0      
  4  9  2  0      
  3 10  2  0      
 11 12  1  0      
 12 13  2  0      
 13 14  1  0      
 14 15  2  0      
 15 16  1  0      
 11 16  2  0      
  2 11  1  0      
 12 17  1  0      
  1 18  1  0      
  1 19  1  0      
M  END
