JBB39_0012.mol
  ChemDraw04112415182D

 33 33  0  0  1  0  0  0  0  0999 V2000
   -5.6689   -1.8410    0.0000 C   0  0  0  0  0  0  0  0  0  0  0  0
   -4.9603   -1.4319    0.0000 C   0  0  0  0  0  0  0  0  0  0  0  0
   -4.2517   -1.8410    0.0000 N   0  0  0  0  0  0  0  0  0  0  0  0
   -4.9603   -0.6137    0.0000 O   0  0  0  0  0  0  0  0  0  0  0  0
   -3.5431   -1.4319    0.0000 C   0  0  0  0  0  0  0  0  0  0  0  0
   -2.8345   -1.8410    0.0000 C   0  0  0  0  0  0  0  0  0  0  0  0
   -2.1258   -1.4319    0.0000 N   0  0  0  0  0  0  0  0  0  0  0  0
   -2.8345   -2.6593    0.0000 O   0  0  0  0  0  0  0  0  0  0  0  0
   -1.4172   -1.8410    0.0000 C   0  0  0  0  0  0  0  0  0  0  0  0
   -0.7086   -1.4319    0.0000 C   0  0  0  0  0  0  0  0  0  0  0  0
    0.0000   -1.8410    0.0000 N   0  0  0  0  0  0  0  0  0  0  0  0
   -3.5431   -0.6137    0.0000 C   0  0  0  0  0  0  0  0  0  0  0  0
   -2.8345   -0.2046    0.0000 C   0  0  0  0  0  0  0  0  0  0  0  0
   -0.7086   -0.6137    0.0000 O   0  0  0  0  0  0  0  0  0  0  0  0
    0.7086   -1.4319    0.0000 C   0  0  0  0  0  0  0  0  0  0  0  0
    1.4172   -1.8410    0.0000 C   0  0  0  0  0  0  0  0  0  0  0  0
    2.1258   -1.4319    0.0000 N   0  0  0  0  0  0  0  0  0  0  0  0
    1.4172   -2.6593    0.0000 O   0  0  0  0  0  0  0  0  0  0  0  0
    2.8345   -1.8410    0.0000 C   0  0  0  0  0  0  0  0  0  0  0  0
    3.5431   -1.4319    0.0000 C   0  0  0  0  0  0  0  0  0  0  0  0
    4.2517   -1.8410    0.0000 C   0  0  0  0  0  0  0  0  0  0  0  0
    4.9603   -1.4319    0.0000 C   0  0  0  0  0  0  0  0  0  0  0  0
    5.6689   -1.8410    0.0000 O   0  0  0  0  0  0  0  0  0  0  0  0
    4.9603   -0.6137    0.0000 O   0  0  0  0  0  0  0  0  0  0  0  0
   -1.4172   -2.6593    0.0000 C   0  0  0  0  0  0  0  0  0  0  0  0
   -0.7086   -3.0684    0.0000 N   0  0  0  0  0  0  0  0  0  0  0  0
   -2.8334    2.2502    0.0000 C   0  0  0  0  0  0  0  0  0  0  0  0
   -2.1250    1.8406    0.0000 C   0  0  0  0  0  0  0  0  0  0  0  0
   -2.1258    1.0228    0.0000 C   0  0  0  0  0  0  0  0  0  0  0  0
   -2.8345    0.6137    0.0000 C   0  0  0  0  0  0  0  0  0  0  0  0
   -3.5428    1.0233    0.0000 C   0  0  0  0  0  0  0  0  0  0  0  0
   -3.5423    1.8415    0.0000 C   0  0  0  0  0  0  0  0  0  0  0  0
   -2.8334    3.0684    0.0000 O   0  0  0  0  0  0  0  0  0  0  0  0
  1  2  1  0      
  2  3  1  0      
  2  4  2  0      
  3  5  1  0      
  5  6  1  0      
  6  7  1  0      
  6  8  2  0      
  7  9  1  0      
  9 10  1  0      
 10 11  1  0      
  5 12  1  1      
 12 13  1  0      
 10 14  2  0      
 11 15  1  0      
 15 16  1  0      
 16 17  1  0      
 16 18  2  0      
 17 19  1  0      
 19 20  1  0      
 20 21  2  0      
 21 22  1  0      
 22 23  1  0      
 22 24  2  0      
  9 25  1  6      
 25 26  1  0      
 27 28  1  0      
 28 29  2  0      
 29 30  1  0      
 30 31  2  0      
 31 32  1  0      
 27 32  2  0      
 27 33  1  0      
 13 30  1  0      
M  END
