JBB39_0017.mol
  ChemDraw04112415352D

 23 25  0  0  1  0  0  0  0  0999 V2000
    0.3558    0.2071    0.0000 N   0  0  0  0  0  0  0  0  0  0  0  0
   -0.3558    0.6179    0.0000 C   0  0  0  0  0  0  0  0  0  0  0  0
   -1.0673    0.2071    0.0000 C   0  0  0  0  0  0  0  0  0  0  0  0
   -1.7789    0.6179    0.0000 C   0  0  0  0  0  0  0  0  0  0  0  0
   -2.4904    0.2071    0.0000 C   0  0  0  0  0  0  0  0  0  0  0  0
   -2.4904   -0.6145    0.0000 C   0  0  0  0  0  0  0  0  0  0  0  0
   -1.7789   -1.0253    0.0000 C   0  0  0  0  0  0  0  0  0  0  0  0
   -1.0673   -0.6145    0.0000 C   0  0  0  0  0  0  0  0  0  0  0  0
    1.0673    0.6179    0.0000 C   0  0  0  0  0  0  0  0  0  0  0  0
   -1.7789    1.4395    0.0000 C   0  0  0  0  0  0  0  0  0  0  0  0
   -2.4904    1.8503    0.0000 C   0  0  0  0  0  0  0  0  0  0  0  0
   -3.2019    1.4395    0.0000 C   0  0  0  0  0  0  0  0  0  0  0  0
   -3.2019    0.6179    0.0000 C   0  0  0  0  0  0  0  0  0  0  0  0
   -0.3558    1.4395    0.0000 C   0  0  0  0  0  0  0  0  0  0  0  0
    1.0673    1.4395    0.0000 O   0  0  0  0  0  0  0  0  0  0  0  0
    1.7789    0.2071    0.0000 C   0  0  0  0  0  0  0  0  0  0  0  0
    2.4904    0.6179    0.0000 C   0  0  0  0  0  0  0  0  0  0  0  0
    3.2019    0.2071    0.0000 C   0  0  0  0  0  0  0  0  0  0  0  0
    3.2019   -0.6145    0.0000 C   0  0  0  0  0  0  0  0  0  0  0  0
    2.4904   -1.0253    0.0000 C   0  0  0  0  0  0  0  0  0  0  0  0
    1.7789   -0.6145    0.0000 C   0  0  0  0  0  0  0  0  0  0  0  0
    2.4904    1.4395    0.0000 C   0  0  0  0  0  0  0  0  0  0  0  0
    2.4904   -1.8503    0.0000 N   0  0  0  0  0  0  0  0  0  0  0  0
  1  2  1  0      
  2  3  1  0      
  3  4  1  0      
  4  5  2  0      
  5  6  1  0      
  6  7  2  0      
  7  8  1  0      
  3  8  2  0      
  1  9  1  0      
  4 10  1  0      
 10 11  2  0      
 11 12  1  0      
 12 13  2  0      
 13  5  1  0      
  2 14  1  1      
  9 15  2  0      
 16 17  1  0      
 17 18  2  0      
 18 19  1  0      
 19 20  2  0      
 20 21  1  0      
 16 21  2  0      
 17 22  1  0      
  9 16  1  0      
 20 23  1  0      
M  END
