JBB38_0011
  MOE2015           3D

 91 93  0  0  1  0  0  0  0  0999 V2000
   -4.2083   -1.1562    0.0416 O   0  0  0  0  0  0  0  0  0  0  0  0
   -3.0513   -1.5615   -0.4810 C   0  0  0  0  0  0  0  0  0  0  0  0
   -2.4006   -2.4409    0.3007 N   0  0  0  0  0  0  0  0  0  0  0  0
   -2.7685   -2.5705    1.2502 H   0  0  0  0  0  0  0  0  0  0  0  0
   -2.6064   -1.1734   -1.5546 O   0  0  0  0  0  0  0  0  0  0  0  0
   -0.9905   -2.7866    0.0277 C   0  0  1  0  0  0  0  0  0  0  0  0
   -0.8434   -2.9209   -1.0367 H   0  0  0  0  0  0  0  0  0  0  0  0
   -0.1229   -1.6052    0.5121 C   0  0  0  0  0  0  0  0  0  0  0  0
   -0.6231   -4.1045    0.7752 C   0  0  3  0  0  0  0  0  0  0  0  0
   -0.7254   -3.9542    1.8501 H   0  0  0  0  0  0  0  0  0  0  0  0
    0.8538   -4.4338    0.3669 C   0  0  0  0  0  0  0  0  0  0  0  0
    1.4694   -3.5937    0.6535 H   0  0  0  0  0  0  0  0  0  0  0  0
    0.9209   -4.5379   -0.7083 H   0  0  0  0  0  0  0  0  0  0  0  0
   -4.9792   -0.1230   -0.6201 C   0  0  0  0  0  0  0  0  0  0  0  0
   -4.9620   -0.2750   -1.6922 H   0  0  0  0  0  0  0  0  0  0  0  0
   -5.9834   -0.1203   -0.2182 H   0  0  0  0  0  0  0  0  0  0  0  0
   -4.3168    1.1991   -0.2676 C   0  0  0  0  0  0  0  0  0  0  0  0
   -4.0360    2.1278   -1.2704 C   0  0  0  0  0  0  0  0  0  0  0  0
   -4.2643    1.9054   -2.2817 H   0  0  0  0  0  0  0  0  0  0  0  0
   -3.4580    3.3535   -0.9529 C   0  0  0  0  0  0  0  0  0  0  0  0
   -3.2510    4.0565   -1.7191 H   0  0  0  0  0  0  0  0  0  0  0  0
   -3.1523    3.6573    0.3694 C   0  0  0  0  0  0  0  0  0  0  0  0
   -2.7122    4.5909    0.6114 H   0  0  0  0  0  0  0  0  0  0  0  0
   -3.4226    2.7339    1.3737 C   0  0  0  0  0  0  0  0  0  0  0  0
   -3.1872    2.9630    2.3817 H   0  0  0  0  0  0  0  0  0  0  0  0
   -4.0055    1.5107    1.0567 C   0  0  0  0  0  0  0  0  0  0  0  0
   -4.2130    0.8141    1.8290 H   0  0  0  0  0  0  0  0  0  0  0  0
   -1.5807   -5.2365    0.3228 C   0  0  0  0  0  0  0  0  0  0  0  0
   -1.3819   -5.5143   -0.7130 H   0  0  0  0  0  0  0  0  0  0  0  0
   -2.6248   -4.9410    0.4159 H   0  0  0  0  0  0  0  0  0  0  0  0
   -1.4527   -6.1025    0.9680 H   0  0  0  0  0  0  0  0  0  0  0  0
   -0.0462   -0.5526   -0.3058 N   0  0  0  0  0  0  0  0  0  0  0  0
   -0.6714   -0.5390   -1.1048 H   0  0  0  0  0  0  0  0  0  0  0  0
    0.3889   -1.5484    1.6258 O   0  0  0  0  0  0  0  0  0  0  0  0
    2.1811    0.6051   -0.1227 C   0  0  0  0  0  0  0  0  0  0  0  0
    2.6546   -0.2890   -1.0014 N   0  0  0  0  0  0  0  0  0  0  0  0
    1.9601   -0.8858   -1.4184 H   0  0  0  0  0  0  0  0  0  0  0  0
    2.9398    1.3002    0.5458 O   0  0  0  0  0  0  0  0  0  0  0  0
    4.0794   -0.5894   -1.2553 C   0  0  1  0  0  0  0  0  0  0  0  0
    4.1594   -1.2285   -2.1254 H   0  0  0  0  0  0  0  0  0  0  0  0
    4.8850    0.6836   -1.5241 C   0  0  0  0  0  0  0  0  0  0  0  0
    4.9253    1.4469   -0.7896 H   0  0  0  0  0  0  0  0  0  0  0  0
    4.6134   -1.3405   -0.0117 C   0  0  0  0  0  0  0  0  0  0  0  0
    4.6347   -0.6953    0.8679 H   0  0  0  0  0  0  0  0  0  0  0  0
    3.9357   -2.1710    0.1964 H   0  0  0  0  0  0  0  0  0  0  0  0
    6.0224   -1.9124   -0.3063 C   0  0  1  0  0  0  0  0  0  0  0  0
    6.0583   -2.3402   -1.3091 H   0  0  0  0  0  0  0  0  0  0  0  0
    7.1798   -0.9007   -0.1351 C   0  0  0  0  0  0  0  0  0  0  0  0
    6.9476   -0.1873    0.6574 H   0  0  0  0  0  0  0  0  0  0  0  0
    7.4224   -0.3844   -1.0646 H   0  0  0  0  0  0  0  0  0  0  0  0
    8.3458   -1.7874    0.3207 C   0  0  0  0  0  0  0  0  0  0  0  0
    9.0189   -1.2354    0.9804 H   0  0  0  0  0  0  0  0  0  0  0  0
    8.8908   -2.1710   -0.5454 H   0  0  0  0  0  0  0  0  0  0  0  0
    7.6880   -2.8731    1.0121 N   0  0  0  0  0  0  0  0  0  0  0  0
    8.1449   -3.5287    1.6252 H   0  0  0  0  0  0  0  0  0  0  0  0
    6.4310   -3.0249    0.6505 C   0  0  0  0  0  0  0  0  0  0  0  0
    5.7131   -3.9400    1.0217 O   0  0  0  0  0  0  0  0  0  0  0  0
    5.5169    0.8047   -2.5408 O   0  0  0  0  0  0  0  0  0  0  0  0
    0.6383    0.6976    0.0557 C   0  0  1  0  0  0  0  0  0  0  0  0
    0.4493    0.9103    1.1092 H   0  0  0  0  0  0  0  0  0  0  0  0
   -0.0323    1.7988   -0.7935 C   0  0  0  0  0  0  0  0  0  0  0  0
    0.1182    1.5752   -1.8503 H   0  0  0  0  0  0  0  0  0  0  0  0
   -1.1044    1.7264   -0.6031 H   0  0  0  0  0  0  0  0  0  0  0  0
    0.3612    3.2705   -0.5400 C   0  0  0  0  0  0  0  0  0  0  0  0
   -0.4574    3.8737   -0.9393 H   0  0  0  0  0  0  0  0  0  0  0  0
    1.6247    3.7018   -1.3224 C   0  0  0  0  0  0  0  0  0  0  0  0
    2.3083    2.8667   -1.4602 H   0  0  0  0  0  0  0  0  0  0  0  0
    1.3120    4.0259   -2.3164 H   0  0  0  0  0  0  0  0  0  0  0  0
    2.4031    4.8482   -0.6515 C   0  0  0  0  0  0  0  0  0  0  0  0
    3.0792    4.4317    0.0987 H   0  0  0  0  0  0  0  0  0  0  0  0
    3.0023    5.3693   -1.3997 H   0  0  0  0  0  0  0  0  0  0  0  0
    1.4448    5.8310    0.0332 C   0  0  0  0  0  0  0  0  0  0  0  0
    0.7544    6.2225   -0.7164 H   0  0  0  0  0  0  0  0  0  0  0  0
    2.0077    6.6685    0.4484 H   0  0  0  0  0  0  0  0  0  0  0  0
    0.6406    5.1455    1.1551 C   0  0  0  0  0  0  0  0  0  0  0  0
   -0.3405    5.6186    1.2155 H   0  0  0  0  0  0  0  0  0  0  0  0
    1.1478    5.3054    2.1081 H   0  0  0  0  0  0  0  0  0  0  0  0
    0.4648    3.6282    0.9540 C   0  0  0  0  0  0  0  0  0  0  0  0
   -0.4271    3.2944    1.4858 H   0  0  0  0  0  0  0  0  0  0  0  0
    1.3287    3.1234    1.3882 H   0  0  0  0  0  0  0  0  0  0  0  0
    1.4587   -5.6723    1.0190 O   0  0  0  0  0  0  0  0  0  0  0  0
    1.0408   -5.8212    2.4205 C   0  0  0  0  0  0  0  0  0  0  0  0
    1.4236   -6.6000    3.0262 H   0  0  0  0  0  0  0  0  0  0  0  0
    1.1597   -6.9152    0.2477 C   0  0  0  0  0  0  0  0  0  0  0  0
    1.2604   -6.7009   -0.8092 H   0  0  0  0  0  0  0  0  0  0  0  0
    0.1844   -7.2960    0.5129 H   0  0  0  0  0  0  0  0  0  0  0  0
    1.9002   -7.6603    0.5142 H   0  0  0  0  0  0  0  0  0  0  0  0
    2.9392   -5.4869    1.0206 C   0  0  0  0  0  0  0  0  0  0  0  0
    3.4041   -6.3500    1.4821 H   0  0  0  0  0  0  0  0  0  0  0  0
    3.1776   -4.6038    1.6036 H   0  0  0  0  0  0  0  0  0  0  0  0
    3.2773   -5.3696   -0.0018 H   0  0  0  0  0  0  0  0  0  0  0  0
  1  2  1  0  0  0  0
  1 14  1  0  0  0  0
  2  3  1  0  0  0  0
  2  5  2  0  0  0  0
  3  4  1  0  0  0  0
  3  6  1  0  0  0  0
  6  7  1  0  0  0  0
  6  8  1  0  0  0  0
  6  9  1  0  0  0  0
  8 32  1  0  0  0  0
  8 34  2  0  0  0  0
  9 10  1  0  0  0  0
  9 11  1  0  0  0  0
  9 28  1  0  0  0  0
 11 12  1  0  0  0  0
 11 13  1  0  0  0  0
 11 81  1  0  0  0  0
 14 15  1  0  0  0  0
 14 16  1  0  0  0  0
 14 17  1  0  0  0  0
 17 18  1  0  0  0  0
 17 26  2  0  0  0  0
 18 19  1  0  0  0  0
 18 20  2  0  0  0  0
 20 21  1  0  0  0  0
 20 22  1  0  0  0  0
 22 23  1  0  0  0  0
 22 24  2  0  0  0  0
 24 25  1  0  0  0  0
 24 26  1  0  0  0  0
 26 27  1  0  0  0  0
 28 29  1  0  0  0  0
 28 30  1  0  0  0  0
 28 31  1  0  0  0  0
 32 33  1  0  0  0  0
 32 59  1  0  0  0  0
 35 36  1  0  0  0  0
 35 38  2  0  0  0  0
 35 59  1  0  0  0  0
 36 37  1  0  0  0  0
 36 39  1  0  0  0  0
 39 40  1  0  0  0  0
 39 41  1  0  0  0  0
 39 43  1  0  0  0  0
 41 42  1  0  0  0  0
 41 58  2  0  0  0  0
 43 44  1  0  0  0  0
 43 45  1  0  0  0  0
 43 46  1  0  0  0  0
 46 47  1  0  0  0  0
 46 48  1  0  0  0  0
 46 56  1  0  0  0  0
 48 49  1  0  0  0  0
 48 50  1  0  0  0  0
 48 51  1  0  0  0  0
 51 52  1  0  0  0  0
 51 53  1  0  0  0  0
 51 54  1  0  0  0  0
 54 55  1  0  0  0  0
 54 56  1  0  0  0  0
 56 57  2  0  0  0  0
 59 60  1  0  0  0  0
 59 61  1  0  0  0  0
 61 62  1  0  0  0  0
 61 63  1  0  0  0  0
 61 64  1  0  0  0  0
 64 65  1  0  0  0  0
 64 66  1  0  0  0  0
 64 78  1  0  0  0  0
 66 67  1  0  0  0  0
 66 68  1  0  0  0  0
 66 69  1  0  0  0  0
 69 70  1  0  0  0  0
 69 71  1  0  0  0  0
 69 72  1  0  0  0  0
 72 73  1  0  0  0  0
 72 74  1  0  0  0  0
 72 75  1  0  0  0  0
 75 76  1  0  0  0  0
 75 77  1  0  0  0  0
 75 78  1  0  0  0  0
 78 79  1  0  0  0  0
 78 80  1  0  0  0  0
 81 82  1  0  0  0  0
 81 84  1  0  0  0  0
 81 88  1  0  0  0  0
 82 83  1  0  0  0  0
 84 85  1  0  0  0  0
 84 86  1  0  0  0  0
 84 87  1  0  0  0  0
 88 89  1  0  0  0  0
 88 90  1  0  0  0  0
 88 91  1  0  0  0  0
M  END
$$$$
