JBB38_0015.mol
  ChemDraw04112411282D

 35 36  0  0  1  0  0  0  0  0999 V2000
   -1.0673    0.2054    0.0000 C   0  0  0  0  0  0  0  0  0  0  0  0
   -0.3558   -0.2054    0.0000 C   0  0  0  0  0  0  0  0  0  0  0  0
    0.3558    0.2054    0.0000 N   0  0  0  0  0  0  0  0  0  0  0  0
   -0.3558   -1.0270    0.0000 O   0  0  0  0  0  0  0  0  0  0  0  0
    1.0673   -0.2054    0.0000 C   0  0  0  0  0  0  0  0  0  0  0  0
    1.0673   -1.0270    0.0000 C   0  0  0  0  0  0  0  0  0  0  0  0
    1.7789    0.2054    0.0000 C   0  0  0  0  0  0  0  0  0  0  0  0
    2.4904   -0.2054    0.0000 C   0  0  0  0  0  0  0  0  0  0  0  0
    1.7789    1.0270    0.0000 O   0  0  0  0  0  0  0  0  0  0  0  0
    3.2019    0.2054    0.0000 N   0  0  0  0  0  0  0  0  0  0  0  0
    3.9135   -0.2054    0.0000 C   0  0  0  0  0  0  0  0  0  0  0  0
   -1.7789   -0.2054    0.0000 N   0  0  0  0  0  0  0  0  0  0  0  0
   -2.4904    0.2054    0.0000 C   0  0  0  0  0  0  0  0  0  0  0  0
    2.4904   -1.0270    0.0000 O   0  0  0  0  0  0  0  0  0  0  0  0
    4.6250    0.2054    0.0000 C   0  0  0  0  0  0  0  0  0  0  0  0
    4.6250    1.0270    0.0000 C   0  0  0  0  0  0  0  0  0  0  0  0
    5.3366    1.4378    0.0000 C   0  0  0  0  0  0  0  0  0  0  0  0
    6.0481    1.0270    0.0000 C   0  0  0  0  0  0  0  0  0  0  0  0
    6.0481    0.2054    0.0000 C   0  0  0  0  0  0  0  0  0  0  0  0
    5.3366   -0.2054    0.0000 N   0  0  0  0  0  0  0  0  0  0  0  0
   -0.3558    1.4378    0.0000 C   0  0  0  0  0  0  0  0  0  0  0  0
   -1.0673    1.0270    0.0000 C   0  0  0  0  0  0  0  0  0  0  0  0
   -3.2019   -0.2054    0.0000 O   0  0  0  0  0  0  0  0  0  0  0  0
   -2.4904    1.0270    0.0000 O   0  0  0  0  0  0  0  0  0  0  0  0
   -3.9135    0.2054    0.0000 C   0  0  0  0  0  0  0  0  0  0  0  0
   -4.6250   -0.2054    0.0000 C   0  0  0  0  0  0  0  0  0  0  0  0
   -5.3366    0.2054    0.0000 C   0  0  0  0  0  0  0  0  0  0  0  0
   -6.0481   -0.2054    0.0000 C   0  0  0  0  0  0  0  0  0  0  0  0
   -6.0481   -1.0270    0.0000 C   0  0  0  0  0  0  0  0  0  0  0  0
   -5.3366   -1.4378    0.0000 C   0  0  0  0  0  0  0  0  0  0  0  0
   -4.6250   -1.0270    0.0000 C   0  0  0  0  0  0  0  0  0  0  0  0
   -0.3558    2.2595    0.0000 C   0  0  0  0  0  0  0  0  0  0  0  0
    0.3558    1.0270    0.0000 C   0  0  0  0  0  0  0  0  0  0  0  0
    1.7789   -1.4378    0.0000 C   0  0  0  0  0  0  0  0  0  0  0  0
    1.7789   -2.2595    0.0000 C   0  0  0  0  0  0  0  0  0  0  0  0
  2  3  1  0      
  2  4  2  0      
  3  5  1  0      
  5  6  1  6      
  7  8  1  0      
  7  9  2  0      
  8 10  1  0      
 10 11  1  0      
 12 13  1  0      
  8 14  2  0      
 11 15  1  0      
 15 16  2  0      
 16 17  1  0      
 17 18  2  0      
 18 19  1  0      
 19 20  2  0      
 20 15  1  0      
 12  1  1  0      
  2  1  1  0      
 21 22  1  0      
 13 23  1  0      
 13 24  2  0      
 23 25  1  0      
 25 26  1  0      
 26 27  2  0      
 27 28  1  0      
 28 29  2  0      
 29 30  1  0      
 30 31  2  0      
 31 26  1  0      
  1 22  1  1      
 21 32  1  0      
 21 33  1  0      
  6 34  1  0      
 34 35  1  0      
  5  7  1  0      
M  END
