JBB47_0004.mol
  ChemDraw06102409192D

 23 26  0  0  0  0  0  0  0  0999 V2000
   -2.3663    1.3359    0.0000 C   0  0  0  0  0  0  0  0  0  0  0  0
   -1.0251    0.5615    0.0000 C   0  0  0  0  0  0  0  0  0  0  0  0
   -1.0251    1.3359    0.0000 C   0  0  0  0  0  0  0  0  0  0  0  0
   -1.6957    1.7230    0.0000 O   0  0  0  0  0  0  0  0  0  0  0  0
   -0.3545    0.1744    0.0000 C   0  0  0  0  0  0  0  0  0  0  0  0
    0.3161    0.5615    0.0000 C   0  0  0  0  0  0  0  0  0  0  0  0
    0.3161    1.3359    0.0000 C   0  0  0  0  0  0  0  0  0  0  0  0
   -0.3545    1.7230    0.0000 C   0  0  0  0  0  0  0  0  0  0  0  0
    0.9866    0.1744    0.0000 C   0  0  0  0  0  0  0  0  0  0  0  0
    1.6572    0.5615    0.0000 N   0  0  0  0  0  0  0  0  0  0  0  0
    1.6572    1.3359    0.0000 C   0  0  0  0  0  0  0  0  0  0  0  0
    0.9866    1.7230    0.0000 C   0  0  0  0  0  0  0  0  0  0  0  0
    1.6826   -0.1651    0.0000 C   0  0  0  0  0  0  0  0  0  0  0  0
    1.5748   -0.9319    0.0000 N   0  0  0  0  0  0  0  0  0  0  0  0
    0.8123   -1.0663    0.0000 C   0  0  0  0  0  0  0  0  0  0  0  0
    0.4488   -0.3827    0.0000 C   0  0  0  0  0  0  0  0  0  0  0  0
    0.4019   -1.7230    0.0000 C   0  0  0  0  0  0  0  0  0  0  0  0
   -0.3719   -1.6960    0.0000 C   0  0  0  0  0  0  0  0  0  0  0  0
   -0.7354   -1.0123    0.0000 C   0  0  0  0  0  0  0  0  0  0  0  0
   -0.3251   -0.3556    0.0000 C   0  0  0  0  0  0  0  0  0  0  0  0
    2.3663    0.1984    0.0000 O   0  0  0  0  0  0  0  0  0  0  0  0
   -1.6957    0.1744    0.0000 F   0  0  0  0  0  0  0  0  0  0  0  0
   -1.5093   -0.9853    0.0000 Cl  0  0  0  0  0  0  0  0  0  0  0  0
  2  3  2  0      
  3  4  1  0      
  4  1  1  0      
  2  5  1  0      
  5  6  2  0      
  6  7  1  0      
  7  8  2  0      
  8  3  1  0      
  6  9  1  0      
  9 10  1  0      
 10 11  1  0      
 12  7  1  0      
  9 13  1  0      
 13 14  1  0      
 14 15  1  0      
 15 16  2  0      
 16  9  1  0      
 15 17  1  0      
 17 18  2  0      
 18 19  1  0      
 19 20  2  0      
 20 16  1  0      
 13 21  2  0      
  2 22  1  0      
 12 11  1  0      
 19 23  1  0      
M  END
