JBB48_0001.mol
  ChemDraw06102409442D

 28 31  0  0  0  0  0  0  0  0999 V2000
   -1.5817    1.1637    0.0000 C   0  0  0  0  0  0  0  0  0  0  0  0
   -2.2962    0.7512    0.0000 C   0  0  0  0  0  0  0  0  0  0  0  0
   -3.0106    1.1637    0.0000 C   0  0  0  0  0  0  0  0  0  0  0  0
   -3.7251    0.7512    0.0000 C   0  0  0  0  0  0  0  0  0  0  0  0
   -3.7251   -0.0738    0.0000 C   0  0  0  0  0  0  0  0  0  0  0  0
   -3.0106   -0.4863    0.0000 C   0  0  0  0  0  0  0  0  0  0  0  0
   -2.2962   -0.0738    0.0000 C   0  0  0  0  0  0  0  0  0  0  0  0
   -1.5817    1.9887    0.0000 O   0  0  0  0  0  0  0  0  0  0  0  0
   -0.8672    0.7512    0.0000 N   0  0  0  0  0  0  0  0  0  0  0  0
    2.0608    2.2437    0.0000 N   0  0  0  0  0  0  0  0  0  0  0  0
    2.5457    1.5762    0.0000 C   0  0  0  0  0  0  0  0  0  0  0  0
    2.0608    0.9088    0.0000 C   0  0  0  0  0  0  0  0  0  0  0  0
    1.2762    1.1637    0.0000 C   0  0  0  0  0  0  0  0  0  0  0  0
    0.5617    0.7512    0.0000 C   0  0  0  0  0  0  0  0  0  0  0  0
   -0.1527    1.1637    0.0000 C   0  0  0  0  0  0  0  0  0  0  0  0
   -0.1527    1.9887    0.0000 C   0  0  0  0  0  0  0  0  0  0  0  0
    0.5617    2.4012    0.0000 C   0  0  0  0  0  0  0  0  0  0  0  0
    1.2762    1.9887    0.0000 C   0  0  0  0  0  0  0  0  0  0  0  0
    2.3158    0.1242    0.0000 N   0  0  0  0  0  0  0  0  0  0  0  0
    3.1227   -0.0474    0.0000 N   0  0  0  0  0  0  0  0  0  0  0  0
    4.4396   -1.7881    0.0000 C   0  0  0  0  0  0  0  0  0  0  0  0
    4.1846   -1.0035    0.0000 C   0  0  0  0  0  0  0  0  0  0  0  0
    3.3777   -0.8320    0.0000 C   0  0  0  0  0  0  0  0  0  0  0  0
    2.8256   -1.4451    0.0000 C   0  0  0  0  0  0  0  0  0  0  0  0
    3.0806   -2.2297    0.0000 C   0  0  0  0  0  0  0  0  0  0  0  0
    3.8875   -2.4012    0.0000 N   0  0  0  0  0  0  0  0  0  0  0  0
    3.3707    1.5762    0.0000 O   0  0  0  0  0  0  0  0  0  0  0  0
   -4.4396   -0.4863    0.0000 Cl  0  0  0  0  0  0  0  0  0  0  0  0
  1  2  1  0      
  2  3  1  0      
  3  4  2  0      
  4  5  1  0      
  5  6  2  0      
  6  7  1  0      
  2  7  2  0      
  1  8  2  0      
  1  9  1  0      
 10 11  1  0      
 11 12  1  0      
 12 13  1  0      
 13 14  1  0      
 14 15  2  0      
 15 16  1  0      
 16 17  2  0      
 17 18  1  0      
 10 18  1  0      
 13 18  2  0      
 19 20  1  0      
 21 22  1  0      
 22 23  2  0      
 23 24  1  0      
 24 25  2  0      
 25 26  1  0      
 21 26  2  0      
 20 23  1  0      
 11 27  2  0      
  9 15  1  0      
  5 28  1  0      
 12 19  2  0      
M  END
