JBB47_0009.mol
  ChemDraw06102409312D

 23 26  0  0  0  0  0  0  0  0999 V2000
   -1.3604    0.5615    0.0000 C   0  0  0  0  0  0  0  0  0  0  0  0
   -1.3604    1.3359    0.0000 C   0  0  0  0  0  0  0  0  0  0  0  0
   -2.0310    1.7230    0.0000 O   0  0  0  0  0  0  0  0  0  0  0  0
   -0.6898    0.1744    0.0000 C   0  0  0  0  0  0  0  0  0  0  0  0
   -0.0192    0.5615    0.0000 C   0  0  0  0  0  0  0  0  0  0  0  0
   -0.0192    1.3359    0.0000 C   0  0  0  0  0  0  0  0  0  0  0  0
   -0.6898    1.7230    0.0000 C   0  0  0  0  0  0  0  0  0  0  0  0
    0.6514    0.1744    0.0000 C   0  0  0  0  0  0  0  0  0  0  0  0
    1.3219    0.5615    0.0000 N   0  0  0  0  0  0  0  0  0  0  0  0
    1.3219    1.3359    0.0000 C   0  0  0  0  0  0  0  0  0  0  0  0
    0.6514    1.7230    0.0000 C   0  0  0  0  0  0  0  0  0  0  0  0
    1.3473   -0.1651    0.0000 C   0  0  0  0  0  0  0  0  0  0  0  0
    1.2396   -0.9319    0.0000 N   0  0  0  0  0  0  0  0  0  0  0  0
    0.4770   -1.0663    0.0000 C   0  0  0  0  0  0  0  0  0  0  0  0
    0.1135   -0.3827    0.0000 C   0  0  0  0  0  0  0  0  0  0  0  0
    0.0666   -1.7230    0.0000 C   0  0  0  0  0  0  0  0  0  0  0  0
   -0.7072   -1.6960    0.0000 C   0  0  0  0  0  0  0  0  0  0  0  0
   -1.0707   -1.0123    0.0000 C   0  0  0  0  0  0  0  0  0  0  0  0
   -0.6604   -0.3556    0.0000 C   0  0  0  0  0  0  0  0  0  0  0  0
    2.0310    0.1984    0.0000 O   0  0  0  0  0  0  0  0  0  0  0  0
   -2.0310    0.1744    0.0000 O   0  0  0  0  0  0  0  0  0  0  0  0
    1.7966   -1.4698    0.0000 C   0  0  0  0  0  0  0  0  0  0  0  0
   -1.8952   -0.9835    0.0000 Cl  0  0  0  0  0  0  0  0  0  0  0  0
  1  2  2  0      
  2  3  1  0      
  1  4  1  0      
  4  5  2  0      
  5  6  1  0      
  6  7  2  0      
  7  2  1  0      
  5  8  1  0      
  8  9  1  0      
  9 10  1  0      
 11  6  1  0      
  8 12  1  0      
 12 13  1  0      
 13 14  1  0      
 14 15  2  0      
 15  8  1  0      
 14 16  1  0      
 16 17  2  0      
 17 18  1  0      
 18 19  2  0      
 19 15  1  0      
 12 20  2  0      
  1 21  1  0      
 11 10  1  0      
 13 22  1  0      
 18 23  1  0      
M  END
