JBB47_0001.mol
  ChemDraw06102408562D

 25 29  0  0  0  0  0  0  0  0999 V2000
   -1.8457    0.9909    0.0000 C   0  0  0  0  0  0  0  0  0  0  0  0
   -1.8457    1.8159    0.0000 C   0  0  0  0  0  0  0  0  0  0  0  0
   -1.1313    0.5784    0.0000 C   0  0  0  0  0  0  0  0  0  0  0  0
   -0.4168    0.9909    0.0000 C   0  0  0  0  0  0  0  0  0  0  0  0
   -0.4168    1.8159    0.0000 C   0  0  0  0  0  0  0  0  0  0  0  0
   -1.1313    2.2284    0.0000 C   0  0  0  0  0  0  0  0  0  0  0  0
    0.2977    0.5784    0.0000 C   0  0  0  0  0  0  0  0  0  0  0  0
    1.0121    0.9909    0.0000 N   0  0  0  0  0  0  0  0  0  0  0  0
    1.0121    1.8159    0.0000 C   0  0  0  0  0  0  0  0  0  0  0  0
    0.2977    2.2284    0.0000 C   0  0  0  0  0  0  0  0  0  0  0  0
   -0.3698    0.0935    0.0000 C   0  0  0  0  0  0  0  0  0  0  0  0
   -0.1148   -0.6911    0.0000 N   0  0  0  0  0  0  0  0  0  0  0  0
    0.7102   -0.6911    0.0000 C   0  0  0  0  0  0  0  0  0  0  0  0
    0.9651    0.0935    0.0000 C   0  0  0  0  0  0  0  0  0  0  0  0
    1.2622   -1.3042    0.0000 C   0  0  0  0  0  0  0  0  0  0  0  0
    2.0692   -1.1327    0.0000 C   0  0  0  0  0  0  0  0  0  0  0  0
    2.3241   -0.3481    0.0000 C   0  0  0  0  0  0  0  0  0  0  0  0
    1.7721    0.2650    0.0000 C   0  0  0  0  0  0  0  0  0  0  0  0
   -1.1544    0.3485    0.0000 O   0  0  0  0  0  0  0  0  0  0  0  0
    3.2747   -0.1460    0.0000 Br  0  0  0  0  0  0  0  0  0  0  0  0
    0.9619   -2.2284    0.0000 Br  0  0  0  0  0  0  0  0  0  0  0  0
   -2.5602    2.2284    0.0000 O   0  0  0  0  0  0  0  0  0  0  0  0
   -3.2747    1.8159    0.0000 C   0  0  0  0  0  0  0  0  0  0  0  0
   -3.2747    0.9909    0.0000 C   0  0  0  0  0  0  0  0  0  0  0  0
   -2.5602    0.5784    0.0000 O   0  0  0  0  0  0  0  0  0  0  0  0
  1  2  2  0      
  1  3  1  0      
  3  4  2  0      
  4  5  1  0      
  5  6  2  0      
  6  2  1  0      
  4  7  1  0      
  7  8  1  0      
  8  9  1  0      
  9 10  1  0      
 10  5  1  0      
  7 11  1  0      
 11 12  1  0      
 12 13  1  0      
 13 14  2  0      
 14  7  1  0      
 13 15  1  0      
 15 16  2  0      
 16 17  1  0      
 17 18  2  0      
 18 14  1  0      
 11 19  2  0      
 17 20  1  0      
 15 21  1  0      
  2 22  1  0      
 22 23  1  0      
 23 24  1  0      
 24 25  1  0      
 25  1  1  0      
M  END
