JBB47_0003.mol
  ChemDraw06102409162D

 24 27  0  0  0  0  0  0  0  0999 V2000
   -2.3663    0.7551    0.0000 C   0  0  0  0  0  0  0  0  0  0  0  0
   -1.0251   -0.0192    0.0000 C   0  0  0  0  0  0  0  0  0  0  0  0
   -1.0251    0.7551    0.0000 C   0  0  0  0  0  0  0  0  0  0  0  0
   -1.6957    1.1423    0.0000 O   0  0  0  0  0  0  0  0  0  0  0  0
   -0.3545   -0.4064    0.0000 C   0  0  0  0  0  0  0  0  0  0  0  0
    0.3161   -0.0192    0.0000 C   0  0  0  0  0  0  0  0  0  0  0  0
    0.3161    0.7551    0.0000 C   0  0  0  0  0  0  0  0  0  0  0  0
   -0.3545    1.1423    0.0000 C   0  0  0  0  0  0  0  0  0  0  0  0
    0.9866   -0.4064    0.0000 C   0  0  0  0  0  0  0  0  0  0  0  0
    1.6572   -0.0192    0.0000 N   0  0  0  0  0  0  0  0  0  0  0  0
    1.6572    0.7551    0.0000 C   0  0  0  0  0  0  0  0  0  0  0  0
    0.9866    1.1423    0.0000 C   0  0  0  0  0  0  0  0  0  0  0  0
    1.6826   -0.7458    0.0000 C   0  0  0  0  0  0  0  0  0  0  0  0
    1.5748   -1.5126    0.0000 N   0  0  0  0  0  0  0  0  0  0  0  0
    0.8123   -1.6471    0.0000 C   0  0  0  0  0  0  0  0  0  0  0  0
    0.4488   -0.9634    0.0000 C   0  0  0  0  0  0  0  0  0  0  0  0
    0.4019   -2.3038    0.0000 C   0  0  0  0  0  0  0  0  0  0  0  0
   -0.3719   -2.2767    0.0000 C   0  0  0  0  0  0  0  0  0  0  0  0
   -0.7354   -1.5930    0.0000 C   0  0  0  0  0  0  0  0  0  0  0  0
   -0.3251   -0.9364    0.0000 C   0  0  0  0  0  0  0  0  0  0  0  0
    2.3663   -0.3823    0.0000 O   0  0  0  0  0  0  0  0  0  0  0  0
   -0.3545    1.9166    0.0000 O   0  0  0  0  0  0  0  0  0  0  0  0
   -1.0251    2.3038    0.0000 C   0  0  0  0  0  0  0  0  0  0  0  0
   -1.5093   -1.5660    0.0000 F   0  0  0  0  0  0  0  0  0  0  0  0
  2  3  2  0      
  3  4  1  0      
  4  1  1  0      
  2  5  1  0      
  5  6  2  0      
  6  7  1  0      
  7  8  2  0      
  8  3  1  0      
  6  9  1  0      
  9 10  1  0      
 10 11  1  0      
 11 12  1  0      
 12  7  1  0      
  9 13  1  0      
 13 14  1  0      
 14 15  1  0      
 15 16  2  0      
 16  9  1  0      
 15 17  1  0      
 17 18  2  0      
 18 19  1  0      
 19 20  2  0      
 20 16  1  0      
 13 21  2  0      
  8 22  1  0      
 22 23  1  0      
 19 24  1  0      
M  END
