JBB5_0005.mol
  ChemDraw03062411382D

 33 36  0  0  1  0  0  0  0  0999 V2000
   -4.1466    2.6280    0.0000 C   0  0  0  0  0  0  0  0  0  0  0  0
   -4.8582    2.2171    0.0000 C   0  0  0  0  0  0  0  0  0  0  0  0
   -4.8582    1.3955    0.0000 C   0  0  0  0  0  0  0  0  0  0  0  0
   -4.1466    0.9846    0.0000 C   0  0  0  0  0  0  0  0  0  0  0  0
   -3.4351    1.3955    0.0000 C   0  0  0  0  0  0  0  0  0  0  0  0
   -3.4351    2.2171    0.0000 C   0  0  0  0  0  0  0  0  0  0  0  0
   -2.7235    0.9846    0.0000 C   0  0  0  0  0  0  0  0  0  0  0  0
    0.8345    1.3955    0.0000 C   0  0  0  0  0  0  0  0  0  0  0  0
    1.5461    0.9846    0.0000 N   0  0  0  0  0  0  0  0  0  0  0  0
    0.8345    2.2171    0.0000 O   0  0  0  0  0  0  0  0  0  0  0  0
    2.2577    1.3955    0.0000 C   0  0  0  0  0  0  0  0  0  0  0  0
    3.0083    1.0613    0.0000 S   0  0  0  0  0  0  0  0  0  0  0  0
    3.5581    1.6719    0.0000 C   0  0  0  0  0  0  0  0  0  0  0  0
    3.1473    2.3835    0.0000 C   0  0  0  0  0  0  0  0  0  0  0  0
    2.3435    2.2126    0.0000 N   0  0  0  0  0  0  0  0  0  0  0  0
    4.3753    1.5860    0.0000 N   0  3  0  0  0  0  0  0  0  0  0  0
    4.8582    2.2507    0.0000 O   0  5  0  0  0  0  0  0  0  0  0  0
    4.7095    0.8354    0.0000 O   0  0  0  0  0  0  0  0  0  0  0  0
   -2.0119    1.3955    0.0000 O   0  0  0  0  0  0  0  0  0  0  0  0
   -1.3003    0.9846    0.0000 C   0  0  0  0  0  0  0  0  0  0  0  0
   -0.5887    1.3955    0.0000 N   0  0  0  0  0  0  0  0  0  0  0  0
   -1.3003    0.1630    0.0000 O   0  0  0  0  0  0  0  0  0  0  0  0
    0.1229    0.9846    0.0000 C   0  0  0  0  0  0  0  0  0  0  0  0
    0.1229    0.1630    0.0000 C   0  0  0  0  0  0  0  0  0  0  0  0
    2.1349   -0.5243    0.0000 N   0  0  0  0  0  0  0  0  0  0  0  0
    1.5851    0.0863    0.0000 C   0  0  0  0  0  0  0  0  0  0  0  0
    0.8345   -0.2479    0.0000 C   0  0  0  0  0  0  0  0  0  0  0  0
    0.9204   -1.0651    0.0000 C   0  0  0  0  0  0  0  0  0  0  0  0
    0.3706   -1.6757    0.0000 C   0  0  0  0  0  0  0  0  0  0  0  0
    0.6245   -2.4571    0.0000 C   0  0  0  0  0  0  0  0  0  0  0  0
    1.4282   -2.6280    0.0000 C   0  0  0  0  0  0  0  0  0  0  0  0
    1.9780   -2.0173    0.0000 C   0  0  0  0  0  0  0  0  0  0  0  0
    1.7241   -1.2359    0.0000 C   0  0  0  0  0  0  0  0  0  0  0  0
  1  2  2  0      
  2  3  1  0      
  3  4  2  0      
  4  5  1  0      
  5  6  2  0      
  6  1  1  0      
  5  7  1  0      
  8  9  1  0      
  8 10  2  0      
  9 11  1  0      
 12 13  1  0      
 13 14  2  0      
 14 15  1  0      
 15 11  2  0      
 11 12  1  0      
 13 16  1  0      
 16 17  1  0      
 16 18  2  0      
  7 19  1  0      
 19 20  1  0      
 20 21  1  0      
 20 22  2  0      
 21 23  1  0      
 23  8  1  0      
 23 24  1  6      
 25 26  1  0      
 26 27  2  0      
 27 28  1  0      
 28 29  1  0      
 29 30  2  0      
 30 31  1  0      
 31 32  2  0      
 32 33  1  0      
 25 33  1  0      
 28 33  2  0      
 24 27  1  0      
M  CHG  2  16   1  17  -1
M  END
