JBB7_0014.mol
  ChemDraw03062415002D

 49 48  0  0  1  0  0  0  0  0999 V2000
    3.5750    1.5336    0.0000 C   0  0  0  0  0  0  0  0  0  0  0  0
    2.8664    1.1244    0.0000 O   0  0  0  0  0  0  0  0  0  0  0  0
    2.1577    1.5336    0.0000 C   0  0  0  0  0  0  0  0  0  0  0  0
    1.4491    1.1244    0.0000 C   0  0  0  0  0  0  0  0  0  0  0  0
    2.1577    2.3519    0.0000 O   0  0  0  0  0  0  0  0  0  0  0  0
    0.7404    1.5336    0.0000 N   0  0  0  0  0  0  0  0  0  0  0  0
    0.0317    1.1244    0.0000 C   0  0  0  0  0  0  0  0  0  0  0  0
    0.0317    0.3061    0.0000 O   0  0  0  0  0  0  0  0  0  0  0  0
    4.2837    1.1244    0.0000 C   0  0  0  0  0  0  0  0  0  0  0  0
   -0.6769    1.5336    0.0000 C   0  0  0  0  0  0  0  0  0  0  0  0
   -1.3856    1.1244    0.0000 N   0  0  0  0  0  0  0  0  0  0  0  0
   -2.0942    1.5336    0.0000 C   0  0  0  0  0  0  0  0  0  0  0  0
   -2.8029    1.1244    0.0000 C   0  0  0  0  0  0  0  0  0  0  0  0
   -2.0942    2.3519    0.0000 O   0  0  0  0  0  0  0  0  0  0  0  0
   -0.6769    2.3519    0.0000 C   0  0  0  0  0  0  0  0  0  0  0  0
    0.0317    2.7610    0.0000 C   0  0  0  0  0  0  0  0  0  0  0  0
   -3.5116    1.5336    0.0000 N   0  0  0  0  0  0  0  0  0  0  0  0
   -4.2139    1.1137    0.0000 C   0  0  0  0  0  0  0  0  0  0  0  0
   -4.9260    1.5169    0.0000 C   0  0  0  0  0  0  0  0  0  0  0  0
   -4.2071    0.2954    0.0000 O   0  0  0  0  0  0  0  0  0  0  0  0
    4.9924    1.5336    0.0000 C   0  0  0  0  0  0  0  0  0  0  0  0
    0.0317    3.5793    0.0000 C   0  0  0  0  0  0  0  0  0  0  0  0
    0.7404    2.3519    0.0000 C   0  0  0  0  0  0  0  0  0  0  0  0
   -2.8029    0.3061    0.0000 C   0  0  0  0  0  0  0  0  0  0  0  0
   -2.0942   -0.1030    0.0000 C   0  0  0  0  0  0  0  0  0  0  0  0
   -2.0942   -0.9213    0.0000 C   0  0  0  0  0  0  0  0  0  0  0  0
   -1.3856   -1.3305    0.0000 C   0  0  0  0  0  0  0  0  0  0  0  0
   -5.6370    1.0984    0.0000 N   0  0  0  0  0  0  0  0  0  0  0  0
   -4.9329    2.3419    0.0000 C   0  0  0  0  0  0  0  0  0  0  0  0
   -4.2219    2.7603    0.0000 C   0  0  0  0  0  0  0  0  0  0  0  0
   -5.6508    2.7484    0.0000 C   0  0  0  0  0  0  0  0  0  0  0  0
   -6.3549    1.5049    0.0000 C   0  0  0  0  0  0  0  0  0  0  0  0
   -7.0659    1.0865    0.0000 C   0  0  0  0  0  0  0  0  0  0  0  0
   -6.3618    2.3299    0.0000 O   0  0  0  0  0  0  0  0  0  0  0  0
    5.7481    1.0308    0.0000 N   0  0  0  0  0  0  0  0  0  0  0  0
    5.9240    0.2317    0.0000 C   0  0  0  0  0  0  0  0  0  0  0  0
    6.7384    0.1520    0.0000 C   0  0  0  0  0  0  0  0  0  0  0  0
    7.0659    0.9019    0.0000 C   0  0  0  0  0  0  0  0  0  0  0  0
    6.4538    1.4450    0.0000 C   0  0  0  0  0  0  0  0  0  0  0  0
    6.5335    2.2594    0.0000 O   0  0  0  0  0  0  0  0  0  0  0  0
    5.3809   -0.3804    0.0000 O   0  0  0  0  0  0  0  0  0  0  0  0
   -1.3856   -2.1487    0.0000 N   0  0  0  0  0  0  0  0  0  0  0  0
   -0.6740   -2.5596    0.0000 C   0  0  0  0  0  0  0  0  0  0  0  0
    0.0376   -2.9704    0.0000 F   0  0  0  0  0  0  0  0  0  0  0  0
    0.0376   -2.1487    0.0000 F   0  0  0  0  0  0  0  0  0  0  0  0
   -0.6740   -3.3812    0.0000 F   0  0  0  0  0  0  0  0  0  0  0  0
   -1.9193   -2.8677    0.0000 C   0  0  0  0  0  0  0  0  0  0  0  0
   -1.5084   -3.5793    0.0000 O   0  0  0  0  0  0  0  0  0  0  0  0
   -2.3301   -2.1561    0.0000 O   0  0  0  0  0  0  0  0  0  0  0  0
 47 48  2  0      
 47 49  2  0      
 43 44  1  0      
 43 45  1  0      
 43 46  1  0      
 42 43  1  0      
 27 42  1  0      
  1  2  1  0      
  2  3  1  0      
  3  4  1  0      
  3  5  2  0      
  4  6  1  0      
  6  7  1  0      
  7  8  2  0      
  7 10  1  0      
 10 11  1  0      
 11 12  1  0      
 12 13  1  0      
 12 14  2  0      
 10 15  1  1      
 15 16  1  0      
  1  9  1  0      
 17 13  1  0      
 17 18  1  0      
 18 19  1  0      
 18 20  2  0      
  9 21  1  0      
 16 22  1  0      
 16 23  1  0      
 13 24  1  6      
 24 25  1  0      
 25 26  1  0      
 26 27  1  0      
 19 28  1  0      
 19 29  1  1      
 29 30  1  0      
 29 31  1  0      
 28 32  1  0      
 32 33  1  0      
 32 34  2  0      
 36 37  1  0      
 37 38  2  0      
 38 39  1  0      
 39 35  1  0      
 36 35  1  0      
 39 40  2  0      
 36 41  2  0      
 35 21  1  0      
M  STY  1   1 SUP
M  SLB  1   1   1
M  SAL   1  8  42  43  44  45  46  47  48  49
M  SBL   1  1   7
M  SMT   1 NHCF3COO
M  SBV   1   7    0.0000    0.8183
M  END
