MCSJ25_0011.mol
  ChemDraw04192412322D

 21 23  0  0  0  0  0  0  0  0999 V2000
   -1.0430    1.2929    0.0000 C   0  0  0  0  0  0  0  0  0  0  0  0
   -1.0430    0.4712    0.0000 C   0  0  0  0  0  0  0  0  0  0  0  0
   -0.3315    0.0604    0.0000 C   0  0  0  0  0  0  0  0  0  0  0  0
    0.3801    0.4712    0.0000 C   0  0  0  0  0  0  0  0  0  0  0  0
    0.3801    1.2929    0.0000 C   0  0  0  0  0  0  0  0  0  0  0  0
   -0.3315    1.7037    0.0000 C   0  0  0  0  0  0  0  0  0  0  0  0
    1.1616    0.2173    0.0000 N   0  0  0  0  0  0  0  0  0  0  0  0
    1.6446    0.8821    0.0000 C   0  0  0  0  0  0  0  0  0  0  0  0
    1.1616    1.5468    0.0000 C   0  0  0  0  0  0  0  0  0  0  0  0
    1.4155   -0.5641    0.0000 C   0  0  0  0  0  0  0  0  0  0  0  0
    0.8345   -1.1452    0.0000 N   0  0  0  0  0  0  0  0  0  0  0  0
    2.4662    0.8821    0.0000 O   0  0  0  0  0  0  0  0  0  0  0  0
    1.4155    2.3283    0.0000 O   0  0  0  0  0  0  0  0  0  0  0  0
    0.0376   -0.9316    0.0000 C   0  0  0  0  0  0  0  0  0  0  0  0
   -0.5458   -1.5150    0.0000 C   0  0  0  0  0  0  0  0  0  0  0  0
   -0.3322   -2.3119    0.0000 O   0  0  0  0  0  0  0  0  0  0  0  0
    0.4646   -2.5254    0.0000 C   0  0  0  0  0  0  0  0  0  0  0  0
    1.0480   -1.9420    0.0000 C   0  0  0  0  0  0  0  0  0  0  0  0
   -1.7546    1.7037    0.0000 N   0  3  0  0  0  0  0  0  0  0  0  0
   -1.7546    2.5254    0.0000 O   0  0  0  0  0  0  0  0  0  0  0  0
   -2.4662    1.2929    0.0000 O   0  5  0  0  0  0  0  0  0  0  0  0
 19 20  2  0      
 19 21  1  0      
  1 19  1  0      
  1  2  2  0      
  2  3  1  0      
  3  4  2  0      
  4  5  1  0      
  5  6  2  0      
  6  1  1  0      
  4  7  1  0      
  7  8  1  0      
  8  9  1  0      
  9  5  1  0      
  7 10  1  0      
 10 11  1  0      
  8 12  2  0      
  9 13  2  0      
 11 14  1  0      
 14 15  1  0      
 15 16  1  0      
 16 17  1  0      
 17 18  1  0      
 18 11  1  0      
M  CHG  2  19   1  21  -1
M  STY  1   1 SUP
M  SLB  1   1   1
M  SAL   1  3  19  20  21
M  SBL   1  1   3
M  SMT   1 ^NO2
M  SBV   1   3    0.7116   -0.4108
M  END
