MCSJ25_0083.mol
  ChemDraw04192415122D

 39 44  0  0  1  0  0  0  0  0999 V2000
   -0.4560   -0.0529    0.0000 C   0  0  0  0  0  0  0  0  0  0  0  0
   -0.4560   -0.8779    0.0000 C   0  0  0  0  0  0  0  0  0  0  0  0
    0.2585   -1.2904    0.0000 N   0  0  0  0  0  0  0  0  0  0  0  0
    0.9729   -0.8779    0.0000 C   0  0  0  0  0  0  0  0  0  0  0  0
    0.9729   -0.0529    0.0000 C   0  0  0  0  0  0  0  0  0  0  0  0
    0.2585    0.3596    0.0000 C   0  0  0  0  0  0  0  0  0  0  0  0
    0.2585    1.1846    0.0000 O   0  0  0  0  0  0  0  0  0  0  0  0
   -1.1705    0.3596    0.0000 C   0  0  0  0  0  0  0  0  0  0  0  0
   -1.8849   -0.0529    0.0000 C   0  0  0  0  0  0  0  0  0  0  0  0
    1.7324   -0.3752    0.0000 C   0  0  0  0  0  0  0  0  0  0  0  0
    2.2736    0.2475    0.0000 N   0  0  0  0  0  0  0  0  0  0  0  0
    1.8486    0.9546    0.0000 C   0  0  0  0  0  0  0  0  0  0  0  0
    1.0448    0.7689    0.0000 C   0  0  0  0  0  0  0  0  0  0  0  0
    0.6323    1.4834    0.0000 H   0  0  0  0  0  0  0  0  0  0  0  0
    1.4573    1.4834    0.0000 C   0  0  0  0  0  0  0  0  0  0  0  0
    1.7324   -1.2002    0.0000 C   0  0  0  0  0  0  0  0  0  0  0  0
    2.5170   -1.4552    0.0000 C   0  0  0  0  0  0  0  0  0  0  0  0
    3.0019   -0.7877    0.0000 N   0  0  0  0  0  0  0  0  0  0  0  0
    2.5170   -0.1203    0.0000 C   0  0  0  0  0  0  0  0  0  0  0  0
    1.1193   -1.7523    0.0000 C   0  0  0  0  0  0  0  0  0  0  0  0
    1.2908   -2.5592    0.0000 C   0  0  0  0  0  0  0  0  0  0  0  0
    2.0754   -2.8142    0.0000 C   0  0  0  0  0  0  0  0  0  0  0  0
    2.6885   -2.2621    0.0000 C   0  0  0  0  0  0  0  0  0  0  0  0
    3.3139    0.0932    0.0000 O   0  0  0  0  0  0  0  0  0  0  0  0
   -2.5994    0.3596    0.0000 C   0  0  0  0  0  0  0  0  0  0  0  0
   -3.3139   -0.0529    0.0000 C   0  0  0  0  0  0  0  0  0  0  0  0
   -3.3139   -0.8779    0.0000 C   0  0  0  0  0  0  0  0  0  0  0  0
   -2.5994   -1.2904    0.0000 C   0  0  0  0  0  0  0  0  0  0  0  0
   -1.8849   -0.8779    0.0000 C   0  0  0  0  0  0  0  0  0  0  0  0
    2.2823    1.4834    0.0000 C   0  0  0  0  0  0  0  0  0  0  0  0
    2.6948    2.1979    0.0000 C   0  0  0  0  0  0  0  0  0  0  0  0
    2.2823    2.9123    0.0000 C   0  0  0  0  0  0  0  0  0  0  0  0
    1.4573    2.9123    0.0000 C   0  0  0  0  0  0  0  0  0  0  0  0
    1.0448    2.1979    0.0000 C   0  0  0  0  0  0  0  0  0  0  0  0
    0.2585   -2.1154    0.0000 S   0  0  0  0  0  0  0  0  0  0  0  0
   -0.5665   -2.1154    0.0000 O   0  0  0  0  0  0  0  0  0  0  0  0
    0.4720   -2.9123    0.0000 O   0  0  0  0  0  0  0  0  0  0  0  0
    0.9729   -2.5279    0.0000 C   0  0  0  0  0  0  0  0  0  0  0  0
    2.9880    0.6600    0.0000 C   0  0  0  0  0  0  0  0  0  0  0  0
  1  2  1  0      
  2  3  1  0      
  3  4  1  0      
  5  4  1  1      
  5  6  1  6      
  6  1  1  0      
  6  7  2  0      
  1  8  2  0      
  8  9  1  0      
  5 10  1  0      
 10 11  1  0      
 11 12  1  0      
 12 13  1  0      
 13  5  1  0      
 13 14  1  6      
 13 15  1  1      
 10 16  1  6      
 16 17  2  0      
 17 18  1  0      
 18 19  1  0      
 10 19  1  1      
 16 20  1  0      
 20 21  2  0      
 21 22  1  0      
 22 23  2  0      
 23 17  1  0      
 19 24  2  0      
  9 25  2  0      
 25 26  1  0      
 26 27  2  0      
 27 28  1  0      
 28 29  2  0      
 29  9  1  0      
 15 30  2  0      
 30 31  1  0      
 31 32  2  0      
 32 33  1  0      
 33 34  2  0      
 34 15  1  0      
  3 35  1  0      
 35 36  2  0      
 35 37  2  0      
 35 38  1  0      
 11 39  1  0      
M  END
