MCSJ25_0052.mol
  ChemDraw07042413542D

 24 26  0  0  0  0  0  0  0  0999 V2000
   -4.0315    0.3372    0.0000 C   0  0  0  0  0  0  0  0  0  0  0  0
   -3.7219   -0.4239    0.0000 C   0  0  0  0  0  0  0  0  0  0  0  0
   -2.9079   -0.5363    0.0000 C   0  0  0  0  0  0  0  0  0  0  0  0
   -2.4036    0.1124    0.0000 C   0  0  0  0  0  0  0  0  0  0  0  0
   -2.7132    0.8735    0.0000 C   0  0  0  0  0  0  0  0  0  0  0  0
   -3.5271    0.9859    0.0000 C   0  0  0  0  0  0  0  0  0  0  0  0
   -2.4468   -1.2164    0.0000 N   0  0  0  0  0  0  0  0  0  0  0  0
   -1.6575   -0.9881    0.0000 C   0  0  0  0  0  0  0  0  0  0  0  0
   -1.6308   -0.1668    0.0000 C   0  0  0  0  0  0  0  0  0  0  0  0
   -0.9507    0.2943    0.0000 S   0  0  0  0  0  0  0  0  0  0  0  0
   -0.2113   -0.0642    0.0000 C   0  0  0  0  0  0  0  0  0  0  0  0
    0.4688    0.3969    0.0000 C   0  0  0  0  0  0  0  0  0  0  0  0
    1.2081    0.0385    0.0000 N   0  0  0  0  0  0  0  0  0  0  0  0
    0.4095    1.2164    0.0000 O   0  0  0  0  0  0  0  0  0  0  0  0
    1.8883    0.4995    0.0000 C   0  0  0  0  0  0  0  0  0  0  0  0
    2.6276    0.1411    0.0000 C   0  0  0  0  0  0  0  0  0  0  0  0
    2.6869   -0.6784    0.0000 C   0  0  0  0  0  0  0  0  0  0  0  0
    3.4262   -1.0369    0.0000 C   0  0  0  0  0  0  0  0  0  0  0  0
    4.1063   -0.5758    0.0000 C   0  0  0  0  0  0  0  0  0  0  0  0
    4.0471    0.2437    0.0000 C   0  0  0  0  0  0  0  0  0  0  0  0
    3.3077    0.6022    0.0000 C   0  0  0  0  0  0  0  0  0  0  0  0
   -4.8487    0.4501    0.0000 Br  0  0  0  0  0  0  0  0  0  0  0  0
    4.7299    0.7067    0.0000 Cl  0  0  0  0  0  0  0  0  0  0  0  0
    4.8487   -0.9357    0.0000 Cl  0  0  0  0  0  0  0  0  0  0  0  0
  1  2  2  0      
  2  3  1  0      
  3  4  2  0      
  4  5  1  0      
  5  6  2  0      
  6  1  1  0      
  3  7  1  0      
  7  8  1  0      
  8  9  2  0      
  9  4  1  0      
  9 10  1  0      
 10 11  1  0      
 11 12  1  0      
 12 13  1  0      
 12 14  2  0      
 13 15  1  0      
 15 16  1  0      
 16 17  2  0      
 17 18  1  0      
 18 19  2  0      
 19 20  1  0      
 20 21  2  0      
 21 16  1  0      
  1 22  1  0      
 20 23  1  0      
 19 24  1  0      
M  END
