MCSJ25_0049.mol
  ChemDraw07042413522D

 24 26  0  0  0  0  0  0  0  0999 V2000
   -4.0689    0.0014    0.0000 C   0  0  0  0  0  0  0  0  0  0  0  0
   -3.7593   -0.7597    0.0000 C   0  0  0  0  0  0  0  0  0  0  0  0
   -2.9454   -0.8721    0.0000 C   0  0  0  0  0  0  0  0  0  0  0  0
   -2.4410   -0.2234    0.0000 C   0  0  0  0  0  0  0  0  0  0  0  0
   -2.7506    0.5377    0.0000 C   0  0  0  0  0  0  0  0  0  0  0  0
   -3.5646    0.6501    0.0000 C   0  0  0  0  0  0  0  0  0  0  0  0
   -2.4843   -1.5522    0.0000 N   0  0  0  0  0  0  0  0  0  0  0  0
   -1.6950   -1.3239    0.0000 C   0  0  0  0  0  0  0  0  0  0  0  0
   -1.6682   -0.5026    0.0000 C   0  0  0  0  0  0  0  0  0  0  0  0
   -0.9881   -0.0415    0.0000 S   0  0  0  0  0  0  0  0  0  0  0  0
   -0.2488   -0.4000    0.0000 C   0  0  0  0  0  0  0  0  0  0  0  0
    0.4313    0.0611    0.0000 C   0  0  0  0  0  0  0  0  0  0  0  0
    1.1707   -0.2973    0.0000 N   0  0  0  0  0  0  0  0  0  0  0  0
    0.3721    0.8806    0.0000 O   0  0  0  0  0  0  0  0  0  0  0  0
    1.8508    0.1638    0.0000 C   0  0  0  0  0  0  0  0  0  0  0  0
    2.5902   -0.1947    0.0000 C   0  0  0  0  0  0  0  0  0  0  0  0
    2.6494   -1.0142    0.0000 C   0  0  0  0  0  0  0  0  0  0  0  0
    3.3888   -1.3727    0.0000 C   0  0  0  0  0  0  0  0  0  0  0  0
    4.0689   -0.9116    0.0000 C   0  0  0  0  0  0  0  0  0  0  0  0
    4.0096   -0.0920    0.0000 C   0  0  0  0  0  0  0  0  0  0  0  0
    3.2703    0.2664    0.0000 C   0  0  0  0  0  0  0  0  0  0  0  0
   -3.8754    1.4143    0.0000 Br  0  0  0  0  0  0  0  0  0  0  0  0
    3.2108    1.0893    0.0000 O   0  0  0  0  0  0  0  0  0  0  0  0
    3.8936    1.5522    0.0000 C   0  0  0  0  0  0  0  0  0  0  0  0
  1  2  2  0      
  2  3  1  0      
  3  4  2  0      
  4  5  1  0      
  5  6  2  0      
  6  1  1  0      
  3  7  1  0      
  7  8  1  0      
  8  9  2  0      
  9  4  1  0      
  9 10  1  0      
 10 11  1  0      
 11 12  1  0      
 12 13  1  0      
 12 14  2  0      
 13 15  1  0      
 15 16  1  0      
 16 17  2  0      
 17 18  1  0      
 18 19  2  0      
 19 20  1  0      
 20 21  2  0      
 21 16  1  0      
  6 22  1  0      
 21 23  1  0      
 23 24  1  0      
M  END
