MCSJ25_0001
  -OEChem-07172407462D

 45 47  0     1  0  0  0  0  0999 V2000
    5.9140    1.9615    0.0000 O   0  0  0  0  0  0  0  0  0  0  0  0
    2.0000    1.1366    0.0000 O   0  0  0  0  0  0  0  0  0  0  0  0
    4.9820   -2.4996    0.0000 N   0  0  0  0  0  0  0  0  0  0  0  0
    3.6464    0.5985    0.0000 N   0  0  0  0  0  0  0  0  0  0  0  0
    4.2677    2.4996    0.0000 N   0  0  0  0  0  0  0  0  0  0  0  0
    6.5656   -1.6948    0.0000 C   0  0  0  0  0  0  0  0  0  0  0  0
    5.5656   -1.6948    0.0000 C   0  0  0  0  0  0  0  0  0  0  0  0
    4.9820   -0.8901    0.0000 C   0  0  0  0  0  0  0  0  0  0  0  0
    4.0358   -1.1948    0.0000 C   0  0  0  0  0  0  0  0  0  0  0  0
    4.0358   -2.1948    0.0000 C   0  0  0  0  0  0  0  0  0  0  0  0
    6.5656   -2.6948    0.0000 C   0  0  0  0  0  0  0  0  0  0  0  0
    6.5656   -0.6948    0.0000 C   0  0  0  0  0  0  0  0  0  0  0  0
    7.5656   -1.6948    0.0000 C   0  0  0  0  0  0  0  0  0  0  0  0
    5.2927    0.0604    0.0000 C   0  0  0  0  0  0  0  0  0  0  0  0
    4.6249    0.8047    0.0000 C   0  0  0  0  0  0  0  0  0  0  0  0
    3.1698   -0.6948    0.0000 C   0  0  0  0  0  0  0  0  0  0  0  0
    3.1698   -2.6948    0.0000 C   0  0  0  0  0  0  0  0  0  0  0  0
    3.2892    2.2933    0.0000 C   0  0  2  0  0  0  0  0  0  0  0  0
    4.9355    1.7552    0.0000 C   0  0  0  0  0  0  0  0  0  0  0  0
    2.3038   -1.1948    0.0000 C   0  0  0  0  0  0  0  0  0  0  0  0
    2.3038   -2.1948    0.0000 C   0  0  0  0  0  0  0  0  0  0  0  0
    2.9785    1.3428    0.0000 C   0  0  0  0  0  0  0  0  0  0  0  0
    8.0656   -2.5608    0.0000 C   0  0  0  0  0  0  0  0  0  0  0  0
    2.6213    3.0376    0.0000 C   0  0  0  0  0  0  0  0  0  0  0  0
    5.1746   -3.0889    0.0000 H   0  0  0  0  0  0  0  0  0  0  0  0
    5.9456   -2.6948    0.0000 H   0  0  0  0  0  0  0  0  0  0  0  0
    6.5656   -3.3148    0.0000 H   0  0  0  0  0  0  0  0  0  0  0  0
    7.1856   -2.6948    0.0000 H   0  0  0  0  0  0  0  0  0  0  0  0
    7.1856   -0.6948    0.0000 H   0  0  0  0  0  0  0  0  0  0  0  0
    6.5656   -0.0748    0.0000 H   0  0  0  0  0  0  0  0  0  0  0  0
    5.9456   -0.6948    0.0000 H   0  0  0  0  0  0  0  0  0  0  0  0
    7.8756   -1.1579    0.0000 H   0  0  0  0  0  0  0  0  0  0  0  0
    5.8994    0.1883    0.0000 H   0  0  0  0  0  0  0  0  0  0  0  0
    3.1698   -0.0748    0.0000 H   0  0  0  0  0  0  0  0  0  0  0  0
    3.1698   -3.3148    0.0000 H   0  0  0  0  0  0  0  0  0  0  0  0
    3.4818    2.8827    0.0000 H   0  0  0  0  0  0  0  0  0  0  0  0
    3.4537    0.0092    0.0000 H   0  0  0  0  0  0  0  0  0  0  0  0
    1.7668   -0.8848    0.0000 H   0  0  0  0  0  0  0  0  0  0  0  0
    1.7668   -2.5048    0.0000 H   0  0  0  0  0  0  0  0  0  0  0  0
    4.4603    3.0889    0.0000 H   0  0  0  0  0  0  0  0  0  0  0  0
    7.7556   -3.0978    0.0000 H   0  0  0  0  0  0  0  0  0  0  0  0
    8.6857   -2.5608    0.0000 H   0  0  0  0  0  0  0  0  0  0  0  0
    3.0828    3.4517    0.0000 H   0  0  0  0  0  0  0  0  0  0  0  0
    2.2073    3.4991    0.0000 H   0  0  0  0  0  0  0  0  0  0  0  0
    2.1599    2.6236    0.0000 H   0  0  0  0  0  0  0  0  0  0  0  0
  1 19  2  0  0  0  0
  2 22  2  0  0  0  0
  3  7  1  0  0  0  0
  3 10  1  0  0  0  0
  3 25  1  0  0  0  0
  4 15  1  0  0  0  0
  4 22  1  0  0  0  0
  4 37  1  0  0  0  0
  5 18  1  0  0  0  0
  5 19  1  0  0  0  0
  5 40  1  0  0  0  0
  6  7  1  0  0  0  0
  6 11  1  0  0  0  0
  6 12  1  0  0  0  0
  6 13  1  0  0  0  0
  7  8  2  0  0  0  0
  8  9  1  0  0  0  0
  8 14  1  0  0  0  0
  9 10  1  0  0  0  0
  9 16  2  0  0  0  0
 10 17  2  0  0  0  0
 11 26  1  0  0  0  0
 11 27  1  0  0  0  0
 11 28  1  0  0  0  0
 12 29  1  0  0  0  0
 12 30  1  0  0  0  0
 12 31  1  0  0  0  0
 13 23  2  0  0  0  0
 13 32  1  0  0  0  0
 14 15  2  0  0  0  0
 14 33  1  0  0  0  0
 15 19  1  0  0  0  0
 16 20  1  0  0  0  0
 16 34  1  0  0  0  0
 17 21  1  0  0  0  0
 17 35  1  0  0  0  0
 18 22  1  0  0  0  0
 18 24  1  6  0  0  0
 18 36  1  0  0  0  0
 20 21  2  0  0  0  0
 20 38  1  0  0  0  0
 21 39  1  0  0  0  0
 23 41  1  0  0  0  0
 23 42  1  0  0  0  0
 24 43  1  0  0  0  0
 24 44  1  0  0  0  0
 24 45  1  0  0  0  0
M  END
> <PUBCHEM_COMPOUND_CID>
9996305

> <PUBCHEM_COMPOUND_CANONICALIZED>
1

> <PUBCHEM_CACTVS_COMPLEXITY>
581

> <PUBCHEM_CACTVS_HBOND_ACCEPTOR>
2

> <PUBCHEM_CACTVS_HBOND_DONOR>
3

> <PUBCHEM_CACTVS_ROTATABLE_BOND>
3

> <PUBCHEM_CACTVS_SUBSKEYS>
AAADceB7MAAAAAAAAAAAAAAAAAAAAWAAAAA8QAAAAAAAAFgB8AAAHgAQAAAADijBngQywPLJkACoAyVyVACCgCAhAiAImaG4ZNgIYOLAkbGUIAhglgDIyYcQgMAPgAAAAAACAAAAAAAAAAQAAAAAAAAAAA==

> <PUBCHEM_IUPAC_OPENEYE_NAME>
(3Z,6S)-3-[[2-(1,1-dimethylallyl)-1H-indol-3-yl]methylene]-6-methyl-piperazine-2,5-dione

> <PUBCHEM_IUPAC_CAS_NAME>
(3S,6Z)-3-methyl-6-[[2-(2-methylbut-3-en-2-yl)-1H-indol-3-yl]methylidene]piperazine-2,5-dione

> <PUBCHEM_IUPAC_NAME_MARKUP>
(3<I>S</I>,6<I>Z</I>)-3-methyl-6-[[2-(2-methylbut-3-en-2-yl)-1<I>H</I>-indol-3-yl]methylidene]piperazine-2,5-dione

> <PUBCHEM_IUPAC_NAME>
(3S,6Z)-3-methyl-6-[[2-(2-methylbut-3-en-2-yl)-1H-indol-3-yl]methylidene]piperazine-2,5-dione

> <PUBCHEM_IUPAC_SYSTEMATIC_NAME>
(3S,6Z)-3-methyl-6-[[2-(2-methylbut-3-en-2-yl)-1H-indol-3-yl]methylidene]piperazine-2,5-dione

> <PUBCHEM_IUPAC_TRADITIONAL_NAME>
(3Z,6S)-3-[[2-(1,1-dimethylallyl)-1H-indol-3-yl]methylene]-6-methyl-piperazine-2,5-quinone

> <PUBCHEM_IUPAC_INCHI>
InChI=1S/C19H21N3O2/c1-5-19(3,4)16-13(12-8-6-7-9-14(12)21-16)10-15-18(24)20-11(2)17(23)22-15/h5-11,21H,1H2,2-4H3,(H,20,24)(H,22,23)/b15-10-/t11-/m0/s1

> <PUBCHEM_IUPAC_INCHIKEY>
MYRPIYZIAHOECW-SAIXKJTDSA-N

> <PUBCHEM_XLOGP3_AA>
3.3

> <PUBCHEM_EXACT_MASS>
323.16337692

> <PUBCHEM_MOLECULAR_FORMULA>
C19H21N3O2

> <PUBCHEM_MOLECULAR_WEIGHT>
323.4

> <PUBCHEM_OPENEYE_CAN_SMILES>
CC1C(=O)NC(=CC2=C(NC3=CC=CC=C32)C(C)(C)C=C)C(=O)N1

> <PUBCHEM_OPENEYE_ISO_SMILES>
C[C@H]1C(=O)N/C(=C\C2=C(NC3=CC=CC=C32)C(C)(C)C=C)/C(=O)N1

> <PUBCHEM_CACTVS_TPSA>
74

> <PUBCHEM_MONOISOTOPIC_WEIGHT>
323.16337692

> <PUBCHEM_TOTAL_CHARGE>
0

> <PUBCHEM_HEAVY_ATOM_COUNT>
24

> <PUBCHEM_ATOM_DEF_STEREO_COUNT>
1

> <PUBCHEM_ATOM_UDEF_STEREO_COUNT>
0

> <PUBCHEM_BOND_DEF_STEREO_COUNT>
1

> <PUBCHEM_BOND_UDEF_STEREO_COUNT>
0

> <PUBCHEM_ISOTOPIC_ATOM_COUNT>
0

> <PUBCHEM_COMPONENT_COUNT>
1

> <PUBCHEM_CACTVS_TAUTO_COUNT>
-1

> <PUBCHEM_COORDINATE_TYPE>
1
5
255

> <PUBCHEM_BONDANNOTATIONS>
10  17  8
16  20  8
17  21  8
18  24  6
20  21  8
3  10  8
3  7  8
7  8  8
8  9  8
9  10  8
9  16  8

$$$$
