MCSJ25_0037.mol
  ChemDraw04192413222D

 28 30  0  0  0  0  0  0  0  0999 V2000
   -4.4430    3.6059    0.0000 C   0  0  0  0  0  0  0  0  0  0  0  0
   -4.6138    2.8022    0.0000 C   0  0  0  0  0  0  0  0  0  0  0  0
   -4.0032    2.2524    0.0000 C   0  0  0  0  0  0  0  0  0  0  0  0
   -3.2217    2.5063    0.0000 C   0  0  0  0  0  0  0  0  0  0  0  0
   -3.0509    3.3100    0.0000 C   0  0  0  0  0  0  0  0  0  0  0  0
   -3.6615    3.8598    0.0000 C   0  0  0  0  0  0  0  0  0  0  0  0
   -4.0032    1.4307    0.0000 N   0  0  0  0  0  0  0  0  0  0  0  0
   -3.2217    1.1768    0.0000 C   0  0  0  0  0  0  0  0  0  0  0  0
   -2.7388    1.8415    0.0000 C   0  0  0  0  0  0  0  0  0  0  0  0
   -4.6679    0.9477    0.0000 C   0  0  0  0  0  0  0  0  0  0  0  0
   -1.9171    1.8415    0.0000 S   0  0  0  0  0  0  0  0  0  0  0  0
   -1.5063    1.1300    0.0000 C   0  0  0  0  0  0  0  0  0  0  0  0
   -0.6846    1.1300    0.0000 C   0  0  0  0  0  0  0  0  0  0  0  0
   -0.2737    0.4184    0.0000 N   0  0  0  0  0  0  0  0  0  0  0  0
   -0.2737    1.8415    0.0000 O   0  0  0  0  0  0  0  0  0  0  0  0
    0.5479    0.4184    0.0000 C   0  0  0  0  0  0  0  0  0  0  0  0
    0.9588   -0.2932    0.0000 C   0  0  0  0  0  0  0  0  0  0  0  0
    0.5479   -1.0048    0.0000 C   0  0  0  0  0  0  0  0  0  0  0  0
    0.9588   -1.7164    0.0000 C   0  0  0  0  0  0  0  0  0  0  0  0
    1.7804   -1.7164    0.0000 C   0  0  0  0  0  0  0  0  0  0  0  0
    2.1913   -1.0048    0.0000 C   0  0  0  0  0  0  0  0  0  0  0  0
    1.7804   -0.2932    0.0000 C   0  0  0  0  0  0  0  0  0  0  0  0
    2.1929   -2.4309    0.0000 O   0  0  0  0  0  0  0  0  0  0  0  0
    3.0179   -2.4309    0.0000 C   0  0  0  0  0  0  0  0  0  0  0  0
    3.4304   -3.1453    0.0000 C   0  0  0  0  0  0  0  0  0  0  0  0
    4.2554   -3.1453    0.0000 N   0  0  0  0  0  0  0  0  0  0  0  0
    4.6679   -3.8598    0.0000 C   0  0  0  0  0  0  0  0  0  0  0  0
    4.6679   -2.4309    0.0000 C   0  0  0  0  0  0  0  0  0  0  0  0
  1  2  2  0      
  2  3  1  0      
  3  4  2  0      
  4  5  1  0      
  5  6  2  0      
  6  1  1  0      
  3  7  1  0      
  7  8  1  0      
  8  9  2  0      
  9  4  1  0      
  7 10  1  0      
  9 11  1  0      
 11 12  1  0      
 12 13  1  0      
 13 14  1  0      
 13 15  2  0      
 14 16  1  0      
 16 17  1  0      
 17 18  2  0      
 18 19  1  0      
 19 20  2  0      
 20 21  1  0      
 21 22  2  0      
 22 17  1  0      
 20 23  1  0      
 23 24  1  0      
 24 25  1  0      
 25 26  1  0      
 26 27  1  0      
 26 28  1  0      
M  END
