MCSJ25_0015.mol
  ChemDraw04192412462D

 16 17  0  0  0  0  0  0  0  0999 V2000
   -0.6829    0.3098    0.0000 C   0  0  0  0  0  0  0  0  0  0  0  0
   -0.6829   -0.5119    0.0000 C   0  0  0  0  0  0  0  0  0  0  0  0
    0.0287   -0.9227    0.0000 C   0  0  0  0  0  0  0  0  0  0  0  0
    0.7402   -0.5119    0.0000 C   0  0  0  0  0  0  0  0  0  0  0  0
    0.7402    0.3098    0.0000 C   0  0  0  0  0  0  0  0  0  0  0  0
    0.0287    0.7206    0.0000 C   0  0  0  0  0  0  0  0  0  0  0  0
    1.5217   -0.7658    0.0000 N   0  0  0  0  0  0  0  0  0  0  0  0
    2.0047   -0.1011    0.0000 C   0  0  0  0  0  0  0  0  0  0  0  0
    1.5217    0.5637    0.0000 C   0  0  0  0  0  0  0  0  0  0  0  0
    1.7756   -1.5473    0.0000 C   0  0  0  0  0  0  0  0  0  0  0  0
    2.8263   -0.1011    0.0000 O   0  0  0  0  0  0  0  0  0  0  0  0
    1.7756    1.3451    0.0000 O   0  0  0  0  0  0  0  0  0  0  0  0
   -1.3974    0.7223    0.0000 C   0  0  0  0  0  0  0  0  0  0  0  0
   -2.1119    0.3098    0.0000 O   0  0  0  0  0  0  0  0  0  0  0  0
   -2.8263    0.7223    0.0000 C   0  0  0  0  0  0  0  0  0  0  0  0
   -1.3974    1.5473    0.0000 O   0  0  0  0  0  0  0  0  0  0  0  0
  1  2  2  0      
  2  3  1  0      
  3  4  2  0      
  4  5  1  0      
  5  6  2  0      
  6  1  1  0      
  4  7  1  0      
  7  8  1  0      
  8  9  1  0      
  9  5  1  0      
  7 10  1  0      
  8 11  2  0      
  9 12  2  0      
  1 13  1  0      
 13 14  1  0      
 14 15  1  0      
 13 16  2  0      
M  END
