MCSJ25_0017.mol
  ChemDraw04192412412D

 19 20  0  0  0  0  0  0  0  0999 V2000
   -0.6844    1.3823    0.0000 C   0  0  0  0  0  0  0  0  0  0  0  0
   -0.6844    0.5606    0.0000 C   0  0  0  0  0  0  0  0  0  0  0  0
    0.0272    0.1498    0.0000 C   0  0  0  0  0  0  0  0  0  0  0  0
    0.7388    0.5606    0.0000 C   0  0  0  0  0  0  0  0  0  0  0  0
    0.7388    1.3823    0.0000 C   0  0  0  0  0  0  0  0  0  0  0  0
    0.0272    1.7931    0.0000 C   0  0  0  0  0  0  0  0  0  0  0  0
    1.5203    0.3067    0.0000 N   0  0  0  0  0  0  0  0  0  0  0  0
    2.0032    0.9715    0.0000 C   0  0  0  0  0  0  0  0  0  0  0  0
    1.5203    1.6362    0.0000 C   0  0  0  0  0  0  0  0  0  0  0  0
    1.7742   -0.4747    0.0000 C   0  0  0  0  0  0  0  0  0  0  0  0
    2.8249    0.9715    0.0000 O   0  0  0  0  0  0  0  0  0  0  0  0
    1.7742    2.4177    0.0000 O   0  0  0  0  0  0  0  0  0  0  0  0
   -1.3960    1.7931    0.0000 C   0  0  0  0  0  0  0  0  0  0  0  0
   -2.1104    1.3806    0.0000 O   0  0  0  0  0  0  0  0  0  0  0  0
   -1.3960    2.6181    0.0000 O   0  0  0  0  0  0  0  0  0  0  0  0
   -2.8249    1.7931    0.0000 C   0  0  0  0  0  0  0  0  0  0  0  0
    1.3617   -1.1892    0.0000 C   0  0  0  0  0  0  0  0  0  0  0  0
    1.3617   -2.6181    0.0000 C   0  0  0  0  0  0  0  0  0  0  0  0
    1.7742   -1.9037    0.0000 C   0  0  0  0  0  0  0  0  0  0  0  0
  1  2  2  0      
  2  3  1  0      
  3  4  2  0      
  4  5  1  0      
  5  6  2  0      
  6  1  1  0      
  4  7  1  0      
  7  8  1  0      
  8  9  1  0      
  9  5  1  0      
  7 10  1  0      
  8 11  2  0      
  9 12  2  0      
  1 13  1  0      
 13 14  1  0      
 13 15  2  0      
 14 16  1  0      
 10 17  1  0      
 18 19  1  0      
 19 17  1  0      
M  END
