MCSJ25_0060.mol
  ChemDraw04192413502D

 27 29  0  0  0  0  0  0  0  0999 V2000
   -4.0689    0.0530    0.0000 C   0  0  0  0  0  0  0  0  0  0  0  0
   -3.7593   -0.7081    0.0000 C   0  0  0  0  0  0  0  0  0  0  0  0
   -2.9454   -0.8206    0.0000 C   0  0  0  0  0  0  0  0  0  0  0  0
   -2.4410   -0.1719    0.0000 C   0  0  0  0  0  0  0  0  0  0  0  0
   -2.7506    0.5892    0.0000 C   0  0  0  0  0  0  0  0  0  0  0  0
   -3.5646    0.7016    0.0000 C   0  0  0  0  0  0  0  0  0  0  0  0
   -2.4843   -1.5007    0.0000 N   0  0  0  0  0  0  0  0  0  0  0  0
   -1.6950   -1.2723    0.0000 C   0  0  0  0  0  0  0  0  0  0  0  0
   -1.6682   -0.4511    0.0000 C   0  0  0  0  0  0  0  0  0  0  0  0
   -0.9881    0.0100    0.0000 S   0  0  0  0  0  0  0  0  0  0  0  0
   -0.2488   -0.3484    0.0000 C   0  0  0  0  0  0  0  0  0  0  0  0
    0.4313    0.1126    0.0000 C   0  0  0  0  0  0  0  0  0  0  0  0
    1.1707   -0.2458    0.0000 N   0  0  0  0  0  0  0  0  0  0  0  0
    0.3721    0.9322    0.0000 O   0  0  0  0  0  0  0  0  0  0  0  0
    1.8508    0.2153    0.0000 C   0  0  0  0  0  0  0  0  0  0  0  0
    2.5902   -0.1432    0.0000 C   0  0  0  0  0  0  0  0  0  0  0  0
    2.6494   -0.9627    0.0000 C   0  0  0  0  0  0  0  0  0  0  0  0
    3.3888   -1.3211    0.0000 C   0  0  0  0  0  0  0  0  0  0  0  0
    4.0689   -0.8600    0.0000 C   0  0  0  0  0  0  0  0  0  0  0  0
    4.0096   -0.0405    0.0000 C   0  0  0  0  0  0  0  0  0  0  0  0
    3.2703    0.3179    0.0000 C   0  0  0  0  0  0  0  0  0  0  0  0
    1.2302   -1.0687    0.0000 O   0  0  0  0  0  0  0  0  0  0  0  0
    0.5157   -1.4812    0.0000 C   0  0  0  0  0  0  0  0  0  0  0  0
   -2.2443    1.2405    0.0000 Br  0  0  0  0  0  0  0  0  0  0  0  0
    3.2108    1.1408    0.0000 O   0  0  0  0  0  0  0  0  0  0  0  0
    2.4684    1.5007    0.0000 C   0  0  0  0  0  0  0  0  0  0  0  0
    1.7856    1.0377    0.0000 C   0  0  0  0  0  0  0  0  0  0  0  0
  1  2  2  0      
  2  3  1  0      
  3  4  2  0      
  4  5  1  0      
  5  6  2  0      
  6  1  1  0      
  3  7  1  0      
  7  8  1  0      
  8  9  2  0      
  9  4  1  0      
  9 10  1  0      
 10 11  1  0      
 11 12  1  0      
 12 13  1  0      
 12 14  2  0      
 13 15  1  0      
 15 16  1  0      
 16 17  2  0      
 17 18  1  0      
 18 19  2  0      
 19 20  1  0      
 20 21  2  0      
 21 16  1  0      
 13 22  1  0      
 22 23  1  0      
  5 24  1  0      
 21 25  1  0      
 25 26  1  0      
 26 27  1  0      
M  END
