MCSJ25_0065.mol
  ChemDraw04192414032D

 30 32  0  0  0  0  0  0  0  0999 V2000
   -4.0254    0.7291    0.0000 C   0  0  0  0  0  0  0  0  0  0  0  0
   -3.7715   -0.0524    0.0000 C   0  0  0  0  0  0  0  0  0  0  0  0
   -2.9678   -0.2232    0.0000 C   0  0  0  0  0  0  0  0  0  0  0  0
   -2.4180    0.3874    0.0000 C   0  0  0  0  0  0  0  0  0  0  0  0
   -2.6719    1.1689    0.0000 C   0  0  0  0  0  0  0  0  0  0  0  0
   -3.4756    1.3397    0.0000 C   0  0  0  0  0  0  0  0  0  0  0  0
   -2.5569   -0.9348    0.0000 N   0  0  0  0  0  0  0  0  0  0  0  0
   -1.7532   -0.7640    0.0000 C   0  0  0  0  0  0  0  0  0  0  0  0
   -1.6673    0.0532    0.0000 C   0  0  0  0  0  0  0  0  0  0  0  0
   -0.9557    0.4640    0.0000 S   0  0  0  0  0  0  0  0  0  0  0  0
   -0.2441    0.0532    0.0000 C   0  0  0  0  0  0  0  0  0  0  0  0
    0.4674    0.4640    0.0000 C   0  0  0  0  0  0  0  0  0  0  0  0
    1.1790    0.0532    0.0000 N   0  0  0  0  0  0  0  0  0  0  0  0
    1.8906    0.4640    0.0000 C   0  0  0  0  0  0  0  0  0  0  0  0
    2.6022    0.0532    0.0000 C   0  0  0  0  0  0  0  0  0  0  0  0
    3.3138    0.4640    0.0000 C   0  0  0  0  0  0  0  0  0  0  0  0
    3.3138    1.2857    0.0000 C   0  0  0  0  0  0  0  0  0  0  0  0
    2.6022    1.6965    0.0000 C   0  0  0  0  0  0  0  0  0  0  0  0
    1.8906    1.2857    0.0000 C   0  0  0  0  0  0  0  0  0  0  0  0
    0.4674    1.2857    0.0000 O   0  0  0  0  0  0  0  0  0  0  0  0
    2.6022    2.5182    0.0000 O   0  0  0  0  0  0  0  0  0  0  0  0
    3.3138    2.9290    0.0000 C   0  0  0  0  0  0  0  0  0  0  0  0
    4.0254    2.5182    0.0000 C   0  0  0  0  0  0  0  0  0  0  0  0
   -2.8911   -1.6854    0.0000 C   0  0  0  0  0  0  0  0  0  0  0  0
   -3.7083   -1.7713    0.0000 O   0  0  0  0  0  0  0  0  0  0  0  0
   -2.4082   -2.3502    0.0000 O   0  0  0  0  0  0  0  0  0  0  0  0
   -1.5910   -2.2643    0.0000 C   0  0  0  0  0  0  0  0  0  0  0  0
   -1.2568   -1.5137    0.0000 C   0  0  0  0  0  0  0  0  0  0  0  0
   -0.7738   -2.1784    0.0000 C   0  0  0  0  0  0  0  0  0  0  0  0
   -1.1080   -2.9290    0.0000 C   0  0  0  0  0  0  0  0  0  0  0  0
  1  2  2  0      
  2  3  1  0      
  3  4  2  0      
  4  5  1  0      
  5  6  2  0      
  6  1  1  0      
  3  7  1  0      
  7  8  1  0      
  8  9  2  0      
  9  4  1  0      
  9 10  1  0      
 10 11  1  0      
 11 12  1  0      
 12 13  1  0      
 13 14  1  0      
 14 15  2  0      
 15 16  1  0      
 16 17  2  0      
 17 18  1  0      
 18 19  2  0      
 19 14  1  0      
 12 20  2  0      
 18 21  1  0      
 21 22  1  0      
 22 23  1  0      
 24 25  2  0      
 24 26  1  0      
 26 27  1  0      
 27 28  1  0      
 27 29  1  0      
 27 30  1  0      
  7 24  1  0      
M  END
