MCSJ25_0057.mol
  ChemDraw04192413472D

 29 32  0  0  0  0  0  0  0  0999 V2000
   -4.0689    0.7920    0.0000 C   0  0  0  0  0  0  0  0  0  0  0  0
   -3.7593    0.0309    0.0000 C   0  0  0  0  0  0  0  0  0  0  0  0
   -2.9454   -0.0815    0.0000 C   0  0  0  0  0  0  0  0  0  0  0  0
   -2.4410    0.5672    0.0000 C   0  0  0  0  0  0  0  0  0  0  0  0
   -2.7506    1.3283    0.0000 C   0  0  0  0  0  0  0  0  0  0  0  0
   -3.5646    1.4407    0.0000 C   0  0  0  0  0  0  0  0  0  0  0  0
   -2.4843   -0.7616    0.0000 N   0  0  0  0  0  0  0  0  0  0  0  0
   -1.6950   -0.5333    0.0000 C   0  0  0  0  0  0  0  0  0  0  0  0
   -1.6682    0.2880    0.0000 C   0  0  0  0  0  0  0  0  0  0  0  0
   -0.9881    0.7491    0.0000 S   0  0  0  0  0  0  0  0  0  0  0  0
   -0.2488    0.3906    0.0000 C   0  0  0  0  0  0  0  0  0  0  0  0
    0.4313    0.8517    0.0000 C   0  0  0  0  0  0  0  0  0  0  0  0
    1.1707    0.4933    0.0000 N   0  0  0  0  0  0  0  0  0  0  0  0
    0.3721    1.6712    0.0000 O   0  0  0  0  0  0  0  0  0  0  0  0
    1.8508    0.9543    0.0000 C   0  0  0  0  0  0  0  0  0  0  0  0
    2.5902    0.5959    0.0000 C   0  0  0  0  0  0  0  0  0  0  0  0
    2.6494   -0.2236    0.0000 C   0  0  0  0  0  0  0  0  0  0  0  0
    3.3888   -0.5821    0.0000 C   0  0  0  0  0  0  0  0  0  0  0  0
    4.0689   -0.1210    0.0000 C   0  0  0  0  0  0  0  0  0  0  0  0
    4.0096    0.6985    0.0000 C   0  0  0  0  0  0  0  0  0  0  0  0
    3.2703    1.0570    0.0000 C   0  0  0  0  0  0  0  0  0  0  0  0
   -2.2443    1.9796    0.0000 Br  0  0  0  0  0  0  0  0  0  0  0  0
    1.2302   -0.3296    0.0000 C   0  0  0  0  0  0  0  0  0  0  0  0
    0.5157   -0.7421    0.0000 C   0  0  0  0  0  0  0  0  0  0  0  0
   -0.1987   -0.3296    0.0000 C   0  0  0  0  0  0  0  0  0  0  0  0
   -0.9132   -0.7421    0.0000 C   0  0  0  0  0  0  0  0  0  0  0  0
   -0.9132   -1.5671    0.0000 C   0  0  0  0  0  0  0  0  0  0  0  0
   -0.1987   -1.9796    0.0000 C   0  0  0  0  0  0  0  0  0  0  0  0
    0.5157   -1.5671    0.0000 C   0  0  0  0  0  0  0  0  0  0  0  0
  1  2  2  0      
  2  3  1  0      
  3  4  2  0      
  4  5  1  0      
  5  6  2  0      
  6  1  1  0      
  3  7  1  0      
  7  8  1  0      
  8  9  2  0      
  9  4  1  0      
  9 10  1  0      
 10 11  1  0      
 11 12  1  0      
 12 13  1  0      
 12 14  2  0      
 13 15  1  0      
 15 16  1  0      
 16 17  2  0      
 17 18  1  0      
 18 19  2  0      
 19 20  1  0      
 20 21  2  0      
 21 16  1  0      
  5 22  1  0      
 13 23  1  0      
 23 24  1  0      
 24 25  2  0      
 25 26  1  0      
 26 27  2  0      
 27 28  1  0      
 28 29  2  0      
 29 24  1  0      
M  END
