MCSJ23_0004.mol
  ChemDraw04192411492D

 40 44  0  0  1  0  0  0  0  0999 V2000
   -2.9257   -1.0271    0.0000 C   0  0  0  0  0  0  0  0  0  0  0  0
   -2.9257   -1.8488    0.0000 C   0  0  0  0  0  0  0  0  0  0  0  0
   -2.2141   -2.2596    0.0000 N   0  0  0  0  0  0  0  0  0  0  0  0
   -1.5026   -1.8488    0.0000 C   0  0  0  0  0  0  0  0  0  0  0  0
   -1.5026   -1.0271    0.0000 C   0  0  0  0  0  0  0  0  0  0  0  0
   -2.2141   -0.6163    0.0000 C   0  0  0  0  0  0  0  0  0  0  0  0
   -0.7910   -2.2596    0.0000 N   0  0  0  0  0  0  0  0  0  0  0  0
   -0.0794   -1.8488    0.0000 C   0  0  0  0  0  0  0  0  0  0  0  0
   -0.0794   -1.0271    0.0000 N   0  0  0  0  0  0  0  0  0  0  0  0
   -0.7910   -0.6163    0.0000 C   0  0  0  0  0  0  0  0  0  0  0  0
   -3.7072   -0.7732    0.0000 C   0  0  0  0  0  0  0  0  0  0  0  0
   -4.1902   -1.4379    0.0000 N   0  0  0  0  0  0  0  0  0  0  0  0
   -3.7072   -2.1027    0.0000 N   0  0  0  0  0  0  0  0  0  0  0  0
   -0.7910    0.2054    0.0000 N   0  0  0  0  0  0  0  0  0  0  0  0
   -0.0794    0.6163    0.0000 N   0  0  0  0  0  0  0  0  0  0  0  0
    0.6322    0.2054    0.0000 C   0  0  0  0  0  0  0  0  0  0  0  0
    0.6322   -2.2596    0.0000 N   0  0  0  0  0  0  0  0  0  0  0  0
   -3.9611    0.0083    0.0000 C   0  0  0  0  0  0  0  0  0  0  0  0
    0.6322   -3.0813    0.0000 C   0  0  0  0  0  0  0  0  0  0  0  0
    1.3438   -1.8488    0.0000 C   0  0  0  0  0  0  0  0  0  0  0  0
    1.3438    0.6163    0.0000 C   0  0  0  0  0  0  0  0  0  0  0  0
    1.3438    1.4379    0.0000 C   0  0  0  0  0  0  0  0  0  0  0  0
    0.6322    1.8488    0.0000 O   0  0  0  0  0  0  0  0  0  0  0  0
    2.0554    1.8488    0.0000 C   0  0  0  0  0  0  0  0  0  0  0  0
    2.0554    2.6704    0.0000 O   0  0  0  0  0  0  0  0  0  0  0  0
    2.7670    1.4379    0.0000 C   0  0  0  0  0  0  0  0  0  0  0  0
    3.4786    1.8488    0.0000 O   0  0  0  0  0  0  0  0  0  0  0  0
    2.7670    0.6163    0.0000 C   0  0  0  0  0  0  0  0  0  0  0  0
    2.0554    0.2054    0.0000 O   0  0  0  0  0  0  0  0  0  0  0  0
    3.4786    0.2054    0.0000 C   0  0  0  0  0  0  0  0  0  0  0  0
    4.1902    0.6163    0.0000 O   0  0  0  0  0  0  0  0  0  0  0  0
   -2.2141    0.2054    0.0000 C   0  0  0  0  0  0  0  0  0  0  0  0
   -1.5026    0.6163    0.0000 C   0  0  0  0  0  0  0  0  0  0  0  0
   -1.5026    1.4379    0.0000 C   0  0  0  0  0  0  0  0  0  0  0  0
   -2.2141    1.8488    0.0000 C   0  0  0  0  0  0  0  0  0  0  0  0
   -2.9257    1.4379    0.0000 C   0  0  0  0  0  0  0  0  0  0  0  0
   -2.9257    0.6163    0.0000 C   0  0  0  0  0  0  0  0  0  0  0  0
   -2.2141    2.6704    0.0000 N   0  3  0  0  0  0  0  0  0  0  0  0
   -1.5026    3.0813    0.0000 O   0  0  0  0  0  0  0  0  0  0  0  0
   -2.9257    3.0813    0.0000 O   0  5  0  0  0  0  0  0  0  0  0  0
 38 39  2  0      
 38 40  1  0      
 35 38  1  0      
  1  2  2  0      
  2  3  1  0      
  3  4  1  0      
  4  5  2  0      
  5  6  1  0      
  6  1  1  0      
  4  7  1  0      
  7  8  2  0      
  8  9  1  0      
  9 10  1  0      
 10  5  1  0      
  1 11  1  0      
 11 12  2  0      
 12 13  1  0      
 13  2  1  0      
 10 14  1  0      
 14 15  1  0      
 15 16  2  0      
  8 17  1  0      
 11 18  1  0      
 17 19  1  0      
 17 20  1  0      
 21 22  1  0      
 22 23  1  6      
 22 24  1  0      
 24 25  1  1      
 24 26  1  0      
 26 27  1  6      
 26 28  1  0      
 28 29  1  0      
 28 30  1  1      
 30 31  1  0      
 21 29  1  0      
  6 32  1  0      
 32 33  2  0      
 33 34  1  0      
 34 35  2  0      
 35 36  1  0      
 36 37  2  0      
 37 32  1  0      
 16 21  1  0      
M  CHG  2  38   1  40  -1
M  STY  1   1 SUP
M  SLB  1   1   1
M  SAL   1  3  38  39  40
M  SBL   1  1   3
M  SMT   1 NO2
M  SBV   1   3    0.0000   -0.8217
M  END
