MCSJ25_0032.mol
  ChemDraw04192413042D

 26 29  0  0  0  0  0  0  0  0999 V2000
   -1.0473    1.6652    0.0000 C   0  0  0  0  0  0  0  0  0  0  0  0
   -1.0473    0.8402    0.0000 C   0  0  0  0  0  0  0  0  0  0  0  0
   -0.3328    0.4277    0.0000 C   0  0  0  0  0  0  0  0  0  0  0  0
    0.3817    0.8402    0.0000 C   0  0  0  0  0  0  0  0  0  0  0  0
    0.3817    1.6652    0.0000 C   0  0  0  0  0  0  0  0  0  0  0  0
   -0.3328    2.0777    0.0000 C   0  0  0  0  0  0  0  0  0  0  0  0
    1.1663    0.5852    0.0000 N   0  0  0  0  0  0  0  0  0  0  0  0
    1.6512    1.2527    0.0000 C   0  0  0  0  0  0  0  0  0  0  0  0
    1.1663    1.9201    0.0000 C   0  0  0  0  0  0  0  0  0  0  0  0
    1.3798    2.7170    0.0000 O   0  0  0  0  0  0  0  0  0  0  0  0
    2.4762    1.2527    0.0000 O   0  0  0  0  0  0  0  0  0  0  0  0
   -1.7617    2.0777    0.0000 C   0  0  0  0  0  0  0  0  0  0  0  0
   -2.4762    1.6652    0.0000 N   0  0  0  0  0  0  0  0  0  0  0  0
   -1.7617    2.9027    0.0000 O   0  0  0  0  0  0  0  0  0  0  0  0
    1.4212   -0.1994    0.0000 C   0  0  0  0  0  0  0  0  0  0  0  0
    0.8379   -0.7827    0.0000 C   0  0  0  0  0  0  0  0  0  0  0  0
    0.0410   -0.5692    0.0000 C   0  0  0  0  0  0  0  0  0  0  0  0
   -0.5424   -1.1526    0.0000 C   0  0  0  0  0  0  0  0  0  0  0  0
   -0.3289   -1.9495    0.0000 C   0  0  0  0  0  0  0  0  0  0  0  0
    0.4680   -2.1630    0.0000 C   0  0  0  0  0  0  0  0  0  0  0  0
    1.0514   -1.5796    0.0000 C   0  0  0  0  0  0  0  0  0  0  0  0
   -1.3393   -0.9391    0.0000 C   0  0  0  0  0  0  0  0  0  0  0  0
   -1.9226   -1.5224    0.0000 C   0  0  0  0  0  0  0  0  0  0  0  0
   -1.7091   -2.3193    0.0000 C   0  0  0  0  0  0  0  0  0  0  0  0
   -0.9122   -2.5328    0.0000 C   0  0  0  0  0  0  0  0  0  0  0  0
   -2.2925   -2.9027    0.0000 Br  0  0  0  0  0  0  0  0  0  0  0  0
  1  2  2  0      
  2  3  1  0      
  3  4  2  0      
  4  5  1  0      
  5  6  2  0      
  6  1  1  0      
  4  7  1  0      
  7  8  1  0      
  8  9  1  0      
  9  5  1  0      
  9 10  2  0      
  8 11  2  0      
  1 12  1  0      
 12 13  1  0      
 12 14  2  0      
  7 15  1  0      
 15 16  1  0      
 16 17  2  0      
 17 18  1  0      
 18 19  2  0      
 19 20  1  0      
 20 21  2  0      
 21 16  1  0      
 18 22  1  0      
 22 23  2  0      
 23 24  1  0      
 24 25  2  0      
 25 19  1  0      
 24 26  1  0      
M  END
