MCSJ33_0001.mol
  ChemDraw04202411272D

 45 48  0  0  0  0  0  0  0  0999 V2000
   -7.8498   -0.7565    0.0000 C   0  0  0  0  0  0  0  0  0  0  0  0
   -7.8498   -1.5815    0.0000 C   0  0  0  0  0  0  0  0  0  0  0  0
   -7.1353   -1.9940    0.0000 C   0  0  0  0  0  0  0  0  0  0  0  0
   -6.4208   -1.5815    0.0000 C   0  0  0  0  0  0  0  0  0  0  0  0
   -6.4208   -0.7565    0.0000 C   0  0  0  0  0  0  0  0  0  0  0  0
   -7.1353   -0.3440    0.0000 C   0  0  0  0  0  0  0  0  0  0  0  0
   -5.6362   -1.8365    0.0000 N   0  0  0  0  0  0  0  0  0  0  0  0
   -5.1513   -1.1690    0.0000 C   0  0  0  0  0  0  0  0  0  0  0  0
   -5.6362   -0.5016    0.0000 C   0  0  0  0  0  0  0  0  0  0  0  0
   -5.3813    0.2830    0.0000 C   0  0  0  0  0  0  0  0  0  0  0  0
   -4.5743    0.4546    0.0000 N   0  0  0  0  0  0  0  0  0  0  0  0
   -4.3194    1.2392    0.0000 N   0  0  0  0  0  0  0  0  0  0  0  0
   -3.5347    1.4941    0.0000 C   0  0  0  0  0  0  0  0  0  0  0  0
   -3.5347    2.3191    0.0000 N   0  0  0  0  0  0  0  0  0  0  0  0
   -4.3194    2.5741    0.0000 N   0  0  0  0  0  0  0  0  0  0  0  0
   -4.8043    1.9066    0.0000 C   0  0  0  0  0  0  0  0  0  0  0  0
   -5.3813   -2.6211    0.0000 C   0  0  0  0  0  0  0  0  0  0  0  0
   -2.8673    1.0092    0.0000 C   0  0  0  0  0  0  0  0  0  0  0  0
   -2.8673    0.1842    0.0000 C   0  0  0  0  0  0  0  0  0  0  0  0
   -5.6293    1.9066    0.0000 S   0  0  0  0  0  0  0  0  0  0  0  0
   -6.0418    2.6211    0.0000 C   0  0  0  0  0  0  0  0  0  0  0  0
   -6.8668    2.6211    0.0000 C   0  0  0  0  0  0  0  0  0  0  0  0
   -7.2793    3.3356    0.0000 O   0  0  0  0  0  0  0  0  0  0  0  0
   -2.1528   -0.2283    0.0000 C   0  0  0  0  0  0  0  0  0  0  0  0
   -1.4384    0.1842    0.0000 C   0  0  0  0  0  0  0  0  0  0  0  0
   -0.7239   -0.2283    0.0000 C   0  0  0  0  0  0  0  0  0  0  0  0
   -0.0094    0.1842    0.0000 C   0  0  0  0  0  0  0  0  0  0  0  0
    0.7051   -0.2283    0.0000 C   0  0  0  0  0  0  0  0  0  0  0  0
    1.4195    0.1842    0.0000 C   0  0  0  0  0  0  0  0  0  0  0  0
    2.1340   -0.2283    0.0000 C   0  0  0  0  0  0  0  0  0  0  0  0
    2.8485    0.1842    0.0000 C   0  0  0  0  0  0  0  0  0  0  0  0
    3.5629   -0.2283    0.0000 C   0  0  0  0  0  0  0  0  0  0  0  0
    4.2774    0.1842    0.0000 C   0  0  0  0  0  0  0  0  0  0  0  0
    4.9919   -0.2283    0.0000 C   0  0  0  0  0  0  0  0  0  0  0  0
    5.7064    0.1842    0.0000 C   0  0  0  0  0  0  0  0  0  0  0  0
    6.4208   -0.2283    0.0000 C   0  0  0  0  0  0  0  0  0  0  0  0
    7.1353    0.1842    0.0000 C   0  0  0  0  0  0  0  0  0  0  0  0
    7.8498   -0.2283    0.0000 C   0  0  0  0  0  0  0  0  0  0  0  0
   -3.5818   -0.2283    0.0000 C   0  0  0  0  0  0  0  0  0  0  0  0
   -4.5563   -2.6211    0.0000 C   0  0  0  0  0  0  0  0  0  0  0  0
   -4.1438   -3.3356    0.0000 C   0  0  0  0  0  0  0  0  0  0  0  0
   -3.3188   -3.3356    0.0000 C   0  0  0  0  0  0  0  0  0  0  0  0
   -2.9063   -2.6211    0.0000 C   0  0  0  0  0  0  0  0  0  0  0  0
   -3.3188   -1.9066    0.0000 C   0  0  0  0  0  0  0  0  0  0  0  0
   -4.1438   -1.9066    0.0000 C   0  0  0  0  0  0  0  0  0  0  0  0
  1  2  2  0      
  2  3  1  0      
  3  4  2  0      
  4  5  1  0      
  5  6  2  0      
  6  1  1  0      
  4  7  1  0      
  7  8  1  0      
  8  9  2  0      
  9  5  1  0      
  9 10  1  0      
 10 11  2  0      
 11 12  1  0      
 12 13  1  0      
 13 14  2  0      
 14 15  1  0      
 15 16  2  0      
 16 12  1  0      
  7 17  1  0      
 13 18  1  0      
 18 19  1  0      
 16 20  1  0      
 20 21  1  0      
 21 22  1  0      
 22 23  1  0      
 19 24  1  0      
 24 25  1  0      
 25 26  1  0      
 26 27  1  0      
 27 28  1  0      
 28 29  1  0      
 29 30  1  0      
 30 31  1  0      
 31 32  1  0      
 32 33  1  0      
 33 34  1  0      
 34 35  1  0      
 35 36  1  0      
 36 37  1  0      
 37 38  1  0      
 19 39  1  0      
 17 40  1  0      
 40 41  2  0      
 41 42  1  0      
 42 43  2  0      
 43 44  1  0      
 44 45  2  0      
 45 40  1  0      
M  END
