MCSJ25_0072.mol
  ChemDraw04192414092D

 25 27  0  0  0  0  0  0  0  0999 V2000
   -2.5675    1.9837    0.0000 C   0  0  0  0  0  0  0  0  0  0  0  0
   -2.5675    1.1587    0.0000 C   0  0  0  0  0  0  0  0  0  0  0  0
   -1.8530    0.7462    0.0000 N   0  0  0  0  0  0  0  0  0  0  0  0
   -1.1385    1.1587    0.0000 C   0  0  0  0  0  0  0  0  0  0  0  0
   -1.1385    1.9837    0.0000 C   0  0  0  0  0  0  0  0  0  0  0  0
   -1.8530    2.3962    0.0000 C   0  0  0  0  0  0  0  0  0  0  0  0
   -3.2819    2.3962    0.0000 Cl  0  0  0  0  0  0  0  0  0  0  0  0
   -0.4241    2.3962    0.0000 O   0  0  0  0  0  0  0  0  0  0  0  0
    0.2904    1.9837    0.0000 C   0  0  0  0  0  0  0  0  0  0  0  0
    0.2904    1.1587    0.0000 C   0  0  0  0  0  0  0  0  0  0  0  0
    1.0049    2.3962    0.0000 O   0  0  0  0  0  0  0  0  0  0  0  0
   -0.4241    0.7462    0.0000 C   0  0  0  0  0  0  0  0  0  0  0  0
   -0.4241   -0.0788    0.0000 C   0  0  0  0  0  0  0  0  0  0  0  0
    0.2904   -0.4913    0.0000 C   0  0  0  0  0  0  0  0  0  0  0  0
    1.0049   -0.0788    0.0000 C   0  0  0  0  0  0  0  0  0  0  0  0
    1.0049    0.7462    0.0000 C   0  0  0  0  0  0  0  0  0  0  0  0
    1.7895   -0.3337    0.0000 N   0  0  0  0  0  0  0  0  0  0  0  0
    2.2744    0.3337    0.0000 C   0  0  0  0  0  0  0  0  0  0  0  0
    1.7895    1.0012    0.0000 C   0  0  0  0  0  0  0  0  0  0  0  0
    1.7895   -1.1587    0.0000 C   0  0  0  0  0  0  0  0  0  0  0  0
    2.5040   -1.5712    0.0000 C   0  0  0  0  0  0  0  0  0  0  0  0
    2.5040   -2.3962    0.0000 C   0  0  0  0  0  0  0  0  0  0  0  0
    2.0444    1.7858    0.0000 C   0  0  0  0  0  0  0  0  0  0  0  0
    2.8694    1.7858    0.0000 C   0  0  0  0  0  0  0  0  0  0  0  0
    3.2819    1.0713    0.0000 C   0  0  0  0  0  0  0  0  0  0  0  0
  1  2  2  0      
  2  3  1  0      
  3  4  2  0      
  4  5  1  0      
  5  6  2  0      
  6  1  1  0      
  1  7  1  0      
  5  8  1  0      
  8  9  1  0      
  9 10  1  0      
  9 11  2  0      
 10 12  2  0      
 12 13  1  0      
 13 14  2  0      
 14 15  1  0      
 15 16  2  0      
 16 10  1  0      
 15 17  1  0      
 17 18  1  0      
 18 19  2  0      
 19 16  1  0      
 17 20  1  0      
 20 21  1  0      
 21 22  2  0      
 19 23  1  0      
 23 24  1  0      
 24 25  2  0      
M  END
