MCSJ25_0063.mol
  ChemDraw04192414012D

 22 24  0  0  0  0  0  0  0  0999 V2000
   -3.6641   -0.1328    0.0000 C   0  0  0  0  0  0  0  0  0  0  0  0
   -3.4506   -0.9297    0.0000 C   0  0  0  0  0  0  0  0  0  0  0  0
   -2.6537   -1.1432    0.0000 C   0  0  0  0  0  0  0  0  0  0  0  0
   -2.0703   -0.5599    0.0000 C   0  0  0  0  0  0  0  0  0  0  0  0
   -2.2838    0.2370    0.0000 C   0  0  0  0  0  0  0  0  0  0  0  0
   -3.0807    0.4505    0.0000 C   0  0  0  0  0  0  0  0  0  0  0  0
   -2.2791   -1.8783    0.0000 N   0  0  0  0  0  0  0  0  0  0  0  0
   -1.4643   -1.7493    0.0000 C   0  0  0  0  0  0  0  0  0  0  0  0
   -1.3352   -0.9344    0.0000 C   0  0  0  0  0  0  0  0  0  0  0  0
   -0.6002   -0.5599    0.0000 S   0  0  0  0  0  0  0  0  0  0  0  0
    0.0917   -1.0092    0.0000 C   0  0  0  0  0  0  0  0  0  0  0  0
    0.8062   -0.5967    0.0000 C   0  0  0  0  0  0  0  0  0  0  0  0
    1.5207   -1.0092    0.0000 N   0  0  0  0  0  0  0  0  0  0  0  0
    2.2352   -0.5967    0.0000 C   0  0  0  0  0  0  0  0  0  0  0  0
    2.9496   -1.0092    0.0000 C   0  0  0  0  0  0  0  0  0  0  0  0
    3.6641   -0.5967    0.0000 C   0  0  0  0  0  0  0  0  0  0  0  0
    3.6641    0.2283    0.0000 C   0  0  0  0  0  0  0  0  0  0  0  0
    2.9496    0.6408    0.0000 C   0  0  0  0  0  0  0  0  0  0  0  0
    2.2352    0.2283    0.0000 C   0  0  0  0  0  0  0  0  0  0  0  0
    0.8062    0.2283    0.0000 O   0  0  0  0  0  0  0  0  0  0  0  0
    2.9496    1.4658    0.0000 O   0  0  0  0  0  0  0  0  0  0  0  0
    3.6641    1.8783    0.0000 C   0  0  0  0  0  0  0  0  0  0  0  0
  1  2  2  0      
  2  3  1  0      
  3  4  2  0      
  4  5  1  0      
  5  6  2  0      
  6  1  1  0      
  3  7  1  0      
  7  8  1  0      
  8  9  2  0      
  9  4  1  0      
  9 10  1  0      
 10 11  1  0      
 11 12  1  0      
 12 13  1  0      
 13 14  1  0      
 14 15  2  0      
 15 16  1  0      
 16 17  2  0      
 17 18  1  0      
 18 19  2  0      
 19 14  1  0      
 12 20  2  0      
 18 21  1  0      
 21 22  1  0      
M  END
