MCSJ16_0001.mol
  ChemDraw02132412082D

 31 34  0  0  0  0  0  0  0  0999 V2000
   -5.0991    2.3007    0.0000 C   0  0  0  0  0  0  0  0  0  0  0  0
   -5.3126    1.5038    0.0000 C   0  0  0  0  0  0  0  0  0  0  0  0
   -4.7293    0.9205    0.0000 C   0  0  0  0  0  0  0  0  0  0  0  0
   -3.9324    1.1340    0.0000 C   0  0  0  0  0  0  0  0  0  0  0  0
   -3.7188    1.9309    0.0000 C   0  0  0  0  0  0  0  0  0  0  0  0
   -4.3022    2.5142    0.0000 C   0  0  0  0  0  0  0  0  0  0  0  0
   -3.2405    0.6847    0.0000 N   0  0  0  0  0  0  0  0  0  0  0  0
   -2.5993    1.2038    0.0000 C   0  0  0  0  0  0  0  0  0  0  0  0
   -2.8950    1.9309    0.0000 C   0  0  0  0  0  0  0  0  0  0  0  0
   -2.4344    2.6153    0.0000 O   0  0  0  0  0  0  0  0  0  0  0  0
   -1.8004    0.9982    0.0000 O   0  0  0  0  0  0  0  0  0  0  0  0
   -3.2405   -0.1403    0.0000 C   0  0  0  0  0  0  0  0  0  0  0  0
   -2.5260   -0.5528    0.0000 C   0  0  0  0  0  0  0  0  0  0  0  0
   -2.5260   -1.3778    0.0000 N   0  0  0  0  0  0  0  0  0  0  0  0
   -1.8115   -0.1403    0.0000 C   0  0  0  0  0  0  0  0  0  0  0  0
   -1.0970   -0.5528    0.0000 N   0  0  0  0  0  0  0  0  0  0  0  0
   -1.0970   -1.3778    0.0000 N   0  0  0  0  0  0  0  0  0  0  0  0
   -0.3826   -0.1403    0.0000 C   0  0  0  0  0  0  0  0  0  0  0  0
    0.3319   -0.5528    0.0000 C   0  0  0  0  0  0  0  0  0  0  0  0
    0.3319   -1.3778    0.0000 O   0  0  0  0  0  0  0  0  0  0  0  0
    1.0464   -0.1403    0.0000 N   0  0  0  0  0  0  0  0  0  0  0  0
    1.7608   -0.5528    0.0000 C   0  0  0  0  0  0  0  0  0  0  0  0
    1.7608   -1.3778    0.0000 C   0  0  0  0  0  0  0  0  0  0  0  0
    2.4753   -1.7903    0.0000 C   0  0  0  0  0  0  0  0  0  0  0  0
    3.1898   -1.3778    0.0000 C   0  0  0  0  0  0  0  0  0  0  0  0
    3.1898   -0.5528    0.0000 C   0  0  0  0  0  0  0  0  0  0  0  0
    2.4753   -0.1403    0.0000 C   0  0  0  0  0  0  0  0  0  0  0  0
    3.9043   -1.7903    0.0000 S   0  0  0  0  0  0  0  0  0  0  0  0
    3.9043   -2.6153    0.0000 O   0  0  0  0  0  0  0  0  0  0  0  0
    4.4876   -1.2070    0.0000 O   0  0  0  0  0  0  0  0  0  0  0  0
    5.3126   -1.2070    0.0000 N   0  0  0  0  0  0  0  0  0  0  0  0
  1  2  2  0      
  2  3  1  0      
  3  4  2  0      
  4  5  1  0      
  5  6  2  0      
  6  1  1  0      
  4  7  1  0      
  7  8  1  0      
  8  9  1  0      
  9  5  1  0      
  9 10  2  0      
  8 11  2  0      
  7 12  1  0      
 12 13  1  0      
 13 14  1  0      
 13 15  2  0      
 15 16  1  0      
 16 17  1  0      
 14 17  2  0      
 16 18  1  0      
 18 19  1  0      
 19 20  2  0      
 19 21  1  0      
 21 22  1  0      
 22 23  2  0      
 23 24  1  0      
 24 25  2  0      
 25 26  1  0      
 26 27  2  0      
 27 22  1  0      
 25 28  1  0      
 28 29  2  0      
 28 30  1  0      
 30 31  1  0      
M  END
