Nafarelin
  -OEChem-01222105362D

179186  0     1  0  0  0  0  0999 V2000
    8.5991    6.2371    0.0000 O   0  0  0  0  0  0  0  0  0  0  0  0
    8.4567    7.5917    0.0000 O   0  0  0  0  0  0  0  0  0  0  0  0
    7.7331    2.7371    0.0000 O   0  0  0  0  0  0  0  0  0  0  0  0
   11.1972    1.7371    0.0000 O   0  0  0  0  0  0  0  0  0  0  0  0
    6.8819   10.8352    0.0000 O   0  0  0  0  0  0  0  0  0  0  0  0
   10.3312   -1.7629    0.0000 O   0  0  0  0  0  0  0  0  0  0  0  0
   10.3312   -7.7629    0.0000 O   0  0  0  0  0  0  0  0  0  0  0  0
   13.7744   -9.4948    0.0000 O   0  0  0  0  0  0  0  0  0  0  0  0
    9.4651   -7.2629    0.0000 O   0  0  0  0  0  0  0  0  0  0  0  0
    9.4651   -6.2629    0.0000 O   0  0  0  0  0  0  0  0  0  0  0  0
   10.3312   -2.7629    0.0000 O   0  0  0  0  0  0  0  0  0  0  0  0
   10.3312   -5.7629    0.0000 O   0  0  0  0  0  0  0  0  0  0  0  0
    4.2690   -3.2629    0.0000 O   0  0  0  0  0  0  0  0  0  0  0  0
    6.8671    6.2371    0.0000 N   0  0  0  0  0  0  0  0  0  0  0  0
    8.5991    4.2371    0.0000 N   0  0  0  0  0  0  0  0  0  0  0  0
    7.2978    8.8789    0.0000 N   0  0  0  0  0  0  0  0  0  0  0  0
    9.4651    1.7371    0.0000 N   0  0  0  0  0  0  0  0  0  0  0  0
    4.2690    4.7371    0.0000 N   0  0  0  0  0  0  0  0  0  0  0  0
    9.4651   -0.2629    0.0000 N   0  0  0  0  0  0  0  0  0  0  0  0
    8.5762   11.1953    0.0000 N   0  0  0  0  0  0  0  0  0  0  0  0
   12.1107   -8.8562    0.0000 N   0  0  0  0  0  0  0  0  0  0  0  0
    8.5991   -2.7629    0.0000 N   0  0  0  0  0  0  0  0  0  0  0  0
    9.4651   -9.2629    0.0000 N   0  0  0  0  0  0  0  0  0  0  0  0
    7.7331   -7.2629    0.0000 N   0  0  0  0  0  0  0  0  0  0  0  0
    8.5991   -4.7629    0.0000 N   0  0  0  0  0  0  0  0  0  0  0  0
    2.5369    4.7371    0.0000 N   0  0  0  0  0  0  0  0  0  0  0  0
    3.4030    3.2371    0.0000 N   0  0  0  0  0  0  0  0  0  0  0  0
    4.4262   -6.5948    0.0000 N   0  0  0  0  0  0  0  0  0  0  0  0
    6.9241  -10.8507    0.0000 N   0  0  0  0  0  0  0  0  0  0  0  0
    8.2331  -11.8018    0.0000 N   0  0  0  0  0  0  0  0  0  0  0  0
    6.7625    7.2316    0.0000 C   0  0  1  0  0  0  0  0  0  0  0  0
    5.7844    7.4395    0.0000 C   0  0  0  0  0  0  0  0  0  0  0  0
    5.2844    6.5735    0.0000 C   0  0  0  0  0  0  0  0  0  0  0  0
    5.9535    5.8304    0.0000 C   0  0  0  0  0  0  0  0  0  0  0  0
    7.7331    5.7371    0.0000 C   0  0  0  0  0  0  0  0  0  0  0  0
    7.7331    4.7371    0.0000 C   0  0  2  0  0  0  0  0  0  0  0  0
    7.5057    7.9007    0.0000 C   0  0  0  0  0  0  0  0  0  0  0  0
    6.8671    4.2371    0.0000 C   0  0  0  0  0  0  0  0  0  0  0  0
    6.0010    4.7371    0.0000 C   0  0  0  0  0  0  0  0  0  0  0  0
    9.4651    2.7371    0.0000 C   0  0  2  0  0  0  0  0  0  0  0  0
    8.5991    3.2371    0.0000 C   0  0  0  0  0  0  0  0  0  0  0  0
   10.3312    3.2371    0.0000 C   0  0  0  0  0  0  0  0  0  0  0  0
   10.8312    4.1031    0.0000 C   0  0  0  0  0  0  0  0  0  0  0  0
    5.1350    4.2371    0.0000 C   0  0  0  0  0  0  0  0  0  0  0  0
    8.0409    9.5480    0.0000 C   0  0  0  0  0  0  0  0  0  0  0  0
   11.8312    4.1031    0.0000 C   0  0  0  0  0  0  0  0  0  0  0  0
   10.3312    4.9691    0.0000 C   0  0  0  0  0  0  0  0  0  0  0  0
   10.3312    1.2371    0.0000 C   0  0  0  0  0  0  0  0  0  0  0  0
   10.3312    0.2371    0.0000 C   0  0  1  0  0  0  0  0  0  0  0  0
    7.8330   10.5262    0.0000 C   0  0  0  0  0  0  0  0  0  0  0  0
   11.1972   -0.2629    0.0000 C   0  0  0  0  0  0  0  0  0  0  0  0
   12.0632    0.2371    0.0000 C   0  0  0  0  0  0  0  0  0  0  0  0
    8.5991   -1.7629    0.0000 C   0  0  2  0  0  0  0  0  0  0  0  0
    9.4651   -1.2629    0.0000 C   0  0  0  0  0  0  0  0  0  0  0  0
    3.4030    4.2371    0.0000 C   0  0  0  0  0  0  0  0  0  0  0  0
   11.1972   -9.2629    0.0000 C   0  0  1  0  0  0  0  0  0  0  0  0
   11.3017  -10.2574    0.0000 C   0  0  0  0  0  0  0  0  0  0  0  0
    7.7331   -6.2629    0.0000 C   0  0  1  0  0  0  0  0  0  0  0  0
    8.5991   -8.7629    0.0000 C   0  0  1  0  0  0  0  0  0  0  0  0
    7.7331   -1.2629    0.0000 C   0  0  0  0  0  0  0  0  0  0  0  0
   12.2799  -10.4653    0.0000 C   0  0  0  0  0  0  0  0  0  0  0  0
   12.9292   -0.2629    0.0000 C   0  0  0  0  0  0  0  0  0  0  0  0
    6.8671   -5.7629    0.0000 C   0  0  0  0  0  0  0  0  0  0  0  0
   10.3312   -8.7629    0.0000 C   0  0  0  0  0  0  0  0  0  0  0  0
   12.0632    1.2371    0.0000 C   0  0  0  0  0  0  0  0  0  0  0  0
   12.7799   -9.5993    0.0000 C   0  0  0  0  0  0  0  0  0  0  0  0
    9.4651   -4.2629    0.0000 C   0  0  2  0  0  0  0  0  0  0  0  0
    7.7331   -9.2629    0.0000 C   0  0  0  0  0  0  0  0  0  0  0  0
    8.5991   -7.7629    0.0000 C   0  0  0  0  0  0  0  0  0  0  0  0
    6.0010   -6.2629    0.0000 C   0  0  0  0  0  0  0  0  0  0  0  0
   13.7953    0.2371    0.0000 C   0  0  0  0  0  0  0  0  0  0  0  0
    8.5991   -5.7629    0.0000 C   0  0  0  0  0  0  0  0  0  0  0  0
    9.4651   -3.2629    0.0000 C   0  0  0  0  0  0  0  0  0  0  0  0
    6.8671   -1.7629    0.0000 C   0  0  0  0  0  0  0  0  0  0  0  0
   13.7953    1.2371    0.0000 C   0  0  0  0  0  0  0  0  0  0  0  0
   12.9292    1.7371    0.0000 C   0  0  0  0  0  0  0  0  0  0  0  0
    5.8980   -7.2516    0.0000 C   0  0  0  0  0  0  0  0  0  0  0  0
    7.7331  -10.2629    0.0000 C   0  0  0  0  0  0  0  0  0  0  0  0
   10.3312   -4.7629    0.0000 C   0  0  0  0  0  0  0  0  0  0  0  0
    5.0932   -5.8578    0.0000 C   0  0  0  0  0  0  0  0  0  0  0  0
    4.9195   -7.4578    0.0000 C   0  0  0  0  0  0  0  0  0  0  0  0
   14.6892   -0.2976    0.0000 C   0  0  0  0  0  0  0  0  0  0  0  0
   14.6892    1.7718    0.0000 C   0  0  0  0  0  0  0  0  0  0  0  0
    6.0010   -1.2629    0.0000 C   0  0  0  0  0  0  0  0  0  0  0  0
    6.8671   -2.7629    0.0000 C   0  0  0  0  0  0  0  0  0  0  0  0
    6.5658   -7.9959    0.0000 C   0  0  0  0  0  0  0  0  0  0  0  0
    4.6088   -8.4084    0.0000 C   0  0  0  0  0  0  0  0  0  0  0  0
   15.5953    0.2163    0.0000 C   0  0  0  0  0  0  0  0  0  0  0  0
    8.5421  -10.8507    0.0000 C   0  0  0  0  0  0  0  0  0  0  0  0
   15.5953    1.2579    0.0000 C   0  0  0  0  0  0  0  0  0  0  0  0
    6.2552   -8.9464    0.0000 C   0  0  0  0  0  0  0  0  0  0  0  0
    5.1350   -1.7629    0.0000 C   0  0  0  0  0  0  0  0  0  0  0  0
    6.0010   -3.2629    0.0000 C   0  0  0  0  0  0  0  0  0  0  0  0
    5.2767   -9.1527    0.0000 C   0  0  0  0  0  0  0  0  0  0  0  0
    5.1350   -2.7629    0.0000 C   0  0  0  0  0  0  0  0  0  0  0  0
    7.2331  -11.8018    0.0000 C   0  0  0  0  0  0  0  0  0  0  0  0
    7.3414    7.0094    0.0000 H   0  0  0  0  0  0  0  0  0  0  0  0
    5.9760    8.0292    0.0000 H   0  0  0  0  0  0  0  0  0  0  0  0
    5.2180    7.6917    0.0000 H   0  0  0  0  0  0  0  0  0  0  0  0
    4.7828    6.9379    0.0000 H   0  0  0  0  0  0  0  0  0  0  0  0
    4.8695    6.1128    0.0000 H   0  0  0  0  0  0  0  0  0  0  0  0
    5.4519    5.4659    0.0000 H   0  0  0  0  0  0  0  0  0  0  0  0
    6.2635    5.2934    0.0000 H   0  0  0  0  0  0  0  0  0  0  0  0
    7.7331    4.1171    0.0000 H   0  0  0  0  0  0  0  0  0  0  0  0
    6.4685    3.7621    0.0000 H   0  0  0  0  0  0  0  0  0  0  0  0
    7.2656    3.7621    0.0000 H   0  0  0  0  0  0  0  0  0  0  0  0
    9.1360    4.5471    0.0000 H   0  0  0  0  0  0  0  0  0  0  0  0
    6.3996    5.2120    0.0000 H   0  0  0  0  0  0  0  0  0  0  0  0
    5.6025    5.2120    0.0000 H   0  0  0  0  0  0  0  0  0  0  0  0
    6.7081    9.0705    0.0000 H   0  0  0  0  0  0  0  0  0  0  0  0
   10.0021    2.4271    0.0000 H   0  0  0  0  0  0  0  0  0  0  0  0
   10.4388    2.6265    0.0000 H   0  0  0  0  0  0  0  0  0  0  0  0
    9.8928    3.6755    0.0000 H   0  0  0  0  0  0  0  0  0  0  0  0
   10.2112    4.1031    0.0000 H   0  0  0  0  0  0  0  0  0  0  0  0
    4.7365    3.7621    0.0000 H   0  0  0  0  0  0  0  0  0  0  0  0
    5.5335    3.7621    0.0000 H   0  0  0  0  0  0  0  0  0  0  0  0
    8.3695    9.0222    0.0000 H   0  0  0  0  0  0  0  0  0  0  0  0
    8.6158    9.7803    0.0000 H   0  0  0  0  0  0  0  0  0  0  0  0
    8.9282    1.4271    0.0000 H   0  0  0  0  0  0  0  0  0  0  0  0
   11.8312    3.4831    0.0000 H   0  0  0  0  0  0  0  0  0  0  0  0
   12.4512    4.1031    0.0000 H   0  0  0  0  0  0  0  0  0  0  0  0
   11.8312    4.7231    0.0000 H   0  0  0  0  0  0  0  0  0  0  0  0
   10.8681    5.2791    0.0000 H   0  0  0  0  0  0  0  0  0  0  0  0
   10.0212    5.5061    0.0000 H   0  0  0  0  0  0  0  0  0  0  0  0
    9.7942    4.6591    0.0000 H   0  0  0  0  0  0  0  0  0  0  0  0
    9.7942    0.5471    0.0000 H   0  0  0  0  0  0  0  0  0  0  0  0
   10.7987   -0.7379    0.0000 H   0  0  0  0  0  0  0  0  0  0  0  0
   11.5957   -0.7379    0.0000 H   0  0  0  0  0  0  0  0  0  0  0  0
    8.9282    0.0471    0.0000 H   0  0  0  0  0  0  0  0  0  0  0  0
    8.0622   -2.0729    0.0000 H   0  0  0  0  0  0  0  0  0  0  0  0
   11.2296   -8.6438    0.0000 H   0  0  0  0  0  0  0  0  0  0  0  0
    8.4472   11.8018    0.0000 H   0  0  0  0  0  0  0  0  0  0  0  0
    9.1658   11.0037    0.0000 H   0  0  0  0  0  0  0  0  0  0  0  0
   10.6817  -10.2574    0.0000 H   0  0  0  0  0  0  0  0  0  0  0  0
   11.2369  -10.8740    0.0000 H   0  0  0  0  0  0  0  0  0  0  0  0
    8.2700   -6.5729    0.0000 H   0  0  0  0  0  0  0  0  0  0  0  0
    8.5991   -9.3829    0.0000 H   0  0  0  0  0  0  0  0  0  0  0  0
    8.1316   -0.7880    0.0000 H   0  0  0  0  0  0  0  0  0  0  0  0
    7.3346   -0.7880    0.0000 H   0  0  0  0  0  0  0  0  0  0  0  0
   12.0883  -11.0550    0.0000 H   0  0  0  0  0  0  0  0  0  0  0  0
   12.8463  -10.7175    0.0000 H   0  0  0  0  0  0  0  0  0  0  0  0
   12.9292   -0.8829    0.0000 H   0  0  0  0  0  0  0  0  0  0  0  0
    7.2656   -5.2880    0.0000 H   0  0  0  0  0  0  0  0  0  0  0  0
    6.4685   -5.2880    0.0000 H   0  0  0  0  0  0  0  0  0  0  0  0
   12.2396   -8.2497    0.0000 H   0  0  0  0  0  0  0  0  0  0  0  0
    8.0622   -3.0729    0.0000 H   0  0  0  0  0  0  0  0  0  0  0  0
   11.5263    1.5471    0.0000 H   0  0  0  0  0  0  0  0  0  0  0  0
    9.4651   -9.8829    0.0000 H   0  0  0  0  0  0  0  0  0  0  0  0
    9.4651   -4.8829    0.0000 H   0  0  0  0  0  0  0  0  0  0  0  0
    7.5210   -8.6803    0.0000 H   0  0  0  0  0  0  0  0  0  0  0  0
    7.1225   -9.3706    0.0000 H   0  0  0  0  0  0  0  0  0  0  0  0
    7.1962   -7.5729    0.0000 H   0  0  0  0  0  0  0  0  0  0  0  0
    8.0622   -4.4529    0.0000 H   0  0  0  0  0  0  0  0  0  0  0  0
   12.9292    2.3571    0.0000 H   0  0  0  0  0  0  0  0  0  0  0  0
    2.0000    4.4271    0.0000 H   0  0  0  0  0  0  0  0  0  0  0  0
    2.5369    5.3571    0.0000 H   0  0  0  0  0  0  0  0  0  0  0  0
    2.8660    2.9271    0.0000 H   0  0  0  0  0  0  0  0  0  0  0  0
    3.9399    2.9271    0.0000 H   0  0  0  0  0  0  0  0  0  0  0  0
   10.9417   -4.8706    0.0000 H   0  0  0  0  0  0  0  0  0  0  0  0
   10.5432   -4.1803    0.0000 H   0  0  0  0  0  0  0  0  0  0  0  0
    4.9654   -5.2511    0.0000 H   0  0  0  0  0  0  0  0  0  0  0  0
   14.6820   -0.9175    0.0000 H   0  0  0  0  0  0  0  0  0  0  0  0
    3.8098   -6.5279    0.0000 H   0  0  0  0  0  0  0  0  0  0  0  0
   14.6820    2.3917    0.0000 H   0  0  0  0  0  0  0  0  0  0  0  0
    6.0010   -0.6429    0.0000 H   0  0  0  0  0  0  0  0  0  0  0  0
    7.4040   -3.0729    0.0000 H   0  0  0  0  0  0  0  0  0  0  0  0
    7.1725   -7.8681    0.0000 H   0  0  0  0  0  0  0  0  0  0  0  0
    4.0021   -8.5362    0.0000 H   0  0  0  0  0  0  0  0  0  0  0  0
    6.3344  -10.6591    0.0000 H   0  0  0  0  0  0  0  0  0  0  0  0
   16.1310   -0.0958    0.0000 H   0  0  0  0  0  0  0  0  0  0  0  0
    9.1318  -10.6591    0.0000 H   0  0  0  0  0  0  0  0  0  0  0  0
   16.1310    1.5700    0.0000 H   0  0  0  0  0  0  0  0  0  0  0  0
    6.6692   -9.4079    0.0000 H   0  0  0  0  0  0  0  0  0  0  0  0
    4.5981   -1.4529    0.0000 H   0  0  0  0  0  0  0  0  0  0  0  0
    6.0010   -3.8829    0.0000 H   0  0  0  0  0  0  0  0  0  0  0  0
    5.0841   -9.7420    0.0000 H   0  0  0  0  0  0  0  0  0  0  0  0
    6.8687  -12.3033    0.0000 H   0  0  0  0  0  0  0  0  0  0  0  0
   10.8681   -6.0729    0.0000 H   0  0  0  0  0  0  0  0  0  0  0  0
    3.7320   -2.9529    0.0000 H   0  0  0  0  0  0  0  0  0  0  0  0
  1 35  2  0  0  0  0
  2 37  2  0  0  0  0
  3 41  2  0  0  0  0
  4 48  2  0  0  0  0
  5 50  2  0  0  0  0
  6 54  2  0  0  0  0
  7 64  2  0  0  0  0
  8 66  2  0  0  0  0
  9 69  2  0  0  0  0
 10 72  2  0  0  0  0
 11 73  2  0  0  0  0
 12 79  1  0  0  0  0
 12178  1  0  0  0  0
 13 95  1  0  0  0  0
 13179  1  0  0  0  0
 14 31  1  0  0  0  0
 14 34  1  0  0  0  0
 14 35  1  0  0  0  0
 36 15  1  1  0  0  0
 15 41  1  0  0  0  0
 15107  1  0  0  0  0
 16 37  1  0  0  0  0
 16 45  1  0  0  0  0
 16110  1  0  0  0  0
 40 17  1  6  0  0  0
 17 48  1  0  0  0  0
 17119  1  0  0  0  0
 18 44  1  0  0  0  0
 18 55  2  0  0  0  0
 49 19  1  1  0  0  0
 19 54  1  0  0  0  0
 19129  1  0  0  0  0
 20 50  1  0  0  0  0
 20132  1  0  0  0  0
 20133  1  0  0  0  0
 21 56  1  0  0  0  0
 21 66  1  0  0  0  0
 21145  1  0  0  0  0
 53 22  1  1  0  0  0
 22 73  1  0  0  0  0
 22146  1  0  0  0  0
 59 23  1  1  0  0  0
 23 64  1  0  0  0  0
 23148  1  0  0  0  0
 58 24  1  1  0  0  0
 24 69  1  0  0  0  0
 24152  1  0  0  0  0
 67 25  1  6  0  0  0
 25 72  1  0  0  0  0
 25153  1  0  0  0  0
 26 55  1  0  0  0  0
 26155  1  0  0  0  0
 26156  1  0  0  0  0
 27 55  1  0  0  0  0
 27157  1  0  0  0  0
 27158  1  0  0  0  0
 28 80  1  0  0  0  0
 28 81  1  0  0  0  0
 28163  1  0  0  0  0
 29 78  1  0  0  0  0
 29 96  1  0  0  0  0
 29169  1  0  0  0  0
 30 89  1  0  0  0  0
 30 96  2  0  0  0  0
 31 32  1  0  0  0  0
 31 37  1  1  0  0  0
 31 97  1  0  0  0  0
 32 33  1  0  0  0  0
 32 98  1  0  0  0  0
 32 99  1  0  0  0  0
 33 34  1  0  0  0  0
 33100  1  0  0  0  0
 33101  1  0  0  0  0
 34102  1  0  0  0  0
 34103  1  0  0  0  0
 35 36  1  0  0  0  0
 36 38  1  0  0  0  0
 36104  1  0  0  0  0
 38 39  1  0  0  0  0
 38105  1  0  0  0  0
 38106  1  0  0  0  0
 39 44  1  0  0  0  0
 39108  1  0  0  0  0
 39109  1  0  0  0  0
 40 41  1  0  0  0  0
 40 42  1  0  0  0  0
 40111  1  0  0  0  0
 42 43  1  0  0  0  0
 42112  1  0  0  0  0
 42113  1  0  0  0  0
 43 46  1  0  0  0  0
 43 47  1  0  0  0  0
 43114  1  0  0  0  0
 44115  1  0  0  0  0
 44116  1  0  0  0  0
 45 50  1  0  0  0  0
 45117  1  0  0  0  0
 45118  1  0  0  0  0
 46120  1  0  0  0  0
 46121  1  0  0  0  0
 46122  1  0  0  0  0
 47123  1  0  0  0  0
 47124  1  0  0  0  0
 47125  1  0  0  0  0
 48 49  1  0  0  0  0
 49 51  1  0  0  0  0
 49126  1  0  0  0  0
 51 52  1  0  0  0  0
 51127  1  0  0  0  0
 51128  1  0  0  0  0
 52 62  2  0  0  0  0
 52 65  1  0  0  0  0
 53 54  1  0  0  0  0
 53 60  1  0  0  0  0
 53130  1  0  0  0  0
 56 57  1  0  0  0  0
 56 64  1  1  0  0  0
 56131  1  0  0  0  0
 57 61  1  0  0  0  0
 57134  1  0  0  0  0
 57135  1  0  0  0  0
 58 63  1  0  0  0  0
 58 72  1  0  0  0  0
 58136  1  0  0  0  0
 59 68  1  0  0  0  0
 59 69  1  0  0  0  0
 59137  1  0  0  0  0
 60 74  1  0  0  0  0
 60138  1  0  0  0  0
 60139  1  0  0  0  0
 61 66  1  0  0  0  0
 61140  1  0  0  0  0
 61141  1  0  0  0  0
 62 71  1  0  0  0  0
 62142  1  0  0  0  0
 63 70  1  0  0  0  0
 63143  1  0  0  0  0
 63144  1  0  0  0  0
 65 76  2  0  0  0  0
 65147  1  0  0  0  0
 67 73  1  0  0  0  0
 67 79  1  0  0  0  0
 67149  1  0  0  0  0
 68 78  1  0  0  0  0
 68150  1  0  0  0  0
 68151  1  0  0  0  0
 70 77  1  0  0  0  0
 70 80  2  0  0  0  0
 71 75  1  0  0  0  0
 71 82  2  0  0  0  0
 74 84  2  0  0  0  0
 74 85  1  0  0  0  0
 75 76  1  0  0  0  0
 75 83  2  0  0  0  0
 76154  1  0  0  0  0
 77 81  1  0  0  0  0
 77 86  2  0  0  0  0
 78 89  2  0  0  0  0
 79159  1  0  0  0  0
 79160  1  0  0  0  0
 80161  1  0  0  0  0
 81 87  2  0  0  0  0
 82 88  1  0  0  0  0
 82162  1  0  0  0  0
 83 90  1  0  0  0  0
 83164  1  0  0  0  0
 84 92  1  0  0  0  0
 84165  1  0  0  0  0
 85 93  2  0  0  0  0
 85166  1  0  0  0  0
 86 91  1  0  0  0  0
 86167  1  0  0  0  0
 87 94  1  0  0  0  0
 87168  1  0  0  0  0
 88 90  2  0  0  0  0
 88170  1  0  0  0  0
 89171  1  0  0  0  0
 90172  1  0  0  0  0
 91 94  2  0  0  0  0
 91173  1  0  0  0  0
 92 95  2  0  0  0  0
 92174  1  0  0  0  0
 93 95  1  0  0  0  0
 93175  1  0  0  0  0
 94176  1  0  0  0  0
 96177  1  0  0  0  0
M  END
> <PUBCHEM_COMPOUND_CID>
25077405

> <PUBCHEM_COMPOUND_CANONICALIZED>
1

> <PUBCHEM_CACTVS_COMPLEXITY>
2730

> <PUBCHEM_CACTVS_HBOND_ACCEPTOR>
15

> <PUBCHEM_CACTVS_HBOND_DONOR>
16

> <PUBCHEM_CACTVS_ROTATABLE_BOND>
33

> <PUBCHEM_CACTVS_SUBSKEYS>
AAADcfB//AAAAAAAAAAAAAAAAAAAAWLFiwAwYMGAAAAAAFjB/AAAHgAQCAAADSzhngY/1vfJkgCoAzV3dACCgC2xMqAJ2aG+fJiKfvbC2bOUcAhu9hPY2Cecy+CO4AACAAASAADAAAQAACQAAAAAAAAAAA==

> <PUBCHEM_IUPAC_OPENEYE_NAME>
(2S)-N-[(1S)-2-[[(1S)-2-[[(1S)-2-[[(1S)-2-[[(1R)-2-[[(1S)-1-[[(1S)-1-[(2S)-2-[(2-amino-2-oxo-ethyl)carbamoyl]pyrrolidine-1-carbonyl]-4-guanidino-butyl]carbamoyl]-3-methyl-butyl]amino]-1-(2-naphthylmethyl)-2-oxo-ethyl]amino]-1-[(4-hydroxyphenyl)methyl]-2-oxo-ethyl]amino]-1-(hydroxymethyl)-2-oxo-ethyl]amino]-1-(1H-indol-3-ylmethyl)-2-oxo-ethyl]amino]-1-(1H-imidazol-5-ylmethyl)-2-oxo-ethyl]-5-oxo-pyrrolidine-2-carboxamide

> <PUBCHEM_IUPAC_CAS_NAME>
(2S)-N-[(2S)-1-[[(2S)-1-[[(2S)-1-[[(2S)-1-[[(2R)-1-[[(2S)-1-[[(2S)-1-[(2S)-2-[[(2-amino-2-oxoethyl)amino]-oxomethyl]-1-pyrrolidinyl]-5-(diaminomethylideneamino)-1-oxopentan-2-yl]amino]-4-methyl-1-oxopentan-2-yl]amino]-3-(2-naphthalenyl)-1-oxopropan-2-yl]amino]-3-(4-hydroxyphenyl)-1-oxopropan-2-yl]amino]-3-hydroxy-1-oxopropan-2-yl]amino]-3-(1H-indol-3-yl)-1-oxopropan-2-yl]amino]-3-(1H-imidazol-5-yl)-1-oxopropan-2-yl]-5-oxo-2-pyrrolidinecarboxamide

> <PUBCHEM_IUPAC_NAME_MARKUP>
(2<I>S</I>)-<I>N</I>-[(2<I>S</I>)-1-[[(2<I>S</I>)-1-[[(2<I>S</I>)-1-[[(2<I>S</I>)-1-[[(2<I>R</I>)-1-[[(2<I>S</I>)-1-[[(2<I>S</I>)-1-[(2<I>S</I>)-2-[(2-amino-2-oxoethyl)carbamoyl]pyrrolidin-1-yl]-5-(diaminomethylideneamino)-1-oxopentan-2-yl]amino]-4-methyl-1-oxopentan-2-yl]amino]-3-naphthalen-2-yl-1-oxopropan-2-yl]amino]-3-(4-hydroxyphenyl)-1-oxopropan-2-yl]amino]-3-hydroxy-1-oxopropan-2-yl]amino]-3-(1<I>H</I>-indol-3-yl)-1-oxopropan-2-yl]amino]-3-(1<I>H</I>-imidazol-5-yl)-1-oxopropan-2-yl]-5-oxopyrrolidine-2-carboxamide

> <PUBCHEM_IUPAC_NAME>
(2S)-N-[(2S)-1-[[(2S)-1-[[(2S)-1-[[(2S)-1-[[(2R)-1-[[(2S)-1-[[(2S)-1-[(2S)-2-[(2-amino-2-oxoethyl)carbamoyl]pyrrolidin-1-yl]-5-(diaminomethylideneamino)-1-oxopentan-2-yl]amino]-4-methyl-1-oxopentan-2-yl]amino]-3-naphthalen-2-yl-1-oxopropan-2-yl]amino]-3-(4-hydroxyphenyl)-1-oxopropan-2-yl]amino]-3-hydroxy-1-oxopropan-2-yl]amino]-3-(1H-indol-3-yl)-1-oxopropan-2-yl]amino]-3-(1H-imidazol-5-yl)-1-oxopropan-2-yl]-5-oxopyrrolidine-2-carboxamide

> <PUBCHEM_IUPAC_SYSTEMATIC_NAME>
(2S)-N-[(2S)-1-[[(2S)-1-[[(2S)-1-[[(2S)-1-[[(2R)-1-[[(2S)-1-[[(2S)-1-[(2S)-2-[(2-azanyl-2-oxidanylidene-ethyl)carbamoyl]pyrrolidin-1-yl]-5-[bis(azanyl)methylideneamino]-1-oxidanylidene-pentan-2-yl]amino]-4-methyl-1-oxidanylidene-pentan-2-yl]amino]-3-naphthalen-2-yl-1-oxidanylidene-propan-2-yl]amino]-3-(4-hydroxyphenyl)-1-oxidanylidene-propan-2-yl]amino]-3-oxidanyl-1-oxidanylidene-propan-2-yl]amino]-3-(1H-indol-3-yl)-1-oxidanylidene-propan-2-yl]amino]-3-(1H-imidazol-5-yl)-1-oxidanylidene-propan-2-yl]-5-oxidanylidene-pyrrolidine-2-carboxamide

> <PUBCHEM_IUPAC_TRADITIONAL_NAME>
(2S)-N-[(1S)-2-[[(1S)-2-[[(1S)-2-[[(1S)-2-[[(1R)-2-[[(1S)-1-[[(1S)-1-[(2S)-2-[(2-amino-2-keto-ethyl)carbamoyl]pyrrolidine-1-carbonyl]-4-guanidino-butyl]carbamoyl]-3-methyl-butyl]amino]-2-keto-1-(2-naphthylmethyl)ethyl]amino]-1-(4-hydroxybenzyl)-2-keto-ethyl]amino]-2-keto-1-methylol-ethyl]amino]-1-(1H-indol-3-ylmethyl)-2-keto-ethyl]amino]-1-(1H-imidazol-5-ylmethyl)-2-keto-ethyl]-5-keto-pyrrolidine-2-carboxamide

> <PUBCHEM_IUPAC_INCHI>
InChI=1S/C66H83N17O13/c1-36(2)25-48(58(89)76-47(13-7-23-71-66(68)69)65(96)83-24-8-14-54(83)64(95)73-33-55(67)86)77-60(91)50(28-38-15-18-39-9-3-4-10-40(39)26-38)78-59(90)49(27-37-16-19-43(85)20-17-37)79-63(94)53(34-84)82-61(92)51(29-41-31-72-45-12-6-5-11-44(41)45)80-62(93)52(30-42-32-70-35-74-42)81-57(88)46-21-22-56(87)75-46/h3-6,9-12,15-20,26,31-32,35-36,46-54,72,84-85H,7-8,13-14,21-25,27-30,33-34H2,1-2H3,(H2,67,86)(H,70,74)(H,73,95)(H,75,87)(H,76,89)(H,77,91)(H,78,90)(H,79,94)(H,80,93)(H,81,88)(H,82,92)(H4,68,69,71)/t46-,47-,48-,49-,50+,51-,52-,53-,54-/m0/s1

> <PUBCHEM_IUPAC_INCHIKEY>
RWHUEXWOYVBUCI-ITQXDASVSA-N

> <PUBCHEM_XLOGP3_AA>
0.8

> <PUBCHEM_EXACT_MASS>
1321.635626

> <PUBCHEM_MOLECULAR_FORMULA>
C66H83N17O13

> <PUBCHEM_MOLECULAR_WEIGHT>
1322.5

> <PUBCHEM_OPENEYE_CAN_SMILES>
CC(C)CC(C(=O)NC(CCCN=C(N)N)C(=O)N1CCCC1C(=O)NCC(=O)N)NC(=O)C(CC2=CC3=CC=CC=C3C=C2)NC(=O)C(CC4=CC=C(C=C4)O)NC(=O)C(CO)NC(=O)C(CC5=CNC6=CC=CC=C65)NC(=O)C(CC7=CN=CN7)NC(=O)C8CCC(=O)N8

> <PUBCHEM_OPENEYE_ISO_SMILES>
CC(C)C[C@@H](C(=O)N[C@@H](CCCN=C(N)N)C(=O)N1CCC[C@H]1C(=O)NCC(=O)N)NC(=O)[C@@H](CC2=CC3=CC=CC=C3C=C2)NC(=O)[C@H](CC4=CC=C(C=C4)O)NC(=O)[C@H](CO)NC(=O)[C@H](CC5=CNC6=CC=CC=C65)NC(=O)[C@H](CC7=CN=CN7)NC(=O)[C@@H]8CCC(=O)N8

> <PUBCHEM_CACTVS_TPSA>
475

> <PUBCHEM_MONOISOTOPIC_WEIGHT>
1321.635626

> <PUBCHEM_TOTAL_CHARGE>
0

> <PUBCHEM_HEAVY_ATOM_COUNT>
96

> <PUBCHEM_ATOM_DEF_STEREO_COUNT>
9

> <PUBCHEM_ATOM_UDEF_STEREO_COUNT>
0

> <PUBCHEM_BOND_DEF_STEREO_COUNT>
0

> <PUBCHEM_BOND_UDEF_STEREO_COUNT>
0

> <PUBCHEM_ISOTOPIC_ATOM_COUNT>
0

> <PUBCHEM_COMPONENT_COUNT>
1

> <PUBCHEM_CACTVS_TAUTO_COUNT>
-1

> <PUBCHEM_COORDINATE_TYPE>
1
5
255

> <PUBCHEM_BONDANNOTATIONS>
36  15  5
40  17  6
49  19  5
53  22  5
59  23  5
58  24  5
67  25  6
28  80  8
28  81  8
29  78  8
29  96  8
30  89  8
30  96  8
31  37  5
52  62  8
52  65  8
56  64  5
62  71  8
65  76  8
70  77  8
70  80  8
71  75  8
71  82  8
74  84  8
74  85  8
75  76  8
75  83  8
77  81  8
77  86  8
78  89  8
81  87  8
82  88  8
83  90  8
84  92  8
85  93  8
86  91  8
87  94  8
88  90  8
91  94  8
92  95  8
93  95  8

$$$$
