SA18_0003.mol
  ChemDraw05222415202D

 37 41  0  0  0  0  0  0  0  0999 V2000
    0.7509   -1.6288    0.0000 C   0  0  0  0  0  0  0  0  0  0  0  0
    0.7509   -2.4538    0.0000 C   0  0  0  0  0  0  0  0  0  0  0  0
    1.4654   -2.8663    0.0000 C   0  0  0  0  0  0  0  0  0  0  0  0
    2.1799   -2.4538    0.0000 C   0  0  0  0  0  0  0  0  0  0  0  0
    2.1799   -1.6288    0.0000 C   0  0  0  0  0  0  0  0  0  0  0  0
    1.4654   -1.2163    0.0000 C   0  0  0  0  0  0  0  0  0  0  0  0
    0.0365   -1.2163    0.0000 C   0  0  0  0  0  0  0  0  0  0  0  0
    0.0365   -0.3913    0.0000 N   0  0  0  0  0  0  0  0  0  0  0  0
    2.8944   -2.8663    0.0000 F   0  0  0  0  0  0  0  0  0  0  0  0
    2.8944   -1.2163    0.0000 F   0  0  0  0  0  0  0  0  0  0  0  0
   -0.6780    0.0212    0.0000 C   0  0  0  0  0  0  0  0  0  0  0  0
    0.7509    0.0212    0.0000 C   0  0  0  0  0  0  0  0  0  0  0  0
    1.4654   -0.3913    0.0000 O   0  0  0  0  0  0  0  0  0  0  0  0
    0.7509    0.8462    0.0000 N   0  0  0  0  0  0  0  0  0  0  0  0
   -1.3925   -0.3913    0.0000 N   0  0  0  0  0  0  0  0  0  0  0  0
   -0.6780    0.8462    0.0000 N   0  0  0  0  0  0  0  0  0  0  0  0
    0.0365    1.2587    0.0000 C   0  0  0  0  0  0  0  0  0  0  0  0
    0.0365    2.0837    0.0000 O   0  0  0  0  0  0  0  0  0  0  0  0
    1.4654    1.2587    0.0000 C   0  0  0  0  0  0  0  0  0  0  0  0
    2.0997    0.9002    0.0000 C   0  0  0  0  0  0  0  0  0  0  0  0
   -2.1069    0.0212    0.0000 C   0  0  0  0  0  0  0  0  0  0  0  0
   -2.8214   -0.3913    0.0000 C   0  0  0  0  0  0  0  0  0  0  0  0
   -2.1069    0.8462    0.0000 C   0  0  0  0  0  0  0  0  0  0  0  0
   -2.8214    1.2587    0.0000 C   0  0  0  0  0  0  0  0  0  0  0  0
   -3.5359    0.8462    0.0000 C   0  0  0  0  0  0  0  0  0  0  0  0
   -3.5359    0.0212    0.0000 C   0  0  0  0  0  0  0  0  0  0  0  0
   -2.8214   -1.2163    0.0000 Cl  0  0  0  0  0  0  0  0  0  0  0  0
   -2.9929    2.0656    0.0000 C   0  0  0  0  0  0  0  0  0  0  0  0
   -3.8134    2.1519    0.0000 N   0  0  0  0  0  0  0  0  0  0  0  0
   -4.1490    1.3982    0.0000 N   0  0  0  0  0  0  0  0  0  0  0  0
   -4.2259    2.8663    0.0000 C   0  0  0  0  0  0  0  0  0  0  0  0
    2.1860    0.0797    0.0000 N   0  0  0  0  0  0  0  0  0  0  0  0
    2.9929   -0.0918    0.0000 C   0  0  0  0  0  0  0  0  0  0  0  0
    3.4054    0.6226    0.0000 N   0  0  0  0  0  0  0  0  0  0  0  0
    2.8534    1.2357    0.0000 N   0  0  0  0  0  0  0  0  0  0  0  0
    4.2259    0.7089    0.0000 C   0  0  0  0  0  0  0  0  0  0  0  0
    0.0365   -2.8663    0.0000 F   0  0  0  0  0  0  0  0  0  0  0  0
  1  2  2  0      
  2  3  1  0      
  3  4  2  0      
  4  5  1  0      
  5  6  2  0      
  6  1  1  0      
  1  7  1  0      
  7  8  1  0      
  4  9  1  0      
  5 10  1  0      
  8 11  1  0      
  8 12  1  0      
 12 13  2  0      
 12 14  1  0      
 11 15  2  0      
 11 16  1  0      
 16 17  1  0      
 14 17  1  0      
 17 18  2  0      
 14 19  1  0      
 15 21  1  0      
 21 22  1  0      
 21 23  2  0      
 23 24  1  0      
 24 25  1  0      
 25 26  1  0      
 26 22  2  0      
 22 27  1  0      
 24 28  2  0      
 28 29  1  0      
 29 30  1  0      
 30 25  2  0      
 29 31  1  0      
 20 32  1  0      
 32 33  2  0      
 33 34  1  0      
 34 35  1  0      
 35 20  2  0      
 34 36  1  0      
 19 20  1  0      
  2 37  1  0      
M  END
