SA1_0002.mol
  ChemDraw02172414102D

 17 19  0  0  0  0  0  0  0  0999 V2000
   -1.7227   -0.3328    0.0000 C   0  0  0  0  0  0  0  0  0  0  0  0
   -0.8977   -0.3328    0.0000 C   0  0  0  0  0  0  0  0  0  0  0  0
   -0.6428    0.4518    0.0000 N   0  0  0  0  0  0  0  0  0  0  0  0
   -1.3102    0.9367    0.0000 C   0  0  0  0  0  0  0  0  0  0  0  0
   -1.9776    0.4518    0.0000 S   0  0  0  0  0  0  0  0  0  0  0  0
   -2.1352   -1.0473    0.0000 C   0  0  0  0  0  0  0  0  0  0  0  0
   -1.7227   -1.7617    0.0000 C   0  0  0  0  0  0  0  0  0  0  0  0
   -0.8977   -1.7617    0.0000 C   0  0  0  0  0  0  0  0  0  0  0  0
   -0.4852   -1.0473    0.0000 C   0  0  0  0  0  0  0  0  0  0  0  0
    0.1419    0.7068    0.0000 C   0  0  0  0  0  0  0  0  0  0  0  0
    0.7550    0.1547    0.0000 C   0  0  0  0  0  0  0  0  0  0  0  0
    0.5414   -0.6422    0.0000 C   0  0  0  0  0  0  0  0  0  0  0  0
    1.1248   -1.2255    0.0000 C   0  0  0  0  0  0  0  0  0  0  0  0
    1.9217   -1.0120    0.0000 C   0  0  0  0  0  0  0  0  0  0  0  0
    2.1352   -0.2151    0.0000 C   0  0  0  0  0  0  0  0  0  0  0  0
    1.5518    0.3683    0.0000 C   0  0  0  0  0  0  0  0  0  0  0  0
   -1.3102    1.7617    0.0000 O   0  0  0  0  0  0  0  0  0  0  0  0
  1  2  1  0      
  2  3  1  0      
  3  4  1  0      
  4  5  1  0      
  5  1  1  0      
  1  6  2  0      
  6  7  1  0      
  7  8  2  0      
  8  9  1  0      
  9  2  2  0      
  3 10  1  0      
 10 11  1  0      
 11 12  2  0      
 12 13  1  0      
 13 14  2  0      
 14 15  1  0      
 15 16  2  0      
 16 11  1  0      
  4 17  2  0      
M  END
