SA1_0004.mol
  ChemDraw02172413572D

 17 18  0  0  0  0  0  0  0  0999 V2000
    0.7590   -0.2781    0.0000 S   0  0  0  0  0  0  0  0  0  0  0  0
    0.5454   -1.0750    0.0000 C   0  0  0  0  0  0  0  0  0  0  0  0
    1.2373   -1.5243    0.0000 N   0  0  0  0  0  0  0  0  0  0  0  0
    1.8785   -1.0051    0.0000 C   0  0  0  0  0  0  0  0  0  0  0  0
    1.5828   -0.2349    0.0000 C   0  0  0  0  0  0  0  0  0  0  0  0
   -0.9486   -0.1006    0.0000 S   0  0  0  0  0  0  0  0  0  0  0  0
   -1.7455    0.1130    0.0000 C   0  0  0  0  0  0  0  0  0  0  0  0
   -2.1949   -0.5789    0.0000 N   0  0  0  0  0  0  0  0  0  0  0  0
   -1.6757   -1.2201    0.0000 N   0  0  0  0  0  0  0  0  0  0  0  0
   -0.9055   -0.9244    0.0000 C   0  0  0  0  0  0  0  0  0  0  0  0
   -0.2136   -1.3738    0.0000 S   0  0  0  0  0  0  0  0  0  0  0  0
   -2.0412    0.8832    0.0000 N   0  0  0  0  0  0  0  0  0  0  0  0
    2.0321    0.4570    0.0000 N   0  0  0  0  0  0  0  0  0  0  0  0
    1.6576    1.1921    0.0000 O   0  0  0  0  0  0  0  0  0  0  0  0
    2.8560    0.4138    0.0000 O   0  0  0  0  0  0  0  0  0  0  0  0
   -1.5220    1.5243    0.0000 H   0  0  0  0  0  0  0  0  0  0  0  0
   -2.8560    1.0122    0.0000 H   0  0  0  0  0  0  0  0  0  0  0  0
  1  2  1  0      
  2  3  2  0      
  3  4  1  0      
  4  5  2  0      
  5  1  1  0      
  6  7  1  0      
  7  8  2  0      
  8  9  1  0      
  9 10  2  0      
 10  6  1  0      
 10 11  1  0      
  2 11  1  0      
  7 12  1  0      
  5 13  1  0      
 13 14  2  0      
 13 15  1  0      
 12 16  1  0      
 12 17  1  0      
M  END
