SA1_0006.mol
  ChemDraw02172415292D

 29 32  0  0  0  0  0  0  0  0999 V2000
    0.8230    0.4390    0.0000 C   0  0  0  0  0  0  0  0  0  0  0  0
    2.4425    0.7549    0.0000 O   0  0  0  0  0  0  0  0  0  0  0  0
   -0.2965   -0.5381    0.0000 C   0  0  0  0  0  0  0  0  0  0  0  0
   -1.0934   -0.7516    0.0000 C   0  0  0  0  0  0  0  0  0  0  0  0
    0.2868   -1.1215    0.0000 C   0  0  0  0  0  0  0  0  0  0  0  0
    2.1744   -0.0253    0.0000 C   0  0  0  0  0  0  0  0  0  0  0  0
    1.3646   -0.1833    0.0000 N   0  0  0  0  0  0  0  0  0  0  0  0
    1.0966   -0.9635    0.0000 C   0  0  0  0  0  0  0  0  0  0  0  0
    1.6382   -1.5858    0.0000 N   0  0  0  0  0  0  0  0  0  0  0  0
    2.4480   -1.4278    0.0000 C   0  0  0  0  0  0  0  0  0  0  0  0
    2.9896   -2.0501    0.0000 C   0  0  0  0  0  0  0  0  0  0  0  0
    3.7994   -1.8921    0.0000 C   0  0  0  0  0  0  0  0  0  0  0  0
    4.0674   -1.1119    0.0000 C   0  0  0  0  0  0  0  0  0  0  0  0
    3.5258   -0.4896    0.0000 C   0  0  0  0  0  0  0  0  0  0  0  0
    2.7160   -0.6476    0.0000 C   0  0  0  0  0  0  0  0  0  0  0  0
   -1.6768   -0.1683    0.0000 C   0  0  0  0  0  0  0  0  0  0  0  0
   -2.4737   -0.3818    0.0000 C   0  0  0  0  0  0  0  0  0  0  0  0
   -2.6872   -1.1787    0.0000 C   0  0  0  0  0  0  0  0  0  0  0  0
   -2.1038   -1.7620    0.0000 C   0  0  0  0  0  0  0  0  0  0  0  0
   -1.3069   -1.5485    0.0000 C   0  0  0  0  0  0  0  0  0  0  0  0
    1.0365    1.2359    0.0000 C   0  0  0  0  0  0  0  0  0  0  0  0
    0.4531    1.8193    0.0000 C   0  0  0  0  0  0  0  0  0  0  0  0
   -0.3437    1.6057    0.0000 C   0  0  0  0  0  0  0  0  0  0  0  0
   -0.5573    0.8088    0.0000 C   0  0  0  0  0  0  0  0  0  0  0  0
    0.0261    0.2255    0.0000 C   0  0  0  0  0  0  0  0  0  0  0  0
   -0.9271    2.1891    0.0000 C   0  0  0  0  0  0  0  0  0  0  0  0
   -3.4841   -1.3922    0.0000 N   0  0  0  0  0  0  0  0  0  0  0  0
   -4.0674   -0.8088    0.0000 O   0  0  0  0  0  0  0  0  0  0  0  0
   -3.6976   -2.1891    0.0000 O   0  0  0  0  0  0  0  0  0  0  0  0
  7  1  1  0      
  6  2  2  0      
  3  5  2  0      
  4  3  1  0      
  8  5  1  0      
  6 15  1  0      
  7  6  1  0      
  8  7  1  0      
  9  8  2  0      
 10  9  1  0      
 10 15  2  0      
 11 10  1  0      
 12 11  2  0      
 13 12  1  0      
 14 13  2  0      
 15 14  1  0      
  4 16  2  0      
 16 17  1  0      
 17 18  2  0      
 18 19  1  0      
 19 20  2  0      
 20  4  1  0      
  1 21  2  0      
 21 22  1  0      
 22 23  2  0      
 23 24  1  0      
 24 25  2  0      
 25  1  1  0      
 23 26  1  0      
 18 27  1  0      
 27 28  1  0      
 27 29  2  0      
M  END
