SA21_0003
  MOE2015           3D

 39 41  0  0  1  0  0  0  0  0999 V2000
   -3.7480   -1.6980    0.1890 C   0  0  0  0  0  0  0  0  0  0  0  0
   -4.3730   -2.6264   -0.6616 C   0  0  0  0  0  0  0  0  0  0  0  0
   -4.8309   -2.2968   -1.5583 H   0  0  0  0  0  0  0  0  0  0  0  0
   -4.3887   -3.9805   -0.3498 C   0  0  0  0  0  0  0  0  0  0  0  0
   -4.8613   -4.6770   -0.9937 H   0  0  0  0  0  0  0  0  0  0  0  0
   -3.7737   -4.4336    0.8183 C   0  0  0  0  0  0  0  0  0  0  0  0
   -3.1411   -3.5277    1.6706 C   0  0  0  0  0  0  0  0  0  0  0  0
   -2.6734   -3.8803    2.5535 H   0  0  0  0  0  0  0  0  0  0  0  0
   -3.1287   -2.1745    1.3561 C   0  0  0  0  0  0  0  0  0  0  0  0
   -2.6472   -1.4896    2.0065 H   0  0  0  0  0  0  0  0  0  0  0  0
   -3.7337   -0.2705   -0.1263 C   0  0  0  0  0  0  0  0  0  0  0  0
   -3.7933   -6.1230    1.2092 Cl  0  0  0  0  0  0  0  0  0  0  0  0
   -2.6357    0.4800    0.2364 N   0  0  0  0  0  0  0  0  0  0  0  0
   -2.5842    1.7591   -0.0409 C   0  0  0  0  0  0  0  0  0  0  0  0
   -3.6007    2.3849   -0.6810 N   0  0  0  0  0  0  0  0  0  0  0  0
   -3.5354    3.3862   -0.8857 H   0  0  0  0  0  0  0  0  0  0  0  0
   -4.7189    1.7226   -1.0605 C   0  0  0  0  0  0  0  0  0  0  0  0
   -4.7811    0.3412   -0.7664 C   0  0  0  0  0  0  0  0  0  0  0  0
   -5.6526   -0.1868   -1.0447 H   0  0  0  0  0  0  0  0  0  0  0  0
   -5.5786    2.3954   -1.6293 O   0  0  0  0  0  0  0  0  0  0  0  0
   -1.2676    2.7976    0.3535 S   0  0  0  0  0  0  0  0  0  0  0  0
   -0.0815    1.6824    1.1843 C   0  0  0  0  0  0  0  0  0  0  0  0
   -0.1791    1.8281    2.2512 H   0  0  0  0  0  0  0  0  0  0  0  0
   -0.2429    0.6641    0.8599 H   0  0  0  0  0  0  0  0  0  0  0  0
    1.2636    2.1755    0.6946 C   0  0  0  0  0  0  0  0  0  0  0  0
    1.8739    1.5679   -0.4028 C   0  0  0  0  0  0  0  0  0  0  0  0
    1.3952    0.7588   -0.8943 H   0  0  0  0  0  0  0  0  0  0  0  0
    3.1104    2.0171   -0.8580 C   0  0  0  0  0  0  0  0  0  0  0  0
    3.5629    1.5414   -1.6895 H   0  0  0  0  0  0  0  0  0  0  0  0
    3.7399    3.0832   -0.2167 C   0  0  0  0  0  0  0  0  0  0  0  0
    3.1327    3.6940    0.8795 C   0  0  0  0  0  0  0  0  0  0  0  0
    3.6204    4.5010    1.3674 H   0  0  0  0  0  0  0  0  0  0  0  0
    1.8972    3.2420    1.3321 C   0  0  0  0  0  0  0  0  0  0  0  0
    1.4399    3.7145    2.1643 H   0  0  0  0  0  0  0  0  0  0  0  0
    5.0715    3.5874   -0.7414 N   0  3  3  0  0  0  0  0  0  0  0  0
    5.4639    2.9332   -1.4902 H   0  0  0  0  0  0  0  0  0  0  0  0
    5.8674    3.6819    0.2064 O   0  5  0  0  0  0  0  0  0  0  0  0
    4.8742    4.8722   -1.1966 O   0  0  0  0  0  0  0  0  0  0  0  0
    4.1452    4.8267   -1.8305 H   0  0  0  0  0  0  0  0  0  0  0  0
  1  2  1  0  0  0  0
  1  9  2  0  0  0  0
  1 11  1  0  0  0  0
  2  3  1  0  0  0  0
  2  4  2  0  0  0  0
  4  5  1  0  0  0  0
  4  6  1  0  0  0  0
  6  7  2  0  0  0  0
  6 12  1  0  0  0  0
  7  8  1  0  0  0  0
  7  9  1  0  0  0  0
  9 10  1  0  0  0  0
 11 13  1  0  0  0  0
 11 18  2  0  0  0  0
 13 14  2  0  0  0  0
 14 15  1  0  0  0  0
 14 21  1  0  0  0  0
 15 16  1  0  0  0  0
 15 17  1  0  0  0  0
 17 18  1  0  0  0  0
 17 20  2  0  0  0  0
 18 19  1  0  0  0  0
 21 22  1  0  0  0  0
 22 23  1  0  0  0  0
 22 24  1  0  0  0  0
 22 25  1  0  0  0  0
 25 26  1  0  0  0  0
 25 33  2  0  0  0  0
 26 27  1  0  0  0  0
 26 28  2  0  0  0  0
 28 29  1  0  0  0  0
 28 30  1  0  0  0  0
 30 31  2  0  0  0  0
 30 35  1  0  0  0  0
 31 32  1  0  0  0  0
 31 33  1  0  0  0  0
 33 34  1  0  0  0  0
 35 36  1  0  0  0  0
 35 37  1  0  0  0  0
 35 38  1  0  0  0  0
 38 39  1  0  0  0  0
M  CHG  1  35   1
M  CHG  1  37  -1
M  END
$$$$
