SA2_0002.mol
  ChemDraw05212415392D

 26 30  0  0  0  0  0  0  0  0999 V2000
   -0.3847    0.9705    0.0000 C   0  0  0  0  0  0  0  0  0  0  0  0
   -0.3847    0.1455    0.0000 C   0  0  0  0  0  0  0  0  0  0  0  0
    0.3999   -0.1095    0.0000 N   0  0  0  0  0  0  0  0  0  0  0  0
    0.8848    0.5580    0.0000 C   0  0  0  0  0  0  0  0  0  0  0  0
    0.3999    1.2254    0.0000 C   0  0  0  0  0  0  0  0  0  0  0  0
    1.7053    0.6442    0.0000 N   0  0  0  0  0  0  0  0  0  0  0  0
    2.0408    1.3979    0.0000 C   0  0  0  0  0  0  0  0  0  0  0  0
    1.5559    2.0653    0.0000 N   0  0  0  0  0  0  0  0  0  0  0  0
    0.7354    1.9791    0.0000 C   0  0  0  0  0  0  0  0  0  0  0  0
    1.7274    2.8723    0.0000 C   0  0  0  0  0  0  0  0  0  0  0  0
    1.0130    3.2848    0.0000 N   0  0  0  0  0  0  0  0  0  0  0  0
    0.3999    2.7327    0.0000 N   0  0  0  0  0  0  0  0  0  0  0  0
    2.4811    3.2078    0.0000 S   0  0  0  0  0  0  0  0  0  0  0  0
   -1.0522    1.4554    0.0000 C   0  0  0  0  0  0  0  0  0  0  0  0
   -1.0522    2.2804    0.0000 C   0  0  0  0  0  0  0  0  0  0  0  0
   -1.7667    2.6929    0.0000 C   0  0  0  0  0  0  0  0  0  0  0  0
   -2.4811    2.2804    0.0000 C   0  0  0  0  0  0  0  0  0  0  0  0
   -2.4811    1.4554    0.0000 C   0  0  0  0  0  0  0  0  0  0  0  0
   -1.7667    1.0429    0.0000 C   0  0  0  0  0  0  0  0  0  0  0  0
    0.6548   -0.8941    0.0000 C   0  0  0  0  0  0  0  0  0  0  0  0
    0.0715   -1.4775    0.0000 C   0  0  0  0  0  0  0  0  0  0  0  0
    0.2850   -2.2744    0.0000 C   0  0  0  0  0  0  0  0  0  0  0  0
    1.0819   -2.4879    0.0000 C   0  0  0  0  0  0  0  0  0  0  0  0
    1.6652   -1.9045    0.0000 C   0  0  0  0  0  0  0  0  0  0  0  0
    1.4517   -1.1076    0.0000 C   0  0  0  0  0  0  0  0  0  0  0  0
    1.2954   -3.2848    0.0000 Cl  0  0  0  0  0  0  0  0  0  0  0  0
  1  2  2  0      
  2  3  1  0      
  3  4  1  0      
  4  5  2  0      
  5  1  1  0      
  4  6  1  0      
  6  7  2  0      
  7  8  1  0      
  8  9  1  0      
  9  5  1  0      
  8 10  1  0      
 10 11  1  0      
 11 12  1  0      
 12  9  2  0      
 10 13  2  0      
  1 14  1  0      
 14 15  2  0      
 15 16  1  0      
 16 17  2  0      
 17 18  1  0      
 18 19  2  0      
 19 14  1  0      
  3 20  1  0      
 20 21  2  0      
 21 22  1  0      
 22 23  2  0      
 23 24  1  0      
 24 25  2  0      
 25 20  1  0      
 23 26  1  0      
M  END
