SA38_0004.mol
  ChemDraw05232416572D

 28 31  0  0  0  0  0  0  0  0999 V2000
   -0.9655   -0.9036    0.0000 C   0  0  0  0  0  0  0  0  0  0  0  0
   -0.9655   -1.7286    0.0000 C   0  0  0  0  0  0  0  0  0  0  0  0
   -0.2510   -2.1411    0.0000 N   0  0  0  0  0  0  0  0  0  0  0  0
    0.4634   -1.7286    0.0000 C   0  0  0  0  0  0  0  0  0  0  0  0
    0.4634   -0.9036    0.0000 C   0  0  0  0  0  0  0  0  0  0  0  0
   -0.2510   -0.4911    0.0000 C   0  0  0  0  0  0  0  0  0  0  0  0
    1.1779   -2.1411    0.0000 N   0  0  0  0  0  0  0  0  0  0  0  0
    1.8924   -1.7286    0.0000 C   0  0  0  0  0  0  0  0  0  0  0  0
    1.8924   -0.9036    0.0000 C   0  0  0  0  0  0  0  0  0  0  0  0
    1.1779   -0.4911    0.0000 C   0  0  0  0  0  0  0  0  0  0  0  0
   -0.2510    0.3339    0.0000 N   0  0  0  0  0  0  0  0  0  0  0  0
   -1.6800   -0.4911    0.0000 C   0  0  0  0  0  0  0  0  0  0  0  0
    2.6069   -2.1411    0.0000 C   0  0  0  0  0  0  0  0  0  0  0  0
   -2.3944   -0.9036    0.0000 O   0  0  0  0  0  0  0  0  0  0  0  0
   -1.6800    0.3339    0.0000 N   0  0  0  0  0  0  0  0  0  0  0  0
    0.4634    0.7464    0.0000 C   0  0  0  0  0  0  0  0  0  0  0  0
    1.1779    0.3339    0.0000 C   0  0  0  0  0  0  0  0  0  0  0  0
    1.8924    0.7464    0.0000 C   0  0  0  0  0  0  0  0  0  0  0  0
    1.8924    1.5714    0.0000 C   0  0  0  0  0  0  0  0  0  0  0  0
    1.1779    1.9839    0.0000 C   0  0  0  0  0  0  0  0  0  0  0  0
    0.4634    1.5714    0.0000 C   0  0  0  0  0  0  0  0  0  0  0  0
    2.6069    1.9839    0.0000 F   0  0  0  0  0  0  0  0  0  0  0  0
   -0.9367    0.6918    0.0000 C   0  0  0  0  0  0  0  0  0  0  0  0
   -0.7531    1.4961    0.0000 C   0  0  0  0  0  0  0  0  0  0  0  0
   -1.2675    2.1411    0.0000 C   0  0  0  0  0  0  0  0  0  0  0  0
   -2.0925    2.1411    0.0000 C   0  0  0  0  0  0  0  0  0  0  0  0
   -2.6069    1.4961    0.0000 C   0  0  0  0  0  0  0  0  0  0  0  0
   -2.4233    0.6918    0.0000 C   0  0  0  0  0  0  0  0  0  0  0  0
  1  2  2  0      
  2  3  1  0      
  3  4  2  0      
  4  5  1  0      
  5  6  2  0      
  6  1  1  0      
  4  7  1  0      
  7  8  2  0      
  8  9  1  0      
  9 10  2  0      
 10  5  1  0      
  6 11  1  0      
  1 12  1  0      
  8 13  1  0      
 12 14  2  0      
 12 15  1  0      
 11 16  1  0      
 16 17  2  0      
 17 18  1  0      
 18 19  2  0      
 19 20  1  0      
 20 21  2  0      
 21 16  1  0      
 19 22  1  0      
 15 23  1  0      
 23 24  1  0      
 24 25  1  0      
 25 26  1  0      
 26 27  1  0      
 27 28  1  0      
 28 15  1  0      
M  END
