SA3_0001.mol
  ChemDraw05212417472D

168177  0  0  1  0  0  0  0  0999 V2000
  -12.2222   14.8720    0.0000 C   0  0  0  0  0  0  0  0  0  0  0  0
  -11.4412   14.6059    0.0000 N   0  0  0  0  0  0  0  0  0  0  0  0
  -12.3822   15.6813    0.0000 C   0  0  0  0  0  0  0  0  0  0  0  0
  -13.1631   15.9474    0.0000 N   0  0  0  0  0  0  0  0  0  0  0  0
  -11.7613   16.2246    0.0000 C   0  0  0  0  0  0  0  0  0  0  0  0
  -10.9804   15.9585    0.0000 C   0  0  0  0  0  0  0  0  0  0  0  0
  -10.3595   16.5017    0.0000 C   0  0  0  0  0  0  0  0  0  0  0  0
   -9.5786   16.2356    0.0000 N   0  0  0  0  0  0  0  0  0  0  0  0
   -8.9577   16.7788    0.0000 C   0  0  0  0  0  0  0  0  0  0  0  0
   -8.1767   16.5127    0.0000 N   0  0  0  0  0  0  0  0  0  0  0  0
   -9.1177   17.5882    0.0000 N   0  0  0  0  0  0  0  0  0  0  0  0
  -11.2812   13.7965    0.0000 C   0  0  0  0  0  0  0  0  0  0  0  0
  -10.5003   13.5305    0.0000 C   0  0  0  0  0  0  0  0  0  0  0  0
  -10.3403   12.7211    0.0000 N   0  0  0  0  0  0  0  0  0  0  0  0
   -9.5594   12.4550    0.0000 C   0  0  0  0  0  0  0  0  0  0  0  0
   -8.9385   12.9983    0.0000 C   0  0  0  0  0  0  0  0  0  0  0  0
   -9.3994   11.6457    0.0000 C   0  0  0  0  0  0  0  0  0  0  0  0
   -8.6185   11.3796    0.0000 N   0  0  0  0  0  0  0  0  0  0  0  0
   -8.4585   10.5703    0.0000 C   0  0  0  0  0  0  0  0  0  0  0  0
   -7.6776   10.3042    0.0000 C   0  0  0  0  0  0  0  0  0  0  0  0
   -7.5176    9.4948    0.0000 N   0  0  0  0  0  0  0  0  0  0  0  0
   -6.7367    9.2287    0.0000 C   0  0  0  0  0  0  0  0  0  0  0  0
   -6.1934    8.6078    0.0000 C   0  0  0  0  0  0  0  0  0  0  0  0
   -5.4350    8.9326    0.0000 C   0  0  0  0  0  0  0  0  0  0  0  0
   -5.5096    9.7543    0.0000 C   0  0  0  0  0  0  0  0  0  0  0  0
   -6.3140    9.9373    0.0000 C   0  0  0  0  0  0  0  0  0  0  0  0
   -6.0334    7.7985    0.0000 C   0  0  0  0  0  0  0  0  0  0  0  0
   -5.2525    7.5324    0.0000 N   0  0  0  0  0  0  0  0  0  0  0  0
   -5.0925    6.7231    0.0000 C   0  0  0  0  0  0  0  0  0  0  0  0
   -4.3116    6.4570    0.0000 C   0  0  0  0  0  0  0  0  0  0  0  0
   -4.1516    5.6476    0.0000 N   0  0  0  0  0  0  0  0  0  0  0  0
   -3.3707    5.3816    0.0000 C   0  0  0  0  0  0  0  0  0  0  0  0
   -2.7498    5.9248    0.0000 C   0  0  0  0  0  0  0  0  0  0  0  0
   -3.2107    4.5722    0.0000 C   0  0  0  0  0  0  0  0  0  0  0  0
   -2.4297    4.3061    0.0000 N   0  0  0  0  0  0  0  0  0  0  0  0
   -2.2697    3.4968    0.0000 C   0  0  0  0  0  0  0  0  0  0  0  0
   -1.4888    3.2307    0.0000 C   0  0  0  0  0  0  0  0  0  0  0  0
   -1.3288    2.4214    0.0000 N   0  0  0  0  0  0  0  0  0  0  0  0
   -0.5479    2.1553    0.0000 C   0  0  0  0  0  0  0  0  0  0  0  0
   -0.0047    1.5344    0.0000 C   0  0  0  0  0  0  0  0  0  0  0  0
    0.7537    1.8592    0.0000 C   0  0  0  0  0  0  0  0  0  0  0  0
    0.6792    2.6808    0.0000 C   0  0  0  0  0  0  0  0  0  0  0  0
   -0.1253    2.8638    0.0000 C   0  0  0  0  0  0  0  0  0  0  0  0
    0.1553    0.7250    0.0000 C   0  0  0  0  0  0  0  0  0  0  0  0
    0.9363    0.4589    0.0000 N   0  0  0  0  0  0  0  0  0  0  0  0
   -1.9689    5.6587    0.0000 C   0  0  0  0  0  0  0  0  0  0  0  0
   -1.8088    4.8494    0.0000 C   0  0  0  0  0  0  0  0  0  0  0  0
   -0.9897    4.7514    0.0000 N   0  0  0  0  0  0  0  0  0  0  0  0
   -0.6434    5.5003    0.0000 C   0  0  0  0  0  0  0  0  0  0  0  0
   -1.2486    6.0610    0.0000 C   0  0  0  0  0  0  0  0  0  0  0  0
    0.1448    5.7440    0.0000 C   0  0  0  0  0  0  0  0  0  0  0  0
    0.3278    6.5484    0.0000 C   0  0  0  0  0  0  0  0  0  0  0  0
   -0.2774    7.1092    0.0000 C   0  0  0  0  0  0  0  0  0  0  0  0
   -1.0656    6.8654    0.0000 C   0  0  0  0  0  0  0  0  0  0  0  0
    1.0963   -0.3504    0.0000 C   0  0  0  0  0  0  0  0  0  0  0  0
    1.8772   -0.6165    0.0000 C   0  0  0  0  0  0  0  0  0  0  0  0
    2.0372   -1.4258    0.0000 N   0  0  0  0  0  0  0  0  0  0  0  0
    0.4754   -0.8936    0.0000 C   0  0  0  0  0  0  0  0  0  0  0  0
    2.8181   -1.6919    0.0000 C   0  0  0  0  0  0  0  0  0  0  0  0
    2.9781   -2.5013    0.0000 C   0  0  0  0  0  0  0  0  0  0  0  0
    3.4390   -1.1487    0.0000 C   0  0  0  0  0  0  0  0  0  0  0  0
    3.7590   -2.7673    0.0000 N   0  0  0  0  0  0  0  0  0  0  0  0
    3.9190   -3.5767    0.0000 C   0  0  0  0  0  0  0  0  0  0  0  0
    3.1787   -3.9407    0.0000 C   0  0  0  0  0  0  0  0  0  0  0  0
    3.2961   -4.7573    0.0000 C   0  0  0  0  0  0  0  0  0  0  0  0
    4.1090   -4.8980    0.0000 C   0  0  0  0  0  0  0  0  0  0  0  0
    4.4940   -4.1683    0.0000 C   0  0  0  0  0  0  0  0  0  0  0  0
    5.2749   -4.4344    0.0000 C   0  0  0  0  0  0  0  0  0  0  0  0
    5.4349   -5.2437    0.0000 N   0  0  0  0  0  0  0  0  0  0  0  0
    6.2158   -5.5098    0.0000 C   0  0  0  0  0  0  0  0  0  0  0  0
    6.3758   -6.3192    0.0000 C   0  0  0  0  0  0  0  0  0  0  0  0
    7.1568   -6.5853    0.0000 N   0  0  0  0  0  0  0  0  0  0  0  0
    6.8367   -4.9666    0.0000 C   0  0  0  0  0  0  0  0  0  0  0  0
    7.3168   -7.3946    0.0000 C   0  0  0  0  0  0  0  0  0  0  0  0
    8.0977   -7.6607    0.0000 C   0  0  0  0  0  0  0  0  0  0  0  0
    8.2577   -8.4700    0.0000 N   0  0  0  0  0  0  0  0  0  0  0  0
    9.0386   -8.7361    0.0000 C   0  0  0  0  0  0  0  0  0  0  0  0
    9.6595   -8.1929    0.0000 C   0  0  0  0  0  0  0  0  0  0  0  0
    7.1204  -15.8951    0.0000 N   0  0  0  0  0  0  0  0  0  0  0  0
    6.7362  -15.1650    0.0000 C   0  0  0  0  0  0  0  0  0  0  0  0
    7.3119  -14.5741    0.0000 N   0  0  0  0  0  0  0  0  0  0  0  0
    8.0518  -14.9389    0.0000 C   0  0  0  0  0  0  0  0  0  0  0  0
    7.9335  -15.7554    0.0000 C   0  0  0  0  0  0  0  0  0  0  0  0
    8.5814  -16.2661    0.0000 C   0  0  0  0  0  0  0  0  0  0  0  0
   12.2985  -14.0716    0.0000 C   0  0  0  0  0  0  0  0  0  0  0  0
   13.0864  -14.3162    0.0000 C   0  0  0  0  0  0  0  0  0  0  0  0
   13.2685  -15.1208    0.0000 C   0  0  0  0  0  0  0  0  0  0  0  0
   12.6628  -15.6809    0.0000 C   0  0  0  0  0  0  0  0  0  0  0  0
   11.6928  -14.6316    0.0000 C   0  0  0  0  0  0  0  0  0  0  0  0
   11.8749  -15.4362    0.0000 C   0  0  0  0  0  0  0  0  0  0  0  0
   11.1659  -15.8581    0.0000 N   0  0  0  0  0  0  0  0  0  0  0  0
   10.5456  -15.3141    0.0000 C   0  0  0  0  0  0  0  0  0  0  0  0
   10.8712  -14.5561    0.0000 C   0  0  0  0  0  0  0  0  0  0  0  0
    7.7696   -9.7769    0.0000 O   0  0  0  0  0  0  0  0  0  0  0  0
   10.2096  -12.4761    0.0000 O   0  0  0  0  0  0  0  0  0  0  0  0
    8.4134  -14.8471    0.0000 O   0  0  0  0  0  0  0  0  0  0  0  0
   10.7136  -16.7332    0.0000 O   0  0  0  0  0  0  0  0  0  0  0  0
    9.5686  -17.5882    0.0000 N   0  0  0  0  0  0  0  0  0  0  0  0
    9.8943  -16.8302    0.0000 C   0  0  0  0  0  0  0  0  0  0  0  0
    9.4007  -16.1691    0.0000 C   0  0  0  0  0  0  0  0  0  0  0  0
    9.7263  -15.4111    0.0000 N   0  0  0  0  0  0  0  0  0  0  0  0
    9.2327  -14.7501    0.0000 C   0  0  0  0  0  0  0  0  0  0  0  0
   10.3776  -13.8951    0.0000 C   0  0  0  0  0  0  0  0  0  0  0  0
    9.5583  -13.9921    0.0000 C   0  0  0  0  0  0  0  0  0  0  0  0
    9.0647  -13.3311    0.0000 N   0  0  0  0  0  0  0  0  0  0  0  0
    9.3903  -12.5731    0.0000 C   0  0  0  0  0  0  0  0  0  0  0  0
    8.8967  -11.9120    0.0000 C   0  0  0  0  0  0  0  0  0  0  0  0
    8.1666  -12.2962    0.0000 C   0  0  0  0  0  0  0  0  0  0  0  0
    7.5756  -11.7205    0.0000 C   0  0  0  0  0  0  0  0  0  0  0  0
    7.9404  -10.9806    0.0000 C   0  0  0  0  0  0  0  0  0  0  0  0
    8.7569  -11.0990    0.0000 C   0  0  0  0  0  0  0  0  0  0  0  0
    9.0826  -10.3410    0.0000 N   0  0  0  0  0  0  0  0  0  0  0  0
    8.5889   -9.6799    0.0000 C   0  0  0  0  0  0  0  0  0  0  0  0
  -12.8431   14.3287    0.0000 O   0  0  0  0  0  0  0  0  0  0  0  0
  -11.9021   13.2533    0.0000 C   0  0  0  0  0  0  0  0  0  0  0  0
   -9.8794   14.0737    0.0000 O   0  0  0  0  0  0  0  0  0  0  0  0
  -10.0203   11.1025    0.0000 O   0  0  0  0  0  0  0  0  0  0  0  0
  -12.7253   13.3082    0.0000 C   0  0  0  0  0  0  0  0  0  0  0  0
  -12.7802   12.4851    0.0000 O   0  0  0  0  0  0  0  0  0  0  0  0
  -13.2685   13.9291    0.0000 O   0  0  0  0  0  0  0  0  0  0  0  0
   -8.1576   12.7322    0.0000 C   0  0  0  0  0  0  0  0  0  0  0  0
   -7.5367   13.2754    0.0000 O   0  0  0  0  0  0  0  0  0  0  0  0
   -7.9976   11.9228    0.0000 O   0  0  0  0  0  0  0  0  0  0  0  0
   -7.0567   10.8474    0.0000 O   0  0  0  0  0  0  0  0  0  0  0  0
   -9.0794   10.0270    0.0000 C   0  0  0  0  0  0  0  0  0  0  0  0
   -9.8603   10.2931    0.0000 C   0  0  0  0  0  0  0  0  0  0  0  0
  -10.4812    9.7499    0.0000 C   0  0  0  0  0  0  0  0  0  0  0  0
  -11.2621   10.0160    0.0000 O   0  0  0  0  0  0  0  0  0  0  0  0
  -10.3212    8.9405    0.0000 O   0  0  0  0  0  0  0  0  0  0  0  0
   -6.6543    7.2553    0.0000 O   0  0  0  0  0  0  0  0  0  0  0  0
   -5.7134    6.1798    0.0000 C   0  0  0  0  0  0  0  0  0  0  0  0
   -6.4943    6.4459    0.0000 C   0  0  0  0  0  0  0  0  0  0  0  0
   -7.1152    5.9027    0.0000 C   0  0  0  0  0  0  0  0  0  0  0  0
   -7.8961    6.1688    0.0000 N   0  0  0  0  0  0  0  0  0  0  0  0
   -8.5170    5.6255    0.0000 C   0  0  0  0  0  0  0  0  0  0  0  0
   -9.2979    5.8916    0.0000 N   0  0  0  0  0  0  0  0  0  0  0  0
   -8.3570    4.8162    0.0000 N   0  0  0  0  0  0  0  0  0  0  0  0
   -3.6907    7.0002    0.0000 O   0  0  0  0  0  0  0  0  0  0  0  0
   -3.8316    4.0290    0.0000 O   0  0  0  0  0  0  0  0  0  0  0  0
   -0.8679    3.7739    0.0000 O   0  0  0  0  0  0  0  0  0  0  0  0
   -2.8906    2.9536    0.0000 C   0  0  0  0  0  0  0  0  0  0  0  0
   -3.7138    3.0085    0.0000 C   0  0  0  0  0  0  0  0  0  0  0  0
   -4.1729    2.3230    0.0000 C   0  0  0  0  0  0  0  0  0  0  0  0
   -4.2570    3.6294    0.0000 C   0  0  0  0  0  0  0  0  0  0  0  0
   -0.4656    0.1818    0.0000 O   0  0  0  0  0  0  0  0  0  0  0  0
   -0.3055   -0.6275    0.0000 C   0  0  0  0  0  0  0  0  0  0  0  0
    0.6354   -1.7030    0.0000 O   0  0  0  0  0  0  0  0  0  0  0  0
    2.4981   -0.0733    0.0000 O   0  0  0  0  0  0  0  0  0  0  0  0
    4.2199   -1.4148    0.0000 C   0  0  0  0  0  0  0  0  0  0  0  0
    4.8408   -0.8715    0.0000 O   0  0  0  0  0  0  0  0  0  0  0  0
    4.3799   -2.2241    0.0000 O   0  0  0  0  0  0  0  0  0  0  0  0
    2.3572   -3.0445    0.0000 O   0  0  0  0  0  0  0  0  0  0  0  0
    5.8958   -3.8912    0.0000 O   0  0  0  0  0  0  0  0  0  0  0  0
    6.6767   -4.1572    0.0000 C   0  0  0  0  0  0  0  0  0  0  0  0
    7.6176   -5.2327    0.0000 C   0  0  0  0  0  0  0  0  0  0  0  0
    5.7549   -6.8624    0.0000 O   0  0  0  0  0  0  0  0  0  0  0  0
    6.6959   -7.9378    0.0000 C   0  0  0  0  0  0  0  0  0  0  0  0
    5.8727   -7.8829    0.0000 C   0  0  0  0  0  0  0  0  0  0  0  0
    5.5087   -7.1426    0.0000 C   0  0  0  0  0  0  0  0  0  0  0  0
    4.6855   -7.0877    0.0000 C   0  0  0  0  0  0  0  0  0  0  0  0
    4.2264   -7.7731    0.0000 C   0  0  0  0  0  0  0  0  0  0  0  0
    4.5904   -8.5134    0.0000 C   0  0  0  0  0  0  0  0  0  0  0  0
    5.4136   -8.5683    0.0000 C   0  0  0  0  0  0  0  0  0  0  0  0
    3.4032   -7.7182    0.0000 O   0  0  0  0  0  0  0  0  0  0  0  0
    8.7186   -7.1174    0.0000 O   0  0  0  0  0  0  0  0  0  0  0  0
   10.4404   -8.4590    0.0000 C   0  0  0  0  0  0  0  0  0  0  0  0
   10.8995   -7.7735    0.0000 O   0  0  0  0  0  0  0  0  0  0  0  0
   10.9836   -9.0799    0.0000 O   0  0  0  0  0  0  0  0  0  0  0  0
  1  2  1  0      
  1  3  1  0      
  3  4  1  0      
  3  5  1  1      
  5  6  1  0      
  6  7  1  0      
  7  8  1  0      
  8  9  1  0      
  9 10  2  0      
  9 11  1  0      
  2 12  1  0      
 12 13  1  0      
 13 14  1  0      
 14 15  1  0      
 15 16  1  1      
 15 17  1  0      
 17 18  1  0      
 18 19  1  0      
 19 20  1  0      
 20 21  1  0      
 22 23  1  0      
 23 24  1  0      
 24 25  1  0      
 25 26  1  0      
 26 22  1  0      
 22 21  1  1      
 23 27  1  6      
 27 28  1  0      
 28 29  1  0      
 29 30  1  0      
 30 31  1  0      
 31 32  1  0      
 32 33  1  1      
 32 34  1  0      
 34 35  1  0      
 35 36  1  0      
 36 37  1  0      
 37 38  1  0      
 39 40  1  0      
 40 41  1  0      
 41 42  1  0      
 42 43  1  0      
 43 39  1  0      
 40 44  1  6      
 44 45  1  0      
 33 46  1  0      
 46 47  2  0      
 47 48  1  0      
 48 49  1  0      
 49 50  1  0      
 50 46  1  0      
 49 51  1  0      
 51 52  2  0      
 52 53  1  0      
 53 54  2  0      
 54 50  1  0      
 45 55  1  0      
 55 56  1  0      
 56 57  1  0      
 55 58  1  0      
 57 59  1  0      
 59 60  1  0      
 59 61  1  1      
 60 62  1  0      
 63 64  2  0      
 64 65  1  0      
 65 66  2  0      
 66 67  1  0      
 67 63  1  0      
 67 68  1  1      
 68 69  1  0      
 69 70  1  0      
 70 71  1  0      
 71 72  1  0      
 70 73  1  1      
 72 74  1  0      
 74 75  1  0      
 75 76  1  0      
 76 77  1  0      
 77 78  1  1      
 79 83  1  0      
 80 79  2  0      
 81 80  1  0      
 82 81  1  0      
 83 82  2  0      
 84 83  1  0      
100 84  1  1      
 85 89  1  0      
 86 85  2  0      
 87 86  1  0      
 88 87  2  0      
 90 88  1  0      
 89 93  1  0      
 90 89  2  0      
 91 90  1  0      
 92 91  1  0      
 93 92  2  0      
103 93  1  0      
113 94  2  0      
111112  1  1      
106 95  2  0      
102 96  2  0      
 99 97  2  0      
 99 98  1  0      
100 99  1  0      
101100  1  0      
102101  1  0      
104102  1  0      
104103  1  6      
105104  1  0      
106105  1  0      
107106  1  6      
107111  1  0      
108107  1  0      
109108  1  0      
110109  1  0      
111110  1  0      
113112  1  0      
  1114  2  0      
 12115  1  6      
 13116  2  0      
 17117  2  0      
115118  1  0      
118119  2  0      
118120  1  0      
 16121  1  0      
121122  2  0      
121123  1  0      
 20124  2  0      
 19125  1  6      
125126  1  0      
126127  1  0      
127128  1  0      
127129  2  0      
 27130  2  0      
 29131  1  6      
131132  1  0      
132133  1  0      
133134  1  0      
134135  1  0      
135136  1  0      
135137  2  0      
 30138  2  0      
 34139  2  0      
 37140  2  0      
 36141  1  6      
141142  1  0      
142143  1  0      
142144  1  0      
 39 38  1  1      
 44145  2  0      
 58146  1  0      
 58147  1  0      
 56148  2  0      
 61149  1  0      
149150  2  0      
149151  1  0      
 60152  2  0      
 63 62  1  6      
 68153  2  0      
 73154  1  0      
 73155  1  0      
 71156  2  0      
 74157  1  6      
157158  1  0      
158159  2  0      
159160  1  0      
160161  2  0      
161162  1  0      
162163  2  0      
163158  1  0      
161164  1  0      
 75165  2  0      
 78166  1  0      
166167  1  0      
166168  2  0      
 77113  1  0      
M  END
