SA44_0042.mol
  ChemDraw05022413552D

 20 21  0  0  0  0  0  0  0  0999 V2000
   -1.7375    0.8552    0.0000 C   0  0  0  0  0  0  0  0  0  0  0  0
   -2.5625    0.8552    0.0000 C   0  0  0  0  0  0  0  0  0  0  0  0
   -2.9750    0.1407    0.0000 C   0  0  0  0  0  0  0  0  0  0  0  0
   -2.5625   -0.5738    0.0000 C   0  0  0  0  0  0  0  0  0  0  0  0
   -1.7375   -0.5738    0.0000 C   0  0  0  0  0  0  0  0  0  0  0  0
   -1.3250    0.1407    0.0000 C   0  0  0  0  0  0  0  0  0  0  0  0
   -0.5000    0.1407    0.0000 C   0  0  0  0  0  0  0  0  0  0  0  0
   -0.0151   -0.5267    0.0000 O   0  0  0  0  0  0  0  0  0  0  0  0
    0.7696   -0.2718    0.0000 C   0  0  0  0  0  0  0  0  0  0  0  0
    0.7696    0.5532    0.0000 C   0  0  0  0  0  0  0  0  0  0  0  0
   -0.0151    0.8081    0.0000 C   0  0  0  0  0  0  0  0  0  0  0  0
    1.3529   -0.8552    0.0000 C   0  0  0  0  0  0  0  0  0  0  0  0
    2.0674   -0.4427    0.0000 N   0  0  0  0  0  0  0  0  0  0  0  0
    2.7819   -0.8552    0.0000 N   0  0  0  0  0  0  0  0  0  0  0  0
    3.4963   -0.4427    0.0000 C   0  0  0  0  0  0  0  0  0  0  0  0
    4.2108   -0.8552    0.0000 N   0  0  0  0  0  0  0  0  0  0  0  0
    3.4963    0.3823    0.0000 S   0  0  0  0  0  0  0  0  0  0  0  0
   -3.8000    0.1407    0.0000 N   0  3  0  0  0  0  0  0  0  0  0  0
   -4.2108    0.8523    0.0000 O   0  0  0  0  0  0  0  0  0  0  0  0
   -4.2108   -0.5709    0.0000 O   0  5  0  0  0  0  0  0  0  0  0  0
 18 19  2  0      
 18 20  1  0      
  3 18  1  0      
  1  2  2  0      
  2  3  1  0      
  3  4  2  0      
  4  5  1  0      
  5  6  2  0      
  6  1  1  0      
  6  7  1  0      
  7  8  1  0      
  8  9  1  0      
  9 10  2  0      
 10 11  1  0      
 11  7  2  0      
  9 12  1  0      
 12 13  2  0      
 13 14  1  0      
 14 15  1  0      
 15 16  1  0      
 15 17  2  0      
M  CHG  2  18   1  20  -1
M  STY  1   1 SUP
M  SLB  1   1   1
M  SAL   1  3  18  19  20
M  SBL   1  1   3
M  SMT   1 ^NO2
M  SBV   1   3    0.8250    0.0000
M  END
