SA44_0029.mol
  ChemDraw05022415272D

 21 22  0  0  0  0  0  0  0  0999 V2000
   -0.7362    0.8861    0.0000 C   0  0  0  0  0  0  0  0  0  0  0  0
   -0.7362    0.0611    0.0000 C   0  0  0  0  0  0  0  0  0  0  0  0
    0.0484   -0.1938    0.0000 C   0  0  0  0  0  0  0  0  0  0  0  0
    0.5334    0.4736    0.0000 C   0  0  0  0  0  0  0  0  0  0  0  0
    0.0484    1.1411    0.0000 O   0  0  0  0  0  0  0  0  0  0  0  0
   -1.4036    1.3711    0.0000 C   0  0  0  0  0  0  0  0  0  0  0  0
   -2.1573    1.0355    0.0000 N   0  0  0  0  0  0  0  0  0  0  0  0
   -2.8247    1.5204    0.0000 N   0  0  0  0  0  0  0  0  0  0  0  0
   -3.5784    1.1849    0.0000 C   0  0  0  0  0  0  0  0  0  0  0  0
   -4.2459    1.6698    0.0000 N   0  0  0  0  0  0  0  0  0  0  0  0
   -3.6647    0.3644    0.0000 S   0  0  0  0  0  0  0  0  0  0  0  0
    1.3584    0.4736    0.0000 C   0  0  0  0  0  0  0  0  0  0  0  0
    1.7709   -0.2408    0.0000 C   0  0  0  0  0  0  0  0  0  0  0  0
    2.5959   -0.2408    0.0000 C   0  0  0  0  0  0  0  0  0  0  0  0
    3.0084    0.4736    0.0000 C   0  0  0  0  0  0  0  0  0  0  0  0
    2.5959    1.1881    0.0000 C   0  0  0  0  0  0  0  0  0  0  0  0
    1.7709    1.1881    0.0000 C   0  0  0  0  0  0  0  0  0  0  0  0
    3.8334    0.4736    0.0000 O   0  0  0  0  0  0  0  0  0  0  0  0
    4.2459    1.1881    0.0000 C   0  0  0  0  0  0  0  0  0  0  0  0
    3.0084   -0.9553    0.0000 O   0  0  0  0  0  0  0  0  0  0  0  0
    2.5959   -1.6698    0.0000 C   0  0  0  0  0  0  0  0  0  0  0  0
  1  2  2  0      
  2  3  1  0      
  3  4  2  0      
  4  5  1  0      
  5  1  1  0      
  1  6  1  0      
  6  7  2  0      
  7  8  1  0      
  8  9  1  0      
  9 10  1  0      
  9 11  2  0      
  4 12  1  0      
 12 13  2  0      
 13 14  1  0      
 14 15  2  0      
 15 16  1  0      
 16 17  2  0      
 17 12  1  0      
 15 18  1  0      
 18 19  1  0      
 14 20  1  0      
 20 21  1  0      
M  END
