SA45_0002.mol
  ChemDraw05022416412D

 42 45  0  0  1  0  0  0  0  0999 V2000
   -2.0388    0.0865    0.0000 C   0  0  0  0  0  0  0  0  0  0  0  0
   -1.2804    0.4027    0.0000 N   0  0  0  0  0  0  0  0  0  0  0  0
   -1.3894    1.2160    0.0000 C   0  0  0  0  0  0  0  0  0  0  0  0
   -2.2152    1.4024    0.0000 C   0  0  0  0  0  0  0  0  0  0  0  0
   -2.6429    0.7008    0.0000 O   0  0  0  0  0  0  0  0  0  0  0  0
   -2.5357    2.1590    0.0000 C   0  0  0  0  0  0  0  0  0  0  0  0
   -0.7832    1.7706    0.0000 C   0  0  0  0  0  0  0  0  0  0  0  0
   -2.2015   -0.7189    0.0000 C   0  0  0  0  0  0  0  0  0  0  0  0
    0.0002    1.5230    0.0000 N   0  0  0  0  0  0  0  0  0  0  0  0
   -0.9605    2.5729    0.0000 O   0  0  0  0  0  0  0  0  0  0  0  0
    0.6064    2.0776    0.0000 C   0  0  0  0  0  0  0  0  0  0  0  0
    1.3899    1.8300    0.0000 C   0  0  0  0  0  0  0  0  0  0  0  0
    0.4292    2.8799    0.0000 C   0  0  0  0  0  0  0  0  0  0  0  0
    1.2126    2.6323    0.0000 C   0  0  0  0  0  0  0  0  0  0  0  0
    1.0102    3.4610    0.0000 O   0  0  0  0  0  0  0  0  0  0  0  0
   -0.3645    3.0926    0.0000 O   0  0  0  0  0  0  0  0  0  0  0  0
    1.6500    1.0506    0.0000 N   0  0  0  0  0  0  0  0  0  0  0  0
    2.4717    1.0571    0.0000 C   0  0  0  0  0  0  0  0  0  0  0  0
    2.7193    1.8406    0.0000 C   0  0  0  0  0  0  0  0  0  0  0  0
    2.0508    2.3182    0.0000 O   0  0  0  0  0  0  0  0  0  0  0  0
    3.4987    2.1007    0.0000 C   0  0  0  0  0  0  0  0  0  0  0  0
    2.5808    0.2427    0.0000 C   0  0  0  0  0  0  0  0  0  0  0  0
    3.3407   -0.0699    0.0000 O   0  0  0  0  0  0  0  0  0  0  0  0
    1.9302   -0.2590    0.0000 N   0  0  0  0  0  0  0  0  0  0  0  0
    2.0393   -1.0734    0.0000 C   0  0  0  0  0  0  0  0  0  0  0  0
    1.3886   -1.5751    0.0000 C   0  0  0  0  0  0  0  0  0  0  0  0
    2.7992   -1.3860    0.0000 C   0  0  0  0  0  0  0  0  0  0  0  0
    2.1485   -1.8878    0.0000 C   0  0  0  0  0  0  0  0  0  0  0  0
    3.4499   -0.8843    0.0000 O   0  0  0  0  0  0  0  0  0  0  0  0
    2.9084   -2.2004    0.0000 O   0  0  0  0  0  0  0  0  0  0  0  0
    0.6002   -1.3436    0.0000 N   0  0  0  0  0  0  0  0  0  0  0  0
    0.1364   -2.0219    0.0000 C   0  0  0  0  0  0  0  0  0  0  0  0
    0.6382   -2.6726    0.0000 C   0  0  0  0  0  0  0  0  0  0  0  0
    1.4121   -2.3965    0.0000 O   0  0  0  0  0  0  0  0  0  0  0  0
   -0.6849   -2.0453    0.0000 C   0  0  0  0  0  0  0  0  0  0  0  0
   -1.0957   -2.7569    0.0000 O   0  0  0  0  0  0  0  0  0  0  0  0
   -1.1159   -1.3458    0.0000 N   0  0  0  0  0  0  0  0  0  0  0  0
   -3.0191   -0.6372    0.0000 C   0  0  0  0  0  0  0  0  0  0  0  0
   -2.6812   -1.3861    0.0000 C   0  0  0  0  0  0  0  0  0  0  0  0
   -3.3571    0.1118    0.0000 O   0  0  0  0  0  0  0  0  0  0  0  0
   -3.4987   -1.3043    0.0000 O   0  0  0  0  0  0  0  0  0  0  0  0
    0.4067   -3.4610    0.0000 C   0  0  0  0  0  0  0  0  0  0  0  0
  1  2  2  0      
  2  3  1  0      
  3  4  2  0      
  4  5  1  0      
  5  1  1  0      
  4  6  1  0      
  3  7  1  0      
  1  8  1  0      
  7  9  1  0      
  7 10  2  0      
  9 11  1  0      
 11 12  1  0      
 11 13  1  6      
 11 14  1  1      
 13 15  1  0      
 13 16  2  0      
 12 17  2  0      
 17 18  1  0      
 18 19  2  0      
 19 20  1  0      
 20 12  1  0      
 19 21  1  0      
 18 22  1  0      
 22 23  2  0      
 22 24  1  0      
 24 25  1  0      
 25 26  1  0      
 25 27  1  6      
 25 28  1  1      
 27 29  2  0      
 27 30  1  0      
 26 31  2  0      
 31 32  1  0      
 32 33  2  0      
 33 34  1  0      
 34 26  1  0      
 32 35  1  0      
 35 36  2  0      
 35 37  1  0      
 37  8  1  0      
  8 38  1  6      
  8 39  1  1      
 38 40  2  0      
 38 41  1  0      
 33 42  1  0      
M  END
