SA46_0001.mol
  ChemDraw05022417102D

 33 36  0  0  1  0  0  0  0  0999 V2000
   -4.0553    1.6142    0.0000 C   0  0  0  0  0  0  0  0  0  0  0  0
   -4.4678    0.8997    0.0000 C   0  0  0  0  0  0  0  0  0  0  0  0
   -4.0553    0.1852    0.0000 C   0  0  0  0  0  0  0  0  0  0  0  0
   -3.2303    0.1852    0.0000 C   0  0  0  0  0  0  0  0  0  0  0  0
   -2.8178    0.8997    0.0000 C   0  0  0  0  0  0  0  0  0  0  0  0
   -3.2303    1.6142    0.0000 C   0  0  0  0  0  0  0  0  0  0  0  0
   -4.4678    2.3286    0.0000 O   0  0  0  0  0  0  0  0  0  0  0  0
   -5.2928    0.8997    0.0000 O   0  0  0  0  0  0  0  0  0  0  0  0
   -4.4678   -0.5293    0.0000 O   0  0  0  0  0  0  0  0  0  0  0  0
   -1.9928    0.8997    0.0000 C   0  0  0  0  0  0  0  0  0  0  0  0
   -1.5079    0.2322    0.0000 N   0  0  0  0  0  0  0  0  0  0  0  0
   -0.7233    0.4872    0.0000 N   0  0  0  0  0  0  0  0  0  0  0  0
   -0.7233    1.3122    0.0000 C   0  0  0  0  0  0  0  0  0  0  0  0
   -1.5079    1.5671    0.0000 O   0  0  0  0  0  0  0  0  0  0  0  0
   -0.0559    1.7971    0.0000 C   0  0  0  0  0  0  0  0  0  0  0  0
    0.6586    1.3846    0.0000 C   0  0  0  0  0  0  0  0  0  0  0  0
    1.3731    1.7971    0.0000 C   0  0  0  0  0  0  0  0  0  0  0  0
    2.0876    1.3846    0.0000 C   0  0  0  0  0  0  0  0  0  0  0  0
    2.1738    0.5641    0.0000 O   0  0  0  0  0  0  0  0  0  0  0  0
    2.9808    0.3926    0.0000 C   0  0  0  0  0  0  0  0  0  0  0  0
    3.3933    1.1071    0.0000 N   0  0  0  0  0  0  0  0  0  0  0  0
    2.8412    1.7202    0.0000 N   0  0  0  0  0  0  0  0  0  0  0  0
    3.3163   -0.3611    0.0000 C   0  0  0  0  0  0  0  0  0  0  0  0
    2.8314   -1.0285    0.0000 C   0  0  0  0  0  0  0  0  0  0  0  0
    3.1670   -1.7822    0.0000 C   0  0  0  0  0  0  0  0  0  0  0  0
    3.9874   -1.8684    0.0000 C   0  0  0  0  0  0  0  0  0  0  0  0
    4.4724   -1.2010    0.0000 C   0  0  0  0  0  0  0  0  0  0  0  0
    4.1368   -0.4473    0.0000 C   0  0  0  0  0  0  0  0  0  0  0  0
    4.6217    0.2201    0.0000 O   0  0  0  0  0  0  0  0  0  0  0  0
    5.2928   -1.2872    0.0000 O   0  0  0  0  0  0  0  0  0  0  0  0
    4.3230   -2.6221    0.0000 O   0  0  0  0  0  0  0  0  0  0  0  0
    0.6586    0.5596    0.0000 O   0  0  0  0  0  0  0  0  0  0  0  0
   -0.0559    2.6221    0.0000 O   0  0  0  0  0  0  0  0  0  0  0  0
  1  2  2  0      
  2  3  1  0      
  3  4  2  0      
  4  5  1  0      
  5  6  2  0      
  6  1  1  0      
  1  7  1  0      
  2  8  1  0      
  3  9  1  0      
  5 10  1  0      
 10 11  2  0      
 11 12  1  0      
 12 13  2  0      
 13 14  1  0      
 14 10  1  0      
 13 15  1  0      
 15 16  1  0      
 16 17  1  0      
 17 18  1  0      
 18 19  1  0      
 19 20  1  0      
 20 21  2  0      
 21 22  1  0      
 22 18  2  0      
 20 23  1  0      
 23 24  2  0      
 24 25  1  0      
 25 26  2  0      
 26 27  1  0      
 27 28  2  0      
 28 23  1  0      
 28 29  1  0      
 27 30  1  0      
 26 31  1  0      
 16 32  1  6      
 15 33  1  6      
M  END
