SA48_0003.mol
  ChemDraw05022417252D

 55 60  0  0  1  0  0  0  0  0999 V2000
   -3.6020    0.3669    0.0000 C   0  0  0  0  0  0  0  0  0  0  0  0
   -3.6020   -0.4581    0.0000 C   0  0  0  0  0  0  0  0  0  0  0  0
   -2.8875   -0.8706    0.0000 C   0  0  0  0  0  0  0  0  0  0  0  0
   -2.1730   -0.4581    0.0000 C   0  0  0  0  0  0  0  0  0  0  0  0
   -2.1730    0.3669    0.0000 C   0  0  0  0  0  0  0  0  0  0  0  0
   -2.8875    0.7794    0.0000 C   0  0  0  0  0  0  0  0  0  0  0  0
   -1.4586   -0.8706    0.0000 C   0  0  0  0  0  0  0  0  0  0  0  0
   -0.7441   -0.4581    0.0000 C   0  0  0  0  0  0  0  0  0  0  0  0
   -0.7441    0.3669    0.0000 C   0  0  0  0  0  0  0  0  0  0  0  0
   -1.4586    0.7794    0.0000 C   0  0  0  0  0  0  0  0  0  0  0  0
   -1.4586    1.6044    0.0000 C   0  0  0  0  0  0  0  0  0  0  0  0
   -2.1730    1.1919    0.0000 C   0  0  0  0  0  0  0  0  0  0  0  0
   -0.7441    2.0169    0.0000 C   0  0  0  0  0  0  0  0  0  0  0  0
   -0.7441    2.8419    0.0000 C   0  0  0  0  0  0  0  0  0  0  0  0
   -0.0296    1.6044    0.0000 S   0  0  0  0  0  0  0  0  0  0  0  0
   -0.0766    3.3268    0.0000 C   0  0  0  0  0  0  0  0  0  0  0  0
   -0.3316    4.1114    0.0000 O   0  0  0  0  0  0  0  0  0  0  0  0
   -1.1566    4.1114    0.0000 C   0  0  0  0  0  0  0  0  0  0  0  0
   -1.4115    3.3268    0.0000 C   0  0  0  0  0  0  0  0  0  0  0  0
    0.7080    3.0718    0.0000 O   0  0  0  0  0  0  0  0  0  0  0  0
    0.7954    1.6044    0.0000 C   0  0  0  0  0  0  0  0  0  0  0  0
    1.2079    2.3188    0.0000 S   0  0  0  0  0  0  0  0  0  0  0  0
    1.2079    0.8899    0.0000 N   0  0  0  0  0  0  0  0  0  0  0  0
    0.7954    0.1754    0.0000 C   0  0  0  0  0  0  0  0  0  0  0  0
    1.2079   -0.5391    0.0000 C   0  0  0  0  0  0  0  0  0  0  0  0
    2.0329   -0.5391    0.0000 N   0  0  0  0  0  0  0  0  0  0  0  0
    2.4454    0.1754    0.0000 C   0  0  0  0  0  0  0  0  0  0  0  0
    2.0329    0.8899    0.0000 C   0  0  0  0  0  0  0  0  0  0  0  0
   -0.0296    0.7794    0.0000 C   0  0  0  0  0  0  0  0  0  0  0  0
   -4.3164   -0.8706    0.0000 O   0  0  0  0  0  0  0  0  0  0  0  0
   -3.4709   -1.4540    0.0000 C   0  0  0  0  0  0  0  0  0  0  0  0
   -2.1730   -1.2831    0.0000 H   0  0  0  0  0  0  0  0  0  0  0  0
   -2.4750   -1.5851    0.0000 C   0  0  0  0  0  0  0  0  0  0  0  0
   -5.0309   -0.4581    0.0000 C   0  0  0  0  0  0  0  0  0  0  0  0
   -5.7454   -0.8706    0.0000 C   0  0  0  0  0  0  0  0  0  0  0  0
   -5.0309    0.3669    0.0000 O   0  0  0  0  0  0  0  0  0  0  0  0
   -4.2959   -1.4540    0.0000 O   0  0  0  0  0  0  0  0  0  0  0  0
   -4.7084   -2.1685    0.0000 C   0  0  0  0  0  0  0  0  0  0  0  0
   -5.5334   -2.1685    0.0000 C   0  0  0  0  0  0  0  0  0  0  0  0
   -4.2959   -2.8829    0.0000 O   0  0  0  0  0  0  0  0  0  0  0  0
    2.4454   -1.2535    0.0000 C   0  0  0  0  0  0  0  0  0  0  0  0
    2.0329   -1.9680    0.0000 C   0  0  0  0  0  0  0  0  0  0  0  0
    3.2704   -1.2535    0.0000 C   0  0  0  0  0  0  0  0  0  0  0  0
    3.6829   -1.9680    0.0000 C   0  0  0  0  0  0  0  0  0  0  0  0
    4.5079   -1.9680    0.0000 C   0  0  0  0  0  0  0  0  0  0  0  0
    4.9204   -1.2535    0.0000 C   0  0  0  0  0  0  0  0  0  0  0  0
    4.5079   -0.5391    0.0000 C   0  0  0  0  0  0  0  0  0  0  0  0
    3.6829   -0.5391    0.0000 C   0  0  0  0  0  0  0  0  0  0  0  0
    1.2079   -1.9680    0.0000 C   0  0  0  0  0  0  0  0  0  0  0  0
    0.7954   -2.6825    0.0000 C   0  0  0  0  0  0  0  0  0  0  0  0
    1.2079   -3.3969    0.0000 C   0  0  0  0  0  0  0  0  0  0  0  0
    2.0329   -3.3969    0.0000 C   0  0  0  0  0  0  0  0  0  0  0  0
    2.4454   -2.6825    0.0000 C   0  0  0  0  0  0  0  0  0  0  0  0
    0.7954   -4.1114    0.0000 F   0  0  0  0  0  0  0  0  0  0  0  0
    5.7454   -1.2535    0.0000 F   0  0  0  0  0  0  0  0  0  0  0  0
  1  2  1  0      
  2  3  1  0      
  3  4  1  0      
  4  5  1  0      
  5  6  1  0      
  6  1  1  0      
  4  7  1  0      
  7  8  1  0      
  8  9  1  0      
  9 10  1  0      
 10  5  1  0      
 10 11  1  6      
  5 12  1  6      
 11 13  1  0      
 13 14  1  0      
 13 15  1  0      
 14 16  1  0      
 16 17  1  0      
 17 18  1  0      
 18 19  1  0      
 19 14  2  0      
 16 20  2  0      
 15 21  1  0      
 21 22  2  0      
 21 23  1  0      
 23 24  1  0      
 24 25  1  0      
 25 26  1  0      
 26 27  1  0      
 27 28  1  0      
 28 23  1  0      
  9 29  2  0      
  2 30  1  6      
  3 31  1  6      
  4 32  1  1      
  3 33  1  1      
 30 34  1  0      
 34 35  1  0      
 34 36  1  0      
 31 37  1  0      
 37 38  1  0      
 38 39  1  0      
 38 40  2  0      
 26 41  1  1      
 41 42  1  0      
 41 43  1  0      
 43 44  2  0      
 44 45  1  0      
 45 46  2  0      
 46 47  1  0      
 47 48  2  0      
 48 43  1  0      
 42 49  2  0      
 49 50  1  0      
 50 51  2  0      
 51 52  1  0      
 52 53  2  0      
 53 42  1  0      
 51 54  1  0      
 46 55  1  0      
M  END
