SA51_0006.mol
  ChemDraw05032409462D

 19 21  0  0  0  0  0  0  0  0999 V2000
   -3.2047    0.0990    0.0000 C   0  0  0  0  0  0  0  0  0  0  0  0
   -3.2047   -0.7260    0.0000 C   0  0  0  0  0  0  0  0  0  0  0  0
   -2.4902   -1.1385    0.0000 C   0  0  0  0  0  0  0  0  0  0  0  0
   -1.7757   -0.7260    0.0000 C   0  0  0  0  0  0  0  0  0  0  0  0
   -1.7757    0.0990    0.0000 C   0  0  0  0  0  0  0  0  0  0  0  0
   -2.4902    0.5115    0.0000 C   0  0  0  0  0  0  0  0  0  0  0  0
   -0.9911   -0.9810    0.0000 Se  0  0  0  0  0  0  0  0  0  0  0  0
   -0.5062   -0.3135    0.0000 N   0  0  0  0  0  0  0  0  0  0  0  0
   -0.9911    0.3539    0.0000 C   0  0  0  0  0  0  0  0  0  0  0  0
   -0.7362    1.1385    0.0000 O   0  0  0  0  0  0  0  0  0  0  0  0
    0.3188   -0.3135    0.0000 C   0  0  0  0  0  0  0  0  0  0  0  0
    0.7313   -1.0280    0.0000 C   0  0  0  0  0  0  0  0  0  0  0  0
    1.5563   -1.0280    0.0000 C   0  0  0  0  0  0  0  0  0  0  0  0
    1.9688   -0.3135    0.0000 C   0  0  0  0  0  0  0  0  0  0  0  0
    1.5563    0.4009    0.0000 C   0  0  0  0  0  0  0  0  0  0  0  0
    0.7313    0.4009    0.0000 C   0  0  0  0  0  0  0  0  0  0  0  0
    2.7938   -0.3135    0.0000 N   0  3  0  0  0  0  0  0  0  0  0  0
    3.2047   -1.0251    0.0000 O   0  0  0  0  0  0  0  0  0  0  0  0
    3.2047    0.3981    0.0000 O   0  5  0  0  0  0  0  0  0  0  0  0
 17 18  2  0      
 17 19  1  0      
 14 17  1  0      
  1  2  2  0      
  2  3  1  0      
  3  4  2  0      
  4  5  1  0      
  5  6  2  0      
  6  1  1  0      
  4  7  1  0      
  7  8  1  0      
  8  9  1  0      
  9  5  1  0      
  9 10  2  0      
  8 11  1  0      
 11 12  2  0      
 12 13  1  0      
 13 14  2  0      
 14 15  1  0      
 15 16  2  0      
 16 11  1  0      
M  CHG  2  17   1  19  -1
M  STY  1   1 SUP
M  SLB  1   1   1
M  SAL   1  3  17  18  19
M  SBL   1  1   3
M  SMT   1 NO2
M  SBV   1   3   -0.8250    0.0000
M  END
