SA51_0018.mol
  ChemDraw05032410082D

 17 19  0  0  0  0  0  0  0  0999 V2000
   -2.5788    0.7580    0.0000 C   0  0  0  0  0  0  0  0  0  0  0  0
   -2.5788   -0.0637    0.0000 C   0  0  0  0  0  0  0  0  0  0  0  0
   -1.8672   -0.4745    0.0000 C   0  0  0  0  0  0  0  0  0  0  0  0
   -1.1556   -0.0637    0.0000 C   0  0  0  0  0  0  0  0  0  0  0  0
   -1.1556    0.7580    0.0000 C   0  0  0  0  0  0  0  0  0  0  0  0
   -1.8672    1.1688    0.0000 C   0  0  0  0  0  0  0  0  0  0  0  0
   -0.3742   -0.3176    0.0000 S   0  0  0  0  0  0  0  0  0  0  0  0
    0.1088    0.3472    0.0000 N   0  0  0  0  0  0  0  0  0  0  0  0
   -0.3742    1.0119    0.0000 C   0  0  0  0  0  0  0  0  0  0  0  0
   -0.1203    1.7934    0.0000 O   0  0  0  0  0  0  0  0  0  0  0  0
    0.9305    0.3472    0.0000 C   0  0  0  0  0  0  0  0  0  0  0  0
    1.3413   -0.3644    0.0000 C   0  0  0  0  0  0  0  0  0  0  0  0
    0.9288   -1.0789    0.0000 C   0  0  0  0  0  0  0  0  0  0  0  0
    1.3413   -1.7934    0.0000 C   0  0  0  0  0  0  0  0  0  0  0  0
    2.1663   -1.7934    0.0000 C   0  0  0  0  0  0  0  0  0  0  0  0
    2.5788   -1.0789    0.0000 C   0  0  0  0  0  0  0  0  0  0  0  0
    2.1663   -0.3644    0.0000 C   0  0  0  0  0  0  0  0  0  0  0  0
  1  2  2  0      
  2  3  1  0      
  3  4  2  0      
  4  5  1  0      
  5  6  2  0      
  6  1  1  0      
  4  7  1  0      
  7  8  1  0      
  8  9  1  0      
  9  5  1  0      
  9 10  2  0      
  8 11  1  0      
 11 12  1  0      
 12 13  2  0      
 13 14  1  0      
 14 15  2  0      
 15 16  1  0      
 16 17  2  0      
 17 12  1  0      
M  END
