SA51_0024.mol
  ChemDraw05032410002D

 20 22  0  0  0  0  0  0  0  0999 V2000
   -3.1926    0.3993    0.0000 C   0  0  0  0  0  0  0  0  0  0  0  0
   -3.1926   -0.4223    0.0000 C   0  0  0  0  0  0  0  0  0  0  0  0
   -2.4810   -0.8332    0.0000 C   0  0  0  0  0  0  0  0  0  0  0  0
   -1.7694   -0.4223    0.0000 C   0  0  0  0  0  0  0  0  0  0  0  0
   -1.7694    0.3993    0.0000 C   0  0  0  0  0  0  0  0  0  0  0  0
   -2.4810    0.8102    0.0000 C   0  0  0  0  0  0  0  0  0  0  0  0
   -0.9879   -0.6763    0.0000 S   0  0  0  0  0  0  0  0  0  0  0  0
   -0.5050   -0.0115    0.0000 N   0  0  0  0  0  0  0  0  0  0  0  0
   -0.9879    0.6532    0.0000 C   0  0  0  0  0  0  0  0  0  0  0  0
   -0.7340    1.4347    0.0000 O   0  0  0  0  0  0  0  0  0  0  0  0
    0.3167   -0.0115    0.0000 C   0  0  0  0  0  0  0  0  0  0  0  0
    0.7275   -0.7231    0.0000 C   0  0  0  0  0  0  0  0  0  0  0  0
    1.5492   -0.7231    0.0000 C   0  0  0  0  0  0  0  0  0  0  0  0
    1.9601   -0.0115    0.0000 C   0  0  0  0  0  0  0  0  0  0  0  0
    1.5492    0.7001    0.0000 C   0  0  0  0  0  0  0  0  0  0  0  0
    0.7275    0.7001    0.0000 C   0  0  0  0  0  0  0  0  0  0  0  0
    2.7817   -0.0115    0.0000 C   0  0  0  0  0  0  0  0  0  0  0  0
    3.1926   -0.7231    0.0000 O   0  0  0  0  0  0  0  0  0  0  0  0
    3.1926    0.7001    0.0000 O   0  0  0  0  0  0  0  0  0  0  0  0
    2.7817   -1.4347    0.0000 C   0  0  0  0  0  0  0  0  0  0  0  0
  1  2  2  0      
  2  3  1  0      
  3  4  2  0      
  4  5  1  0      
  5  6  2  0      
  6  1  1  0      
  4  7  1  0      
  7  8  1  0      
  8  9  1  0      
  9  5  1  0      
  9 10  2  0      
  8 11  1  0      
 11 12  2  0      
 12 13  1  0      
 13 14  2  0      
 14 15  1  0      
 15 16  2  0      
 16 11  1  0      
 17 18  1  0      
 17 19  2  0      
 18 20  1  0      
 17 14  1  0      
M  END
