SA51_0008.mol
  ChemDraw05032409512D

 19 20  0  0  0  0  0  0  0  0999 V2000
   -3.3980    0.3993    0.0000 C   0  0  0  0  0  0  0  0  0  0  0  0
   -3.3980   -0.4223    0.0000 C   0  0  0  0  0  0  0  0  0  0  0  0
   -2.6864   -0.8332    0.0000 C   0  0  0  0  0  0  0  0  0  0  0  0
   -1.9748   -0.4223    0.0000 C   0  0  0  0  0  0  0  0  0  0  0  0
   -1.9748    0.3993    0.0000 C   0  0  0  0  0  0  0  0  0  0  0  0
   -2.6864    0.8102    0.0000 C   0  0  0  0  0  0  0  0  0  0  0  0
   -1.1933   -0.6763    0.0000 Se  0  0  0  0  0  0  0  0  0  0  0  0
   -0.7104   -0.0115    0.0000 N   0  0  0  0  0  0  0  0  0  0  0  0
   -1.1933    0.6532    0.0000 C   0  0  0  0  0  0  0  0  0  0  0  0
   -0.9394    1.4347    0.0000 O   0  0  0  0  0  0  0  0  0  0  0  0
    0.1113   -0.0115    0.0000 C   0  0  0  0  0  0  0  0  0  0  0  0
    0.5221   -0.7231    0.0000 N   0  0  0  0  0  0  0  0  0  0  0  0
    1.3438   -0.7231    0.0000 C   0  0  0  0  0  0  0  0  0  0  0  0
    1.7546   -1.4347    0.0000 O   0  0  0  0  0  0  0  0  0  0  0  0
    1.7546   -0.0115    0.0000 O   0  0  0  0  0  0  0  0  0  0  0  0
    2.5763   -0.0115    0.0000 C   0  0  0  0  0  0  0  0  0  0  0  0
    3.3980   -0.0115    0.0000 C   0  0  0  0  0  0  0  0  0  0  0  0
    2.9871   -0.7231    0.0000 C   0  0  0  0  0  0  0  0  0  0  0  0
    2.9871    0.7001    0.0000 C   0  0  0  0  0  0  0  0  0  0  0  0
  1  2  2  0      
  2  3  1  0      
  3  4  2  0      
  4  5  1  0      
  5  6  2  0      
  6  1  1  0      
  4  7  1  0      
  7  8  1  0      
  8  9  1  0      
  9  5  1  0      
  9 10  2  0      
  8 11  1  0      
 11 12  1  0      
 12 13  1  0      
 13 14  2  0      
 13 15  1  0      
 15 16  1  0      
 16 17  1  0      
 16 18  1  0      
 16 19  1  0      
M  END
