SA5_0008.mol
  ChemDraw02212408342D

 26 29  0  0  0  0  0  0  0  0999 V2000
    1.8791   -0.8300    0.0000 C   0  0  0  0  0  0  0  0  0  0  0  0
    1.3954   -0.1616    0.0000 C   0  0  0  0  0  0  0  0  0  0  0  0
    1.3929   -1.4965    0.0000 N   0  0  0  0  0  0  0  0  0  0  0  0
   -0.1064   -1.6513    0.0000 N   0  0  0  0  0  0  0  0  0  0  0  0
   -0.8201   -1.2375    0.0000 C   0  0  0  0  0  0  0  0  0  0  0  0
   -0.8186   -0.4125    0.0000 C   0  0  0  0  0  0  0  0  0  0  0  0
   -0.1034   -0.0013    0.0000 C   0  0  0  0  0  0  0  0  0  0  0  0
    0.6103   -0.4151    0.0000 C   0  0  0  0  0  0  0  0  0  0  0  0
    0.6088   -1.2401    0.0000 C   0  0  0  0  0  0  0  0  0  0  0  0
   -1.5323    0.0013    0.0000 C   0  0  0  0  0  0  0  0  0  0  0  0
    1.6518    0.6225    0.0000 N   0  0  0  0  0  0  0  0  0  0  0  0
    2.4591    0.7926    0.0000 C   0  0  0  0  0  0  0  0  0  0  0  0
    3.0100    0.1784    0.0000 C   0  0  0  0  0  0  0  0  0  0  0  0
    2.7154    1.5767    0.0000 O   0  0  0  0  0  0  0  0  0  0  0  0
   -1.5323    0.8263    0.0000 C   0  0  0  0  0  0  0  0  0  0  0  0
   -2.2468    1.2388    0.0000 C   0  0  0  0  0  0  0  0  0  0  0  0
   -2.9613    0.8263    0.0000 C   0  0  0  0  0  0  0  0  0  0  0  0
   -2.9613    0.0013    0.0000 C   0  0  0  0  0  0  0  0  0  0  0  0
   -2.2468   -0.4112    0.0000 C   0  0  0  0  0  0  0  0  0  0  0  0
    2.7964   -0.6184    0.0000 C   0  0  0  0  0  0  0  0  0  0  0  0
    3.3798   -1.2018    0.0000 C   0  0  0  0  0  0  0  0  0  0  0  0
    4.1767   -0.9883    0.0000 C   0  0  0  0  0  0  0  0  0  0  0  0
    4.3902   -0.1914    0.0000 N   0  0  0  0  0  0  0  0  0  0  0  0
    3.8069    0.3920    0.0000 C   0  0  0  0  0  0  0  0  0  0  0  0
   -3.6758    1.2388    0.0000 C   0  0  0  0  0  0  0  0  0  0  0  0
   -4.3902    1.6513    0.0000 N   0  0  0  0  0  0  0  0  0  0  0  0
  2  8  1  0      
  3  9  1  0      
  3  1  1  0      
  2  1  2  0      
  9  4  2  0      
  5  4  1  0      
  6  5  2  0      
  7  6  1  0      
  8  7  2  0      
  9  8  1  0      
  6 10  1  0      
  2 11  1  0      
 11 12  1  0      
 12 13  1  0      
 12 14  2  0      
 10 15  2  0      
 15 16  1  0      
 16 17  2  0      
 17 18  1  0      
 18 19  2  0      
 19 10  1  0      
 13 20  2  0      
 20 21  1  0      
 21 22  2  0      
 22 23  1  0      
 23 24  2  0      
 24 13  1  0      
 17 25  1  0      
 25 26  3  0      
M  END
