SV_J26_0010
  -OEChem-07172407052D

 83 87  0     1  0  0  0  0  0999 V2000
    9.7942   -1.4400    0.0000 O   0  0  0  0  0  0  0  0  0  0  0  0
   10.6603    0.0600    0.0000 O   0  0  0  0  0  0  0  0  0  0  0  0
   14.9904   -1.4400    0.0000 O   0  0  0  0  0  0  0  0  0  0  0  0
   14.1244    0.0600    0.0000 O   0  0  0  0  0  0  0  0  0  0  0  0
   14.1244    3.0600    0.0000 O   0  5  0  0  0  0  0  0  0  0  0  0
   14.9904    1.5600    0.0000 O   0  0  0  0  0  0  0  0  0  0  0  0
    5.4641    0.0600    0.0000 N   0  0  0  0  0  0  0  0  0  0  0  0
    7.1962   -0.9400    0.0000 N   0  0  0  0  0  0  0  0  0  0  0  0
   12.3923   -2.9400    0.0000 N   0  0  0  0  0  0  0  0  0  0  0  0
   14.1244    2.0600    0.0000 N   0  3  0  0  0  0  0  0  0  0  0  0
    5.4641   -0.9400    0.0000 C   0  0  0  0  0  0  0  0  0  0  0  0
    6.3301    0.5600    0.0000 C   0  0  0  0  0  0  0  0  0  0  0  0
    6.3301   -1.4400    0.0000 C   0  0  0  0  0  0  0  0  0  0  0  0
    7.1962    0.0600    0.0000 C   0  0  0  0  0  0  0  0  0  0  0  0
    4.5981    0.5600    0.0000 C   0  0  0  0  0  0  0  0  0  0  0  0
    8.0622   -1.4400    0.0000 C   0  0  0  0  0  0  0  0  0  0  0  0
    3.7320    0.0600    0.0000 C   0  0  0  0  0  0  0  0  0  0  0  0
    4.5981    1.5600    0.0000 C   0  0  0  0  0  0  0  0  0  0  0  0
    8.9282   -0.9400    0.0000 C   0  0  0  0  0  0  0  0  0  0  0  0
    2.8660    0.5600    0.0000 C   0  0  0  0  0  0  0  0  0  0  0  0
    5.4641    2.0600    0.0000 C   0  0  0  0  0  0  0  0  0  0  0  0
    3.7320   -0.9400    0.0000 C   0  0  0  0  0  0  0  0  0  0  0  0
    3.7320    2.0600    0.0000 C   0  0  0  0  0  0  0  0  0  0  0  0
   12.3923   -0.9400    0.0000 C   0  0  3  0  0  0  0  0  0  0  0  0
   11.5263   -1.4400    0.0000 C   0  0  0  0  0  0  0  0  0  0  0  0
   13.2583   -1.4400    0.0000 C   0  0  0  0  0  0  0  0  0  0  0  0
   10.6603   -0.9400    0.0000 C   0  0  0  0  0  0  0  0  0  0  0  0
   11.5263   -2.4400    0.0000 C   0  0  0  0  0  0  0  0  0  0  0  0
   12.3923    0.0600    0.0000 C   0  0  0  0  0  0  0  0  0  0  0  0
    2.0000    0.0600    0.0000 C   0  0  0  0  0  0  0  0  0  0  0  0
    5.4641    3.0600    0.0000 C   0  0  0  0  0  0  0  0  0  0  0  0
    2.8660   -1.4400    0.0000 C   0  0  0  0  0  0  0  0  0  0  0  0
    3.7320    3.0600    0.0000 C   0  0  0  0  0  0  0  0  0  0  0  0
   13.2583   -2.4400    0.0000 C   0  0  0  0  0  0  0  0  0  0  0  0
    2.0000   -0.9400    0.0000 C   0  0  0  0  0  0  0  0  0  0  0  0
    4.5981    3.5600    0.0000 C   0  0  0  0  0  0  0  0  0  0  0  0
   10.6603   -2.9400    0.0000 C   0  0  0  0  0  0  0  0  0  0  0  0
   13.2583    0.5600    0.0000 C   0  0  0  0  0  0  0  0  0  0  0  0
   11.5263    0.5600    0.0000 C   0  0  0  0  0  0  0  0  0  0  0  0
   14.1244   -0.9400    0.0000 C   0  0  0  0  0  0  0  0  0  0  0  0
   14.1244   -2.9400    0.0000 C   0  0  0  0  0  0  0  0  0  0  0  0
   13.2583    1.5600    0.0000 C   0  0  0  0  0  0  0  0  0  0  0  0
   11.5263    1.5600    0.0000 C   0  0  0  0  0  0  0  0  0  0  0  0
   12.3923    2.0600    0.0000 C   0  0  0  0  0  0  0  0  0  0  0  0
   15.8564   -0.9400    0.0000 C   0  0  0  0  0  0  0  0  0  0  0  0
    4.8535   -0.8323    0.0000 H   0  0  0  0  0  0  0  0  0  0  0  0
    5.2520   -1.5226    0.0000 H   0  0  0  0  0  0  0  0  0  0  0  0
    6.7287    1.0350    0.0000 H   0  0  0  0  0  0  0  0  0  0  0  0
    5.9316    1.0350    0.0000 H   0  0  0  0  0  0  0  0  0  0  0  0
    5.9316   -1.9150    0.0000 H   0  0  0  0  0  0  0  0  0  0  0  0
    6.7287   -1.9150    0.0000 H   0  0  0  0  0  0  0  0  0  0  0  0
    7.8067   -0.0477    0.0000 H   0  0  0  0  0  0  0  0  0  0  0  0
    7.4082    0.6426    0.0000 H   0  0  0  0  0  0  0  0  0  0  0  0
    4.5981   -0.0600    0.0000 H   0  0  0  0  0  0  0  0  0  0  0  0
    7.6636   -1.9150    0.0000 H   0  0  0  0  0  0  0  0  0  0  0  0
    8.4607   -1.9150    0.0000 H   0  0  0  0  0  0  0  0  0  0  0  0
    9.3267   -0.4651    0.0000 H   0  0  0  0  0  0  0  0  0  0  0  0
    8.5297   -0.4651    0.0000 H   0  0  0  0  0  0  0  0  0  0  0  0
    2.8660    1.1800    0.0000 H   0  0  0  0  0  0  0  0  0  0  0  0
    6.0010    1.7500    0.0000 H   0  0  0  0  0  0  0  0  0  0  0  0
    4.2690   -1.2500    0.0000 H   0  0  0  0  0  0  0  0  0  0  0  0
    3.1951    1.7500    0.0000 H   0  0  0  0  0  0  0  0  0  0  0  0
   11.8554   -0.6300    0.0000 H   0  0  0  0  0  0  0  0  0  0  0  0
    1.4631    0.3700    0.0000 H   0  0  0  0  0  0  0  0  0  0  0  0
    6.0010    3.3700    0.0000 H   0  0  0  0  0  0  0  0  0  0  0  0
    2.8660   -2.0600    0.0000 H   0  0  0  0  0  0  0  0  0  0  0  0
    3.1951    3.3700    0.0000 H   0  0  0  0  0  0  0  0  0  0  0  0
   12.3923   -3.5600    0.0000 H   0  0  0  0  0  0  0  0  0  0  0  0
    1.4631   -1.2500    0.0000 H   0  0  0  0  0  0  0  0  0  0  0  0
    4.5981    4.1800    0.0000 H   0  0  0  0  0  0  0  0  0  0  0  0
   10.3503   -2.4031    0.0000 H   0  0  0  0  0  0  0  0  0  0  0  0
   10.1233   -3.2500    0.0000 H   0  0  0  0  0  0  0  0  0  0  0  0
   10.9703   -3.4769    0.0000 H   0  0  0  0  0  0  0  0  0  0  0  0
   13.7953    0.2500    0.0000 H   0  0  0  0  0  0  0  0  0  0  0  0
   10.9893    0.2500    0.0000 H   0  0  0  0  0  0  0  0  0  0  0  0
   13.8144   -3.4769    0.0000 H   0  0  0  0  0  0  0  0  0  0  0  0
   14.6613   -3.2500    0.0000 H   0  0  0  0  0  0  0  0  0  0  0  0
   14.4344   -2.4031    0.0000 H   0  0  0  0  0  0  0  0  0  0  0  0
   10.9893    1.8700    0.0000 H   0  0  0  0  0  0  0  0  0  0  0  0
   12.3923    2.6800    0.0000 H   0  0  0  0  0  0  0  0  0  0  0  0
   16.1664   -1.4769    0.0000 H   0  0  0  0  0  0  0  0  0  0  0  0
   16.3933   -0.6300    0.0000 H   0  0  0  0  0  0  0  0  0  0  0  0
   15.5464   -0.4031    0.0000 H   0  0  0  0  0  0  0  0  0  0  0  0
  1 19  1  0  0  0  0
  1 27  1  0  0  0  0
  2 27  2  0  0  0  0
  3 40  1  0  0  0  0
  3 45  1  0  0  0  0
  4 40  2  0  0  0  0
  5 10  1  0  0  0  0
  6 10  2  0  0  0  0
  7 11  1  0  0  0  0
  7 12  1  0  0  0  0
  7 15  1  0  0  0  0
  8 13  1  0  0  0  0
  8 14  1  0  0  0  0
  8 16  1  0  0  0  0
  9 28  1  0  0  0  0
  9 34  1  0  0  0  0
  9 68  1  0  0  0  0
 10 42  1  0  0  0  0
 11 13  1  0  0  0  0
 11 46  1  0  0  0  0
 11 47  1  0  0  0  0
 12 14  1  0  0  0  0
 12 48  1  0  0  0  0
 12 49  1  0  0  0  0
 13 50  1  0  0  0  0
 13 51  1  0  0  0  0
 14 52  1  0  0  0  0
 14 53  1  0  0  0  0
 15 17  1  0  0  0  0
 15 18  1  0  0  0  0
 15 54  1  0  0  0  0
 16 19  1  0  0  0  0
 16 55  1  0  0  0  0
 16 56  1  0  0  0  0
 17 20  2  0  0  0  0
 17 22  1  0  0  0  0
 18 21  2  0  0  0  0
 18 23  1  0  0  0  0
 19 57  1  0  0  0  0
 19 58  1  0  0  0  0
 20 30  1  0  0  0  0
 20 59  1  0  0  0  0
 21 31  1  0  0  0  0
 21 60  1  0  0  0  0
 22 32  2  0  0  0  0
 22 61  1  0  0  0  0
 23 33  2  0  0  0  0
 23 62  1  0  0  0  0
 24 25  1  0  0  0  0
 24 26  1  0  0  0  0
 24 29  1  0  0  0  0
 24 63  1  0  0  0  0
 25 27  1  0  0  0  0
 25 28  2  0  0  0  0
 26 34  2  0  0  0  0
 26 40  1  0  0  0  0
 28 37  1  0  0  0  0
 29 38  2  0  0  0  0
 29 39  1  0  0  0  0
 30 35  2  0  0  0  0
 30 64  1  0  0  0  0
 31 36  2  0  0  0  0
 31 65  1  0  0  0  0
 32 35  1  0  0  0  0
 32 66  1  0  0  0  0
 33 36  1  0  0  0  0
 33 67  1  0  0  0  0
 34 41  1  0  0  0  0
 35 69  1  0  0  0  0
 36 70  1  0  0  0  0
 37 71  1  0  0  0  0
 37 72  1  0  0  0  0
 37 73  1  0  0  0  0
 38 42  1  0  0  0  0
 38 74  1  0  0  0  0
 39 43  2  0  0  0  0
 39 75  1  0  0  0  0
 41 76  1  0  0  0  0
 41 77  1  0  0  0  0
 41 78  1  0  0  0  0
 42 44  2  0  0  0  0
 43 44  1  0  0  0  0
 43 79  1  0  0  0  0
 44 80  1  0  0  0  0
 45 81  1  0  0  0  0
 45 82  1  0  0  0  0
 45 83  1  0  0  0  0
M  CHG  2   5  -1  10   1
M  END
> <PUBCHEM_COMPOUND_CID>
4008

> <PUBCHEM_COMPOUND_CANONICALIZED>
1

> <PUBCHEM_CACTVS_COMPLEXITY>
1090

> <PUBCHEM_CACTVS_HBOND_ACCEPTOR>
9

> <PUBCHEM_CACTVS_HBOND_DONOR>
1

> <PUBCHEM_CACTVS_ROTATABLE_BOND>
11

> <PUBCHEM_CACTVS_SUBSKEYS>
AAADcfB/uAAAAAAAAAAAAAAAAAAAAAAAAAA8YMECAAAAAAABUAAAHgAUAAAADSjhmAYyyIPQRACJAiTSSwCCAAAgAgAoiAEIZMoKZDKAsZGXMAhkkACY6UeY7uiOgAAAQAAAAAAAAACAAAAAAAAAAAAAAA==

> <PUBCHEM_IUPAC_OPENEYE_NAME>
O5-[2-(4-benzhydrylpiperazin-1-yl)ethyl] O3-methyl 2,6-dimethyl-4-(3-nitrophenyl)-1,4-dihydropyridine-3,5-dicarboxylate

> <PUBCHEM_IUPAC_CAS_NAME>
2,6-dimethyl-4-(3-nitrophenyl)-1,4-dihydropyridine-3,5-dicarboxylic acid O5-[2-[4-(diphenylmethyl)-1-piperazinyl]ethyl] ester O3-methyl ester

> <PUBCHEM_IUPAC_NAME_MARKUP>
5-<I>O</I>-[2-(4-benzhydrylpiperazin-1-yl)ethyl] 3-<I>O</I>-methyl 2,6-dimethyl-4-(3-nitrophenyl)-1,4-dihydropyridine-3,5-dicarboxylate

> <PUBCHEM_IUPAC_NAME>
5-O-[2-(4-benzhydrylpiperazin-1-yl)ethyl] 3-O-methyl 2,6-dimethyl-4-(3-nitrophenyl)-1,4-dihydropyridine-3,5-dicarboxylate

> <PUBCHEM_IUPAC_SYSTEMATIC_NAME>
O5-[2-[4-(diphenylmethyl)piperazin-1-yl]ethyl] O3-methyl 2,6-dimethyl-4-(3-nitrophenyl)-1,4-dihydropyridine-3,5-dicarboxylate

> <PUBCHEM_IUPAC_TRADITIONAL_NAME>
2,6-dimethyl-4-(3-nitrophenyl)-1,4-dihydropyridine-3,5-dicarboxylic acid O5-[2-(4-benzhydrylpiperazino)ethyl] ester O3-methyl ester

> <PUBCHEM_IUPAC_INCHI>
InChI=1S/C35H38N4O6/c1-24-30(34(40)44-3)32(28-15-10-16-29(23-28)39(42)43)31(25(2)36-24)35(41)45-22-21-37-17-19-38(20-18-37)33(26-11-6-4-7-12-26)27-13-8-5-9-14-27/h4-16,23,32-33,36H,17-22H2,1-3H3

> <PUBCHEM_IUPAC_INCHIKEY>
ANEBWFXPVPTEET-UHFFFAOYSA-N

> <PUBCHEM_XLOGP3>
5.6

> <PUBCHEM_EXACT_MASS>
610.27913494

> <PUBCHEM_MOLECULAR_FORMULA>
C35H38N4O6

> <PUBCHEM_MOLECULAR_WEIGHT>
610.7

> <PUBCHEM_OPENEYE_CAN_SMILES>
CC1=C(C(C(=C(N1)C)C(=O)OCCN2CCN(CC2)C(C3=CC=CC=C3)C4=CC=CC=C4)C5=CC(=CC=C5)[N+](=O)[O-])C(=O)OC

> <PUBCHEM_OPENEYE_ISO_SMILES>
CC1=C(C(C(=C(N1)C)C(=O)OCCN2CCN(CC2)C(C3=CC=CC=C3)C4=CC=CC=C4)C5=CC(=CC=C5)[N+](=O)[O-])C(=O)OC

> <PUBCHEM_CACTVS_TPSA>
117

> <PUBCHEM_MONOISOTOPIC_WEIGHT>
610.27913494

> <PUBCHEM_TOTAL_CHARGE>
0

> <PUBCHEM_HEAVY_ATOM_COUNT>
45

> <PUBCHEM_ATOM_DEF_STEREO_COUNT>
0

> <PUBCHEM_ATOM_UDEF_STEREO_COUNT>
1

> <PUBCHEM_BOND_DEF_STEREO_COUNT>
0

> <PUBCHEM_BOND_UDEF_STEREO_COUNT>
0

> <PUBCHEM_ISOTOPIC_ATOM_COUNT>
0

> <PUBCHEM_COMPONENT_COUNT>
1

> <PUBCHEM_CACTVS_TAUTO_COUNT>
-1

> <PUBCHEM_COORDINATE_TYPE>
1
5
255

> <PUBCHEM_BONDANNOTATIONS>
17  20  8
17  22  8
18  21  8
18  23  8
20  30  8
21  31  8
22  32  8
23  33  8
24  29  3
29  38  8
29  39  8
30  35  8
31  36  8
32  35  8
33  36  8
38  42  8
39  43  8
42  44  8
43  44  8

$$$$
