SV_J4_0001.mol
  ChemDraw02072412572D

 29 31  0  0  1  0  0  0  0  0999 V2000
   -4.9938   -1.0881    0.0000 C   0  0  0  0  0  0  0  0  0  0  0  0
   -4.9938   -1.9131    0.0000 C   0  0  0  0  0  0  0  0  0  0  0  0
   -4.2793   -2.3256    0.0000 C   0  0  0  0  0  0  0  0  0  0  0  0
   -3.5649   -1.9131    0.0000 C   0  0  0  0  0  0  0  0  0  0  0  0
   -3.5649   -1.0881    0.0000 C   0  0  0  0  0  0  0  0  0  0  0  0
   -4.2793   -0.6756    0.0000 C   0  0  0  0  0  0  0  0  0  0  0  0
   -2.8504   -0.6756    0.0000 C   0  0  0  0  0  0  0  0  0  0  0  0
   -2.1359   -1.0881    0.0000 C   0  0  0  0  0  0  0  0  0  0  0  0
   -1.4215   -0.6756    0.0000 O   0  0  0  0  0  0  0  0  0  0  0  0
   -0.6246   -0.8891    0.0000 C   0  0  0  0  0  0  0  0  0  0  0  0
   -0.4110   -1.6860    0.0000 C   0  0  0  0  0  0  0  0  0  0  0  0
    0.3858   -1.8995    0.0000 C   0  0  0  0  0  0  0  0  0  0  0  0
    0.9692   -1.3162    0.0000 C   0  0  0  0  0  0  0  0  0  0  0  0
    0.7557   -0.5193    0.0000 C   0  0  0  0  0  0  0  0  0  0  0  0
   -0.0412   -0.3057    0.0000 C   0  0  0  0  0  0  0  0  0  0  0  0
   -0.9944   -2.2694    0.0000 O   0  0  0  0  0  0  0  0  0  0  0  0
    1.7661   -1.5297    0.0000 O   0  0  0  0  0  0  0  0  0  0  0  0
    1.3390    0.0641    0.0000 C   0  0  0  0  0  0  0  0  0  0  0  0
    2.1359   -0.1494    0.0000 O   0  0  0  0  0  0  0  0  0  0  0  0
    2.8504    0.2631    0.0000 C   0  0  0  0  0  0  0  0  0  0  0  0
    3.5649   -0.1494    0.0000 C   0  0  0  0  0  0  0  0  0  0  0  0
    4.2793    0.2631    0.0000 C   0  0  0  0  0  0  0  0  0  0  0  0
    4.2793    1.0881    0.0000 C   0  0  0  0  0  0  0  0  0  0  0  0
    3.5649    1.5006    0.0000 C   0  0  0  0  0  0  0  0  0  0  0  0
    2.8504    1.0881    0.0000 O   0  0  0  0  0  0  0  0  0  0  0  0
    3.5649    2.3256    0.0000 C   0  0  0  0  0  0  0  0  0  0  0  0
    3.5649   -0.9744    0.0000 O   0  0  0  0  0  0  0  0  0  0  0  0
    4.9938   -0.1494    0.0000 C   0  0  0  0  0  0  0  0  0  0  0  0
    4.9938    1.5006    0.0000 O   0  0  0  0  0  0  0  0  0  0  0  0
  1  2  2  0      
  2  3  1  0      
  3  4  2  0      
  4  5  1  0      
  5  6  2  0      
  6  1  1  0      
  5  7  1  0      
  7  8  1  0      
  8  9  1  0      
  9 10  1  6      
 10 11  1  0      
 11 12  1  0      
 12 13  1  0      
 13 14  1  0      
 14 15  1  0      
 15 10  1  0      
 11 16  1  1      
 13 17  1  1      
 14 18  1  6      
 18 19  1  0      
 19 20  1  6      
 20 21  1  0      
 21 22  1  0      
 22 23  1  0      
 23 24  1  0      
 24 25  1  0      
 25 20  1  0      
 24 26  1  1      
 21 27  1  1      
 22 28  1  1      
 23 29  1  6      
M  END
