SV_J12_0004.mol
  ChemDraw04112415382D

 39 42  0  0  1  0  0  0  0  0999 V2000
    3.1664    0.2359    0.0000 N   0  0  0  0  0  0  0  0  0  0  0  0
    3.1664   -0.5891    0.0000 C   0  0  0  0  0  0  0  0  0  0  0  0
    3.8809   -1.0016    0.0000 C   0  0  0  0  0  0  0  0  0  0  0  0
    4.5954   -0.5891    0.0000 C   0  0  0  0  0  0  0  0  0  0  0  0
    4.5954    0.2359    0.0000 C   0  0  0  0  0  0  0  0  0  0  0  0
    3.8809    0.6484    0.0000 C   0  0  0  0  0  0  0  0  0  0  0  0
    2.5831    0.8193    0.0000 C   0  0  0  0  0  0  0  0  0  0  0  0
    1.8686    0.4068    0.0000 C   0  0  0  0  0  0  0  0  0  0  0  0
    2.6908    1.6372    0.0000 O   0  0  0  0  0  0  0  0  0  0  0  0
    5.3098    0.6484    0.0000 C   0  0  0  0  0  0  0  0  0  0  0  0
    5.3098    1.4734    0.0000 C   0  0  0  0  0  0  0  0  0  0  0  0
    4.5954    1.8859    0.0000 C   0  0  0  0  0  0  0  0  0  0  0  0
    3.8809    1.4734    0.0000 C   0  0  0  0  0  0  0  0  0  0  0  0
    1.1541    0.8193    0.0000 O   0  0  0  0  0  0  0  0  0  0  0  0
    0.4397    0.4068    0.0000 C   0  0  0  0  0  0  0  0  0  0  0  0
   -0.2748    0.8193    0.0000 N   0  0  0  0  0  0  0  0  0  0  0  0
    0.4397   -0.4182    0.0000 O   0  0  0  0  0  0  0  0  0  0  0  0
   -1.0717    0.6058    0.0000 N   0  0  0  0  0  0  0  0  0  0  0  0
   -1.7862    1.0183    0.0000 C   0  0  0  0  0  0  0  0  0  0  0  0
   -2.5831    0.8047    0.0000 C   0  0  0  0  0  0  0  0  0  0  0  0
   -1.6785    1.8362    0.0000 O   0  0  0  0  0  0  0  0  0  0  0  0
   -3.1664    1.3881    0.0000 N   0  0  0  0  0  0  0  0  0  0  0  0
   -3.8809    0.9756    0.0000 C   0  0  0  0  0  0  0  0  0  0  0  0
   -4.5954    1.3881    0.0000 O   0  0  0  0  0  0  0  0  0  0  0  0
   -3.8809    0.1506    0.0000 O   0  0  0  0  0  0  0  0  0  0  0  0
   -4.5954    2.2131    0.0000 C   0  0  0  0  0  0  0  0  0  0  0  0
   -5.3098    2.6256    0.0000 C   0  0  0  0  0  0  0  0  0  0  0  0
   -3.8809    2.6256    0.0000 C   0  0  0  0  0  0  0  0  0  0  0  0
   -4.5954    3.0381    0.0000 C   0  0  0  0  0  0  0  0  0  0  0  0
   -2.7966    0.0078    0.0000 C   0  0  0  0  0  0  0  0  0  0  0  0
   -2.2132   -0.5755    0.0000 C   0  0  0  0  0  0  0  0  0  0  0  0
   -2.3423   -1.3904    0.0000 C   0  0  0  0  0  0  0  0  0  0  0  0
   -1.6072   -1.7649    0.0000 C   0  0  0  0  0  0  0  0  0  0  0  0
   -1.0238   -1.1815    0.0000 N   0  0  0  0  0  0  0  0  0  0  0  0
   -1.3984   -0.4465    0.0000 C   0  0  0  0  0  0  0  0  0  0  0  0
   -3.0342   -1.8397    0.0000 C   0  0  0  0  0  0  0  0  0  0  0  0
   -3.0342   -2.6636    0.0000 C   0  0  0  0  0  0  0  0  0  0  0  0
   -2.3423   -3.0381    0.0000 C   0  0  0  0  0  0  0  0  0  0  0  0
   -1.6072   -2.5888    0.0000 C   0  0  0  0  0  0  0  0  0  0  0  0
  1  2  1  0      
  2  3  1  0      
  3  4  1  0      
  4  5  1  0      
  5  6  2  0      
  6  1  1  0      
  1  7  1  0      
  7  8  1  0      
  7  9  2  0      
  5 10  1  0      
 10 11  2  0      
 11 12  1  0      
 12 13  2  0      
 13  6  1  0      
  8 14  1  0      
 14 15  1  0      
 15 16  1  0      
 15 17  2  0      
 16 18  1  0      
 18 19  1  0      
 19 20  1  0      
 19 21  2  0      
 20 22  1  0      
 22 23  1  0      
 23 24  1  0      
 23 25  2  0      
 24 26  1  0      
 26 27  1  0      
 26 28  1  0      
 26 29  1  0      
 20 30  1  6      
 30 31  1  0      
 31 32  1  0      
 32 33  2  0      
 33 34  1  0      
 34 35  1  0      
 35 31  2  0      
 32 36  1  0      
 36 37  2  0      
 37 38  1  0      
 38 39  2  0      
 39 33  1  0      
M  END
