SV_J11_0021
  -OEChem-07172407042D

108113  0     0  0  0  0  0  0999 V2000
    5.1350   -0.6544    0.0000 O   0  0  0  0  0  0  0  0  0  0  0  0
   11.6485    0.2191    0.0000 O   0  0  0  0  0  0  0  0  0  0  0  0
    8.5309   -4.3864    0.0000 O   0  0  0  0  0  0  0  0  0  0  0  0
    3.4030   -4.6544    0.0000 O   0  0  0  0  0  0  0  0  0  0  0  0
    6.7526    3.0851    0.0000 O   0  0  0  0  0  0  0  0  0  0  0  0
   14.2466    2.7191    0.0000 O   0  0  0  0  0  0  0  0  0  0  0  0
    6.9473   -1.8497    0.0000 N   0  0  0  0  0  0  0  0  0  0  0  0
    9.8363    1.4143    0.0000 N   0  0  0  0  0  0  0  0  0  0  0  0
    6.9473   -3.4591    0.0000 N   0  0  0  0  0  0  0  0  0  0  0  0
    8.5309   -2.6544    0.0000 N   0  0  0  0  0  0  0  0  0  0  0  0
    9.8363    3.0238    0.0000 N   0  0  0  0  0  0  0  0  0  0  0  0
    8.2526    2.2191    0.0000 N   0  0  0  0  0  0  0  0  0  0  0  0
    3.4030    2.3456    0.0000 N   0  0  0  0  0  0  0  0  0  0  0  0
   10.6187   -4.3294    0.0000 N   0  0  0  0  0  0  0  0  0  0  0  0
    7.8459    4.8647    0.0000 N   0  0  0  0  0  0  0  0  0  0  0  0
   11.5697   -4.0204    0.0000 N   0  0  0  0  0  0  0  0  0  0  0  0
    8.5891    5.5338    0.0000 N   0  0  0  0  0  0  0  0  0  0  0  0
    2.5369   -3.1544    0.0000 N   0  0  0  0  0  0  0  0  0  0  0  0
   13.3806    4.2191    0.0000 N   0  0  0  0  0  0  0  0  0  0  0  0
    6.0010   -2.1544    0.0000 C   0  0  0  0  0  0  0  0  0  0  0  0
    7.2579   -0.8991    0.0000 C   0  0  0  0  0  0  0  0  0  0  0  0
    6.0010   -3.1544    0.0000 C   0  0  0  0  0  0  0  0  0  0  0  0
    7.5309   -2.6544    0.0000 C   0  0  0  0  0  0  0  0  0  0  0  0
    5.1350   -1.6544    0.0000 C   0  0  0  0  0  0  0  0  0  0  0  0
   10.7825    1.7191    0.0000 C   0  0  0  0  0  0  0  0  0  0  0  0
    9.5256    0.4638    0.0000 C   0  0  0  0  0  0  0  0  0  0  0  0
    9.2526    2.2191    0.0000 C   0  0  0  0  0  0  0  0  0  0  0  0
   10.7825    2.7191    0.0000 C   0  0  0  0  0  0  0  0  0  0  0  0
    8.2364   -0.6929    0.0000 C   0  0  0  0  0  0  0  0  0  0  0  0
    5.1350   -3.6544    0.0000 C   0  0  0  0  0  0  0  0  0  0  0  0
    8.5471    0.2576    0.0000 C   0  0  0  0  0  0  0  0  0  0  0  0
    4.2690   -2.1544    0.0000 C   0  0  0  0  0  0  0  0  0  0  0  0
    4.2690   -3.1544    0.0000 C   0  0  0  0  0  0  0  0  0  0  0  0
   11.6485    1.2191    0.0000 C   0  0  0  0  0  0  0  0  0  0  0  0
    4.2690   -0.1544    0.0000 C   0  0  0  0  0  0  0  0  0  0  0  0
    4.2690    0.8456    0.0000 C   0  0  0  0  0  0  0  0  0  0  0  0
   11.6485    3.2191    0.0000 C   0  0  0  0  0  0  0  0  0  0  0  0
   12.5145    2.7191    0.0000 C   0  0  0  0  0  0  0  0  0  0  0  0
    3.4030    1.3456    0.0000 C   0  0  0  0  0  0  0  0  0  0  0  0
   12.5145    1.7191    0.0000 C   0  0  0  0  0  0  0  0  0  0  0  0
    9.0309   -3.5204    0.0000 C   0  0  0  0  0  0  0  0  0  0  0  0
   10.0309   -3.5204    0.0000 C   0  0  0  0  0  0  0  0  0  0  0  0
    3.4030   -3.6544    0.0000 C   0  0  0  0  0  0  0  0  0  0  0  0
    7.7526    3.0851    0.0000 C   0  0  0  0  0  0  0  0  0  0  0  0
    8.2526    3.9511    0.0000 C   0  0  0  0  0  0  0  0  0  0  0  0
   10.6187   -2.7114    0.0000 C   0  0  0  0  0  0  0  0  0  0  0  0
   13.3806    3.2191    0.0000 C   0  0  0  0  0  0  0  0  0  0  0  0
   10.3096   -5.2805    0.0000 C   0  0  0  0  0  0  0  0  0  0  0  0
   11.5697   -3.0204    0.0000 C   0  0  0  0  0  0  0  0  0  0  0  0
    9.2472    4.0556    0.0000 C   0  0  0  0  0  0  0  0  0  0  0  0
    6.8678    5.0726    0.0000 C   0  0  0  0  0  0  0  0  0  0  0  0
    2.5369    2.8456    0.0000 C   0  0  0  0  0  0  0  0  0  0  0  0
    4.2690    2.8456    0.0000 C   0  0  0  0  0  0  0  0  0  0  0  0
    9.4551    5.0338    0.0000 C   0  0  0  0  0  0  0  0  0  0  0  0
   12.5145   -0.2809    0.0000 C   0  0  0  0  0  0  0  0  0  0  0  0
   10.9788   -6.0236    0.0000 C   0  0  0  0  0  0  0  0  0  0  0  0
   12.3787   -2.4326    0.0000 C   0  0  0  0  0  0  0  0  0  0  0  0
    6.5588    6.0236    0.0000 C   0  0  0  0  0  0  0  0  0  0  0  0
   10.3686    5.4405    0.0000 C   0  0  0  0  0  0  0  0  0  0  0  0
    7.2374   -0.2795    0.0000 H   0  0  0  0  0  0  0  0  0  0  0  0
    6.6441   -0.8118    0.0000 H   0  0  0  0  0  0  0  0  0  0  0  0
    9.5462   -0.1558    0.0000 H   0  0  0  0  0  0  0  0  0  0  0  0
   10.1394    0.3765    0.0000 H   0  0  0  0  0  0  0  0  0  0  0  0
    8.6505   -1.1544    0.0000 H   0  0  0  0  0  0  0  0  0  0  0  0
    5.1350   -4.2744    0.0000 H   0  0  0  0  0  0  0  0  0  0  0  0
    8.1330    0.7191    0.0000 H   0  0  0  0  0  0  0  0  0  0  0  0
    3.7320   -1.8444    0.0000 H   0  0  0  0  0  0  0  0  0  0  0  0
    3.6584   -0.0467    0.0000 H   0  0  0  0  0  0  0  0  0  0  0  0
    4.0569   -0.7370    0.0000 H   0  0  0  0  0  0  0  0  0  0  0  0
    8.8409   -2.1175    0.0000 H   0  0  0  0  0  0  0  0  0  0  0  0
    4.8796    0.7379    0.0000 H   0  0  0  0  0  0  0  0  0  0  0  0
    4.4810    1.4282    0.0000 H   0  0  0  0  0  0  0  0  0  0  0  0
   11.6485    3.8391    0.0000 H   0  0  0  0  0  0  0  0  0  0  0  0
    2.7924    1.4533    0.0000 H   0  0  0  0  0  0  0  0  0  0  0  0
    3.1909    0.7630    0.0000 H   0  0  0  0  0  0  0  0  0  0  0  0
   13.0515    1.4091    0.0000 H   0  0  0  0  0  0  0  0  0  0  0  0
    7.9426    1.6821    0.0000 H   0  0  0  0  0  0  0  0  0  0  0  0
   10.4271   -2.1218    0.0000 H   0  0  0  0  0  0  0  0  0  0  0  0
    9.7622   -4.9894    0.0000 H   0  0  0  0  0  0  0  0  0  0  0  0
    9.9279   -5.7691    0.0000 H   0  0  0  0  0  0  0  0  0  0  0  0
    9.6620    3.5949    0.0000 H   0  0  0  0  0  0  0  0  0  0  0  0
    6.2538    4.9863    0.0000 H   0  0  0  0  0  0  0  0  0  0  0  0
    6.8461    4.4530    0.0000 H   0  0  0  0  0  0  0  0  0  0  0  0
    2.8469    3.3825    0.0000 H   0  0  0  0  0  0  0  0  0  0  0  0
    2.0000    3.1556    0.0000 H   0  0  0  0  0  0  0  0  0  0  0  0
    2.2269    2.3087    0.0000 H   0  0  0  0  0  0  0  0  0  0  0  0
    4.5790    2.3087    0.0000 H   0  0  0  0  0  0  0  0  0  0  0  0
    4.8059    3.1556    0.0000 H   0  0  0  0  0  0  0  0  0  0  0  0
    3.9590    3.3825    0.0000 H   0  0  0  0  0  0  0  0  0  0  0  0
   12.2045   -0.8179    0.0000 H   0  0  0  0  0  0  0  0  0  0  0  0
   13.0515   -0.5909    0.0000 H   0  0  0  0  0  0  0  0  0  0  0  0
   12.8245    0.2560    0.0000 H   0  0  0  0  0  0  0  0  0  0  0  0
    2.0000   -3.4644    0.0000 H   0  0  0  0  0  0  0  0  0  0  0  0
    2.5369   -2.5344    0.0000 H   0  0  0  0  0  0  0  0  0  0  0  0
   10.5180   -6.4385    0.0000 H   0  0  0  0  0  0  0  0  0  0  0  0
   11.3936   -6.4844    0.0000 H   0  0  0  0  0  0  0  0  0  0  0  0
   11.4395   -5.6088    0.0000 H   0  0  0  0  0  0  0  0  0  0  0  0
   12.7432   -2.9342    0.0000 H   0  0  0  0  0  0  0  0  0  0  0  0
   12.8803   -2.0682    0.0000 H   0  0  0  0  0  0  0  0  0  0  0  0
   12.0143   -1.9310    0.0000 H   0  0  0  0  0  0  0  0  0  0  0  0
    7.1484    6.2152    0.0000 H   0  0  0  0  0  0  0  0  0  0  0  0
    6.3672    6.6133    0.0000 H   0  0  0  0  0  0  0  0  0  0  0  0
    5.9691    5.8320    0.0000 H   0  0  0  0  0  0  0  0  0  0  0  0
   10.6208    4.8741    0.0000 H   0  0  0  0  0  0  0  0  0  0  0  0
   10.9350    5.6927    0.0000 H   0  0  0  0  0  0  0  0  0  0  0  0
   10.1164    6.0069    0.0000 H   0  0  0  0  0  0  0  0  0  0  0  0
   13.9175    4.5291    0.0000 H   0  0  0  0  0  0  0  0  0  0  0  0
   12.8436    4.5291    0.0000 H   0  0  0  0  0  0  0  0  0  0  0  0
  1 24  1  0  0  0  0
  1 35  1  0  0  0  0
  2 34  1  0  0  0  0
  2 55  1  0  0  0  0
  3 41  2  0  0  0  0
  4 43  2  0  0  0  0
  5 44  2  0  0  0  0
  6 47  2  0  0  0  0
  7 20  1  0  0  0  0
  7 21  1  0  0  0  0
  7 23  1  0  0  0  0
  8 25  1  0  0  0  0
  8 26  1  0  0  0  0
  8 27  1  0  0  0  0
  9 22  1  0  0  0  0
  9 23  2  0  0  0  0
 10 23  1  0  0  0  0
 10 41  1  0  0  0  0
 10 70  1  0  0  0  0
 11 27  2  0  0  0  0
 11 28  1  0  0  0  0
 12 27  1  0  0  0  0
 12 44  1  0  0  0  0
 12 77  1  0  0  0  0
 13 39  1  0  0  0  0
 13 52  1  0  0  0  0
 13 53  1  0  0  0  0
 14 16  1  0  0  0  0
 14 42  1  0  0  0  0
 14 48  1  0  0  0  0
 15 17  1  0  0  0  0
 15 45  1  0  0  0  0
 15 51  1  0  0  0  0
 16 49  2  0  0  0  0
 17 54  2  0  0  0  0
 18 43  1  0  0  0  0
 18 93  1  0  0  0  0
 18 94  1  0  0  0  0
 19 47  1  0  0  0  0
 19107  1  0  0  0  0
 19108  1  0  0  0  0
 20 22  2  0  0  0  0
 20 24  1  0  0  0  0
 21 29  1  0  0  0  0
 21 60  1  0  0  0  0
 21 61  1  0  0  0  0
 22 30  1  0  0  0  0
 24 32  2  0  0  0  0
 25 28  2  0  0  0  0
 25 34  1  0  0  0  0
 26 31  1  0  0  0  0
 26 62  1  0  0  0  0
 26 63  1  0  0  0  0
 28 37  1  0  0  0  0
 29 31  2  0  0  0  0
 29 64  1  0  0  0  0
 30 33  2  0  0  0  0
 30 65  1  0  0  0  0
 31 66  1  0  0  0  0
 32 33  1  0  0  0  0
 32 67  1  0  0  0  0
 33 43  1  0  0  0  0
 34 40  2  0  0  0  0
 35 36  1  0  0  0  0
 35 68  1  0  0  0  0
 35 69  1  0  0  0  0
 36 39  1  0  0  0  0
 36 71  1  0  0  0  0
 36 72  1  0  0  0  0
 37 38  2  0  0  0  0
 37 73  1  0  0  0  0
 38 40  1  0  0  0  0
 38 47  1  0  0  0  0
 39 74  1  0  0  0  0
 39 75  1  0  0  0  0
 40 76  1  0  0  0  0
 41 42  1  0  0  0  0
 42 46  2  0  0  0  0
 44 45  1  0  0  0  0
 45 50  2  0  0  0  0
 46 49  1  0  0  0  0
 46 78  1  0  0  0  0
 48 56  1  0  0  0  0
 48 79  1  0  0  0  0
 48 80  1  0  0  0  0
 49 57  1  0  0  0  0
 50 54  1  0  0  0  0
 50 81  1  0  0  0  0
 51 58  1  0  0  0  0
 51 82  1  0  0  0  0
 51 83  1  0  0  0  0
 52 84  1  0  0  0  0
 52 85  1  0  0  0  0
 52 86  1  0  0  0  0
 53 87  1  0  0  0  0
 53 88  1  0  0  0  0
 53 89  1  0  0  0  0
 54 59  1  0  0  0  0
 55 90  1  0  0  0  0
 55 91  1  0  0  0  0
 55 92  1  0  0  0  0
 56 95  1  0  0  0  0
 56 96  1  0  0  0  0
 56 97  1  0  0  0  0
 57 98  1  0  0  0  0
 57 99  1  0  0  0  0
 57100  1  0  0  0  0
 58101  1  0  0  0  0
 58102  1  0  0  0  0
 58103  1  0  0  0  0
 59104  1  0  0  0  0
 59105  1  0  0  0  0
 59106  1  0  0  0  0
M  END
> <PUBCHEM_COMPOUND_CID>
132000148

> <PUBCHEM_COMPOUND_CANONICALIZED>
1

> <PUBCHEM_CACTVS_COMPLEXITY>
1490

> <PUBCHEM_CACTVS_HBOND_ACCEPTOR>
11

> <PUBCHEM_CACTVS_HBOND_DONOR>
4

> <PUBCHEM_CACTVS_ROTATABLE_BOND>
18

> <PUBCHEM_CACTVS_SUBSKEYS>
AAADcfB/+AAAAAAAAAAAAAAAAAAAAWLFiwAwYAAAAAAAAFgB/gAAHgAYAAAADAzhngYz1rfMFACqAyVydASSjC0n8qAZ2CG/fNiObrLE/fuXvSjuyRvY6ae+2ROeCAABQgAAECAQAAKEAAAgQAAAAAAAAA==

> <PUBCHEM_IUPAC_OPENEYE_NAME>
1-[(E)-4-[5-carbamoyl-7-[3-(dimethylamino)propoxy]-2-[(2-ethyl-5-methyl-pyrazole-3-carbonyl)amino]benzimidazol-1-yl]but-2-enyl]-2-[(2-ethyl-5-methyl-pyrazole-3-carbonyl)amino]-7-methoxy-benzimidazole-5-carboxamide

> <PUBCHEM_IUPAC_CAS_NAME>
1-[(E)-4-[5-carbamoyl-7-[3-(dimethylamino)propoxy]-2-[[(2-ethyl-5-methyl-3-pyrazolyl)-oxomethyl]amino]-1-benzimidazolyl]but-2-enyl]-2-[[(2-ethyl-5-methyl-3-pyrazolyl)-oxomethyl]amino]-7-methoxy-5-benzimidazolecarboxamide

> <PUBCHEM_IUPAC_NAME_MARKUP>
1-[(<I>E</I>)-4-[5-carbamoyl-7-[3-(dimethylamino)propoxy]-2-[(2-ethyl-5-methylpyrazole-3-carbonyl)amino]benzimidazol-1-yl]but-2-enyl]-2-[(2-ethyl-5-methylpyrazole-3-carbonyl)amino]-7-methoxybenzimidazole-5-carboxamide

> <PUBCHEM_IUPAC_NAME>
1-[(E)-4-[5-carbamoyl-7-[3-(dimethylamino)propoxy]-2-[(2-ethyl-5-methylpyrazole-3-carbonyl)amino]benzimidazol-1-yl]but-2-enyl]-2-[(2-ethyl-5-methylpyrazole-3-carbonyl)amino]-7-methoxybenzimidazole-5-carboxamide

> <PUBCHEM_IUPAC_SYSTEMATIC_NAME>
1-[(E)-4-[5-aminocarbonyl-7-[3-(dimethylamino)propoxy]-2-[(2-ethyl-5-methyl-pyrazol-3-yl)carbonylamino]benzimidazol-1-yl]but-2-enyl]-2-[(2-ethyl-5-methyl-pyrazol-3-yl)carbonylamino]-7-methoxy-benzimidazole-5-carboxamide

> <PUBCHEM_IUPAC_TRADITIONAL_NAME>
1-[(E)-4-[5-carbamoyl-7-[3-(dimethylamino)propoxy]-2-[(2-ethyl-5-methyl-pyrazole-3-carbonyl)amino]benzimidazol-1-yl]but-2-enyl]-2-[(2-ethyl-5-methyl-pyrazole-3-carbonyl)amino]-7-methoxy-benzimidazole-5-carboxamide

> <PUBCHEM_IUPAC_INCHI>
InChI=1S/C40H49N13O6/c1-8-52-29(17-23(3)47-52)37(56)45-39-43-27-19-25(35(41)54)21-31(58-7)33(27)50(39)14-10-11-15-51-34-28(20-26(36(42)55)22-32(34)59-16-12-13-49(5)6)44-40(51)46-38(57)30-18-24(4)48-53(30)9-2/h10-11,17-22H,8-9,12-16H2,1-7H3,(H2,41,54)(H2,42,55)(H,43,45,56)(H,44,46,57)/b11-10+

> <PUBCHEM_IUPAC_INCHIKEY>
MXHZAYVEIKSPIA-ZHACJKMWSA-N

> <PUBCHEM_XLOGP3_AA>
2.3

> <PUBCHEM_EXACT_MASS>
807.39287633

> <PUBCHEM_MOLECULAR_FORMULA>
C40H49N13O6

> <PUBCHEM_MOLECULAR_WEIGHT>
807.9

> <PUBCHEM_OPENEYE_CAN_SMILES>
CCN1C(=CC(=N1)C)C(=O)NC2=NC3=C(N2CC=CCN4C5=C(C=C(C=C5OCCCN(C)C)C(=O)N)N=C4NC(=O)C6=CC(=NN6CC)C)C(=CC(=C3)C(=O)N)OC

> <PUBCHEM_OPENEYE_ISO_SMILES>
CCN1C(=CC(=N1)C)C(=O)NC2=NC3=C(N2C/C=C/CN4C5=C(C=C(C=C5OCCCN(C)C)C(=O)N)N=C4NC(=O)C6=CC(=NN6CC)C)C(=CC(=C3)C(=O)N)OC

> <PUBCHEM_CACTVS_TPSA>
237

> <PUBCHEM_MONOISOTOPIC_WEIGHT>
807.39287633

> <PUBCHEM_TOTAL_CHARGE>
0

> <PUBCHEM_HEAVY_ATOM_COUNT>
59

> <PUBCHEM_ATOM_DEF_STEREO_COUNT>
0

> <PUBCHEM_ATOM_UDEF_STEREO_COUNT>
0

> <PUBCHEM_BOND_DEF_STEREO_COUNT>
1

> <PUBCHEM_BOND_UDEF_STEREO_COUNT>
0

> <PUBCHEM_ISOTOPIC_ATOM_COUNT>
0

> <PUBCHEM_COMPONENT_COUNT>
1

> <PUBCHEM_CACTVS_TAUTO_COUNT>
-1

> <PUBCHEM_COORDINATE_TYPE>
1
5
255

> <PUBCHEM_BONDANNOTATIONS>
11  27  8
11  28  8
14  16  8
14  42  8
15  17  8
15  45  8
16  49  8
17  54  8
20  22  8
20  24  8
22  30  8
24  32  8
25  28  8
25  34  8
28  37  8
30  33  8
32  33  8
34  40  8
37  38  8
38  40  8
42  46  8
45  50  8
46  49  8
50  54  8
7  20  8
7  23  8
8  25  8
8  27  8
9  22  8
9  23  8

$$$$
