Z-FA-FMK 
  -OEChem-12182004263D

 51 52  0     1  0  0  0  0  0999 V2000
   -3.7606   -5.1662   -0.5452 F   0  0  0  0  0  0  0  0  0  0  0  0
   -1.6953   -1.1695    1.7587 O   0  0  0  0  0  0  0  0  0  0  0  0
    2.1300   -0.4215   -0.1055 O   0  0  0  0  0  0  0  0  0  0  0  0
   -3.4240   -2.7256   -1.5002 O   0  0  0  0  0  0  0  0  0  0  0  0
    0.3856   -0.6083   -1.5876 O   0  0  0  0  0  0  0  0  0  0  0  0
   -3.2747   -0.5591    0.1690 N   0  0  0  0  0  0  0  0  0  0  0  0
    0.1286    0.4200    0.4767 N   0  0  0  0  0  0  0  0  0  0  0  0
   -1.2658    0.7676    0.3663 C   0  0  2  0  0  0  0  0  0  0  0  0
   -1.6203    2.0095    1.1922 C   0  0  0  0  0  0  0  0  0  0  0  0
   -2.0697   -0.4354    0.8466 C   0  0  0  0  0  0  0  0  0  0  0  0
   -1.2255    3.2964    0.5097 C   0  0  0  0  0  0  0  0  0  0  0  0
   -4.2487   -1.5856    0.4629 C   0  0  1  0  0  0  0  0  0  0  0  0
   -5.6618   -1.1319    0.1443 C   0  0  0  0  0  0  0  0  0  0  0  0
   -2.1293    3.9237   -0.3336 C   0  0  0  0  0  0  0  0  0  0  0  0
    0.0337    3.8287    0.7384 C   0  0  0  0  0  0  0  0  0  0  0  0
   -3.8795   -2.8094   -0.3596 C   0  0  0  0  0  0  0  0  0  0  0  0
    0.8374   -0.2384   -0.5088 C   0  0  0  0  0  0  0  0  0  0  0  0
   -1.7646    5.1132   -0.9641 C   0  0  0  0  0  0  0  0  0  0  0  0
    0.3984    5.0185    0.1080 C   0  0  0  0  0  0  0  0  0  0  0  0
   -0.5007    5.6606   -0.7432 C   0  0  0  0  0  0  0  0  0  0  0  0
   -4.1445   -4.1505    0.2744 C   0  0  0  0  0  0  0  0  0  0  0  0
    2.9848   -1.0961   -1.0356 C   0  0  0  0  0  0  0  0  0  0  0  0
    4.3579   -1.2141   -0.4423 C   0  0  0  0  0  0  0  0  0  0  0  0
    5.2915   -0.2073   -0.6612 C   0  0  0  0  0  0  0  0  0  0  0  0
    4.6846   -2.3295    0.3208 C   0  0  0  0  0  0  0  0  0  0  0  0
    6.5683   -0.3172   -0.1100 C   0  0  0  0  0  0  0  0  0  0  0  0
    5.9612   -2.4395    0.8722 C   0  0  0  0  0  0  0  0  0  0  0  0
    6.9030   -1.4332    0.6567 C   0  0  0  0  0  0  0  0  0  0  0  0
   -1.4874    0.9346   -0.6956 H   0  0  0  0  0  0  0  0  0  0  0  0
   -2.7015    2.0386    1.3855 H   0  0  0  0  0  0  0  0  0  0  0  0
   -1.1574    1.9608    2.1874 H   0  0  0  0  0  0  0  0  0  0  0  0
   -4.1659   -1.8402    1.5254 H   0  0  0  0  0  0  0  0  0  0  0  0
   -3.4731    0.0714   -0.6027 H   0  0  0  0  0  0  0  0  0  0  0  0
    0.6124    0.6247    1.3461 H   0  0  0  0  0  0  0  0  0  0  0  0
   -5.7722   -0.8871   -0.9184 H   0  0  0  0  0  0  0  0  0  0  0  0
   -5.9227   -0.2375    0.7201 H   0  0  0  0  0  0  0  0  0  0  0  0
   -6.3888   -1.9160    0.3797 H   0  0  0  0  0  0  0  0  0  0  0  0
   -3.1148    3.5037   -0.5139 H   0  0  0  0  0  0  0  0  0  0  0  0
    0.7412    3.3369    1.3998 H   0  0  0  0  0  0  0  0  0  0  0  0
   -2.4643    5.6129   -1.6276 H   0  0  0  0  0  0  0  0  0  0  0  0
    1.3824    5.4447    0.2799 H   0  0  0  0  0  0  0  0  0  0  0  0
   -0.2167    6.5867   -1.2343 H   0  0  0  0  0  0  0  0  0  0  0  0
   -5.2132   -4.2619    0.4719 H   0  0  0  0  0  0  0  0  0  0  0  0
   -3.5754   -4.2367    1.2033 H   0  0  0  0  0  0  0  0  0  0  0  0
    2.5796   -2.0918   -1.2552 H   0  0  0  0  0  0  0  0  0  0  0  0
    3.0253   -0.5329   -1.9764 H   0  0  0  0  0  0  0  0  0  0  0  0
    5.0407    0.6673   -1.2550 H   0  0  0  0  0  0  0  0  0  0  0  0
    3.9582   -3.1181    0.4968 H   0  0  0  0  0  0  0  0  0  0  0  0
    7.3014    0.4665   -0.2771 H   0  0  0  0  0  0  0  0  0  0  0  0
    6.2218   -3.3082    1.4697 H   0  0  0  0  0  0  0  0  0  0  0  0
    7.8968   -1.5188    1.0862 H   0  0  0  0  0  0  0  0  0  0  0  0
  1 21  1  0  0  0  0
  2 10  2  0  0  0  0
  3 17  1  0  0  0  0
  3 22  1  0  0  0  0
  4 16  2  0  0  0  0
  5 17  2  0  0  0  0
  6 10  1  0  0  0  0
  6 12  1  0  0  0  0
  6 33  1  0  0  0  0
  7  8  1  0  0  0  0
  7 17  1  0  0  0  0
  7 34  1  0  0  0  0
  8  9  1  0  0  0  0
  8 10  1  0  0  0  0
  8 29  1  0  0  0  0
  9 11  1  0  0  0  0
  9 30  1  0  0  0  0
  9 31  1  0  0  0  0
 11 14  2  0  0  0  0
 11 15  1  0  0  0  0
 12 13  1  0  0  0  0
 12 16  1  0  0  0  0
 12 32  1  0  0  0  0
 13 35  1  0  0  0  0
 13 36  1  0  0  0  0
 13 37  1  0  0  0  0
 14 18  1  0  0  0  0
 14 38  1  0  0  0  0
 15 19  2  0  0  0  0
 15 39  1  0  0  0  0
 16 21  1  0  0  0  0
 18 20  2  0  0  0  0
 18 40  1  0  0  0  0
 19 20  1  0  0  0  0
 19 41  1  0  0  0  0
 20 42  1  0  0  0  0
 21 43  1  0  0  0  0
 21 44  1  0  0  0  0
 22 23  1  0  0  0  0
 22 45  1  0  0  0  0
 22 46  1  0  0  0  0
 23 24  2  0  0  0  0
 23 25  1  0  0  0  0
 24 26  1  0  0  0  0
 24 47  1  0  0  0  0
 25 27  2  0  0  0  0
 25 48  1  0  0  0  0
 26 28  2  0  0  0  0
 26 49  1  0  0  0  0
 27 28  1  0  0  0  0
 27 50  1  0  0  0  0
 28 51  1  0  0  0  0
M  END
> <PUBCHEM_COMPOUND_CID>
122019

> <PUBCHEM_CONFORMER_RMSD>
1

> <PUBCHEM_CONFORMER_DIVERSEORDER>
1
84
325
166
77
89
239
127
40
30
271
103
321
198
236
35
274
119
342
320
313
21
307
300
107
332
261
71
152
328
226
388
133
240
279
12
309
173
312
343
366
60
246
139
197
296
25
70
359
83
384
369
272
146
292
15
207
196
263
253
37
22
209
19
373
180
16
190
182
110
129
238
330
183
46
371
305
135
121
20
230
202
290
389
251
65
108
355
213
273
111
17
351
86
123
340
306
256
280
113
126
387
352
13
5
128
383
347
235
164
378
101
130
211
361
302
199
93
276
380
61
265
150
267
157
54
248
99
222
277
63
334
259
339
252
368
141
344
29
206
301
160
349
115
45
151
34
193
214
232
298
241
382
231
335
188
120
376
51
268
311
165
293
278
168
194
289
317
33
18
169
381
348
310
285
227
297
288
205
255
142
97
266
28
201
122
67
90
338
102
49
245
358
39
137
176
200
172
336
149
294
154
78
14
370
217
319
379
75
66
390
116
80
85
237
184
11
215
50
31
360
287
282
247
38
275
94
145
158
375
350
112
147
363
153
2
304
337
212
9
79
104
161
377
218
95
91
81
228
27
179
316
243
258
357
385
244
170
177
140
171
174
167
219
156
346
281
55
362
114
216
42
41
308
225
136
175
52
148
224
24
315
23
56
299
262
250
125
64
254
324
47
345
191
6
74
62
229
333
242
284
163
26
138
233
234
72
76
134
221
204
185
73
88
303
4
92
291
269
105
159
144
264
69
100
270
186
132
318
87
257
117
178
59
354
131
323
372
223
331
57
53
192
124
106
10
36
208
98
181
386
44
327
8
329
58
341
189
118
295
353
162
32
203
143
68
155
367
48
365
249
326
43
364
195
82
314
96
187
109
210
322
374
220
286
283
260
356
3
7

> <PUBCHEM_MMFF94_PARTIAL_CHARGES>
39
1 -0.34
10 0.57
11 -0.14
12 0.36
14 -0.15
15 -0.15
16 0.45
17 0.78
18 -0.15
19 -0.15
2 -0.57
20 -0.15
21 0.4
22 0.42
23 -0.14
24 -0.15
25 -0.15
26 -0.15
27 -0.15
28 -0.15
3 -0.43
33 0.37
34 0.37
38 0.15
39 0.15
4 -0.57
40 0.15
41 0.15
42 0.15
47 0.15
48 0.15
49 0.15
5 -0.57
50 0.15
51 0.15
6 -0.73
7 -0.73
8 0.36
9 0.14

> <PUBCHEM_EFFECTIVE_ROTOR_COUNT>
12

> <PUBCHEM_PHARMACOPHORE_FEATURES>
7
1 2 acceptor
1 4 acceptor
1 5 acceptor
1 6 donor
1 7 donor
6 11 14 15 18 19 20 rings
6 23 24 25 26 27 28 rings

> <PUBCHEM_HEAVY_ATOM_COUNT>
28

> <PUBCHEM_ATOM_DEF_STEREO_COUNT>
0

> <PUBCHEM_ATOM_UDEF_STEREO_COUNT>
2

> <PUBCHEM_BOND_DEF_STEREO_COUNT>
0

> <PUBCHEM_BOND_UDEF_STEREO_COUNT>
0

> <PUBCHEM_ISOTOPIC_ATOM_COUNT>
0

> <PUBCHEM_COMPONENT_COUNT>
1

> <PUBCHEM_CACTVS_TAUTO_COUNT>
12

> <PUBCHEM_CONFORMER_ID>
0001DCA300000001

> <PUBCHEM_MMFF94_ENERGY>
59.6051

> <PUBCHEM_FEATURE_SELFOVERLAP>
35.522

> <PUBCHEM_SHAPE_FINGERPRINT>
10319688 140 17618223253410613915
10319688 45 18411982455288711723
10319688 77 18338515343394834019
11045515 52 18409169939121201577
11056379 131 18268159664729367238
11488393 25 17688318206054203291
11763715 3 18264226831932631918
12788726 201 18188766141795366619
12988421 55 17623295970078906585
13968360 50 17187559984890678159
14068700 675 18260831518424622406
14394314 77 18410296921528816219
14508225 48 18411412930268225141
14844126 61 18335707074685788097
15463212 79 17692800502623102205
16087824 20 18265334994427323801
17492 89 17980761864041761907
17686467 74 18271523204559678080
18393751 57 17836099874462095641
19304144 158 16812642514474037349
20600515 1 17988102035900669753
21304303 282 17975682893019489445
2132832 1 18114192925551933932
22956985 138 17979350086003567459
23366157 5 17906176509660503303
23559900 14 18126277774001273723
23929065 36 18265316344908457712
255183 313 18053404118981822073
3504750 166 18265042545228617858
376196 1 16817434138190418505
4280585 95 18412541041935116475
4409770 3 18264203604924029309
5924683 9 18337393730076427522
5969126 39 18341604889221978068
6673363 416 18267038301263135556
6700243 42 17914086185973644804
9981440 41 17471019077078137200

> <PUBCHEM_SHAPE_MULTIPOLES>
535.51
13.54
8.18
1.15
26.05
8.78
-0.03
-16.04
0.95
-12.79
-1.52
-0.14
-0.09
-0.6

> <PUBCHEM_SHAPE_SELFOVERLAP>
1114.381

> <PUBCHEM_SHAPE_VOLUME>
303.1

> <PUBCHEM_COORDINATE_TYPE>
2
5
10

$$$$
