Bleomycin
  -OEChem-01222105342D

180185  0     1  0  0  0  0  0999 V2000
   17.1936    1.8198    0.0000 S   0  0  0  0  0  0  0  0  0  0  0  0
   16.6289    4.9105    0.0000 S   0  0  0  0  0  0  0  0  0  0  0  0
   13.1619   10.2817    0.0000 S   0  3  0  0  0  0  0  0  0  0  0  0
    6.0010   -5.7774    0.0000 O   0  0  0  0  0  0  0  0  0  0  0  0
    4.2690   -3.7774    0.0000 O   0  0  0  0  0  0  0  0  0  0  0  0
    5.1350   -7.2774    0.0000 O   0  0  0  0  0  0  0  0  0  0  0  0
    6.0010   -3.7774    0.0000 O   0  0  0  0  0  0  0  0  0  0  0  0
    4.2690   -6.7774    0.0000 O   0  0  0  0  0  0  0  0  0  0  0  0
    2.5369   -5.7774    0.0000 O   0  0  0  0  0  0  0  0  0  0  0  0
    7.7331   -8.7774    0.0000 O   0  0  0  0  0  0  0  0  0  0  0  0
    7.7331   -6.7774    0.0000 O   0  0  0  0  0  0  0  0  0  0  0  0
    6.0010   -9.7774    0.0000 O   0  0  0  0  0  0  0  0  0  0  0  0
    2.5369   -2.7774    0.0000 O   0  0  0  0  0  0  0  0  0  0  0  0
    3.4030   -8.2774    0.0000 O   0  0  0  0  0  0  0  0  0  0  0  0
    7.6286   -4.3698    0.0000 O   0  0  0  0  0  0  0  0  0  0  0  0
    6.8671  -10.2774    0.0000 O   0  0  0  0  0  0  0  0  0  0  0  0
   11.2258   -4.6149    0.0000 O   0  0  0  0  0  0  0  0  0  0  0  0
    6.3843   -0.1922    0.0000 O   0  0  0  0  0  0  0  0  0  0  0  0
   12.5527   -3.5015    0.0000 O   0  0  0  0  0  0  0  0  0  0  0  0
   14.8643   -2.2146    0.0000 O   0  0  0  0  0  0  0  0  0  0  0  0
   12.9359    0.0836    0.0000 O   0  0  0  0  0  0  0  0  0  0  0  0
    5.1400    3.9852    0.0000 O   0  0  0  0  0  0  0  0  0  0  0  0
    4.8392    5.6910    0.0000 O   0  0  0  0  0  0  0  0  0  0  0  0
   13.3932    5.7050    0.0000 O   0  0  0  0  0  0  0  0  0  0  0  0
    7.6699   -1.7244    0.0000 N   0  0  0  0  0  0  0  0  0  0  0  0
    4.7027   -2.1414    0.0000 N   0  0  0  0  0  0  0  0  0  0  0  0
    8.9555   -3.2564    0.0000 N   0  0  0  0  0  0  0  0  0  0  0  0
    5.0941   -0.5714    0.0000 N   0  0  0  0  0  0  0  0  0  0  0  0
    8.5991  -10.2774    0.0000 N   0  0  0  0  0  0  0  0  0  0  0  0
   12.2519   -1.7958    0.0000 N   0  0  0  0  0  0  0  0  0  0  0  0
    6.7263    0.7474    0.0000 N   0  0  0  0  0  0  0  0  0  0  0  0
    8.0532    1.8608    0.0000 N   0  0  0  0  0  0  0  0  0  0  0  0
    6.7676    3.3929    0.0000 N   0  0  0  0  0  0  0  0  0  0  0  0
    9.6808    1.2684    0.0000 N   0  0  0  0  0  0  0  0  0  0  0  0
   14.5635   -0.5088    0.0000 N   0  0  0  0  0  0  0  0  0  0  0  0
    3.8132    2.8719    0.0000 N   0  0  0  0  0  0  0  0  0  0  0  0
    7.4516    5.2722    0.0000 N   0  0  0  0  0  0  0  0  0  0  0  0
    6.1660    6.8043    0.0000 N   0  0  0  0  0  0  0  0  0  0  0  0
   15.6732    2.3732    0.0000 N   0  0  0  0  0  0  0  0  0  0  0  0
   15.0735    4.4646    0.0000 N   0  0  0  0  0  0  0  0  0  0  0  0
   14.4596    7.0699    0.0000 N   0  0  0  0  0  0  0  0  0  0  0  0
    5.1350   -5.2774    0.0000 C   0  0  3  0  0  0  0  0  0  0  0  0
    4.2690   -5.7774    0.0000 C   0  0  3  0  0  0  0  0  0  0  0  0
    3.4030   -5.2774    0.0000 C   0  0  3  0  0  0  0  0  0  0  0  0
    5.1350   -4.2774    0.0000 C   0  0  3  0  0  0  0  0  0  0  0  0
    6.0010   -6.7774    0.0000 C   0  0  3  0  0  0  0  0  0  0  0  0
    3.4030   -4.2774    0.0000 C   0  0  3  0  0  0  0  0  0  0  0  0
    6.8671   -7.2774    0.0000 C   0  0  3  0  0  0  0  0  0  0  0  0
    6.8671   -8.2774    0.0000 C   0  0  3  0  0  0  0  0  0  0  0  0
    6.0010   -8.7774    0.0000 C   0  0  3  0  0  0  0  0  0  0  0  0
    5.1350   -8.2774    0.0000 C   0  0  3  0  0  0  0  0  0  0  0  0
    2.5369   -3.7774    0.0000 C   0  0  0  0  0  0  0  0  0  0  0  0
    6.3431   -2.8377    0.0000 C   0  0  2  0  0  0  0  0  0  0  0  0
    4.2690   -8.7774    0.0000 C   0  0  0  0  0  0  0  0  0  0  0  0
    7.3279   -2.6640    0.0000 C   0  0  1  0  0  0  0  0  0  0  0  0
    5.7003   -2.0716    0.0000 C   0  0  0  0  0  0  0  0  0  0  0  0
    7.9706   -3.4301    0.0000 C   0  0  0  0  0  0  0  0  0  0  0  0
    7.7331   -9.7774    0.0000 C   0  0  0  0  0  0  0  0  0  0  0  0
    5.9422   -1.1014    0.0000 C   0  0  0  0  0  0  0  0  0  0  0  0
    9.5982   -4.0225    0.0000 C   0  0  1  0  0  0  0  0  0  0  0  0
   10.5831   -3.8488    0.0000 C   0  0  2  0  0  0  0  0  0  0  0  0
    7.0271   -0.9583    0.0000 C   0  0  0  0  0  0  0  0  0  0  0  0
    4.3281   -1.2142    0.0000 C   0  0  0  0  0  0  0  0  0  0  0  0
   10.9251   -2.9092    0.0000 C   0  0  2  0  0  0  0  0  0  0  0  0
    9.2562   -4.9622    0.0000 C   0  0  0  0  0  0  0  0  0  0  0  0
    7.3691   -0.0186    0.0000 C   0  0  0  0  0  0  0  0  0  0  0  0
   10.2823   -2.1431    0.0000 C   0  0  0  0  0  0  0  0  0  0  0  0
   11.9099   -2.7355    0.0000 C   0  0  0  0  0  0  0  0  0  0  0  0
    8.3539    0.1550    0.0000 C   0  0  0  0  0  0  0  0  0  0  0  0
   13.2367   -1.6222    0.0000 C   0  0  1  0  0  0  0  0  0  0  0  0
    7.0684    1.6871    0.0000 C   0  0  0  0  0  0  0  0  0  0  0  0
    8.6960    1.0947    0.0000 C   0  0  0  0  0  0  0  0  0  0  0  0
   13.8795   -2.3882    0.0000 C   0  0  1  0  0  0  0  0  0  0  0  0
    8.9967   -0.6110    0.0000 C   0  0  0  0  0  0  0  0  0  0  0  0
    6.4256    2.4532    0.0000 C   0  0  2  0  0  0  0  0  0  0  0  0
   13.5787   -0.6825    0.0000 C   0  0  0  0  0  0  0  0  0  0  0  0
    5.4408    2.2795    0.0000 C   0  0  0  0  0  0  0  0  0  0  0  0
   13.5375   -3.3279    0.0000 C   0  0  0  0  0  0  0  0  0  0  0  0
    6.1248    4.1589    0.0000 C   0  0  0  0  0  0  0  0  0  0  0  0
   14.9056    0.4309    0.0000 C   0  0  0  0  0  0  0  0  0  0  0  0
    4.7980    3.0456    0.0000 C   0  0  0  0  0  0  0  0  0  0  0  0
    6.4668    5.0986    0.0000 C   0  0  1  0  0  0  0  0  0  0  0  0
   15.8904    0.6045    0.0000 C   0  0  0  0  0  0  0  0  0  0  0  0
    5.8240    5.8646    0.0000 C   0  0  0  0  0  0  0  0  0  0  0  0
   16.2324    1.5442    0.0000 C   0  0  0  0  0  0  0  0  0  0  0  0
   16.2889    3.1613    0.0000 C   0  0  0  0  0  0  0  0  0  0  0  0
   17.2285    2.8192    0.0000 C   0  0  0  0  0  0  0  0  0  0  0  0
   16.0132    4.1225    0.0000 C   0  0  0  0  0  0  0  0  0  0  0  0
   15.1084    5.4639    0.0000 C   0  0  0  0  0  0  0  0  0  0  0  0
   16.0697    5.7396    0.0000 C   0  0  0  0  0  0  0  0  0  0  0  0
   14.3204    6.0796    0.0000 C   0  0  0  0  0  0  0  0  0  0  0  0
   13.6716    7.6855    0.0000 C   0  0  0  0  0  0  0  0  0  0  0  0
   13.8108    8.6758    0.0000 C   0  0  0  0  0  0  0  0  0  0  0  0
   13.0227    9.2915    0.0000 C   0  0  0  0  0  0  0  0  0  0  0  0
   12.3739   10.8974    0.0000 C   0  0  0  0  0  0  0  0  0  0  0  0
   14.0891   10.6563    0.0000 C   0  0  0  0  0  0  0  0  0  0  0  0
    5.1350   -5.8974    0.0000 H   0  0  0  0  0  0  0  0  0  0  0  0
    3.7320   -6.0874    0.0000 H   0  0  0  0  0  0  0  0  0  0  0  0
    3.4030   -5.8974    0.0000 H   0  0  0  0  0  0  0  0  0  0  0  0
    5.1350   -3.6574    0.0000 H   0  0  0  0  0  0  0  0  0  0  0  0
    6.5380   -6.4674    0.0000 H   0  0  0  0  0  0  0  0  0  0  0  0
    3.4030   -3.6574    0.0000 H   0  0  0  0  0  0  0  0  0  0  0  0
    7.4040   -7.5874    0.0000 H   0  0  0  0  0  0  0  0  0  0  0  0
    6.8671   -8.8974    0.0000 H   0  0  0  0  0  0  0  0  0  0  0  0
    6.5380   -9.0874    0.0000 H   0  0  0  0  0  0  0  0  0  0  0  0
    4.5981   -7.9674    0.0000 H   0  0  0  0  0  0  0  0  0  0  0  0
    1.9264   -3.6697    0.0000 H   0  0  0  0  0  0  0  0  0  0  0  0
    2.3249   -4.3600    0.0000 H   0  0  0  0  0  0  0  0  0  0  0  0
    5.7325   -2.9454    0.0000 H   0  0  0  0  0  0  0  0  0  0  0  0
    3.8705   -9.2523    0.0000 H   0  0  0  0  0  0  0  0  0  0  0  0
    4.6675   -9.2523    0.0000 H   0  0  0  0  0  0  0  0  0  0  0  0
    3.7320   -7.0874    0.0000 H   0  0  0  0  0  0  0  0  0  0  0  0
    2.0000   -5.4674    0.0000 H   0  0  0  0  0  0  0  0  0  0  0  0
    6.9293   -2.1891    0.0000 H   0  0  0  0  0  0  0  0  0  0  0  0
    7.7331   -6.1574    0.0000 H   0  0  0  0  0  0  0  0  0  0  0  0
    5.4641  -10.0874    0.0000 H   0  0  0  0  0  0  0  0  0  0  0  0
    2.0000   -2.4674    0.0000 H   0  0  0  0  0  0  0  0  0  0  0  0
    8.2805   -1.6167    0.0000 H   0  0  0  0  0  0  0  0  0  0  0  0
    2.8660   -8.5874    0.0000 H   0  0  0  0  0  0  0  0  0  0  0  0
    4.3742   -2.6672    0.0000 H   0  0  0  0  0  0  0  0  0  0  0  0
    6.5170   -0.8691    0.0000 H   0  0  0  0  0  0  0  0  0  0  0  0
    9.8103   -3.4399    0.0000 H   0  0  0  0  0  0  0  0  0  0  0  0
    9.1675   -2.6738    0.0000 H   0  0  0  0  0  0  0  0  0  0  0  0
   11.1936   -3.7412    0.0000 H   0  0  0  0  0  0  0  0  0  0  0  0
    3.7265   -1.0642    0.0000 H   0  0  0  0  0  0  0  0  0  0  0  0
   11.1371   -2.3265    0.0000 H   0  0  0  0  0  0  0  0  0  0  0  0
    8.6736   -4.7501    0.0000 H   0  0  0  0  0  0  0  0  0  0  0  0
    9.0442   -5.5448    0.0000 H   0  0  0  0  0  0  0  0  0  0  0  0
    9.8388   -5.1742    0.0000 H   0  0  0  0  0  0  0  0  0  0  0  0
    8.5991  -10.8974    0.0000 H   0  0  0  0  0  0  0  0  0  0  0  0
    9.1360   -9.9674    0.0000 H   0  0  0  0  0  0  0  0  0  0  0  0
   10.7572   -1.7446    0.0000 H   0  0  0  0  0  0  0  0  0  0  0  0
    9.8838   -1.6682    0.0000 H   0  0  0  0  0  0  0  0  0  0  0  0
    9.8073   -2.5416    0.0000 H   0  0  0  0  0  0  0  0  0  0  0  0
   11.8364   -4.5072    0.0000 H   0  0  0  0  0  0  0  0  0  0  0  0
   11.8534   -1.3209    0.0000 H   0  0  0  0  0  0  0  0  0  0  0  0
   13.0247   -2.2048    0.0000 H   0  0  0  0  0  0  0  0  0  0  0  0
   14.2780   -2.8632    0.0000 H   0  0  0  0  0  0  0  0  0  0  0  0
    8.5218   -1.0095    0.0000 H   0  0  0  0  0  0  0  0  0  0  0  0
    9.3952   -1.0860    0.0000 H   0  0  0  0  0  0  0  0  0  0  0  0
    9.4717   -0.2125    0.0000 H   0  0  0  0  0  0  0  0  0  0  0  0
    7.0361    2.5608    0.0000 H   0  0  0  0  0  0  0  0  0  0  0  0
    4.9038    1.9695    0.0000 H   0  0  0  0  0  0  0  0  0  0  0  0
    5.6528    1.6969    0.0000 H   0  0  0  0  0  0  0  0  0  0  0  0
   12.9549   -3.1158    0.0000 H   0  0  0  0  0  0  0  0  0  0  0  0
   13.3254   -3.9105    0.0000 H   0  0  0  0  0  0  0  0  0  0  0  0
   14.1201   -3.5400    0.0000 H   0  0  0  0  0  0  0  0  0  0  0  0
    7.3782    3.5005    0.0000 H   0  0  0  0  0  0  0  0  0  0  0  0
    9.8928    1.8510    0.0000 H   0  0  0  0  0  0  0  0  0  0  0  0
   10.0793    0.7934    0.0000 H   0  0  0  0  0  0  0  0  0  0  0  0
   14.9621   -0.9838    0.0000 H   0  0  0  0  0  0  0  0  0  0  0  0
    5.5879    4.4689    0.0000 H   0  0  0  0  0  0  0  0  0  0  0  0
    5.7263    3.6840    0.0000 H   0  0  0  0  0  0  0  0  0  0  0  0
   15.2628   -2.6895    0.0000 H   0  0  0  0  0  0  0  0  0  0  0  0
   14.9056    1.0509    0.0000 H   0  0  0  0  0  0  0  0  0  0  0  0
   14.2950    0.5385    0.0000 H   0  0  0  0  0  0  0  0  0  0  0  0
    6.6789    5.6812    0.0000 H   0  0  0  0  0  0  0  0  0  0  0  0
   15.8904   -0.0155    0.0000 H   0  0  0  0  0  0  0  0  0  0  0  0
   16.5009    0.4969    0.0000 H   0  0  0  0  0  0  0  0  0  0  0  0
    3.4146    3.3469    0.0000 H   0  0  0  0  0  0  0  0  0  0  0  0
    3.6011    2.2893    0.0000 H   0  0  0  0  0  0  0  0  0  0  0  0
    7.6637    5.8548    0.0000 H   0  0  0  0  0  0  0  0  0  0  0  0
    7.8502    4.7973    0.0000 H   0  0  0  0  0  0  0  0  0  0  0  0
    5.7675    7.2793    0.0000 H   0  0  0  0  0  0  0  0  0  0  0  0
    6.7766    6.9120    0.0000 H   0  0  0  0  0  0  0  0  0  0  0  0
   17.7426    3.1659    0.0000 H   0  0  0  0  0  0  0  0  0  0  0  0
   16.2817    6.3222    0.0000 H   0  0  0  0  0  0  0  0  0  0  0  0
   13.0819    7.8771    0.0000 H   0  0  0  0  0  0  0  0  0  0  0  0
   13.3805    7.1381    0.0000 H   0  0  0  0  0  0  0  0  0  0  0  0
   14.4004    8.4842    0.0000 H   0  0  0  0  0  0  0  0  0  0  0  0
   14.1018    9.2232    0.0000 H   0  0  0  0  0  0  0  0  0  0  0  0
   15.0344    7.3021    0.0000 H   0  0  0  0  0  0  0  0  0  0  0  0
   12.4331    9.4830    0.0000 H   0  0  0  0  0  0  0  0  0  0  0  0
   12.7317    8.7440    0.0000 H   0  0  0  0  0  0  0  0  0  0  0  0
   12.7556   11.3860    0.0000 H   0  0  0  0  0  0  0  0  0  0  0  0
   11.8853   11.2791    0.0000 H   0  0  0  0  0  0  0  0  0  0  0  0
   11.9922   10.4088    0.0000 H   0  0  0  0  0  0  0  0  0  0  0  0
   14.3214   10.0815    0.0000 H   0  0  0  0  0  0  0  0  0  0  0  0
   14.6640   10.8886    0.0000 H   0  0  0  0  0  0  0  0  0  0  0  0
   13.8568   11.2312    0.0000 H   0  0  0  0  0  0  0  0  0  0  0  0
  1 85  1  0  0  0  0
  1 87  1  0  0  0  0
  2 88  1  0  0  0  0
  2 90  1  0  0  0  0
  3 94  1  0  0  0  0
  3 95  1  0  0  0  0
  3 96  1  0  0  0  0
  4 42  1  0  0  0  0
  4 46  1  0  0  0  0
  5 45  1  0  0  0  0
  5 47  1  0  0  0  0
  6 46  1  0  0  0  0
  6 51  1  0  0  0  0
  7 45  1  0  0  0  0
 53  7  1  1  0  0  0
  8 43  1  0  0  0  0
  8112  1  0  0  0  0
  9 44  1  0  0  0  0
  9113  1  0  0  0  0
 10 49  1  0  0  0  0
 10 58  1  0  0  0  0
 11 48  1  0  0  0  0
 11115  1  0  0  0  0
 12 50  1  0  0  0  0
 12116  1  0  0  0  0
 13 52  1  0  0  0  0
 13117  1  0  0  0  0
 14 54  1  0  0  0  0
 14119  1  0  0  0  0
 15 57  2  0  0  0  0
 16 58  2  0  0  0  0
 61 17  1  6  0  0  0
 17135  1  0  0  0  0
 18 62  2  0  0  0  0
 19 68  2  0  0  0  0
 73 20  1  6  0  0  0
 20154  1  0  0  0  0
 21 76  2  0  0  0  0
 22 81  2  0  0  0  0
 23 84  2  0  0  0  0
 24 91  2  0  0  0  0
 55 25  1  6  0  0  0
 25 62  1  0  0  0  0
 25118  1  0  0  0  0
 26 56  1  0  0  0  0
 26 63  1  0  0  0  0
 26120  1  0  0  0  0
 27 57  1  0  0  0  0
 60 27  1  1  0  0  0
 27123  1  0  0  0  0
 28 59  1  0  0  0  0
 28 63  2  0  0  0  0
 29 58  1  0  0  0  0
 29130  1  0  0  0  0
 29131  1  0  0  0  0
 30 68  1  0  0  0  0
 70 30  1  6  0  0  0
 30136  1  0  0  0  0
 31 66  1  0  0  0  0
 31 71  2  0  0  0  0
 32 71  1  0  0  0  0
 32 72  2  0  0  0  0
 75 33  1  6  0  0  0
 33 79  1  0  0  0  0
 33148  1  0  0  0  0
 34 72  1  0  0  0  0
 34149  1  0  0  0  0
 34150  1  0  0  0  0
 35 76  1  0  0  0  0
 35 80  1  0  0  0  0
 35151  1  0  0  0  0
 36 81  1  0  0  0  0
 36160  1  0  0  0  0
 36161  1  0  0  0  0
 82 37  1  1  0  0  0
 37162  1  0  0  0  0
 37163  1  0  0  0  0
 38 84  1  0  0  0  0
 38164  1  0  0  0  0
 38165  1  0  0  0  0
 39 85  2  0  0  0  0
 39 86  1  0  0  0  0
 40 88  2  0  0  0  0
 40 89  1  0  0  0  0
 41 91  1  0  0  0  0
 41 92  1  0  0  0  0
 41172  1  0  0  0  0
 42 43  1  0  0  0  0
 42 45  1  0  0  0  0
 42 97  1  0  0  0  0
 43 44  1  0  0  0  0
 43 98  1  0  0  0  0
 44 47  1  0  0  0  0
 44 99  1  0  0  0  0
 45100  1  0  0  0  0
 46 48  1  0  0  0  0
 46101  1  0  0  0  0
 47 52  1  0  0  0  0
 47102  1  0  0  0  0
 48 49  1  0  0  0  0
 48103  1  0  0  0  0
 49 50  1  0  0  0  0
 49104  1  0  0  0  0
 50 51  1  0  0  0  0
 50105  1  0  0  0  0
 51 54  1  0  0  0  0
 51106  1  0  0  0  0
 52107  1  0  0  0  0
 52108  1  0  0  0  0
 53 55  1  0  0  0  0
 53 56  1  0  0  0  0
 53109  1  0  0  0  0
 54110  1  0  0  0  0
 54111  1  0  0  0  0
 55 57  1  0  0  0  0
 55114  1  0  0  0  0
 56 59  2  0  0  0  0
 59121  1  0  0  0  0
 60 61  1  0  0  0  0
 60 65  1  0  0  0  0
 60122  1  0  0  0  0
 61 64  1  0  0  0  0
 61124  1  0  0  0  0
 62 66  1  0  0  0  0
 63125  1  0  0  0  0
 64 67  1  6  0  0  0
 64 68  1  0  0  0  0
 64126  1  0  0  0  0
 65127  1  0  0  0  0
 65128  1  0  0  0  0
 65129  1  0  0  0  0
 66 69  2  0  0  0  0
 67132  1  0  0  0  0
 67133  1  0  0  0  0
 67134  1  0  0  0  0
 69 72  1  0  0  0  0
 69 74  1  0  0  0  0
 70 73  1  0  0  0  0
 70 76  1  0  0  0  0
 70137  1  0  0  0  0
 71 75  1  0  0  0  0
 73 78  1  0  0  0  0
 73138  1  0  0  0  0
 74139  1  0  0  0  0
 74140  1  0  0  0  0
 74141  1  0  0  0  0
 75 77  1  0  0  0  0
 75142  1  0  0  0  0
 77 81  1  0  0  0  0
 77143  1  0  0  0  0
 77144  1  0  0  0  0
 78145  1  0  0  0  0
 78146  1  0  0  0  0
 78147  1  0  0  0  0
 79 82  1  0  0  0  0
 79152  1  0  0  0  0
 79153  1  0  0  0  0
 80 83  1  0  0  0  0
 80155  1  0  0  0  0
 80156  1  0  0  0  0
 82 84  1  0  0  0  0
 82157  1  0  0  0  0
 83 85  1  0  0  0  0
 83158  1  0  0  0  0
 83159  1  0  0  0  0
 86 87  2  0  0  0  0
 86 88  1  0  0  0  0
 87166  1  0  0  0  0
 89 90  2  0  0  0  0
 89 91  1  0  0  0  0
 90167  1  0  0  0  0
 92 93  1  0  0  0  0
 92168  1  0  0  0  0
 92169  1  0  0  0  0
 93 94  1  0  0  0  0
 93170  1  0  0  0  0
 93171  1  0  0  0  0
 94173  1  0  0  0  0
 94174  1  0  0  0  0
 95175  1  0  0  0  0
 95176  1  0  0  0  0
 95177  1  0  0  0  0
 96178  1  0  0  0  0
 96179  1  0  0  0  0
 96180  1  0  0  0  0
M  CHG  1   3   1
M  END
> <PUBCHEM_COMPOUND_CID>
5360373

> <PUBCHEM_COMPOUND_CANONICALIZED>
1

> <PUBCHEM_CACTVS_COMPLEXITY>
2580

> <PUBCHEM_CACTVS_HBOND_ACCEPTOR>
31

> <PUBCHEM_CACTVS_HBOND_DONOR>
20

> <PUBCHEM_CACTVS_ROTATABLE_BOND>
36

> <PUBCHEM_CACTVS_SUBSKEYS>
AAADcfB//gBgAAAAAAAAAAAAAAAAAWLFgAAsSJAAAAAAAAAB/gAAHgQQCAAADTz13wevuZbJlgisAxd3fASA8K33GrgBWbW4fFmTfJ5g/em/RQhPtgL3YaHcYQwMAAAAAAAAAAAAAAAAAAAAAAAAAAAAAA==

> <PUBCHEM_IUPAC_OPENEYE_NAME>
3-[[2-[2-[2-[[(2S,3R)-2-[[(2S,3S,4R)-4-[[(2S,3R)-2-[[6-amino-2-[(1S)-3-amino-1-[[(2S)-2,3-diamino-3-oxo-propyl]amino]-3-oxo-propyl]-5-methyl-pyrimidine-4-carbonyl]amino]-3-[3-[4-carbamoyloxy-3,5-dihydroxy-6-(hydroxymethyl)tetrahydropyran-2-yl]oxy-4,5-dihydroxy-6-(hydroxymethyl)tetrahydropyran-2-yl]oxy-3-(1H-imidazol-5-yl)propanoyl]amino]-3-hydroxy-2-methyl-pentanoyl]amino]-3-hydroxy-butanoyl]amino]ethyl]thiazol-4-yl]thiazole-4-carbonyl]amino]propyl-dimethyl-sulfonium

> <PUBCHEM_IUPAC_CAS_NAME>
3-[[[2-[2-[2-[[(2S,3R)-2-[[(2S,3S,4R)-4-[[(2S,3R)-2-[[[6-amino-2-[(1S)-3-amino-1-[[(2S)-2,3-diamino-3-oxopropyl]amino]-3-oxopropyl]-5-methyl-4-pyrimidinyl]-oxomethyl]amino]-3-[[3-[[4-carbamoyloxy-3,5-dihydroxy-6-(hydroxymethyl)-2-oxanyl]oxy]-4,5-dihydroxy-6-(hydroxymethyl)-2-oxanyl]oxy]-3-(1H-imidazol-5-yl)-1-oxopropyl]amino]-3-hydroxy-2-methyl-1-oxopentyl]amino]-3-hydroxy-1-oxobutyl]amino]ethyl]-4-thiazolyl]-4-thiazolyl]-oxomethyl]amino]propyl-dimethylsulfonium

> <PUBCHEM_IUPAC_NAME_MARKUP>
3-[[2-[2-[2-[[(2<I>S</I>,3<I>R</I>)-2-[[(2<I>S</I>,3<I>S</I>,4<I>R</I>)-4-[[(2<I>S</I>,3<I>R</I>)-2-[[6-amino-2-[(1<I>S</I>)-3-amino-1-[[(2<I>S</I>)-2,3-diamino-3-oxopropyl]amino]-3-oxopropyl]-5-methylpyrimidine-4-carbonyl]amino]-3-[3-[4-carbamoyloxy-3,5-dihydroxy-6-(hydroxymethyl)oxan-2-yl]oxy-4,5-dihydroxy-6-(hydroxymethyl)oxan-2-yl]oxy-3-(1<I>H</I>-imidazol-5-yl)propanoyl]amino]-3-hydroxy-2-methylpentanoyl]amino]-3-hydroxybutanoyl]amino]ethyl]-1,3-thiazol-4-yl]-1,3-thiazole-4-carbonyl]amino]propyl-dimethylsulfanium

> <PUBCHEM_IUPAC_NAME>
3-[[2-[2-[2-[[(2S,3R)-2-[[(2S,3S,4R)-4-[[(2S,3R)-2-[[6-amino-2-[(1S)-3-amino-1-[[(2S)-2,3-diamino-3-oxopropyl]amino]-3-oxopropyl]-5-methylpyrimidine-4-carbonyl]amino]-3-[3-[4-carbamoyloxy-3,5-dihydroxy-6-(hydroxymethyl)oxan-2-yl]oxy-4,5-dihydroxy-6-(hydroxymethyl)oxan-2-yl]oxy-3-(1H-imidazol-5-yl)propanoyl]amino]-3-hydroxy-2-methylpentanoyl]amino]-3-hydroxybutanoyl]amino]ethyl]-1,3-thiazol-4-yl]-1,3-thiazole-4-carbonyl]amino]propyl-dimethylsulfanium

> <PUBCHEM_IUPAC_SYSTEMATIC_NAME>
3-[[2-[2-[2-[[(2S,3R)-2-[[(2S,3S,4R)-4-[[(2S,3R)-3-[3-[4-aminocarbonyloxy-6-(hydroxymethyl)-3,5-bis(oxidanyl)oxan-2-yl]oxy-6-(hydroxymethyl)-4,5-bis(oxidanyl)oxan-2-yl]oxy-2-[[6-azanyl-2-[(1S)-3-azanyl-1-[[(2S)-2,3-bis(azanyl)-3-oxidanylidene-propyl]amino]-3-oxidanylidene-propyl]-5-methyl-pyrimidin-4-yl]carbonylamino]-3-(1H-imidazol-5-yl)propanoyl]amino]-2-methyl-3-oxidanyl-pentanoyl]amino]-3-oxidanyl-butanoyl]amino]ethyl]-1,3-thiazol-4-yl]-1,3-thiazol-4-yl]carbonylamino]propyl-dimethyl-sulfanium

> <PUBCHEM_IUPAC_TRADITIONAL_NAME>
3-[[2-[2-[2-[[(2S,3R)-2-[[(2S,3S,4R)-4-[[(2S,3R)-2-[[6-amino-2-[(1S)-3-amino-1-[[(2S)-2,3-diamino-3-keto-propyl]amino]-3-keto-propyl]-5-methyl-pyrimidine-4-carbonyl]amino]-3-[3-(4-carbamoyloxy-3,5-dihydroxy-6-methylol-tetrahydropyran-2-yl)oxy-4,5-dihydroxy-6-methylol-tetrahydropyran-2-yl]oxy-3-(1H-imidazol-5-yl)propanoyl]amino]-3-hydroxy-2-methyl-pentanoyl]amino]-3-hydroxy-butanoyl]amino]ethyl]thiazol-4-yl]thiazole-4-carbonyl]amino]propyl-dimethyl-sulfonium

> <PUBCHEM_IUPAC_INCHI>
InChI=1S/C55H83N17O21S3/c1-20-33(69-46(72-44(20)58)25(12-31(57)76)64-13-24(56)45(59)82)50(86)71-35(41(26-14-61-19-65-26)91-54-43(39(80)37(78)29(15-73)90-54)92-53-40(81)42(93-55(60)88)38(79)30(16-74)89-53)51(87)66-22(3)36(77)21(2)47(83)70-34(23(4)75)49(85)63-10-8-32-67-28(18-94-32)52-68-27(17-95-52)48(84)62-9-7-11-96(5)6/h14,17-19,21-25,29-30,34-43,53-54,64,73-75,77-81H,7-13,15-16,56H2,1-6H3,(H13-,57,58,59,60,61,62,63,65,66,69,70,71,72,76,82,83,84,85,86,87,88)/p+1/t21-,22+,23+,24-,25-,29?,30?,34-,35-,36-,37?,38?,39?,40?,41-,42?,43?,53?,54?/m0/s1

> <PUBCHEM_IUPAC_INCHIKEY>
OYVAGSVQBOHSSS-WXFSZRTFSA-O

> <PUBCHEM_XLOGP3_AA>
-7.5

> <PUBCHEM_EXACT_MASS>
1414.518981

> <PUBCHEM_MOLECULAR_FORMULA>
C55H84N17O21S3+

> <PUBCHEM_MOLECULAR_WEIGHT>
1415.6

> <PUBCHEM_OPENEYE_CAN_SMILES>
CC1=C(N=C(N=C1N)C(CC(=O)N)NCC(C(=O)N)N)C(=O)NC(C(C2=CN=CN2)OC3C(C(C(C(O3)CO)O)O)OC4C(C(C(C(O4)CO)O)OC(=O)N)O)C(=O)NC(C)C(C(C)C(=O)NC(C(C)O)C(=O)NCCC5=NC(=CS5)C6=NC(=CS6)C(=O)NCCC[S+](C)C)O

> <PUBCHEM_OPENEYE_ISO_SMILES>
CC1=C(N=C(N=C1N)[C@H](CC(=O)N)NC[C@@H](C(=O)N)N)C(=O)N[C@@H]([C@H](C2=CN=CN2)OC3C(C(C(C(O3)CO)O)O)OC4C(C(C(C(O4)CO)O)OC(=O)N)O)C(=O)N[C@H](C)[C@H]([C@H](C)C(=O)N[C@@H]([C@@H](C)O)C(=O)NCCC5=NC(=CS5)C6=NC(=CS6)C(=O)NCCC[S+](C)C)O

> <PUBCHEM_CACTVS_TPSA>
685

> <PUBCHEM_MONOISOTOPIC_WEIGHT>
1414.518981

> <PUBCHEM_TOTAL_CHARGE>
1

> <PUBCHEM_HEAVY_ATOM_COUNT>
96

> <PUBCHEM_ATOM_DEF_STEREO_COUNT>
9

> <PUBCHEM_ATOM_UDEF_STEREO_COUNT>
10

> <PUBCHEM_BOND_DEF_STEREO_COUNT>
0

> <PUBCHEM_BOND_UDEF_STEREO_COUNT>
0

> <PUBCHEM_ISOTOPIC_ATOM_COUNT>
0

> <PUBCHEM_COMPONENT_COUNT>
1

> <PUBCHEM_CACTVS_TAUTO_COUNT>
-1

> <PUBCHEM_COORDINATE_TYPE>
1
5
255

> <PUBCHEM_BONDANNOTATIONS>
1  85  8
1  87  8
49  10  3
48  11  3
50  12  3
61  17  6
2  88  8
2  90  8
73  20  6
55  25  6
26  56  8
26  63  8
60  27  5
28  59  8
28  63  8
70  30  6
31  66  8
31  71  8
32  71  8
32  72  8
75  33  6
82  37  5
39  85  8
39  86  8
42  4  3
46  4  3
40  88  8
40  89  8
47  52  3
51  54  3
56  59  8
64  67  6
66  69  8
69  72  8
45  7  3
53  7  5
43  8  3
86  87  8
89  90  8
44  9  3

$$$$
