@<TRIPOS>MOLECULE
J11_44
57 60 1 0 0 
SMALL
USER_CHARGES


@<TRIPOS>ATOM
  1 C        1.3176     0.7486    -0.2002 C.3   1 <1>   0.0000 
  2 H        1.4272     0.4949    -1.2653 H     1 <1>   0.0000 
  3 C       -0.0425     1.4145     0.0014 C.3   1 <1>   0.3001 
  4 H1      -0.0952     2.3437    -0.5683 H     1 <1>   0.0000 
  5 H2      -0.1995     1.6769     1.0549 H     1 <1>   0.0000 
  6 N       -1.1030     0.4741    -0.3765 N.am  1 <1>  -0.6602 
  7 C       -1.1020    -0.7916     0.3588 C.3   1 <1>   0.3001 
  8 H1      -1.8992    -1.4566     0.0129 H     1 <1>   0.0000 
  9 H2      -1.3035    -0.5594     1.4113 H     1 <1>   0.0000 
 10 C        0.2467    -1.4927     0.2149 C.3   1 <1>   0.0000 
 11 H1       0.3901    -1.8256    -0.8214 H     1 <1>   0.0000 
 12 H2       0.2742    -2.3988     0.8313 H     1 <1>   0.0000 
 13 C        1.3856    -0.5528     0.6126 C.3   1 <1>   0.2800 
 14 H        1.2955    -0.3379     1.6868 H     1 <1>   0.0000 
 15 O        2.6374    -1.2061     0.3865 O.3   1 <1>  -0.5600 
 16 C        3.7406    -0.4055     0.8365 C.3   1 <1>   0.4235 
 17 H        3.5913    -0.1912     1.9032 H     1 <1>   0.0000 
 18 C        3.8082     0.8892     0.0148 C.3   1 <1>   0.0000 
 19 H        3.8760     0.5957    -1.0458 H     1 <1>   0.0000 
 20 C        2.4892     1.6647     0.1704 C.3   1 <1>   0.0000 
 21 H1       2.4776     2.5453    -0.4807 H     1 <1>   0.0000 
 22 H2       2.3696     2.0192     1.2008 H     1 <1>   0.0000 
 23 C        5.0373    -1.1559     0.7087 C.ar  1 <1>  -0.1435 
 24 C        6.2095    -0.4750     0.3692 C.ar  1 <1>   0.0825 
 25 O        6.2692     0.8650     0.0985 O.3   1 <1>  -0.3625 
 26 C        5.0972     1.6682     0.3615 C.3   1 <1>   0.2800 
 27 C        5.2485     2.8910    -0.5605 C.3   1 <1>   0.0000 
 28 H1       5.2020     2.5922    -1.6141 H     1 <1>   0.0000 
 29 H2       6.2276     3.3652    -0.4209 H     1 <1>   0.0000 
 30 H3       4.4789     3.6470    -0.3779 H     1 <1>   0.0000 
 31 C        5.1767     2.1569     1.8175 C.3   1 <1>   0.0000 
 32 H1       6.1217     2.6855     1.9926 H     1 <1>   0.0000 
 33 H2       5.1674     1.3273     2.5311 H     1 <1>   0.0000 
 34 H3       4.3582     2.8385     2.0670 H     1 <1>   0.0000 
 35 C        5.1080    -2.5294     0.9824 C.ar  1 <1>  -0.1500 
 36 H        4.2109    -3.0749     1.2682 H     1 <1>   0.1500 
 37 C        6.3211    -3.2148     0.8859 C.ar  1 <1>  -0.1500 
 38 H        6.3466    -4.2801     1.1024 H     1 <1>   0.1500 
 39 C        7.4871    -2.5398     0.5122 C.ar  1 <1>  -0.1435 
 40 C        8.7968    -3.2655     0.4368 C.3   1 <1>   0.1435 
 41 H1       8.6487    -4.3098     0.1422 H     1 <1>   0.0000 
 42 H2       9.2956    -3.2400     1.4105 H     1 <1>   0.0000 
 43 H3       9.4547    -2.8086    -0.3100 H     1 <1>   0.0000 
 44 C        7.4227    -1.1631     0.2669 C.ar  1 <1>  -0.1500 
 45 H        8.3213    -0.6137    -0.0042 H     1 <1>   0.1500 
 46 C       -2.0677     0.6912    -1.3649 C.2   1 <1>   0.5690 
 47 C       -1.9460     1.9986    -2.1575 C.3   1 <1>   0.3410 
 48 O       -2.8769     2.0936    -3.2227 O.3   1 <1>  -0.5600 
 49 C       -2.7574     3.3458    -3.9171 C.3   1 <1>   0.1740 
 50 H2      -1.7179     3.5027    -4.2290 H     1 <1>   0.0000 
 51 H3      -3.0499     4.1616    -3.2462 H     1 <1>   0.0000 
 52 H2      -0.9347     2.0500    -2.5763 H     1 <1>   0.0000 
 53 H3      -2.1102     2.8302    -1.4628 H     1 <1>   0.0000 
 54 O       -2.9623    -0.1253    -1.5947 O.2   1 <1>  -0.5700 
 55 C       -3.6590     3.3405    -5.1608 C.2   1 <1>   0.9060 
 56 O       -3.1265     2.8777    -6.2118 O.co2 1 <1>  -0.9000 
 57 O       -4.8072     3.8471    -4.9983 O.co2 1 <1>  -0.9000 
@<TRIPOS>BOND
  1   1   2  1   
  2   1   3  1   
  3   1  13  1   
  4   1  20  1   
  5   3   4  1   
  6   3   5  1   
  7   3   6  1   
  8   6   7  1   
  9   6  46  am  
 10   7   8  1   
 11   7   9  1   
 12   7  10  1   
 13  10  11  1   
 14  10  12  1   
 15  10  13  1   
 16  13  14  1   
 17  13  15  1   
 18  15  16  1   
 19  16  17  1   
 20  16  18  1   
 21  16  23  1   
 22  18  19  1   
 23  18  20  1   
 24  18  26  1   
 25  20  21  1   
 26  20  22  1   
 27  23  24  ar  
 28  23  35  ar  
 29  24  25  1   
 30  24  44  ar  
 31  25  26  1   
 32  26  27  1   
 33  26  31  1   
 34  27  28  1   
 35  27  29  1   
 36  27  30  1   
 37  31  32  1   
 38  31  33  1   
 39  31  34  1   
 40  35  36  1   
 41  35  37  ar  
 42  37  38  1   
 43  37  39  ar  
 44  39  40  1   
 45  39  44  ar  
 46  40  41  1   
 47  40  42  1   
 48  40  43  1   
 49  44  45  1   
 50  46  47  1   
 51  46  54  2   
 52  47  48  1   
 53  47  52  1   
 54  47  53  1   
 55  48  49  1   
 56  49  50  1   
 57  49  51  1   
 58  49  55  1   
 59  55  56  ar  
 60  55  57  ar  
@<TRIPOS>SUBSTRUCTURE
  1 <1>   0 RESIDUE 1 * * 1
# MOE 2007.09 (io_trps.svl 2007.09)
