@<TRIPOS>MOLECULE
J11_59
35 37 1 0 0 
SMALL
USER_CHARGES


@<TRIPOS>ATOM
  1 N        0.7496     0.6364    -1.3104 N.am  1 <1>  -0.4900 
  2 H        1.4128     0.8452    -2.0398 H     1 <1>   0.3700 
  3 C       -0.5899     0.8398    -1.6344 C.2   1 <1>   0.7160 
  4 O       -0.9489     1.2578    -2.7304 O.2   1 <1>  -0.5700 
  5 C       -1.4673     0.5014    -0.5390 C.2   1 <1>   0.1412 
  6 C       -0.8984     0.0658     0.6339 C.2   1 <1>  -0.0256 
  7 N        0.4119    -0.1115     0.9190 N.2   1 <1>  -0.5760 
  8 C        1.2052     0.1778    -0.0799 C.2   1 <1>   0.5600 
  9 N        2.5456     0.0347     0.0521 N.pl3 1 <1>  -0.8500 
 10 H1       2.8998    -0.3001     0.9399 H     1 <1>   0.4000 
 11 H2       3.2106     0.2385    -0.6789 H     1 <1>   0.4000 
 12 N       -2.8337     0.5195    -0.4589 N.2   1 <1>  -0.5653 
 13 C       -3.0936     0.0896     0.7616 C.2   1 <1>   0.0365 
 14 H       -4.0856    -0.0392     1.1743 H     1 <1>   0.1500 
 15 N       -1.9508    -0.1842     1.4708 N.pl3 1 <1>   0.0476 
 16 C       -1.8240    -0.6675     2.8363 C.3   1 <1>   0.3938 
 17 H       -0.9107    -0.2284     3.2601 H     1 <1>   0.0000 
 18 C       -2.9702    -0.3453     3.7804 C.2   1 <1>  -0.2764 
 19 C       -3.4706     0.8757     4.0199 C.2   1 <1>  -0.3000 
 20 H1      -4.2611     1.0299     4.7488 H     1 <1>   0.1500 
 21 H2      -3.0966     1.7551     3.5032 H     1 <1>   0.1500 
 22 C       -3.3983    -1.5953     4.5216 C.3   1 <1>   0.1382 
 23 C       -4.7365    -2.1481     4.0144 C.3   1 <1>   0.2800 
 24 O       -4.9424    -3.4482     4.5743 O.3   1 <1>  -0.6800 
 25 H       -5.8807    -3.6763     4.4267 H     1 <1>   0.4000 
 26 H2      -4.7563    -2.2423     2.9235 H     1 <1>   0.0000 
 27 H3      -5.5627    -1.4987     4.3233 H     1 <1>   0.0000 
 28 H2      -3.4837    -1.4160     5.6009 H     1 <1>   0.0000 
 29 C       -2.1979    -2.5372     4.2929 C.3   1 <1>   0.2800 
 30 O       -2.4882    -3.9202     4.3911 O.3   1 <1>  -0.6800 
 31 H       -3.4604    -4.0007     4.5515 H     1 <1>   0.4000 
 32 H2      -1.4023    -2.3099     5.0140 H     1 <1>   0.0000 
 33 C       -1.7283    -2.1937     2.8872 C.3   1 <1>   0.0000 
 34 H1      -2.3632    -2.6788     2.1336 H     1 <1>   0.0000 
 35 H2      -0.7079    -2.5498     2.7052 H     1 <1>   0.0000 
@<TRIPOS>BOND
  1   1   2  1   
  2   1   3  am  
  3   1   8  1   
  4   3   4  2   
  5   3   5  1   
  6   5   6  2   
  7   5  12  1   
  8   6   7  1   
  9   6  15  1   
 10   7   8  2   
 11   8   9  1   
 12   9  10  1   
 13   9  11  1   
 14  12  13  2   
 15  13  14  1   
 16  13  15  1   
 17  15  16  1   
 18  16  17  1   
 19  16  18  1   
 20  16  33  1   
 21  18  19  2   
 22  18  22  1   
 23  19  20  1   
 24  19  21  1   
 25  22  23  1   
 26  22  28  1   
 27  22  29  1   
 28  23  24  1   
 29  23  26  1   
 30  23  27  1   
 31  24  25  1   
 32  29  30  1   
 33  29  32  1   
 34  29  33  1   
 35  30  31  1   
 36  33  34  1   
 37  33  35  1   
@<TRIPOS>SUBSTRUCTURE
  1 <1>   0 RESIDUE 1 * * 1
# MOE 2007.09 (io_trps.svl 2007.09)
