@<TRIPOS>MOLECULE
J11_08
61 64 1 0 0 
SMALL
USER_CHARGES


@<TRIPOS>ATOM
  1 C        2.1401     3.4513     3.0399 C.3   1 <1>   0.1401 
  2 C        2.6552     2.4524     4.0994 C.3   1 <1>  -0.1600 
  3 C        4.0704     2.8904     4.5373 C.3   1 <1>  -0.0990 
  4 C        4.1608     4.2014     5.3340 C.2   1 <1>   0.5690 
  5 H2       4.6965     2.9753     3.6499 H     1 <1>   0.0800 
  6 H3       4.4803     2.1011     5.1664 H     1 <1>   0.0800 
  7 N        5.3679     4.6597     5.7377 N.am  1 <1>  -0.6602 
  8 C        6.6609     4.0094     5.4336 C.3   1 <1>   0.1401 
  9 H1       6.5483     3.1234     4.8256 H     1 <1>   0.0800 
 10 C        7.2427     3.5809     6.7927 C.3   1 <1>  -0.1600 
 11 H1       6.5558     2.9015     7.3012 H     1 <1>   0.0800 
 12 H2       8.1955     3.0765     6.6325 H     1 <1>   0.0800 
 13 H3       7.3241     4.7256     4.9642 H     1 <1>   0.0800 
 14 O        3.1329     4.8130     5.5971 O.2   1 <1>  -0.5700 
 15 C        5.4521     5.9063     6.5488 C.3   1 <1>   0.1401 
 16 C        6.0806     5.5151     7.9047 C.3   1 <1>   0.2201 
 17 C        7.4602     4.8476     7.6340 C.3   1 <1>   0.2000 
 18 C        8.3591     5.7256     6.9556 C.3   1 <1>   0.0800 
 19 H1       7.9202     6.0323     6.0062 H     1 <1>   0.0000 
 20 H2       9.3010     5.2092     6.7705 H     1 <1>   0.0000 
 21 H3       8.5422     6.6055     7.5723 H     1 <1>   0.0000 
 22 H1       4.4742     6.3237     6.7523 H     1 <1>   0.0800 
 23 H2       6.0878     6.6162     6.0388 H     1 <1>   0.0800 
 24 H1       5.4362     4.7995     8.3992 H     1 <1>   0.0800 
 25 N        6.2588     6.7561     8.7156 N.am  1 <1>  -0.4691 
 26 O        8.0274     4.4469     8.8686 O.3   1 <1>  -0.6800 
 27 H2       2.7251     1.4516     3.6695 H     1 <1>   0.0800 
 28 H3       1.9767     2.4323     4.9548 H     1 <1>   0.0800 
 29 H2       1.7877     4.3531     3.5262 H     1 <1>   0.0800 
 30 H3       2.9162     3.6479     2.3111 H     1 <1>   0.0800 
 31 H        8.8939     4.0582     8.7243 H     1 <1>   0.4000 
 32 C        5.5954     6.8305     9.9449 C.2   1 <1>   0.6900 
 33 N        5.8124     7.9370    10.7146 N.am  1 <1>  -0.4900 
 34 C        6.6254     8.9810    10.3855 C.2   1 <1>   0.6156 
 35 C        7.2918     8.8800     9.1206 C.2   1 <1>  -0.1356 
 36 H        7.9305     9.6772     8.8467 H     1 <1>   0.1500 
 37 C        7.1143     7.8005     8.3141 C.2   1 <1>  -0.0410 
 38 O        4.8062     5.9884    10.3443 O.2   1 <1>  -0.5700 
 39 O        6.7268     9.9154    11.1666 O.2   1 <1>  -0.5700 
 40 H        5.3310     7.9812    11.5874 H     1 <1>   0.3700 
 41 H        7.5946     7.6816     7.3754 H     1 <1>   0.1500 
 42 C       -1.0706     1.9571     1.7797 C.3   1 <1>   0.3611 
 43 C       -0.2889     2.8772     2.7089 C.2   1 <1>   0.5690 
 44 N        1.0296     2.7787     2.3702 N.am  1 <1>  -0.4201 
 45 C        1.1843     1.8987     1.3251 C.2   1 <1>   0.6900 
 46 N       -0.0203     1.4499     0.9183 N.am  1 <1>  -0.7301 
 47 H1      -0.0903     0.6287     0.3088 H     1 <1>   0.3700 
 48 O        2.2481     1.5484     0.8460 O.2   1 <1>  -0.5700 
 49 O       -0.6945     3.5829     3.6125 O.2   1 <1>  -0.5700 
 50 C       -1.7851     0.8110     2.5036 C.3   1 <1>  -0.1600 
 51 H1      -2.2797     1.2059     3.3932 H     1 <1>   0.0800 
 52 H2      -1.1046     0.0042     2.7794 H     1 <1>   0.0800 
 53 C       -2.8457     0.3597     1.4853 C.3   1 <1>  -0.1600 
 54 H1      -3.7974     0.1847     1.9915 H     1 <1>   0.0800 
 55 H2      -2.5271    -0.5609     0.9921 H     1 <1>   0.0800 
 56 C       -2.9867     1.4828     0.4436 C.3   1 <1>  -0.1600 
 57 H1      -4.0309     1.7725     0.3110 H     1 <1>   0.0800 
 58 H2      -2.5811     1.1447    -0.5125 H     1 <1>   0.0800 
 59 C       -2.1546     2.6626     0.9621 C.3   1 <1>  -0.1600 
 60 H1      -1.7405     3.2638     0.1513 H     1 <1>   0.0800 
 61 H2      -2.7621     3.2819     1.6249 H     1 <1>   0.0800 
@<TRIPOS>BOND
  1   1   2  1   
  2   1  29  1   
  3   1  30  1   
  4   1  44  1   
  5   2   3  1   
  6   2  27  1   
  7   2  28  1   
  8   3   4  1   
  9   3   5  1   
 10   3   6  1   
 11   4   7  am  
 12   4  14  2   
 13   7   8  1   
 14   7  15  1   
 15   8   9  1   
 16   8  10  1   
 17   8  13  1   
 18  10  11  1   
 19  10  12  1   
 20  10  17  1   
 21  15  16  1   
 22  15  22  1   
 23  15  23  1   
 24  16  17  1   
 25  16  24  1   
 26  16  25  1   
 27  17  18  1   
 28  17  26  1   
 29  18  19  1   
 30  18  20  1   
 31  18  21  1   
 32  25  32  am  
 33  25  37  1   
 34  26  31  1   
 35  32  33  am  
 36  32  38  2   
 37  33  34  am  
 38  33  40  1   
 39  34  35  1   
 40  34  39  2   
 41  35  36  1   
 42  35  37  2   
 43  37  41  1   
 44  42  43  1   
 45  42  46  1   
 46  42  50  1   
 47  42  59  1   
 48  43  44  am  
 49  43  49  2   
 50  44  45  am  
 51  45  46  am  
 52  45  48  2   
 53  46  47  1   
 54  50  51  1   
 55  50  52  1   
 56  50  53  1   
 57  53  54  1   
 58  53  55  1   
 59  53  56  1   
 60  56  57  1   
 61  56  58  1   
 62  56  59  1   
 63  59  60  1   
 64  59  61  1   
@<TRIPOS>SUBSTRUCTURE
  1 ****  14 GROUP 4 **** **** 0

# MOE 2015.10 (io_trps.svl 2015.10)
