@<TRIPOS>MOLECULE
J11_16
43 45 1 0 0 
SMALL
USER_CHARGES


@<TRIPOS>ATOM
  1 C        0.7092     0.6502    -0.4651 C.ar  1 <1>  -0.1500 
  2 H        0.8899     0.9329    -1.4720 H     1 <1>   0.1500 
  3 C        0.5825     1.6268     0.5307 C.ar  1 <1>  -0.1435 
  4 C        0.7044     3.1064     0.1951 C.3   1 <1>   0.3945 
  5 C        1.9885     3.3260    -0.6399 C.2   1 <1>   0.5690 
  6 N        3.1837     3.0115    -0.0785 N.am  1 <1>  -0.6550 
  7 C        4.4874     3.4461    -0.6431 C.3   1 <1>   0.2780 
  8 H        4.4869     3.4779    -1.7246 H     1 <1>  -0.0000 
  9 H2       3.2117     2.6303     0.8805 H     1 <1>   0.3700 
 10 H2       0.7757     3.6970     1.0991 H     1 <1>   0.0800 
 11 N       -0.5156     3.4404    -0.5611 N.3   1 <1>  -0.9900 
 12 H1      -0.8229     2.5901    -1.0114 H     1 <1>   0.3600 
 13 H2      -0.2269     4.0857    -1.2896 H     1 <1>   0.3600 
 14 C        0.3370     1.2336     1.8500 C.ar  1 <1>  -0.1500 
 15 H        0.2277     1.9654     2.6098 H     1 <1>   0.1500 
 16 C        0.2288    -0.1149     2.1765 C.ar  1 <1>  -0.1500 
 17 H        0.0426    -0.4079     3.1764 H     1 <1>   0.1500 
 18 C        0.3651    -1.0683     1.1727 C.ar  1 <1>   0.0825 
 19 O        0.2644    -2.3892     1.4740 O.3   1 <1>  -0.5325 
 20 H        0.0920    -2.5139     2.4256 H     1 <1>   0.4500 
 21 C        0.6029    -0.6991    -0.1448 C.ar  1 <1>  -0.1500 
 22 H        0.7012    -1.4435    -0.8921 H     1 <1>   0.1500 
 23 C        5.7146     2.7142    -0.0214 C.3   1 <1>   0.4420 
 24 H        6.4427     2.2950    -0.7022 H     1 <1>  -0.0000 
 25 N        6.0377     3.9679     0.6072 N.am  1 <1>  -0.5851 
 26 C        5.0535     4.7245     0.0391 C.2   1 <1>   0.5770 
 27 O        4.7446     5.8970     0.0710 O.2   1 <1>  -0.5700 
 28 S        5.3500     1.5842     1.3629 S.3   1 <1>  -0.4470 
 29 C        5.7269     2.7769     2.6964 C.3   1 <1>   0.2300 
 30 C        6.5554     2.0348     3.7507 C.3   1 <1>  -0.2400 
 31 H1       7.4734     1.6565     3.3013 H     1 <1>   0.0800 
 32 H2       5.9862     1.1974     4.1534 H     1 <1>   0.0800 
 33 H3       6.8137     2.7208     4.5593 H     1 <1>   0.0800 
 34 C        4.3605     3.1502     3.2962 C.3   1 <1>  -0.2400 
 35 H1       3.7925     2.2512     3.5330 H     1 <1>   0.0800 
 36 H2       3.7992     3.7679     2.5963 H     1 <1>   0.0800 
 37 H3       4.5030     3.7245     4.2129 H     1 <1>   0.0800 
 38 C        6.5402     3.9218     2.0155 C.3   1 <1>   0.1141 
 39 H1       7.5752     3.6168     1.9759 H     1 <1>   0.0800 
 40 C        6.5171     5.2066     2.8589 C.2   1 <1>   0.9060 
 41 O        7.6131     5.5353     3.3670 O.co2 1 <1>  -0.9000 
 42 O        5.4442     5.8076     3.0900 O.co2 1 <1>  -0.9000 
 43 O        1.9736     3.7374    -1.8003 O.2   1 <1>  -0.5700 
@<TRIPOS>BOND
  1   1   2  1   
  2   1   3  ar  
  3   1  21  ar  
  4   3   4  1   
  5   3  14  ar  
  6   4   5  1   
  7   4  10  1   
  8   4  11  1   
  9   5   6  am  
 10   5  43  2   
 11   6   7  1   
 12   6   9  1   
 13   7   8  1   
 14   7  23  1   
 15   7  26  1   
 16  11  12  1   
 17  11  13  1   
 18  14  15  1   
 19  14  16  ar  
 20  16  17  1   
 21  16  18  ar  
 22  18  19  1   
 23  18  21  ar  
 24  19  20  1   
 25  21  22  1   
 26  23  24  1   
 27  23  25  1   
 28  23  28  1   
 29  25  26  am  
 30  25  38  1   
 31  26  27  2   
 32  28  29  1   
 33  29  30  1   
 34  29  34  1   
 35  29  38  1   
 36  30  31  1   
 37  30  32  1   
 38  30  33  1   
 39  34  35  1   
 40  34  36  1   
 41  34  37  1   
 42  38  39  1   
 43  38  40  1   
 44  40  41  ar  
 45  40  42  ar  
@<TRIPOS>SUBSTRUCTURE
  1 ****   6 GROUP 4 **** **** 0

# MOE 2015.10 (io_trps.svl 2015.10)
