@<TRIPOS>MOLECULE
J11_09
48 50 1 0 0 
SMALL
USER_CHARGES


@<TRIPOS>ATOM
  1 C        1.6095     0.6581     0.1591 C.3   1 <1>   0.0000 
  2 H1       2.4979     1.1299     0.6018 H     1 <1>   0.0000 
  3 H2       1.9022     0.3613    -0.8546 H     1 <1>   0.0000 
  4 N        0.9875     2.9878    -0.3425 N.pl3 1 <1>   0.0476 
  5 C        0.4734     1.6964     0.1408 C.3   1 <1>   0.2556 
  6 H2       0.1928     1.8949     1.1858 H     1 <1>   0.0000 
  7 C       -0.8168     1.2945    -0.6119 C.3   1 <1>   0.2800 
  8 H1      -0.6567     1.3611    -1.6949 H     1 <1>   0.0000 
  9 O       -1.8362     2.2755    -0.3014 O.3   1 <1>  -0.6800 
 10 H       -2.1141     2.1451     0.6225 H     1 <1>   0.4000 
 11 C       -1.4042    -0.1100    -0.2720 C.3   1 <1>   0.2700 
 12 N       -2.7121    -0.2136    -0.9603 N.3   1 <1>  -0.9000 
 13 H1      -3.1102     0.7290    -1.0326 H     1 <1>   0.3600 
 14 C       -3.6507    -1.0940    -0.2665 C.3   1 <1>   0.2700 
 15 C       -4.9629    -1.1536    -1.0505 C.3   1 <1>   0.0000 
 16 C       -5.9698    -2.0865    -0.3785 C.3   1 <1>   0.0610 
 17 C       -7.2711    -2.1468    -1.1394 C.2   1 <1>   0.6590 
 18 O       -8.1042    -3.0537    -0.5681 O.3   1 <1>  -0.1500 
 19 H2      -6.1843    -1.7355     0.6369 H     1 <1>   0.0000 
 20 H3      -5.5548    -3.0994    -0.3269 H     1 <1>   0.0000 
 21 H2      -4.7712    -1.5001    -2.0746 H     1 <1>   0.0000 
 22 H3      -5.3938    -0.1473    -1.1345 H     1 <1>   0.0000 
 23 H2      -3.8471    -0.7168     0.7443 H     1 <1>   0.0000 
 24 H3      -3.2370    -2.1043    -0.1759 H     1 <1>   0.0000 
 25 H2      -1.5702    -0.1630     0.8116 H     1 <1>   0.0000 
 26 C       -0.4966    -1.2462    -0.7604 C.3   1 <1>   0.0000 
 27 H1      -0.0174    -0.9602    -1.7061 H     1 <1>   0.0000 
 28 H2      -1.0821    -2.1438    -0.9978 H     1 <1>   0.0000 
 29 C        0.5704    -1.6789     0.2419 C.3   1 <1>   0.0000 
 30 H1       1.3166    -2.2773    -0.2965 H     1 <1>   0.0000 
 31 H2       0.1180    -2.3586     0.9754 H     1 <1>   0.0000 
 32 C        1.2813    -0.5679     1.0034 C.3   1 <1>   0.0000 
 33 H1       2.2152    -0.9844     1.4022 H     1 <1>   0.0000 
 34 H2       0.6892    -0.2780     1.8800 H     1 <1>   0.0000 
 35 O       -7.5616    -1.4803    -2.1212 O.2   1 <1>  -0.5700 
 36 C        1.5400     3.2589    -1.5667 C.ar  1 <1>   0.1054 
 37 C        1.9152     4.5929    -1.5053 C.ar  1 <1>   0.2272 
 38 N        1.5798     5.1387    -0.2843 N.2   1 <1>  -0.5653 
 39 C        1.0147     4.1536     0.3816 C.2   1 <1>   0.0365 
 40 H        0.6199     4.2260     1.3867 H     1 <1>   0.1500 
 41 N        1.7078     2.4197    -2.6012 N.ar  1 <1>  -0.5670 
 42 C        2.3120     3.0427    -3.6321 C.ar  1 <1>   0.4700 
 43 H        2.4826     2.4367    -4.5166 H     1 <1>   0.1500 
 44 N        2.7380     4.3235    -3.7097 N.ar  1 <1>  -0.6200 
 45 C        2.5504     5.1328    -2.6374 C.ar  1 <1>   0.4100 
 46 N        2.9935     6.4381    -2.6992 N.pl3 1 <1>  -0.9000 
 47 H1       3.4490     6.7522    -3.5424 H     1 <1>   0.4000 
 48 H2       2.8528     7.0456    -1.9046 H     1 <1>   0.4000 
@<TRIPOS>BOND
  1   1   2  1   
  2   1   3  1   
  3   1   5  1   
  4   1  32  1   
  5   4   5  1   
  6   4  36  1   
  7   4  39  1   
  8   5   6  1   
  9   5   7  1   
 10   7   8  1   
 11   7   9  1   
 12   7  11  1   
 13   9  10  1   
 14  11  12  1   
 15  11  25  1   
 16  11  26  1   
 17  12  13  1   
 18  12  14  1   
 19  14  15  1   
 20  14  23  1   
 21  14  24  1   
 22  15  16  1   
 23  15  21  1   
 24  15  22  1   
 25  16  17  1   
 26  16  19  1   
 27  16  20  1   
 28  17  18  1   
 29  17  35  2   
 30  26  27  1   
 31  26  28  1   
 32  26  29  1   
 33  29  30  1   
 34  29  31  1   
 35  29  32  1   
 36  32  33  1   
 37  32  34  1   
 38  36  37  ar  
 39  36  41  ar  
 40  37  38  1   
 41  37  45  ar  
 42  38  39  2   
 43  39  40  1   
 44  41  42  ar  
 45  42  43  1   
 46  42  44  ar  
 47  44  45  ar  
 48  45  46  1   
 49  46  47  1   
 50  46  48  1   
@<TRIPOS>SUBSTRUCTURE
  1 <1>   0 RESIDUE 1 * * 1
# MOE 2007.09 (io_trps.svl 2007.09)
