@<TRIPOS>MOLECULE
J11_15
39 41 1 0 0 
SMALL
USER_CHARGES


@<TRIPOS>ATOM
  1 N        0.6448     0.3444    -0.7693 N.ar  1 <1>  -0.6200 
  2 C        0.5409     0.3666     0.5548 C.ar  1 <1>   0.1600 
  3 H        1.2594     0.8964     1.1276 H     1 <1>   0.1500 
  4 C       -0.5052    -0.3051     1.1620 C.ar  1 <1>   0.1900 
  5 F       -0.5794    -0.2721     2.5193 F     1 <1>  -0.1900 
  6 C       -1.4400    -0.9974     0.3959 C.ar  1 <1>   0.1665 
  7 C       -2.6359    -1.7800     0.9450 C.3   1 <1>   0.0635 
  8 C       -3.5696    -0.7502     1.6353 C.3   1 <1>  -0.2400 
  9 H1      -3.8063     0.0484     0.9308 H     1 <1>   0.0800 
 10 H2      -3.1035    -0.3073     2.5144 H     1 <1>   0.0800 
 11 H3      -4.5078    -1.2064     1.9391 H     1 <1>   0.0800 
 12 C       -2.1655    -2.9826     1.8677 C.3   1 <1>   0.4235 
 13 C       -3.1255    -4.2037     1.8111 C.3   1 <1>   0.0956 
 14 N       -4.4751    -3.8208     2.1836 N.pl3 1 <1>   0.3140 
 15 H2      -2.7728    -4.9312     2.5275 H     1 <1>   0.0800 
 16 H3      -3.1675    -4.5967     0.8073 H     1 <1>   0.0800 
 17 O       -2.1032    -2.5664     3.2493 O.3   1 <1>  -0.6800 
 18 H       -1.2833    -2.0582     3.4008 H     1 <1>   0.4000 
 19 C       -0.7921    -3.5211     1.3830 C.ar  1 <1>  -0.1435 
 20 H3      -3.1907    -2.1861     0.0972 H     1 <1>   0.0800 
 21 N       -1.2870    -0.9846    -0.9285 N.ar  1 <1>  -0.6200 
 22 C       -0.2643    -0.3243    -1.4822 C.ar  1 <1>   0.4700 
 23 H       -0.1701    -0.3320    -2.5405 H     1 <1>   0.1500 
 24 C        0.3928    -3.5233     2.1477 C.ar  1 <1>   0.1900 
 25 F        0.4456    -3.0189     3.4017 F     1 <1>  -0.1900 
 26 C        1.5961    -4.0255     1.6709 C.ar  1 <1>  -0.1500 
 27 H        2.4696    -4.0175     2.2691 H     1 <1>   0.1500 
 28 C        1.6194    -4.5344     0.3847 C.ar  1 <1>   0.1900 
 29 F        2.7769    -5.0307    -0.1018 F     1 <1>  -0.1900 
 30 C        0.4911    -4.5469    -0.4222 C.ar  1 <1>  -0.1500 
 31 H        0.5485    -4.9343    -1.4073 H     1 <1>   0.1500 
 32 C       -0.7074    -4.0388     0.0764 C.ar  1 <1>  -0.1500 
 33 H       -1.5560    -4.0356    -0.5615 H     1 <1>   0.1500 
 34 N       -5.4398    -3.6696     1.2772 N.2   1 <1>  -0.7068 
 35 C       -6.4668    -3.3706     2.0095 C.2   1 <1>   0.3660 
 36 H       -7.4298    -3.1805     1.6040 H     1 <1>   0.1500 
 37 N       -6.2091    -3.3204     3.3318 N.2   1 <1>  -0.5653 
 38 C       -4.9575    -3.6063     3.4109 C.2   1 <1>   0.0365 
 39 H       -4.3388    -3.6752     4.2693 H     1 <1>   0.1500 
@<TRIPOS>BOND
  1   1   2  ar  
  2   1  22  ar  
  3   2   3  1   
  4   2   4  ar  
  5   4   5  1   
  6   4   6  ar  
  7   6   7  1   
  8   6  21  ar  
  9   7   8  1   
 10   7  12  1   
 11   7  20  1   
 12   8   9  1   
 13   8  10  1   
 14   8  11  1   
 15  12  13  1   
 16  12  17  1   
 17  12  19  1   
 18  13  14  1   
 19  13  15  1   
 20  13  16  1   
 21  14  34  1   
 22  14  38  1   
 23  17  18  1   
 24  19  24  ar  
 25  19  32  ar  
 26  21  22  ar  
 27  22  23  1   
 28  24  25  1   
 29  24  26  ar  
 30  26  27  1   
 31  26  28  ar  
 32  28  29  1   
 33  28  30  ar  
 34  30  31  1   
 35  30  32  ar  
 36  32  33  1   
 37  34  35  2   
 38  35  36  1   
 39  35  37  1   
 40  37  38  2   
 41  38  39  1   
@<TRIPOS>SUBSTRUCTURE
  1 ****  12 GROUP 4 **** **** 0

# MOE 2015.10 (io_trps.svl 2015.10)
