@<TRIPOS>MOLECULE
J11_19
48 51 1 0 0 
SMALL
USER_CHARGES


@<TRIPOS>ATOM
  1 C        1.3189     0.9415     0.0107 C.ar  1 <1>  -0.1435 
  2 C        2.5795     1.4521    -0.6263 C.3   1 <1>   0.4436 
  3 N        3.7278     0.6712    -0.2293 N.am  1 <1>  -0.7301 
  4 C        5.0085     1.1383    -0.4382 C.2   1 <1>   0.6156 
  5 C        6.0519     0.1977    -0.0089 C.2   1 <1>   0.0288 
  6 O        5.2852     2.2204    -0.9384 O.2   1 <1>  -0.5700 
  7 H2       3.5736    -0.2315     0.2047 H     1 <1>   0.3700 
  8 H2       2.7390     2.5012    -0.3487 H     1 <1>   0.0000 
  9 H3       2.5196     1.4212    -1.7201 H     1 <1>   0.0000 
 10 C        0.3664     0.2426    -0.7398 C.ar  1 <1>   0.1900 
 11 F        0.5739     0.0269    -2.0466 F     1 <1>  -0.1900 
 12 C       -0.7999    -0.2441    -0.1599 C.ar  1 <1>  -0.1500 
 13 H       -1.5283    -0.7819    -0.7554 H     1 <1>   0.1500 
 14 C       -1.0155    -0.0306     1.1946 C.ar  1 <1>   0.1900 
 15 F       -2.1355    -0.4943     1.7651 F     1 <1>  -0.1900 
 16 C       -0.0861     0.6556     1.9703 C.ar  1 <1>  -0.1500 
 17 H       -0.2755     0.8092     3.0284 H     1 <1>   0.1500 
 18 C        1.0820     1.1416     1.3799 C.ar  1 <1>  -0.1500 
 19 H        1.8060     1.6783     1.9904 H     1 <1>   0.1500 
 20 C        6.1061    -1.0141    -0.5674 C.2   1 <1>  -0.0500 
 21 H        5.3862    -1.3225    -1.3226 H     1 <1>   0.1500 
 22 N        7.0528    -1.9807    -0.2685 N.pl3 1 <1>  -0.5691 
 23 C        8.0512    -1.6971     0.6845 C.2   1 <1>  -0.0382 
 24 C        8.1157    -0.4888     1.2864 C.2   1 <1>   0.0911 
 25 O        9.1077    -0.1361     2.1714 O.3   1 <1>  -0.0767 
 26 C        7.0912     0.5447     0.9801 C.2   1 <1>   0.5412 
 27 O        7.0994     1.6297     1.5494 O.2   1 <1>  -0.5700 
 28 C        6.9781    -3.2947    -0.9255 C.3   1 <1>   0.3691 
 29 H1       6.6573    -3.1832    -1.9704 H     1 <1>   0.0000 
 30 H2       6.1965    -3.8904    -0.4333 H     1 <1>   0.0000 
 31 C        8.3117    -4.0610    -0.9070 C.3   1 <1>   0.5500 
 32 H        9.0256    -3.5719    -1.5835 H     1 <1>   0.0000 
 33 N        8.8257    -4.1156     0.4623 N.am  1 <1>  -0.8100 
 34 C        9.1120    -2.7688     0.9811 C.2   1 <1>   0.6882 
 35 O        7.9929    -5.3539    -1.4402 O.3   1 <1>  -0.5600 
 36 C        9.0890    -6.2541    -1.4010 C.3   1 <1>   0.2800 
 37 H1       9.8865    -5.8962    -2.0612 H     1 <1>   0.0000 
 38 H2       8.7465    -7.2163    -1.7949 H     1 <1>   0.0000 
 39 C        9.5541    -6.4181     0.0332 C.3   1 <1>   0.0000 
 40 H1      10.3874    -7.1277     0.0854 H     1 <1>   0.0000 
 41 H2       8.7328    -6.8393     0.6283 H     1 <1>   0.0000 
 42 C        9.9447    -5.0592     0.6316 C.3   1 <1>   0.2700 
 43 C       11.3014    -4.5984     0.0703 C.3   1 <1>   0.0000 
 44 H1      11.7146    -3.7707     0.6557 H     1 <1>   0.0000 
 45 H2      11.2332    -4.2747    -0.9728 H     1 <1>   0.0000 
 46 H3      12.0345    -5.4114     0.1183 H     1 <1>   0.0000 
 47 H2      10.0889    -5.2277     1.7070 H     1 <1>   0.0000 
 48 O       10.3016    -2.4757     1.7146 O.2   1 <1>   0.0000 
@<TRIPOS>BOND
  1   1   2  1   
  2   1  10  ar  
  3   1  18  ar  
  4   2   3  1   
  5   2   8  1   
  6   2   9  1   
  7   3   4  am  
  8   3   7  1   
  9   4   5  1   
 10   4   6  2   
 11   5  20  2   
 12   5  26  1   
 13  10  11  1   
 14  10  12  ar  
 15  12  13  1   
 16  12  14  ar  
 17  14  15  1   
 18  14  16  ar  
 19  16  17  1   
 20  16  18  ar  
 21  18  19  1   
 22  20  21  1   
 23  20  22  1   
 24  22  23  1   
 25  22  28  1   
 26  23  24  2   
 27  23  34  1   
 28  24  25  1   
 29  24  26  1   
 30  26  27  2   
 31  28  29  1   
 32  28  30  1   
 33  28  31  1   
 34  31  32  1   
 35  31  33  1   
 36  31  35  1   
 37  33  34  am  
 38  33  42  1   
 39  34  48  2   
 40  35  36  1   
 41  36  37  1   
 42  36  38  1   
 43  36  39  1   
 44  39  40  1   
 45  39  41  1   
 46  39  42  1   
 47  42  43  1   
 48  42  47  1   
 49  43  44  1   
 50  43  45  1   
 51  43  46  1   
@<TRIPOS>SUBSTRUCTURE
  1 ****  20 GROUP 4 **** **** 0

# MOE 2015.10 (io_trps.svl 2015.10)
