@<TRIPOS>MOLECULE
J11_05
53 56 1 0 0 
SMALL
USER_CHARGES


@<TRIPOS>ATOM
  1 C        1.2769    -0.8498     0.4503 C.ar  1 <1>   0.2272 
  2 C        0.0439    -1.2785     0.9646 C.ar  1 <1>  -0.1500 
  3 H       -0.0014    -1.8237     1.9009 H     1 <1>   0.1500 
  4 C       -1.1255    -0.9850     0.2469 C.ar  1 <1>  -0.1500 
  5 H       -2.0827    -1.3115     0.6498 H     1 <1>   0.1500 
  6 C       -1.0786    -0.2859    -0.9690 C.ar  1 <1>  -0.1435 
  7 C       -2.3537     0.0397    -1.6945 C.3   1 <1>   0.1435 
  8 H1      -2.7581     0.9894    -1.3311 H     1 <1>   0.0000 
  9 H2      -3.1010    -0.7462    -1.5422 H     1 <1>   0.0000 
 10 H3      -2.1813     0.1179    -2.7731 H     1 <1>   0.0000 
 11 C        0.1509     0.1608    -1.4843 C.ar  1 <1>  -0.1500 
 12 H        0.2079     0.7185    -2.4134 H     1 <1>   0.1500 
 13 C        1.2999    -0.1456    -0.7509 C.ar  1 <1>  -0.1516 
 14 N        2.6285     0.1221    -0.9607 N.pl3 1 <1>   0.0332 
 15 H        3.0287     0.6234    -1.7400 H     1 <1>   0.2700 
 16 C        3.3261    -0.4145     0.0811 C.2   1 <1>   0.2495 
 17 O        4.6476    -0.3210     0.1673 O.3   1 <1>  -0.3430 
 18 C        5.2301    -0.9461     1.3066 C.3   1 <1>   0.3410 
 19 C        6.7529    -0.7367     1.3189 C.2   1 <1>   0.5690 
 20 N        7.4586    -1.2253     2.4255 N.am  1 <1>  -0.6602 
 21 O        7.3178    -0.1476     0.3937 O.2   1 <1>  -0.5700 
 22 H2       5.0355    -2.0246     1.2719 H     1 <1>   0.0000 
 23 H3       4.8187    -0.5021     2.2211 H     1 <1>   0.0000 
 24 N        2.5492    -1.0083     0.9560 N.2   1 <1>  -0.5653 
 25 C        6.8615    -1.9515     3.5477 C.3   1 <1>   0.3001 
 26 H1       5.8121    -2.1887     3.3625 H     1 <1>   0.0000 
 27 H2       6.8844    -1.2800     4.4132 H     1 <1>   0.0000 
 28 C        7.6138    -3.2498     3.8449 C.3   1 <1>   0.0000 
 29 H1       7.4347    -3.9518     3.0200 H     1 <1>   0.0000 
 30 H2       7.1869    -3.6940     4.7527 H     1 <1>   0.0000 
 31 C        9.1338    -3.0424     4.0199 C.3   1 <1>   0.2800 
 32 C        9.8121    -4.4088     4.1822 C.3   1 <1>   0.0000 
 33 H1      10.8767    -4.3003     4.4166 H     1 <1>   0.0000 
 34 H2       9.7131    -5.0203     3.2796 H     1 <1>   0.0000 
 35 H3       9.3735    -4.9614     5.0215 H     1 <1>   0.0000 
 36 O        9.3654    -2.3382     5.2474 O.3   1 <1>  -0.6800 
 37 H        8.8424    -1.5217     5.2730 H     1 <1>   0.4000 
 38 C        9.7005    -2.2704     2.7856 C.3   1 <1>   0.3001 
 39 H1       9.4993    -2.9111     1.9155 H     1 <1>   0.0000 
 40 N       11.1717    -2.0533     2.8332 N.am  1 <1>  -0.4691 
 41 C        8.9041    -0.9742     2.5220 C.3   1 <1>   0.3001 
 42 H1       9.2794    -0.4955     1.6110 H     1 <1>   0.0000 
 43 H2       9.0367    -0.2483     3.3322 H     1 <1>   0.0000 
 44 C       11.7189    -1.1449     3.7227 C.2   1 <1>  -0.0410 
 45 H       11.0386    -0.6095     4.3760 H     1 <1>   0.1500 
 46 C       13.0300    -0.9232     3.8116 C.2   1 <1>  -0.1356 
 47 H       13.4613    -0.2189     4.5108 H     1 <1>   0.1500 
 48 C       13.9414    -1.6645     2.9370 C.2   1 <1>   0.6156 
 49 O       15.1518    -1.4883     2.9827 O.2   1 <1>  -0.5700 
 50 N       13.3410    -2.5527     2.0822 N.am  1 <1>  -0.4900 
 51 H       13.9460    -3.0807     1.4703 H     1 <1>   0.3700 
 52 C       11.9893    -2.7993     1.9751 C.2   1 <1>   0.6900 
 53 O       11.5811    -3.6343     1.1695 O.2   1 <1>  -0.5700 
@<TRIPOS>BOND
  1   1   2  ar  
  2   1  13  ar  
  3   1  24  1   
  4   2   3  1   
  5   2   4  ar  
  6   4   5  1   
  7   4   6  ar  
  8   6   7  1   
  9   6  11  ar  
 10   7   8  1   
 11   7   9  1   
 12   7  10  1   
 13  11  12  1   
 14  11  13  ar  
 15  13  14  1   
 16  14  15  1   
 17  14  16  1   
 18  16  17  1   
 19  16  24  2   
 20  17  18  1   
 21  18  19  1   
 22  18  22  1   
 23  18  23  1   
 24  19  20  am  
 25  19  21  2   
 26  20  25  1   
 27  20  41  1   
 28  25  26  1   
 29  25  27  1   
 30  25  28  1   
 31  28  29  1   
 32  28  30  1   
 33  28  31  1   
 34  31  32  1   
 35  31  36  1   
 36  31  38  1   
 37  32  33  1   
 38  32  34  1   
 39  32  35  1   
 40  36  37  1   
 41  38  39  1   
 42  38  40  1   
 43  38  41  1   
 44  40  44  1   
 45  40  52  am  
 46  41  42  1   
 47  41  43  1   
 48  44  45  1   
 49  44  46  2   
 50  46  47  1   
 51  46  48  1   
 52  48  49  2   
 53  48  50  am  
 54  50  51  1   
 55  50  52  am  
 56  52  53  2   
@<TRIPOS>SUBSTRUCTURE
  1 <1>   0 RESIDUE 1 * * 1
# MOE 2007.09 (io_trps.svl 2007.09)
