@<TRIPOS>MOLECULE
J11_20
26 27 1 0 0 
SMALL
USER_CHARGES


@<TRIPOS>ATOM
  1 C        1.1648     0.6513     0.1287 C.2   1 <1>   0.4856 
  2 N        2.4249     1.1755     0.0751 N.pl3 1 <1>  -0.8500 
  3 H1       2.7931     1.4671    -0.8217 H     1 <1>   0.4000 
  4 H2       3.0025     1.2818     0.8995 H     1 <1>   0.4000 
  5 N        0.4998     0.5534    -0.9866 N.2   1 <1>  -0.6610 
  6 C       -0.7748     0.0258    -0.9883 C.2   1 <1>   0.8410 
  7 O       -1.4022    -0.1009    -2.0393 O.2   1 <1>  -0.5700 
  8 N       -1.3378    -0.3800     0.2341 N.am  1 <1>  -0.4691 
  9 C       -2.6897    -0.9360     0.2051 C.3   1 <1>   0.5801 
 10 H       -3.2834    -0.3720    -0.5282 H     1 <1>   0.0000 
 11 C       -0.6287    -0.2827     1.4138 C.2   1 <1>  -0.0410 
 12 H       -1.0995    -0.6225     2.3292 H     1 <1>   0.1500 
 13 C        0.6003     0.2155     1.4189 C.2   1 <1>   0.1639 
 14 F        1.3555     0.3431     2.5230 F     1 <1>  -0.1495 
 15 O       -3.3260    -0.7930     1.4867 O.3   1 <1>  -0.5600 
 16 C       -4.5507    -1.5414     1.4548 C.3   1 <1>   0.5100 
 17 H1      -5.3358    -0.9126     1.0202 H     1 <1>   0.0000 
 18 C       -4.9241    -1.9430     2.8826 C.3   1 <1>   0.2800 
 19 O       -6.2453    -2.4669     2.9461 O.3   1 <1>  -0.6800 
 20 H       -6.3964    -2.7501     3.8641 H     1 <1>   0.4000 
 21 H2      -4.8775    -1.0649     3.5369 H     1 <1>   0.0000 
 22 H3      -4.2201    -2.6793     3.2879 H     1 <1>   0.0000 
 23 S       -4.3152    -2.9813     0.3672 S.3   1 <1>  -0.4600 
 24 C       -2.6807    -2.4258    -0.1421 C.3   1 <1>   0.2300 
 25 H1      -2.4942    -2.6102    -1.2035 H     1 <1>   0.0000 
 26 H2      -1.9350    -2.9711     0.4457 H     1 <1>   0.0000 
@<TRIPOS>BOND
  1   1   2  1   
  2   1   5  2   
  3   1  13  1   
  4   2   3  1   
  5   2   4  1   
  6   5   6  1   
  7   6   7  2   
  8   6   8  am  
  9   8   9  1   
 10   8  11  1   
 11   9  10  1   
 12   9  15  1   
 13   9  24  1   
 14  11  12  1   
 15  11  13  2   
 16  13  14  1   
 17  15  16  1   
 18  16  17  1   
 19  16  18  1   
 20  16  23  1   
 21  18  19  1   
 22  18  21  1   
 23  18  22  1   
 24  19  20  1   
 25  23  24  1   
 26  24  25  1   
 27  24  26  1   
@<TRIPOS>SUBSTRUCTURE
  1 <1>   0 RESIDUE 1 * * 1
# MOE 2007.09 (io_trps.svl 2007.09)
