@<TRIPOS>MOLECULE
J11_11
43 44 1 0 0 
SMALL
USER_CHARGES


@<TRIPOS>ATOM
  1 C        0.0310     1.4655     0.8120 C.2   1 <1>  -0.1238 
  2 C       -0.3212     2.5797     1.7426 C.3   1 <1>   0.1382 
  3 H1       0.5792     3.1211     2.0507 H     1 <1>   0.0000 
  4 H2      -0.8173     2.1905     2.6377 H     1 <1>   0.0000 
  5 H3      -0.9989     3.3020     1.2751 H     1 <1>   0.0000 
  6 C       -0.4313     1.3574    -0.4392 C.2   1 <1>  -0.0410 
  7 H       -1.1116     2.1030    -0.8412 H     1 <1>   0.1500 
  8 N       -0.0989     0.3086    -1.2751 N.am  1 <1>  -0.4691 
  9 C       -0.6725     0.1914    -2.6116 C.3   1 <1>   0.5801 
 10 H       -0.8007    -0.8733    -2.8490 H     1 <1>   0.0000 
 11 C        0.7945    -0.6840    -0.8713 C.2   1 <1>   0.6900 
 12 O        1.1632    -1.6061    -1.5975 O.2   1 <1>  -0.5700 
 13 N        1.2534    -0.5787     0.4224 N.am  1 <1>  -0.4900 
 14 H        1.8841    -1.2981     0.7505 H     1 <1>   0.3700 
 15 C        0.9371     0.4120     1.3202 C.2   1 <1>   0.6156 
 16 O        1.3799     0.4250     2.4634 O.2   1 <1>  -0.5700 
 17 O       -1.9744     0.8000    -2.6950 O.3   1 <1>  -0.5600 
 18 C       -2.2433     1.0687    -4.0804 C.3   1 <1>   0.2800 
 19 H1      -2.6299     2.0922    -4.1493 H     1 <1>   0.0000 
 20 C       -3.3193     0.0929    -4.5553 C.3   1 <1>   0.2800 
 21 H1      -4.2899     0.3626    -4.1251 H     1 <1>   0.0000 
 22 H2      -3.0938    -0.9206    -4.2025 H     1 <1>   0.0000 
 23 O       -3.4200     0.1280    -5.9719 O.3   1 <1>  -0.5512 
 24 C       -0.9159     0.9278    -4.8516 C.3   1 <1>   0.2460 
 25 N       -0.6210     2.0690    -5.7414 N.2   1 <1>  -0.5639 
 26 N       -1.4477     2.3632    -6.6376 N.1   1 <1>   1.6358 
 27 N       -2.3073     2.8723    -7.3812 N.1   1 <1>  -0.3179 
 28 H2      -0.8716    -0.0069    -5.4240 H     1 <1>   0.0000 
 29 C        0.1119     0.8755    -3.7220 C.3   1 <1>   0.0000 
 30 H1       0.4069     1.8891    -3.4214 H     1 <1>   0.0000 
 31 H2       1.0211     0.3326    -3.9975 H     1 <1>   0.0000 
 32 P       -3.6307    -1.3044    -6.7106 P.3   1 <1>   1.5136 
 33 O       -3.7346    -0.8872    -8.2532 O.3   1 <1>  -0.5424 
 34 P       -2.4747    -0.4431    -9.1371 P.3   1 <1>   1.5136 
 35 O       -3.1627     0.2484   -10.4035 O.3   1 <1>  -0.5424 
 36 O       -1.8841    -1.8279    -9.7086 O.co2 1 <1>  -0.2712 
 37 O       -1.5100     0.4374    -8.3912 O.co2 1 <1>  -0.7000 
 38 P       -2.4199     1.0548   -11.5740 P.3   1 <1>   1.5136 
 39 O       -3.3235     1.5192   -12.6736 O.co2 1 <1>  -0.7000 
 40 O       -1.2286     0.0629   -12.0254 O.co2 1 <1>  -0.2712 
 41 O       -1.6495     2.2354   -10.7823 O.co2 1 <1>  -0.2712 
 42 O       -5.1375    -1.7237    -6.3181 O.co2 1 <1>  -0.2712 
 43 O       -2.5568    -2.2983    -6.3978 O.co2 1 <1>  -0.7000 
@<TRIPOS>BOND
  1   1   2  1   
  2   1   6  2   
  3   1  15  1   
  4   2   3  1   
  5   2   4  1   
  6   2   5  1   
  7   6   7  1   
  8   6   8  1   
  9   8   9  1   
 10   8  11  am  
 11   9  10  1   
 12   9  17  1   
 13   9  29  1   
 14  11  12  2   
 15  11  13  am  
 16  13  14  1   
 17  13  15  am  
 18  15  16  2   
 19  17  18  1   
 20  18  19  1   
 21  18  20  1   
 22  18  24  1   
 23  20  21  1   
 24  20  22  1   
 25  20  23  1   
 26  23  32  1   
 27  24  25  1   
 28  24  28  1   
 29  24  29  1   
 30  25  26  2   
 31  26  27  3   
 32  29  30  1   
 33  29  31  1   
 34  32  33  1   
 35  32  42  ar  
 36  32  43  ar  
 37  33  34  1   
 38  34  35  1   
 39  34  36  ar  
 40  34  37  ar  
 41  35  38  1   
 42  38  39  ar  
 43  38  40  ar  
 44  38  41  ar  
@<TRIPOS>SUBSTRUCTURE
  1 ****  24 GROUP 4 **** **** 0

# MOE 2015.10 (io_trps.svl 2015.10)
