@<TRIPOS>MOLECULE
J11_14
33 34 1 0 0 
SMALL
USER_CHARGES


@<TRIPOS>ATOM
  1 C        1.0934     0.5493     0.1007 C.ar  1 <1>   0.1000 
  2 C       -0.0472     1.2946    -0.0818 C.ar  1 <1>  -0.1500 
  3 H       -0.1154     2.3122     0.2860 H     1 <1>   0.1500 
  4 C       -1.1145     0.6850    -0.7569 C.ar  1 <1>   0.1015 
  5 S       -2.6067     1.6336    -1.0251 S.3   1 <1>  -0.3315 
  6 C       -3.8289     0.5361    -0.2291 C.3   1 <1>   0.2300 
  7 C       -5.1888     1.2281    -0.1758 C.3   1 <1>   0.0000 
  8 C       -6.2312     0.3381     0.4856 C.3   1 <1>   0.0000 
  9 H1      -7.1995     0.8475     0.5168 H     1 <1>   0.0000 
 10 H2      -5.9432     0.0931     1.5130 H     1 <1>   0.0000 
 11 H3      -6.3573    -0.5974    -0.0688 H     1 <1>   0.0000 
 12 H2      -5.5306     1.4775    -1.1877 H     1 <1>   0.0000 
 13 H3      -5.1185     2.1659     0.3886 H     1 <1>   0.0000 
 14 H2      -3.4887     0.2965     0.7842 H     1 <1>   0.0000 
 15 H3      -3.9064    -0.3962    -0.7974 H     1 <1>   0.0000 
 16 C       -0.9937    -0.6392    -1.2432 C.ar  1 <1>  -0.1500 
 17 H       -1.8143    -1.0967    -1.7916 H     1 <1>   0.1500 
 18 C        0.1760    -1.3838    -1.0485 C.ar  1 <1>  -0.1500 
 19 H        0.2634    -2.3970    -1.4224 H     1 <1>   0.1500 
 20 C        1.2026    -0.7717    -0.3737 C.ar  1 <1>   0.1000 
 21 N        2.4701    -1.2289    -0.0280 N.pl3 1 <1>  -0.5500 
 22 H        2.8651    -2.1388    -0.2206 H     1 <1>   0.4000 
 23 C        3.1654    -0.2278     0.6532 C.2   1 <1>   0.5500 
 24 N        4.3591    -0.2339     1.1446 N.2   1 <1>  -0.6610 
 25 C        5.0992    -1.3765     1.0014 C.2   1 <1>   0.9310 
 26 O        6.3260    -1.1886     1.5639 O.3   1 <1>  -0.4300 
 27 C        7.1982    -2.3157     1.4800 C.3   1 <1>   0.2800 
 28 H1       8.1444    -2.0487     1.9587 H     1 <1>   0.0000 
 29 H2       7.3982    -2.5685     0.4341 H     1 <1>   0.0000 
 30 H3       6.7704    -3.1715     2.0114 H     1 <1>   0.0000 
 31 O        4.7439    -2.4190     0.4594 O.2   1 <1>  -0.5700 
 32 N        2.3008     0.8646     0.7247 N.pl3 1 <1>  -0.5500 
 33 H        2.5271     1.7396     1.1624 H     1 <1>   0.4000 
@<TRIPOS>BOND
  1   1   2  ar  
  2   1  20  ar  
  3   1  32  1   
  4   2   3  1   
  5   2   4  ar  
  6   4   5  1   
  7   4  16  ar  
  8   5   6  1   
  9   6   7  1   
 10   6  14  1   
 11   6  15  1   
 12   7   8  1   
 13   7  12  1   
 14   7  13  1   
 15   8   9  1   
 16   8  10  1   
 17   8  11  1   
 18  16  17  1   
 19  16  18  ar  
 20  18  19  1   
 21  18  20  ar  
 22  20  21  1   
 23  21  22  1   
 24  21  23  1   
 25  23  24  2   
 26  23  32  1   
 27  24  25  1   
 28  25  26  1   
 29  25  31  2   
 30  26  27  1   
 31  27  28  1   
 32  27  29  1   
 33  27  30  1   
 34  32  33  1   
@<TRIPOS>SUBSTRUCTURE
  1 <1>   0 RESIDUE 1 * * 1
# MOE 2007.09 (io_trps.svl 2007.09)
