@<TRIPOS>MOLECULE
J11_57
39 41 1 0 0 
SMALL
USER_CHARGES


@<TRIPOS>ATOM
  1 N        1.0746     0.6531    -0.4996 N.ar  1 <1>  -0.6200 
  2 C        0.5346     0.6811     0.7336 C.ar  1 <1>   0.1600 
  3 H        1.0625     1.2829     1.4657 H     1 <1>   0.1500 
  4 C       -0.6083    -0.0056     1.0710 C.ar  1 <1>   0.1900 
  5 F       -1.0840     0.0331     2.3211 F     1 <1>  -0.1900 
  6 C       -1.2119    -0.7574     0.0777 C.ar  1 <1>   0.1665 
  7 C       -2.4696    -1.5803     0.3163 C.3   1 <1>   0.1435 
  8 C       -3.6513    -0.6359     0.5803 C.3   1 <1>   0.0000 
  9 H1      -3.7228     0.1263    -0.2048 H     1 <1>   0.0000 
 10 H2      -3.5571    -0.1104     1.5363 H     1 <1>   0.0000 
 11 H3      -4.5993    -1.1801     0.5847 H     1 <1>   0.0000 
 12 C       -2.3040    -2.7166     1.3909 C.3   1 <1>   0.4235 
 13 C       -3.5056    -3.7232     1.3346 C.3   1 <1>   0.5030 
 14 N       -4.3941    -3.4119     2.5072 N.pl3 1 <1>  -0.5340 
 15 H2      -3.1896    -4.7681     1.4369 H     1 <1>   0.0000 
 16 H3      -4.0930    -3.6359     0.4140 H     1 <1>   0.0000 
 17 O       -2.4402    -2.1346     2.7206 O.3   1 <1>  -0.6800 
 18 H       -1.5944    -1.6823     2.9386 H     1 <1>   0.4000 
 19 C       -0.9872    -3.4813     1.2143 C.ar  1 <1>  -0.1435 
 20 H3      -2.6832    -2.0776    -0.6419 H     1 <1>   0.0000 
 21 N       -0.7009    -0.8095    -1.1770 N.ar  1 <1>  -0.6200 
 22 C        0.4195    -0.0964    -1.4007 C.ar  1 <1>   0.4700 
 23 H        0.8320    -0.1306    -2.4031 H     1 <1>   0.1500 
 24 C        0.0621    -3.3909     2.1441 C.ar  1 <1>   0.1900 
 25 F       -0.0730    -2.6113     3.2273 F     1 <1>  -0.1900 
 26 C        1.2688    -4.0611     1.9670 C.ar  1 <1>  -0.1500 
 27 H        2.0649    -3.9682     2.6974 H     1 <1>   0.1500 
 28 C        1.4450    -4.8382     0.8331 C.ar  1 <1>   0.1900 
 29 F        2.6045    -5.4821     0.6460 F     1 <1>  -0.1900 
 30 C        0.4382    -4.9490    -0.1182 C.ar  1 <1>  -0.1500 
 31 H        0.6039    -5.5528    -1.0062 H     1 <1>   0.1500 
 32 C       -0.7708    -4.2718     0.0676 C.ar  1 <1>  -0.1500 
 33 H       -1.5291    -4.3582    -0.7092 H     1 <1>   0.1500 
 34 N       -5.7839    -3.0892     2.1937 N.2   1 <1>  -0.2650 
 35 C       -6.4880    -3.8784     2.9413 C.2   1 <1>   0.6010 
 36 H       -7.5883    -3.8895     2.9481 H     1 <1>   0.0600 
 37 N       -5.7578    -4.7163     3.7386 N.2   1 <1>  -0.6610 
 38 C       -4.5300    -4.4328     3.4725 C.2   1 <1>   0.7860 
 39 H       -3.6824    -4.9387     3.9631 H     1 <1>   0.0600 
@<TRIPOS>BOND
  1   1   2  ar  
  2   1  22  ar  
  3   2   3  1   
  4   2   4  ar  
  5   4   5  1   
  6   4   6  ar  
  7   6   7  1   
  8   6  21  ar  
  9   7   8  1   
 10   7  12  1   
 11   7  20  1   
 12   8   9  1   
 13   8  10  1   
 14   8  11  1   
 15  12  13  1   
 16  12  17  1   
 17  12  19  1   
 18  13  14  1   
 19  13  15  1   
 20  13  16  1   
 21  14  34  1   
 22  14  38  1   
 23  17  18  1   
 24  19  24  ar  
 25  19  32  ar  
 26  21  22  ar  
 27  22  23  1   
 28  24  25  1   
 29  24  26  ar  
 30  26  27  1   
 31  26  28  ar  
 32  28  29  1   
 33  28  30  ar  
 34  30  31  1   
 35  30  32  ar  
 36  32  33  1   
 37  34  35  2   
 38  35  36  1   
 39  35  37  1   
 40  37  38  2   
 41  38  39  1   
@<TRIPOS>SUBSTRUCTURE
  1 ****  12 GROUP 4 **** **** 0

# MOE 2015.10 (io_trps.svl 2015.10)
