@<TRIPOS>MOLECULE
J22_03
57 62 1 0 0 
SMALL
USER_CHARGES


@<TRIPOS>ATOM
  1 C        1.0087     0.7074    -0.4938 C.3   1 <1>   0.2700 
  2 H1       1.9210     1.0862    -0.0195 H     1 <1>   0.0000 
  3 H2       1.1731     0.7345    -1.5798 H     1 <1>   0.0000 
  4 N       -0.1496     1.5511    -0.1226 N.3   1 <1>  -0.8100 
  5 C        0.0156     2.9348    -0.6010 C.3   1 <1>   0.4082 
  6 H1      -0.9631     3.4345    -0.6005 H     1 <1>   0.0000 
  7 H2       0.3587     2.9334    -1.6442 H     1 <1>   0.0000 
  8 C        0.9166     3.8017     0.2355 C.2   1 <1>  -0.1692 
  9 C       -1.3751     0.9500    -0.6913 C.3   1 <1>   0.2700 
 10 H1      -1.3550     0.9996    -1.7885 H     1 <1>   0.0000 
 11 H2      -2.2511     1.5173    -0.3539 H     1 <1>   0.0000 
 12 C       -1.5597    -0.5145    -0.2507 C.3   1 <1>   0.2700 
 13 H1      -2.4527    -0.9240    -0.7356 H     1 <1>   0.0000 
 14 H2      -1.7340    -0.5586     0.8320 H     1 <1>   0.0000 
 15 N       -0.4076    -1.3536    -0.6017 N.3   1 <1>  -0.9000 
 16 H       -0.5359    -2.2860    -0.2104 H     1 <1>   0.3600 
 17 C        0.8178    -0.7585    -0.0533 C.3   1 <1>   0.2700 
 18 H1       1.6762    -1.3482    -0.3934 H     1 <1>   0.0000 
 19 H2       0.8010    -0.8182     1.0424 H     1 <1>   0.0000 
 20 C        1.4014     3.5437     1.4701 C.2   1 <1>  -0.0490 
 21 H        1.2001     2.6490     2.0455 H     1 <1>   0.1500 
 22 S        2.4207     4.8355     2.1230 S.3   1 <1>  -0.1570 
 23 C        2.1551     5.7326     0.6644 C.2   1 <1>   0.2425 
 24 N        1.3563     5.0447    -0.1989 N.pl3 1 <1>   0.3342 
 25 C        1.2066     5.8253    -1.3102 C.2   1 <1>  -0.3016 
 26 H        0.6193     5.5080    -2.1594 H     1 <1>   0.1500 
 27 C        1.9346     6.9741    -1.0300 C.2   1 <1>   0.1732 
 28 C        2.0807     8.1445    -1.8976 C.ar  1 <1>   0.0540 
 29 N        2.5381     6.8996     0.2209 N.2   1 <1>  -0.5653 
 30 C        3.0529     9.1484    -1.6343 C.ar  1 <1>   0.1170 
 31 N        3.8979     8.9930    -0.5072 N.am  1 <1>  -0.5470 
 32 H2       3.5847     8.2631     0.1470 H     1 <1>   0.3700 
 33 C        3.1076    10.2794    -2.4612 C.ar  1 <1>  -0.1500 
 34 H        3.7616    11.1183    -2.2522 H     1 <1>   0.1500 
 35 C        2.2640    10.4013    -3.5671 C.ar  1 <1>  -0.1500 
 36 H        2.3216    11.2856    -4.1970 H     1 <1>   0.1500 
 37 C        1.3384     9.4063    -3.8502 C.ar  1 <1>  -0.1500 
 38 H        0.6775     9.5037    -4.7074 H     1 <1>   0.1500 
 39 C        1.2397     8.2921    -3.0172 C.ar  1 <1>  -0.1500 
 40 H        0.4819     7.5507    -3.2568 H     1 <1>   0.1500 
 41 C        5.0568     9.6188    -0.1022 C.2   1 <1>   0.5438 
 42 C        5.8648    10.4002    -1.0511 C.ar  1 <1>   0.3962 
 43 O        5.4990     9.4492     1.0327 O.2   1 <1>  -0.5700 
 44 N        6.0517    11.7124    -0.7747 N.ar  1 <1>  -0.6200 
 45 C        6.8139    12.4042    -1.6431 C.ar  1 <1>   0.3100 
 46 C        7.3844    11.7819    -2.7809 C.ar  1 <1>   0.3100 
 47 N        7.1889    10.4715    -3.0322 N.ar  1 <1>  -0.6200 
 48 C        6.4295     9.7866    -2.1486 C.ar  1 <1>   0.1600 
 49 H        6.2953     8.7324    -2.3603 H     1 <1>   0.1500 
 50 C        7.0460    13.7577    -1.4271 C.ar  1 <1>  -0.1500 
 51 H        6.6106    14.2369    -0.5530 H     1 <1>   0.1500 
 52 C        7.8248    14.5103    -2.3069 C.ar  1 <1>  -0.1500 
 53 H        7.9935    15.5677    -2.1188 H     1 <1>   0.1500 
 54 C        8.3824    13.9003    -3.4228 C.ar  1 <1>  -0.1500 
 55 H        8.9911    14.4759    -4.1155 H     1 <1>   0.1500 
 56 C        8.1581    12.5423    -3.6500 C.ar  1 <1>  -0.1500 
 57 H        8.5965    12.0650    -4.5233 H     1 <1>   0.1500 
@<TRIPOS>BOND
  1   1   2  1   
  2   1   3  1   
  3   1   4  1   
  4   1  17  1   
  5   4   5  1   
  6   4   9  1   
  7   5   6  1   
  8   5   7  1   
  9   5   8  1   
 10   8  20  2   
 11   8  24  1   
 12   9  10  1   
 13   9  11  1   
 14   9  12  1   
 15  12  13  1   
 16  12  14  1   
 17  12  15  1   
 18  15  16  1   
 19  15  17  1   
 20  17  18  1   
 21  17  19  1   
 22  20  21  1   
 23  20  22  1   
 24  22  23  1   
 25  23  24  1   
 26  23  29  2   
 27  24  25  1   
 28  25  26  1   
 29  25  27  2   
 30  27  28  1   
 31  27  29  1   
 32  28  30  ar  
 33  28  39  ar  
 34  30  31  1   
 35  30  33  ar  
 36  31  32  1   
 37  31  41  am  
 38  33  34  1   
 39  33  35  ar  
 40  35  36  1   
 41  35  37  ar  
 42  37  38  1   
 43  37  39  ar  
 44  39  40  1   
 45  41  42  1   
 46  41  43  2   
 47  42  44  ar  
 48  42  48  ar  
 49  44  45  ar  
 50  45  46  ar  
 51  45  50  ar  
 52  46  47  ar  
 53  46  56  ar  
 54  47  48  ar  
 55  48  49  1   
 56  50  51  1   
 57  50  52  ar  
 58  52  53  1   
 59  52  54  ar  
 60  54  55  1   
 61  54  56  ar  
 62  56  57  1   
@<TRIPOS>SUBSTRUCTURE
  1 <1>   0 RESIDUE 1 * * 1
# MOE 2007.09 (io_trps.svl 2007.09)
