@<TRIPOS>MOLECULE
J22_01
95 98 1 0 0 
SMALL
USER_CHARGES


@<TRIPOS>ATOM
  1 C        2.3980    -0.9466    -1.2084 C.ar  1 <1>  -0.1500 
  2 H        3.1160    -1.1755    -0.4339 H     1 <1>   0.1500 
  3 C        1.6227     0.2264    -1.1323 C.ar  1 <1>  -0.1435 
  4 C        1.8014     1.1714     0.0426 C.3   1 <1>  -0.0165 
  5 C        2.9711     2.1594    -0.1183 C.3   1 <1>   0.2201 
  6 C        3.2754     2.9875     1.1627 C.3   1 <1>   0.2000 
  7 C        4.6163     3.7431     1.0721 C.3   1 <1>  -0.1600 
  8 C        4.5718     5.1431     0.4408 C.3   1 <1>   0.2201 
  9 N        5.9462     5.5614     0.2691 N.am  1 <1>  -0.7301 
 10 H1       6.5650     5.4979     1.0725 H     1 <1>   0.3700 
 11 C        3.8243     6.1828     1.2928 C.3   1 <1>  -0.0165 
 12 C        3.8558     7.6055     0.7546 C.ar  1 <1>  -0.1435 
 13 H2       4.2521     6.1747     2.2954 H     1 <1>   0.0800 
 14 H3       2.7797     5.8899     1.3776 H     1 <1>   0.0800 
 15 H3       4.0868     5.0893    -0.5317 H     1 <1>   0.0800 
 16 H2       5.3119     3.1331     0.4934 H     1 <1>   0.0800 
 17 H3       5.0410     3.8452     2.0720 H     1 <1>   0.0800 
 18 O        3.3767     2.1654     2.3162 O.3   1 <1>  -0.6800 
 19 H3       2.4644     3.6971     1.3271 H     1 <1>   0.0800 
 20 N        2.6019     3.0887    -1.1911 N.am  1 <1>  -0.7301 
 21 H1       1.7456     3.6493    -1.1419 H     1 <1>   0.3700 
 22 H3       3.8606     1.5775    -0.3657 H     1 <1>   0.0800 
 23 H2       1.9772     0.5532     0.9223 H     1 <1>   0.0800 
 24 H3       0.8764     1.7235     0.2093 H     1 <1>   0.0800 
 25 C        0.6974     0.5172    -2.1531 C.ar  1 <1>  -0.1500 
 26 H        0.1039     1.4184    -2.1105 H     1 <1>   0.1500 
 27 C        0.5498    -0.3600    -3.2422 C.ar  1 <1>  -0.1500 
 28 H       -0.1580    -0.1330    -4.0268 H     1 <1>   0.1500 
 29 C        1.3266    -1.5294    -3.3152 C.ar  1 <1>  -0.1500 
 30 H        1.2156    -2.2008    -4.1546 H     1 <1>   0.1500 
 31 C        2.2513    -1.8224    -2.2981 C.ar  1 <1>  -0.1500 
 32 H        2.8510    -2.7195    -2.3553 H     1 <1>   0.1500 
 33 C        3.3905     7.8849    -0.5460 C.ar  1 <1>  -0.1500 
 34 H        3.0215     7.0909    -1.1795 H     1 <1>   0.1500 
 35 C        3.4259     9.1996    -1.0426 C.ar  1 <1>  -0.1500 
 36 H        3.0776     9.4056    -2.0456 H     1 <1>   0.1500 
 37 C        3.9222    10.2426    -0.2419 C.ar  1 <1>  -0.1500 
 38 H        3.9499    11.2518    -0.6274 H     1 <1>   0.1500 
 39 C        4.3891     9.9686     1.0555 C.ar  1 <1>  -0.1500 
 40 H        4.7770    10.7679     1.6700 H     1 <1>   0.1500 
 41 C        4.3571     8.6533     1.5522 C.ar  1 <1>  -0.1500 
 42 H        4.7264     8.4522     2.5473 H     1 <1>   0.1500 
 43 C        6.5289     5.8804    -0.8887 C.2   1 <1>   0.5690 
 44 C        8.0453     6.1546    -0.8783 C.3   1 <1>   0.2811 
 45 N        8.8015     4.9490    -0.4029 N.am  1 <1>  -0.7301 
 46 H2       9.1122     4.3098    -1.1391 H     1 <1>   0.3700 
 47 C2       8.3707     7.4171    -0.0123 C.3   1 <1>  -0.0800 
 48 C21      7.6682     8.6481    -0.6181 C.3   1 <1>  -0.2400 
 49 H211     7.9673     8.7899    -1.6575 H     1 <1>   0.0800 
 50 H212     7.9278     9.5409    -0.0484 H     1 <1>   0.0800 
 51 H213     6.5837     8.5306    -0.5741 H     1 <1>   0.0800 
 52 C22      9.8890     7.6831    -0.0189 C.3   1 <1>  -0.2400 
 53 H221    10.2560     7.7783    -1.0415 H     1 <1>   0.0800 
 54 H222    10.4155     6.8668     0.4775 H     1 <1>   0.0800 
 55 H223    10.1058     8.6028     0.5253 H     1 <1>   0.0800 
 56 H23      8.0364     7.3094     1.0202 H     1 <1>   0.0800 
 57 H3       8.3378     6.3658    -1.8979 H     1 <1>   0.0800 
 58 O        5.8808     5.9217    -1.9326 O.2   1 <1>  -0.5700 
 59 C        8.7038     4.3978     0.8266 C.2   1 <1>   0.6900 
 60 N        9.1998     3.1503     0.8771 N.am  1 <1>  -0.7301 
 61 C        8.8158     2.2367     1.9472 C.3   1 <1>   0.3211 
 62 C        7.8238     1.2913     1.2914 C.2   1 <1>   0.0462 
 63 H2       8.3423     2.7553     2.7709 H     1 <1>   0.0800 
 64 H3       9.6804     1.6631     2.2526 H     1 <1>   0.0800 
 65 H2       9.3154     2.6648    -0.0202 H     1 <1>   0.3700 
 66 O        8.2105     4.9565     1.7984 O.2   1 <1>  -0.5700 
 67 C        6.6177     0.9693     1.8286 C.2   1 <1>  -0.1100 
 68 H        6.1939     1.3141     2.7361 H     1 <1>   0.1500 
 69 S        5.7724    -0.1175     0.8197 S.3   1 <1>  -0.0800 
 70 C        7.0985    -0.0720    -0.2858 C.2   1 <1>   0.1981 
 71 C        7.0783    -0.8558    -1.5903 C.3   1 <1>   0.1000 
 72 C        6.0622    -0.2087    -2.5414 C.3   1 <1>  -0.2400 
 73 H1       6.0414    -0.7467    -3.4889 H     1 <1>   0.0800 
 74 H2       6.3490     0.8269    -2.7296 H     1 <1>   0.0800 
 75 H3       5.0637    -0.2181    -2.1044 H     1 <1>   0.0800 
 76 C        6.7181    -2.3246    -1.3154 C.3   1 <1>  -0.2400 
 77 H1       7.4196    -2.7433    -0.5927 H     1 <1>   0.0800 
 78 H2       6.7823    -2.8953    -2.2420 H     1 <1>   0.0800 
 79 H3       5.7041    -2.4044    -0.9227 H     1 <1>   0.0800 
 80 H3       8.0635    -0.8213    -2.0589 H     1 <1>   0.0800 
 81 N        8.0891     0.6897     0.0875 N.2   1 <1>  -0.5653 
 82 H        2.5025     1.8773     2.5932 H     1 <1>   0.4000 
 83 C        3.3764     3.2853    -2.2743 C.2   1 <1>   0.7800 
 84 O        2.9175     4.2696    -3.0425 O.3   1 <1>  -0.4300 
 85 C        3.7448     4.7109    -4.1370 C.3   1 <1>   0.3000 
 86 C        3.2081     6.0769    -4.4894 C.2   1 <1>  -0.1400 
 87 H2       3.6220     4.0432    -4.9794 H     1 <1>   0.0800 
 88 H3       4.7743     4.8060    -3.8179 H     1 <1>   0.0800 
 89 O        4.4010     2.6641    -2.5031 O.2   1 <1>  -0.5700 
 90 C        3.7354     7.2865    -4.1615 C.2   1 <1>   0.0772 
 91 H        4.6262     7.4003    -3.5945 H     1 <1>   0.1500 
 92 N        3.0345     8.3696    -4.6078 N.2   1 <1>  -0.5653 
 93 C        1.9785     7.9864    -5.2642 C.2   1 <1>   0.2281 
 94 H        1.2730     8.6404    -5.7092 H     1 <1>   0.1500 
 95 S        1.7646     6.2812    -5.3847 S.3   1 <1>  -0.0800 
@<TRIPOS>BOND
  1   1   2  1   
  2   1   3  ar  
  3   1  31  ar  
  4   3   4  1   
  5   3  25  ar  
  6   4   5  1   
  7   4  23  1   
  8   4  24  1   
  9   5   6  1   
 10   5  20  1   
 11   5  22  1   
 12   6   7  1   
 13   6  18  1   
 14   6  19  1   
 15   7   8  1   
 16   7  16  1   
 17   7  17  1   
 18   8   9  1   
 19   8  11  1   
 20   8  15  1   
 21   9  10  1   
 22   9  43  am  
 23  11  12  1   
 24  11  13  1   
 25  11  14  1   
 26  12  33  ar  
 27  12  41  ar  
 28  18  82  1   
 29  20  21  1   
 30  20  83  am  
 31  25  26  1   
 32  25  27  ar  
 33  27  28  1   
 34  27  29  ar  
 35  29  30  1   
 36  29  31  ar  
 37  31  32  1   
 38  33  34  1   
 39  33  35  ar  
 40  35  36  1   
 41  35  37  ar  
 42  37  38  1   
 43  37  39  ar  
 44  39  40  1   
 45  39  41  ar  
 46  41  42  1   
 47  43  44  1   
 48  43  58  2   
 49  44  45  1   
 50  44  47  1   
 51  44  57  1   
 52  45  46  1   
 53  45  59  am  
 54  47  48  1   
 55  47  52  1   
 56  47  56  1   
 57  48  49  1   
 58  48  50  1   
 59  48  51  1   
 60  52  53  1   
 61  52  54  1   
 62  52  55  1   
 63  59  60  am  
 64  59  66  2   
 65  60  61  1   
 66  60  65  1   
 67  61  62  1   
 68  61  63  1   
 69  61  64  1   
 70  62  67  2   
 71  62  81  1   
 72  67  68  1   
 73  67  69  1   
 74  69  70  1   
 75  70  71  1   
 76  70  81  2   
 77  71  72  1   
 78  71  76  1   
 79  71  80  1   
 80  72  73  1   
 81  72  74  1   
 82  72  75  1   
 83  76  77  1   
 84  76  78  1   
 85  76  79  1   
 86  83  84  1   
 87  83  89  2   
 88  84  85  1   
 89  85  86  1   
 90  85  87  1   
 91  85  88  1   
 92  86  90  2   
 93  86  95  1   
 94  90  91  1   
 95  90  92  1   
 96  92  93  2   
 97  93  94  1   
 98  93  95  1   
@<TRIPOS>SUBSTRUCTURE
  1 ****   8 GROUP 4 **** **** 0

# MOE 2015.10 (io_trps.svl 2015.10)
