JBB1_0007.mol
  ChemDraw02202411032D

 26 28  0  0  0  0  0  0  0  0999 V2000
   -1.6591   -1.6903    0.0000 O   0  0  0  0  0  0  0  0  0  0  0  0
   -1.1761   -1.0255    0.0000 C   0  0  0  0  0  0  0  0  0  0  0  0
   -1.6591   -0.3608    0.0000 N   0  0  0  0  0  0  0  0  0  0  0  0
   -2.4406   -0.6147    0.0000 C   0  0  0  0  0  0  0  0  0  0  0  0
   -3.1521   -0.2038    0.0000 C   0  0  0  0  0  0  0  0  0  0  0  0
   -3.8637   -0.6147    0.0000 C   0  0  0  0  0  0  0  0  0  0  0  0
   -3.8637   -1.4363    0.0000 C   0  0  0  0  0  0  0  0  0  0  0  0
   -3.1521   -1.8472    0.0000 C   0  0  0  0  0  0  0  0  0  0  0  0
   -2.4406   -1.4363    0.0000 C   0  0  0  0  0  0  0  0  0  0  0  0
   -0.3545   -1.0255    0.0000 N   0  0  0  0  0  0  0  0  0  0  0  0
    0.0564   -0.3139    0.0000 C   0  0  0  0  0  0  0  0  0  0  0  0
    0.8780   -0.3139    0.0000 C   0  0  0  0  0  0  0  0  0  0  0  0
    1.2889   -1.0255    0.0000 C   0  0  0  0  0  0  0  0  0  0  0  0
    2.1106   -1.0255    0.0000 C   0  0  0  0  0  0  0  0  0  0  0  0
    2.5214   -0.3139    0.0000 C   0  0  0  0  0  0  0  0  0  0  0  0
    2.1106    0.3977    0.0000 C   0  0  0  0  0  0  0  0  0  0  0  0
    1.2889    0.3977    0.0000 C   0  0  0  0  0  0  0  0  0  0  0  0
    3.3464   -0.3139    0.0000 C   0  0  0  0  0  0  0  0  0  0  0  0
   -3.1521    0.6178    0.0000 Cl  0  0  0  0  0  0  0  0  0  0  0  0
   -0.3545    0.3977    0.0000 O   0  0  0  0  0  0  0  0  0  0  0  0
    3.6868   -1.0654    0.0000 O   0  0  0  0  0  0  0  0  0  0  0  0
    3.7935    0.3794    0.0000 O   0  0  0  0  0  0  0  0  0  0  0  0
    3.4166    1.1133    0.0000 C   0  0  0  0  0  0  0  0  0  0  0  0
    3.8637    1.8066    0.0000 C   0  0  0  0  0  0  0  0  0  0  0  0
    2.5926    1.1538    0.0000 C   0  0  0  0  0  0  0  0  0  0  0  0
    3.0397    1.8472    0.0000 C   0  0  0  0  0  0  0  0  0  0  0  0
  1  2  1  0      
  2  3  2  0      
  3  4  1  0      
  4  5  1  0      
  5  6  2  0      
  6  7  1  0      
  7  8  2  0      
  8  9  1  0      
  1  9  1  0      
  4  9  2  0      
  2 10  1  0      
 10 11  1  0      
 11 12  1  0      
 13 14  1  0      
 15 16  1  0      
 17 12  1  0      
 15 18  1  0      
  5 19  1  0      
 11 20  2  0      
 17 16  1  0      
 12 13  1  0      
 15 14  1  0      
 18 21  2  0      
 18 22  1  0      
 22 23  1  0      
 23 24  1  0      
 23 25  1  0      
 23 26  1  0      
M  END
