JBB1_0003.mol
  ChemDraw02202410262D

 30 33  0  0  0  0  0  0  0  0999 V2000
   -0.3572   -0.4373    0.0000 C   0  0  0  0  0  0  0  0  0  0  0  0
    0.3572   -0.8498    0.0000 C   0  0  0  0  0  0  0  0  0  0  0  0
    1.0717   -0.4373    0.0000 C   0  0  0  0  0  0  0  0  0  0  0  0
    1.0717    0.3877    0.0000 C   0  0  0  0  0  0  0  0  0  0  0  0
    0.3572    0.8002    0.0000 C   0  0  0  0  0  0  0  0  0  0  0  0
   -0.3572    0.3877    0.0000 C   0  0  0  0  0  0  0  0  0  0  0  0
    1.7862    0.8002    0.0000 N   0  0  0  0  0  0  0  0  0  0  0  0
   -1.0717   -0.8498    0.0000 N   0  0  0  0  0  0  0  0  0  0  0  0
   -1.7862   -0.4373    0.0000 C   0  0  0  0  0  0  0  0  0  0  0  0
   -2.5006   -0.8498    0.0000 C   0  0  0  0  0  0  0  0  0  0  0  0
   -1.7862    0.3877    0.0000 O   0  0  0  0  0  0  0  0  0  0  0  0
   -3.2151   -0.4373    0.0000 C   0  0  0  0  0  0  0  0  0  0  0  0
    2.5006    0.3877    0.0000 C   0  0  0  0  0  0  0  0  0  0  0  0
    1.7862    1.6252    0.0000 C   0  0  0  0  0  0  0  0  0  0  0  0
    3.2151    0.8002    0.0000 C   0  0  0  0  0  0  0  0  0  0  0  0
    2.5006   -0.4373    0.0000 O   0  0  0  0  0  0  0  0  0  0  0  0
    3.9296    0.3877    0.0000 N   0  0  0  0  0  0  0  0  0  0  0  0
    3.2151    1.6252    0.0000 O   0  0  0  0  0  0  0  0  0  0  0  0
    4.6441    0.8002    0.0000 O   0  0  0  0  0  0  0  0  0  0  0  0
    3.9296   -0.4373    0.0000 C   0  0  0  0  0  0  0  0  0  0  0  0
    5.3585    0.3877    0.0000 C   0  0  0  0  0  0  0  0  0  0  0  0
   -3.2151    0.3877    0.0000 C   0  0  0  0  0  0  0  0  0  0  0  0
   -3.9296    0.8002    0.0000 C   0  0  0  0  0  0  0  0  0  0  0  0
   -4.6441    0.3877    0.0000 C   0  0  0  0  0  0  0  0  0  0  0  0
   -4.6441   -0.4373    0.0000 C   0  0  0  0  0  0  0  0  0  0  0  0
   -3.9296   -0.8498    0.0000 C   0  0  0  0  0  0  0  0  0  0  0  0
   -5.3585   -0.8498    0.0000 C   0  0  0  0  0  0  0  0  0  0  0  0
   -3.6952   -1.6252    0.0000 C   0  0  0  0  0  0  0  0  0  0  0  0
   -4.3645   -0.9513    0.0000 C   0  0  0  0  0  0  0  0  0  0  0  0
   -4.3421    0.0857    0.0000 C   0  0  0  0  0  0  0  0  0  0  0  0
  1  2  2  0      
  2  3  1  0      
  3  4  2  0      
  4  5  1  0      
  5  6  2  0      
  6  1  1  0      
  4  7  1  0      
  1  8  1  0      
  8  9  1  0      
  9 10  1  0      
  9 11  2  0      
 10 12  1  0      
  7 13  1  0      
  7 14  1  0      
 13 15  1  0      
 13 16  2  0      
 15 17  1  0      
 15 18  2  0      
 17 19  1  0      
 17 20  1  0      
 19 21  1  0      
 12 22  1  0      
 22 23  1  0      
 23 24  1  0      
 24 25  1  0      
 12 26  1  0      
 26 25  1  0      
 25 27  1  0      
 12 28  1  0      
 27 29  1  0      
 29 28  1  0      
 23 30  1  0      
 29 30  1  0      
M  END
