JBB14_0005.mol
  ChemDraw04092416112D

 45 46  0  0  1  0  0  0  0  0999 V2000
    2.3210   -0.5248    0.0000 C   0  0  0  0  0  0  0  0  0  0  0  0
    2.4250    0.2936    0.0000 C   0  0  0  0  0  0  0  0  0  0  0  0
    3.1858    0.6127    0.0000 N   0  0  0  0  0  0  0  0  0  0  0  0
    1.7682    0.7928    0.0000 O   0  0  0  0  0  0  0  0  0  0  0  0
    3.2816    1.4321    0.0000 C   0  0  0  0  0  0  0  0  0  0  0  0
    4.0391    1.7589    0.0000 C   0  0  0  0  0  0  0  0  0  0  0  0
    2.6199    1.9248    0.0000 C   0  0  0  0  0  0  0  0  0  0  0  0
    4.1462    2.6016    0.0000 C   0  0  0  0  0  0  0  0  0  0  0  0
    4.9688    2.6653    0.0000 O   0  0  0  0  0  0  0  0  0  0  0  0
    3.6799    3.2822    0.0000 O   0  0  0  0  0  0  0  0  0  0  0  0
    5.3249    3.4094    0.0000 C   0  0  0  0  0  0  0  0  0  0  0  0
    1.8623    1.5981    0.0000 O   0  0  0  0  0  0  0  0  0  0  0  0
    2.7157    2.7443    0.0000 C   0  0  0  0  0  0  0  0  0  0  0  0
    2.0589    3.2435    0.0000 F   0  0  0  0  0  0  0  0  0  0  0  0
   -2.3635    2.9363    0.0000 C   0  0  0  0  0  0  0  0  0  0  0  0
   -3.1272    2.6244    0.0000 C   0  0  0  0  0  0  0  0  0  0  0  0
   -3.2389    1.8070    0.0000 C   0  0  0  0  0  0  0  0  0  0  0  0
   -2.5869    1.3015    0.0000 C   0  0  0  0  0  0  0  0  0  0  0  0
   -1.8232    1.6135    0.0000 C   0  0  0  0  0  0  0  0  0  0  0  0
   -1.7114    2.4309    0.0000 C   0  0  0  0  0  0  0  0  0  0  0  0
   -1.1711    1.1081    0.0000 C   0  0  0  0  0  0  0  0  0  0  0  0
   -1.2828    0.2907    0.0000 C   0  0  0  0  0  0  0  0  0  0  0  0
   -0.6308   -0.2148    0.0000 C   0  0  0  0  0  0  0  0  0  0  0  0
   -0.4530   -1.0204    0.0000 N   0  0  0  0  0  0  0  0  0  0  0  0
    0.1330    0.0972    0.0000 O   0  0  0  0  0  0  0  0  0  0  0  0
    0.3335   -1.2693    0.0000 C   0  0  0  0  0  0  0  0  0  0  0  0
    0.5113   -2.0749    0.0000 C   0  0  0  0  0  0  0  0  0  0  0  0
   -0.0975   -2.6317    0.0000 C   0  0  0  0  0  0  0  0  0  0  0  0
    1.2979   -2.3238    0.0000 C   0  0  0  0  0  0  0  0  0  0  0  0
    0.9424   -0.7125    0.0000 C   0  0  0  0  0  0  0  0  0  0  0  0
    1.6913   -1.0586    0.0000 N   0  0  0  0  0  0  0  0  0  0  0  0
    0.8676    0.1091    0.0000 O   0  0  0  0  0  0  0  0  0  0  0  0
    3.0462   -0.9182    0.0000 C   0  0  0  0  0  0  0  0  0  0  0  0
   -2.0466   -0.0213    0.0000 N   0  0  0  0  0  0  0  0  0  0  0  0
   -2.1583   -0.8387    0.0000 C   0  0  0  0  0  0  0  0  0  0  0  0
   -2.9220   -1.1507    0.0000 O   0  0  0  0  0  0  0  0  0  0  0  0
   -1.5062   -1.3442    0.0000 O   0  0  0  0  0  0  0  0  0  0  0  0
   -3.0337   -1.9681    0.0000 C   0  0  0  0  0  0  0  0  0  0  0  0
   -3.7975   -2.2800    0.0000 C   0  0  0  0  0  0  0  0  0  0  0  0
   -4.4495   -1.7746    0.0000 C   0  0  0  0  0  0  0  0  0  0  0  0
   -5.2132   -2.0866    0.0000 C   0  0  0  0  0  0  0  0  0  0  0  0
   -5.3249   -2.9040    0.0000 C   0  0  0  0  0  0  0  0  0  0  0  0
   -4.6729   -3.4094    0.0000 C   0  0  0  0  0  0  0  0  0  0  0  0
   -3.9092   -3.0974    0.0000 C   0  0  0  0  0  0  0  0  0  0  0  0
   -3.7793    3.1298    0.0000 O   0  0  0  0  0  0  0  0  0  0  0  0
  1  2  1  0      
  2  3  1  0      
  2  4  2  0      
  3  5  1  0      
  5  6  1  6      
  5  7  1  0      
  8  9  1  0      
  8 10  2  0      
  9 11  1  0      
  7 12  2  0      
  7 13  1  0      
 13 14  1  0      
  6  8  1  0      
 15 16  2  0      
 16 17  1  0      
 17 18  2  0      
 18 19  1  0      
 19 20  2  0      
 20 15  1  0      
 19 21  1  0      
 22 21  1  1      
 22 23  1  0      
 23 24  1  0      
 23 25  2  0      
 26 24  1  1      
 26 27  1  0      
 27 28  1  0      
 27 29  1  0      
 26 30  1  0      
 30 31  1  0      
 30 32  2  0      
 31  1  1  0      
  1 33  1  6      
 22 34  1  0      
 34 35  1  0      
 35 36  1  0      
 35 37  2  0      
 36 38  1  0      
 38 39  1  0      
 39 40  2  0      
 40 41  1  0      
 41 42  2  0      
 42 43  1  0      
 43 44  2  0      
 44 39  1  0      
 16 45  1  0      
M  END
