72271
     RDKit          2D

 36 43  0  0  1  0  0  0  0  0999 V2000
    5.2356    2.3172    0.0000 O   0  0  0  0  0  0  0  0  0  0  0  0
    3.4338   -1.4246    0.0000 O   0  0  0  0  0  0  0  0  0  0  0  0
    9.2872   -2.7437    0.0000 O   0  0  0  0  0  0  0  0  0  0  0  0
   10.5107    0.6180    0.0000 O   0  0  0  0  0  0  0  0  0  0  0  0
    5.8336   -0.6474    0.0000 N   0  0  0  0  0  0  0  0  0  0  0  0
    6.5176    1.2320    0.0000 N   0  0  0  0  0  0  0  0  0  0  0  0
    1.7430   -0.0555    0.0000 N   0  0  0  0  0  0  0  0  0  0  0  0
   10.1783   -1.1645    0.0000 N   0  0  0  0  0  0  0  0  0  0  0  0
    4.7578    0.3687    0.0000 C   0  0  0  0  0  0  0  0  0  0  0  0
    3.4861   -0.4260    0.0000 C   0  0  0  0  0  0  0  0  0  0  0  0
    4.4990    1.3346    0.0000 C   0  0  0  0  0  0  0  0  0  0  0  0
    2.7089    0.2034    0.0000 C   0  0  0  0  0  0  0  0  0  0  0  0
    3.0673    1.1369    0.0000 C   0  0  0  0  0  0  0  0  0  0  0  0
    6.8184   -0.4737    0.0000 C   0  0  0  0  0  0  0  0  0  0  0  0
    7.1604    0.4660    0.0000 C   0  0  0  0  0  0  0  0  0  0  0  0
    7.4756   -1.2819    0.0000 C   0  0  0  0  0  0  0  0  0  0  0  0
    8.1833    0.6626    0.0000 C   0  0  0  0  0  0  0  0  0  0  0  0
    5.8605   -1.6408    0.0000 C   0  0  0  0  0  0  0  0  0  0  0  0
    5.0166   -0.5972    0.0000 C   0  0  0  0  0  0  0  0  0  0  0  0
    8.5027   -1.1089    0.0000 C   0  0  0  0  0  0  0  0  0  0  0  0
    7.1768    1.9757    0.0000 C   0  0  0  0  0  0  0  0  0  0  0  0
    6.7875   -1.9990    0.0000 C   0  0  0  0  0  0  0  0  0  0  0  0
    8.8590   -0.1301    0.0000 C   0  0  0  0  0  0  0  0  0  0  0  0
    8.1172    1.6543    0.0000 C   0  0  0  0  0  0  0  0  0  0  0  0
    9.3203   -1.7443    0.0000 C   0  0  0  0  0  0  0  0  0  0  0  0
    5.0447   -2.2780    0.0000 C   0  0  0  0  0  0  0  0  0  0  0  0
    9.8937   -0.1689    0.0000 C   0  0  0  0  0  0  0  0  0  0  0  0
    6.9629   -3.0193    0.0000 C   0  0  0  0  0  0  0  0  0  0  0  0
    6.9614    2.9882    0.0000 C   0  0  0  0  0  0  0  0  0  0  0  0
    8.9074    2.3231    0.0000 C   0  0  0  0  0  0  0  0  0  0  0  0
    1.0359    0.6516    0.0000 C   0  0  0  0  0  0  0  0  0  0  0  0
    2.5428   -1.8786    0.0000 C   0  0  0  0  0  0  0  0  0  0  0  0
    5.1964   -3.3020    0.0000 C   0  0  0  0  0  0  0  0  0  0  0  0
    6.1620   -3.6751    0.0000 C   0  0  0  0  0  0  0  0  0  0  0  0
    7.7359    3.6751    0.0000 C   0  0  0  0  0  0  0  0  0  0  0  0
    8.7154    3.3403    0.0000 C   0  0  0  0  0  0  0  0  0  0  0  0
  1  9  1  0
  1 11  1  0
 10  2  1  6
  2 32  1  0
 25  3  1  6
  4 27  2  0
  5  9  1  0
  5 14  1  0
  5 18  1  0
  6 11  1  0
  6 15  1  0
  6 21  1  0
 12  7  1  6
  7 31  1  0
  8 25  1  0
  8 27  1  0
  9 10  1  0
  9 19  1  1
 10 12  1  0
 11 13  1  1
 12 13  1  0
 14 15  2  0
 14 16  1  0
 15 17  1  0
 16 20  2  0
 16 22  1  0
 17 23  2  0
 17 24  1  0
 18 22  2  0
 18 26  1  0
 20 23  1  0
 20 25  1  0
 21 24  2  0
 21 29  1  0
 22 28  1  0
 23 27  1  0
 24 30  1  0
 26 33  2  0
 28 34  2  0
 29 35  2  0
 30 36  2  0
 33 34  1  0
 35 36  1  0
M  END
>  <PUBCHEM_COMPOUND_CID>  (1) 
72271

>  <PUBCHEM_COMPOUND_CANONICALIZED>  (1) 
1

>  <PUBCHEM_CACTVS_COMPLEXITY>  (1) 
935

>  <PUBCHEM_CACTVS_HBOND_ACCEPTOR>  (1) 
5

>  <PUBCHEM_CACTVS_HBOND_DONOR>  (1) 
3

>  <PUBCHEM_CACTVS_ROTATABLE_BOND>  (1) 
2

>  <PUBCHEM_CACTVS_SUBSKEYS>  (1) 
AAADceB7uAAAAAAAAAAAAAAAAAAAAWLFgAA0YMEABYAAAFix/gAAHgAQCAAADDzhngYywPPMFgCoAyVyVACCgCQlEiAI2KE4fNkLdvLA1ZGfcQhm1gHa2Qf+2fOeyAACQAASACCQAASAACQAQAAAAAAAAA==

>  <PUBCHEM_IUPAC_OPENEYE_NAME>  (1) 
(2S,3R,4R,6R,18R)-18-hydroxy-3-methoxy-2-methyl-4-(methylamino)-29-oxa-1,7,17-triazaoctacyclo[12.12.2.12,6.07,28.08,13.015,19.020,27.021,26]nonacosa-8,10,12,14,19,21,23,25,27-nonaen-16-one

>  <PUBCHEM_IUPAC_CAS_NAME>  (1) 
(2S,3R,4R,6R,18R)-18-hydroxy-3-methoxy-2-methyl-4-(methylamino)-29-oxa-1,7,17-triazaoctacyclo[12.12.2.12,6.07,28.08,13.015,19.020,27.021,26]nonacosa-8,10,12,14,19,21,23,25,27-nonaen-16-one

>  <PUBCHEM_IUPAC_NAME_MARKUP>  (1) 
(2<I>S</I>,3<I>R</I>,4<I>R</I>,6<I>R</I>,18<I>R</I>)-18-hydroxy-3-methoxy-2-methyl-4-(methylamino)-29-oxa-1,7,17-triazaoctacyclo[12.12.2.1<SUP>2,6</SUP>.0<SUP>7,28</SUP>.0<SUP>8,13</SUP>.0<SUP>15,19</SUP>.0<SUP>20,27</SUP>.0<SUP>21,26</SUP>]nonacosa-8,10,12,14,19,21,23,25,27-nonaen-16-one

>  <PUBCHEM_IUPAC_NAME>  (1) 
(2S,3R,4R,6R,18R)-18-hydroxy-3-methoxy-2-methyl-4-(methylamino)-29-oxa-1,7,17-triazaoctacyclo[12.12.2.12,6.07,28.08,13.015,19.020,27.021,26]nonacosa-8,10,12,14,19,21,23,25,27-nonaen-16-one

>  <PUBCHEM_IUPAC_SYSTEMATIC_NAME>  (1) 
(2S,3R,4R,6R,18R)-3-methoxy-2-methyl-4-(methylamino)-18-oxidanyl-29-oxa-1,7,17-triazaoctacyclo[12.12.2.12,6.07,28.08,13.015,19.020,27.021,26]nonacosa-8,10,12,14,19,21,23,25,27-nonaen-16-one

>  <PUBCHEM_IUPAC_TRADITIONAL_NAME>  (1) 
(2S,3R,4R,6R,18R)-18-hydroxy-3-methoxy-2-methyl-4-(methylamino)-29-oxa-1,7,17-triazaoctacyclo[12.12.2.12,6.07,28.08,13.015,19.020,27.021,26]nonacosa-8,10,12,14,19,21,23,25,27-nonaen-16-one

>  <PUBCHEM_IUPAC_INCHI>  (1) 
InChI=1S/C28H26N4O4/c1-28-25(35-3)15(29-2)12-18(36-28)31-16-10-6-4-8-13(16)19-21-22(27(34)30-26(21)33)20-14-9-5-7-11-17(14)32(28)24(20)23(19)31/h4-11,15,18,25,27,29,34H,12H2,1-3H3,(H,30,33)/t15-,18-,25-,27-,28+/m1/s1

>  <PUBCHEM_IUPAC_INCHIKEY>  (1) 
PBCZSGKMGDDXIJ-HQCWYSJUSA-N

>  <PUBCHEM_XLOGP3_AA>  (1) 
2.7

>  <PUBCHEM_EXACT_MASS>  (1) 
482.19540532

>  <PUBCHEM_MOLECULAR_FORMULA>  (1) 
C28H26N4O4

>  <PUBCHEM_MOLECULAR_WEIGHT>  (1) 
482.5

>  <PUBCHEM_OPENEYE_CAN_SMILES>  (1) 
CC12C(C(CC(O1)N3C4=CC=CC=C4C5=C6C(=C7C8=CC=CC=C8N2C7=C53)C(NC6=O)O)NC)OC

>  <PUBCHEM_OPENEYE_ISO_SMILES>  (1) 
C[C@@]12[C@@H]([C@@H](C[C@@H](O1)N3C4=CC=CC=C4C5=C6C(=C7C8=CC=CC=C8N2C7=C53)[C@H](NC6=O)O)NC)OC

>  <PUBCHEM_CACTVS_TPSA>  (1) 
89.7

>  <PUBCHEM_MONOISOTOPIC_WEIGHT>  (1) 
482.19540532

>  <PUBCHEM_TOTAL_CHARGE>  (1) 
0

>  <PUBCHEM_HEAVY_ATOM_COUNT>  (1) 
36

>  <PUBCHEM_ATOM_DEF_STEREO_COUNT>  (1) 
5

>  <PUBCHEM_ATOM_UDEF_STEREO_COUNT>  (1) 
0

>  <PUBCHEM_BOND_DEF_STEREO_COUNT>  (1) 
0

>  <PUBCHEM_BOND_UDEF_STEREO_COUNT>  (1) 
0

>  <PUBCHEM_ISOTOPIC_ATOM_COUNT>  (1) 
0

>  <PUBCHEM_COMPONENT_COUNT>  (1) 
1

>  <PUBCHEM_CACTVS_TAUTO_COUNT>  (1) 
-1

>  <PUBCHEM_COORDINATE_TYPE>  (1) 
1
5
255

>  <PUBCHEM_BONDANNOTATIONS>  (1) 
11  38  6
14  15  8
14  16  8
15  17  8
16  20  8
16  22  8
17  23  8
17  24  8
18  22  8
18  26  8
10  2  6
20  23  8
21  24  8
21  29  8
22  28  8
24  30  8
26  33  8
28  34  8
29  35  8
25  3  6
30  36  8
33  34  8
35  36  8
5  14  8
5  18  8
6  15  8
6  21  8
12  7  6
9  19  5

$$$$
