11387605
     RDKit          2D

 42 46  0  0  1  0  0  0  0  0999 V2000
    8.7631    2.5000    0.0000 F   0  0  0  0  0  0  0  0  0  0  0  0
    7.7631    3.5000    0.0000 F   0  0  0  0  0  0  0  0  0  0  0  0
    6.7631    2.5000    0.0000 F   0  0  0  0  0  0  0  0  0  0  0  0
   10.3611    0.0000    0.0000 O   0  0  0  0  0  0  0  0  0  0  0  0
    5.1650    1.0000    0.0000 N   0  0  0  0  0  0  0  0  0  0  0  0
    2.5878    0.7681    0.0000 N   0  0  0  0  0  0  0  0  0  0  0  0
    9.4951   -1.5000    0.0000 N   0  0  0  0  0  0  0  0  0  0  0  0
   12.9592   -1.5000    0.0000 N   0  0  0  0  0  0  0  0  0  0  0  0
   14.6913   -1.5000    0.0000 N   0  0  0  0  0  0  0  0  0  0  0  0
   13.8252   -3.0000    0.0000 N   0  0  0  0  0  0  0  0  0  0  0  0
   18.1554   -1.5000    0.0000 N   0  0  0  0  0  0  0  0  0  0  0  0
   17.2893   -0.0000    0.0000 N   0  0  0  0  0  0  0  0  0  0  0  0
    3.5823    0.6636    0.0000 C   0  0  0  0  0  0  0  0  0  0  0  0
    4.0823   -0.2024    0.0000 C   0  0  0  0  0  0  0  0  0  0  0  0
    4.2514    1.4067    0.0000 C   0  0  0  0  0  0  0  0  0  0  0  0
    5.0604    0.0055    0.0000 C   0  0  0  0  0  0  0  0  0  0  0  0
    6.0310    1.5000    0.0000 C   0  0  0  0  0  0  0  0  0  0  0  0
    6.8970    1.0000    0.0000 C   0  0  0  0  0  0  0  0  0  0  0  0
    2.0000   -0.0409    0.0000 C   0  0  0  0  0  0  0  0  0  0  0  0
    2.1810    1.6817    0.0000 C   0  0  0  0  0  0  0  0  0  0  0  0
    7.7631    1.5000    0.0000 C   0  0  0  0  0  0  0  0  0  0  0  0
    6.8970    0.0000    0.0000 C   0  0  0  0  0  0  0  0  0  0  0  0
    8.6291    1.0000    0.0000 C   0  0  0  0  0  0  0  0  0  0  0  0
    7.7631   -0.5000    0.0000 C   0  0  0  0  0  0  0  0  0  0  0  0
    7.7631    2.5000    0.0000 C   0  0  0  0  0  0  0  0  0  0  0  0
    8.6291    0.0000    0.0000 C   0  0  0  0  0  0  0  0  0  0  0  0
    9.4951   -0.5000    0.0000 C   0  0  0  0  0  0  0  0  0  0  0  0
   10.3611   -2.0000    0.0000 C   0  0  0  0  0  0  0  0  0  0  0  0
   11.2272   -1.5000    0.0000 C   0  0  0  0  0  0  0  0  0  0  0  0
   10.3611   -3.0000    0.0000 C   0  0  0  0  0  0  0  0  0  0  0  0
   12.0932   -2.0000    0.0000 C   0  0  0  0  0  0  0  0  0  0  0  0
   12.0932   -3.0000    0.0000 C   0  0  0  0  0  0  0  0  0  0  0  0
   11.2272   -3.5000    0.0000 C   0  0  0  0  0  0  0  0  0  0  0  0
   12.9592   -3.5000    0.0000 C   0  0  0  0  0  0  0  0  0  0  0  0
   13.8252   -2.0000    0.0000 C   0  0  0  0  0  0  0  0  0  0  0  0
   15.5573   -2.0000    0.0000 C   0  0  0  0  0  0  0  0  0  0  0  0
   15.5573   -3.0000    0.0000 C   0  0  0  0  0  0  0  0  0  0  0  0
   14.6913   -3.5000    0.0000 C   0  0  0  0  0  0  0  0  0  0  0  0
   16.4233   -1.5000    0.0000 C   0  0  0  0  0  0  0  0  0  0  0  0
   17.2893   -2.0000    0.0000 C   0  0  0  0  0  0  0  0  0  0  0  0
   16.4233   -0.5000    0.0000 C   0  0  0  0  0  0  0  0  0  0  0  0
   18.1554   -0.5000    0.0000 C   0  0  0  0  0  0  0  0  0  0  0  0
  1 25  1  0
  2 25  1  0
  3 25  1  0
  4 27  2  0
  5 15  1  0
  5 16  1  0
  5 17  1  0
 13  6  1  6
  6 19  1  0
  6 20  1  0
  7 27  1  0
  7 28  1  0
  8 31  1  0
  8 35  1  0
  9 35  2  0
  9 36  1  0
 10 35  1  0
 10 38  2  0
 11 40  2  0
 11 42  1  0
 12 41  1  0
 12 42  2  0
 13 14  1  0
 13 15  1  0
 14 16  1  0
 17 18  1  0
 18 21  2  0
 18 22  1  0
 21 23  1  0
 21 25  1  0
 22 24  2  0
 23 26  2  0
 24 26  1  0
 26 27  1  0
 28 29  2  0
 28 30  1  0
 29 31  1  0
 30 33  2  0
 31 32  2  0
 32 33  1  0
 32 34  1  0
 36 37  2  0
 36 39  1  0
 37 38  1  0
 39 40  1  0
 39 41  2  0
M  END
>  <PUBCHEM_COMPOUND_CID>  (1) 
11387605

>  <PUBCHEM_COMPOUND_CANONICALIZED>  (1) 
1

>  <PUBCHEM_CACTVS_COMPLEXITY>  (1) 
872

>  <PUBCHEM_CACTVS_HBOND_ACCEPTOR>  (1) 
11

>  <PUBCHEM_CACTVS_HBOND_DONOR>  (1) 
2

>  <PUBCHEM_CACTVS_ROTATABLE_BOND>  (1) 
8

>  <PUBCHEM_CACTVS_SUBSKEYS>  (1) 
AAADceB74YAAAAAAAAAAAAAAAAAAAWAAAAA8eIEAAAAAAAAB9AAAHwAQAAAADCjBnhQ/0JfIEACoAzV3dACCgCk1AqAJ2CE4ZNiIaLLA3dGUJQholALIyacYiMCOyAACAAQSAACQAAQACCQAAAAAAAAAAA==

>  <PUBCHEM_IUPAC_OPENEYE_NAME>  (1) 
4-[[(3S)-3-(dimethylamino)pyrrolidin-1-yl]methyl]-N-[4-methyl-3-[(4-pyrimidin-5-ylpyrimidin-2-yl)amino]phenyl]-3-(trifluoromethyl)benzamide

>  <PUBCHEM_IUPAC_CAS_NAME>  (1) 
4-[[(3S)-3-(dimethylamino)-1-pyrrolidinyl]methyl]-N-[4-methyl-3-[[4-(5-pyrimidinyl)-2-pyrimidinyl]amino]phenyl]-3-(trifluoromethyl)benzamide

>  <PUBCHEM_IUPAC_NAME_MARKUP>  (1) 
4-[[(3<I>S</I>)-3-(dimethylamino)pyrrolidin-1-yl]methyl]-<I>N</I>-[4-methyl-3-[(4-pyrimidin-5-ylpyrimidin-2-yl)amino]phenyl]-3-(trifluoromethyl)benzamide

>  <PUBCHEM_IUPAC_NAME>  (1) 
4-[[(3S)-3-(dimethylamino)pyrrolidin-1-yl]methyl]-N-[4-methyl-3-[(4-pyrimidin-5-ylpyrimidin-2-yl)amino]phenyl]-3-(trifluoromethyl)benzamide

>  <PUBCHEM_IUPAC_SYSTEMATIC_NAME>  (1) 
4-[[(3S)-3-(dimethylamino)pyrrolidin-1-yl]methyl]-N-[4-methyl-3-[(4-pyrimidin-5-ylpyrimidin-2-yl)amino]phenyl]-3-(trifluoromethyl)benzamide

>  <PUBCHEM_IUPAC_TRADITIONAL_NAME>  (1) 
4-[[(3S)-3-(dimethylamino)pyrrolidino]methyl]-N-[4-methyl-3-[[4-(5-pyrimidyl)pyrimidin-2-yl]amino]phenyl]-3-(trifluoromethyl)benzamide

>  <PUBCHEM_IUPAC_INCHI>  (1) 
InChI=1S/C30H31F3N8O/c1-19-4-7-23(13-27(19)39-29-36-10-8-26(38-29)22-14-34-18-35-15-22)37-28(42)20-5-6-21(25(12-20)30(31,32)33)16-41-11-9-24(17-41)40(2)3/h4-8,10,12-15,18,24H,9,11,16-17H2,1-3H3,(H,37,42)(H,36,38,39)/t24-/m0/s1

>  <PUBCHEM_IUPAC_INCHIKEY>  (1) 
ZGBAJMQHJDFTQJ-DEOSSOPVSA-N

>  <PUBCHEM_XLOGP3_AA>  (1) 
4.2

>  <PUBCHEM_EXACT_MASS>  (1) 
576.25729213

>  <PUBCHEM_MOLECULAR_FORMULA>  (1) 
C30H31F3N8O

>  <PUBCHEM_MOLECULAR_WEIGHT>  (1) 
576.6

>  <PUBCHEM_OPENEYE_CAN_SMILES>  (1) 
CC1=C(C=C(C=C1)NC(=O)C2=CC(=C(C=C2)CN3CCC(C3)N(C)C)C(F)(F)F)NC4=NC=CC(=N4)C5=CN=CN=C5

>  <PUBCHEM_OPENEYE_ISO_SMILES>  (1) 
CC1=C(C=C(C=C1)NC(=O)C2=CC(=C(C=C2)CN3CC[C@@H](C3)N(C)C)C(F)(F)F)NC4=NC=CC(=N4)C5=CN=CN=C5

>  <PUBCHEM_CACTVS_TPSA>  (1) 
99.2

>  <PUBCHEM_MONOISOTOPIC_WEIGHT>  (1) 
576.25729213

>  <PUBCHEM_TOTAL_CHARGE>  (1) 
0

>  <PUBCHEM_HEAVY_ATOM_COUNT>  (1) 
42

>  <PUBCHEM_ATOM_DEF_STEREO_COUNT>  (1) 
1

>  <PUBCHEM_ATOM_UDEF_STEREO_COUNT>  (1) 
0

>  <PUBCHEM_BOND_DEF_STEREO_COUNT>  (1) 
0

>  <PUBCHEM_BOND_UDEF_STEREO_COUNT>  (1) 
0

>  <PUBCHEM_ISOTOPIC_ATOM_COUNT>  (1) 
0

>  <PUBCHEM_COMPONENT_COUNT>  (1) 
1

>  <PUBCHEM_CACTVS_TAUTO_COUNT>  (1) 
-1

>  <PUBCHEM_COORDINATE_TYPE>  (1) 
1
5
255

>  <PUBCHEM_BONDANNOTATIONS>  (1) 
10  35  8
10  38  8
11  40  8
11  42  8
12  41  8
12  42  8
18  21  8
18  22  8
21  23  8
22  24  8
23  26  8
24  26  8
28  29  8
28  30  8
29  31  8
30  33  8
31  32  8
32  33  8
36  37  8
37  38  8
39  40  8
39  41  8
13  6  6
9  35  8
9  36  8

$$$$
