JBB20_0021.mol
  ChemDraw04102411522D

 35 38  0  0  1  0  0  0  0  0999 V2000
   -2.0113   -1.6500    0.0000 N   0  0  0  0  0  0  0  0  0  0  0  0
   -1.2968   -2.0625    0.0000 C   0  0  0  0  0  0  0  0  0  0  0  0
   -1.2968   -2.8875    0.0000 C   0  0  0  0  0  0  0  0  0  0  0  0
   -2.0113   -3.3000    0.0000 C   0  0  0  0  0  0  0  0  0  0  0  0
   -2.7257   -2.8875    0.0000 C   0  0  0  0  0  0  0  0  0  0  0  0
   -3.4402   -3.3000    0.0000 C   0  0  0  0  0  0  0  0  0  0  0  0
   -4.1547   -2.8875    0.0000 C   0  0  0  0  0  0  0  0  0  0  0  0
   -4.1547   -2.0625    0.0000 C   0  0  0  0  0  0  0  0  0  0  0  0
   -3.4402   -1.6500    0.0000 C   0  0  0  0  0  0  0  0  0  0  0  0
   -2.7257   -2.0625    0.0000 C   0  0  0  0  0  0  0  0  0  0  0  0
   -3.4402   -0.8250    0.0000 O   0  0  0  0  0  0  0  0  0  0  0  0
   -0.5823   -1.6500    0.0000 N   0  0  0  0  0  0  0  0  0  0  0  0
   -2.7257   -0.4125    0.0000 C   0  0  0  0  0  0  0  0  0  0  0  0
   -2.7257    0.4125    0.0000 C   0  0  0  0  0  0  0  0  0  0  0  0
   -2.0113    0.8250    0.0000 N   0  0  0  0  0  0  0  0  0  0  0  0
   -3.4402    0.8250    0.0000 O   0  0  0  0  0  0  0  0  0  0  0  0
   -2.0113    1.6500    0.0000 C   0  0  0  0  0  0  0  0  0  0  0  0
   -1.2968    2.0625    0.0000 C   0  0  0  0  0  0  0  0  0  0  0  0
   -0.5823    1.6500    0.0000 C   0  0  0  0  0  0  0  0  0  0  0  0
    0.1322    2.0625    0.0000 C   0  0  0  0  0  0  0  0  0  0  0  0
    0.1322    2.8875    0.0000 C   0  0  0  0  0  0  0  0  0  0  0  0
   -0.5823    3.3000    0.0000 C   0  0  0  0  0  0  0  0  0  0  0  0
   -1.2968    2.8875    0.0000 C   0  0  0  0  0  0  0  0  0  0  0  0
    0.1714   -1.9856    0.0000 C   0  0  0  0  0  0  0  0  0  0  0  0
    0.7234   -1.3725    0.0000 C   0  0  0  0  0  0  0  0  0  0  0  0
    0.3109   -0.6580    0.0000 C   0  0  0  0  0  0  0  0  0  0  0  0
   -0.4961   -0.8295    0.0000 C   0  0  0  0  0  0  0  0  0  0  0  0
    1.5439   -1.4587    0.0000 N   0  0  0  0  0  0  0  0  0  0  0  0
    2.0288   -0.7913    0.0000 C   0  0  0  0  0  0  0  0  0  0  0  0
    2.8493   -0.8775    0.0000 O   0  0  0  0  0  0  0  0  0  0  0  0
    1.6932   -0.0376    0.0000 O   0  0  0  0  0  0  0  0  0  0  0  0
    3.3342   -0.2101    0.0000 C   0  0  0  0  0  0  0  0  0  0  0  0
    4.1547   -0.2963    0.0000 C   0  0  0  0  0  0  0  0  0  0  0  0
    2.9986    0.5436    0.0000 C   0  0  0  0  0  0  0  0  0  0  0  0
    3.8191    0.4574    0.0000 C   0  0  0  0  0  0  0  0  0  0  0  0
  1  2  2  0      
  2  3  1  0      
  3  4  2  0      
  4  5  1  0      
  5  6  2  0      
  6  7  1  0      
  7  8  2  0      
  8  9  1  0      
  9 10  2  0      
  1 10  1  0      
  5 10  1  0      
  9 11  1  0      
  2 12  1  0      
 11 13  1  0      
 13 14  1  0      
 14 15  1  0      
 14 16  2  0      
 15 17  1  0      
 17 18  1  0      
 18 19  2  0      
 19 20  1  0      
 20 21  2  0      
 21 22  1  0      
 22 23  2  0      
 23 18  1  0      
 12 24  1  0      
 24 25  1  0      
 25 26  1  0      
 26 27  1  0      
 27 12  1  0      
 25 28  1  6      
 28 29  1  0      
 29 30  1  0      
 29 31  2  0      
 30 32  1  0      
 32 33  1  0      
 32 34  1  0      
 32 35  1  0      
M  END
