133065662
     RDKit          2D

132145  0  0  1  0  0  0  0  0999 V2000
   14.6151    4.0283    0.0000 Cl  0  0  0  0  0  0  0  0  0  0  0  0
   15.4385   -1.4322    0.0000 Cl  0  0  0  0  0  0  0  0  0  0  0  0
   10.2024    6.2156    0.0000 O   0  0  0  0  0  0  0  0  0  0  0  0
   11.4271    4.9909    0.0000 O   0  0  0  0  0  0  0  0  0  0  0  0
   17.2017   -0.4517    0.0000 O   0  0  0  0  0  0  0  0  0  0  0  0
   12.3237    8.3370    0.0000 O   0  0  0  0  0  0  0  0  0  0  0  0
   10.3919    8.8546    0.0000 O   0  0  0  0  0  0  0  0  0  0  0  0
   16.3356    1.0483    0.0000 O   0  0  0  0  0  0  0  0  0  0  0  0
   19.7997    1.0483    0.0000 O   0  0  0  0  0  0  0  0  0  0  0  0
   19.7997   -0.9517    0.0000 O   0  0  0  0  0  0  0  0  0  0  0  0
    8.2706    6.7334    0.0000 O   0  0  0  0  0  0  0  0  0  0  0  0
    5.1350   -0.4517    0.0000 O   0  0  0  0  0  0  0  0  0  0  0  0
   18.9337   -2.4517    0.0000 O   0  0  0  0  0  0  0  0  0  0  0  0
    6.8671   -0.4517    0.0000 O   0  0  0  0  0  0  0  0  0  0  0  0
   14.6094    2.0383    0.0000 O   0  0  0  0  0  0  0  0  0  0  0  0
   14.5144    6.8534    0.0000 O   0  0  0  0  0  0  0  0  0  0  0  0
    5.1350   -3.4517    0.0000 O   0  0  0  0  0  0  0  0  0  0  0  0
    3.4030   -2.4517    0.0000 O   0  0  0  0  0  0  0  0  0  0  0  0
    6.8671   -2.4517    0.0000 O   0  0  0  0  0  0  0  0  0  0  0  0
    8.9478    4.8910    0.0000 O   0  0  0  0  0  0  0  0  0  0  0  0
   18.9337    3.5483    0.0000 O   0  0  0  0  0  0  0  0  0  0  0  0
   16.3299   -0.9417    0.0000 O   0  0  0  0  0  0  0  0  0  0  0  0
   11.1564    3.0382    0.0000 O   0  0  0  0  0  0  0  0  0  0  0  0
    2.5369   -0.9517    0.0000 O   0  0  0  0  0  0  0  0  0  0  0  0
   11.1563   -0.9341    0.0000 O   0  0  0  0  0  0  0  0  0  0  0  0
    9.0768    0.8734    0.0000 O   0  0  0  0  0  0  0  0  0  0  0  0
    7.7216   -0.9450    0.0000 O   0  0  0  0  0  0  0  0  0  0  0  0
    5.1408    2.5383    0.0000 O   0  0  0  0  0  0  0  0  0  0  0  0
   10.2838    1.6104    0.0000 O   0  0  0  0  0  0  0  0  0  0  0  0
   14.6090   -1.9212    0.0000 O   0  0  0  0  0  0  0  0  0  0  0  0
   13.7433   -5.4150    0.0000 O   0  0  0  0  0  0  0  0  0  0  0  0
   10.7585   -5.8166    0.0000 O   0  0  0  0  0  0  0  0  0  0  0  0
   10.3023   -3.4217    0.0000 O   0  0  0  0  0  0  0  0  0  0  0  0
   15.1095   -7.7677    0.0000 O   0  0  0  0  0  0  0  0  0  0  0  0
   10.3023   -8.3951    0.0000 O   0  0  0  0  0  0  0  0  0  0  0  0
   12.8414    6.4051    0.0000 N   0  0  0  0  0  0  0  0  0  0  0  0
   18.0677    2.0483    0.0000 N   0  0  0  0  0  0  0  0  0  0  0  0
   10.3081    2.5350    0.0000 N   0  0  0  0  0  0  0  0  0  0  0  0
    8.5876    3.5283    0.0000 N   0  0  0  0  0  0  0  0  0  0  0  0
   12.0286    0.5483    0.0000 N   0  0  0  0  0  0  0  0  0  0  0  0
   12.8889   -1.9350    0.0000 N   0  0  0  0  0  0  0  0  0  0  0  0
   14.6094   -3.9217    0.0000 N   0  0  0  0  0  0  0  0  0  0  0  0
   15.4696   -6.4051    0.0000 N   0  0  0  0  0  0  0  0  0  0  0  0
   13.9923   -7.3750    0.0000 N   0  0  0  0  0  0  0  0  0  0  0  0
   11.8754    6.6639    0.0000 C   0  0  0  0  0  0  0  0  0  0  0  0
   11.6166    7.6299    0.0000 C   0  0  0  0  0  0  0  0  0  0  0  0
   10.6507    7.8887    0.0000 C   0  0  0  0  0  0  0  0  0  0  0  0
   11.1683    5.9568    0.0000 C   0  0  0  0  0  0  0  0  0  0  0  0
    9.9436    7.1816    0.0000 C   0  0  0  0  0  0  0  0  0  0  0  0
   18.0677    1.0483    0.0000 C   0  0  0  0  0  0  0  0  0  0  0  0
   18.9337    0.5483    0.0000 C   0  0  0  0  0  0  0  0  0  0  0  0
   18.9337   -0.4517    0.0000 C   0  0  0  0  0  0  0  0  0  0  0  0
   18.0677   -0.9517    0.0000 C   0  0  0  0  0  0  0  0  0  0  0  0
   17.2017    0.5483    0.0000 C   0  0  0  0  0  0  0  0  0  0  0  0
   11.1683    4.0250    0.0000 C   0  0  0  0  0  0  0  0  0  0  0  0
    8.9776    7.4404    0.0000 C   0  0  0  0  0  0  0  0  0  0  0  0
   10.3081    3.5283    0.0000 C   0  0  0  0  0  0  0  0  0  0  0  0
   18.0677   -1.9517    0.0000 C   0  0  0  0  0  0  0  0  0  0  0  0
   12.0286    3.5283    0.0000 C   0  0  0  0  0  0  0  0  0  0  0  0
   13.5485    7.1122    0.0000 C   0  0  0  0  0  0  0  0  0  0  0  0
    9.4478    4.0250    0.0000 C   0  0  0  0  0  0  0  0  0  0  0  0
   18.9337    2.5483    0.0000 C   0  0  0  0  0  0  0  0  0  0  0  0
    5.1350   -2.4517    0.0000 C   0  0  0  0  0  0  0  0  0  0  0  0
    4.2690   -1.9517    0.0000 C   0  0  0  0  0  0  0  0  0  0  0  0
    6.0010   -1.9517    0.0000 C   0  0  0  0  0  0  0  0  0  0  0  0
    4.2690   -0.9517    0.0000 C   0  0  0  0  0  0  0  0  0  0  0  0
   15.4696    0.5483    0.0000 C   0  0  0  0  0  0  0  0  0  0  0  0
    6.0010   -0.9517    0.0000 C   0  0  0  0  0  0  0  0  0  0  0  0
   12.8888    4.0250    0.0000 C   0  0  0  0  0  0  0  0  0  0  0  0
   12.0286    2.5350    0.0000 C   0  0  0  0  0  0  0  0  0  0  0  0
   19.7997    2.0483    0.0000 C   0  0  0  0  0  0  0  0  0  0  0  0
   11.1683    2.0383    0.0000 C   0  0  0  0  0  0  0  0  0  0  0  0
   11.1683    1.0450    0.0000 C   0  0  0  0  0  0  0  0  0  0  0  0
   13.2896    8.0782    0.0000 C   0  0  0  0  0  0  0  0  0  0  0  0
    8.5876    2.5350    0.0000 C   0  0  0  0  0  0  0  0  0  0  0  0
   14.6094    1.0450    0.0000 C   0  0  0  0  0  0  0  0  0  0  0  0
   20.6658    2.5483    0.0000 C   0  0  0  0  0  0  0  0  0  0  0  0
    7.7273    2.0383    0.0000 C   0  0  0  0  0  0  0  0  0  0  0  0
    7.7273    1.0450    0.0000 C   0  0  0  0  0  0  0  0  0  0  0  0
   15.4696   -0.4450    0.0000 C   0  0  0  0  0  0  0  0  0  0  0  0
   13.7491    2.5350    0.0000 C   0  0  0  0  0  0  0  0  0  0  0  0
   13.7491    3.5283    0.0000 C   0  0  0  0  0  0  0  0  0  0  0  0
   12.8888    2.0383    0.0000 C   0  0  0  0  0  0  0  0  0  0  0  0
    3.4030   -0.4517    0.0000 C   0  0  0  0  0  0  0  0  0  0  0  0
   10.3081    0.5483    0.0000 C   0  0  0  0  0  0  0  0  0  0  0  0
   13.7491   -0.4450    0.0000 C   0  0  0  0  0  0  0  0  0  0  0  0
   12.8889   -0.9417    0.0000 C   0  0  0  0  0  0  0  0  0  0  0  0
   21.5318    2.0483    0.0000 C   0  0  0  0  0  0  0  0  0  0  0  0
    6.8671    0.5483    0.0000 C   0  0  0  0  0  0  0  0  0  0  0  0
   13.7491    0.5483    0.0000 C   0  0  0  0  0  0  0  0  0  0  0  0
    8.5876    0.5483    0.0000 C   0  0  0  0  0  0  0  0  0  0  0  0
   14.6094   -0.9417    0.0000 C   0  0  0  0  0  0  0  0  0  0  0  0
    9.4478    1.0450    0.0000 C   0  0  0  0  0  0  0  0  0  0  0  0
   22.3978    2.5483    0.0000 C   0  0  0  0  0  0  0  0  0  0  0  0
   12.0286   -0.4450    0.0000 C   0  0  0  0  0  0  0  0  0  0  0  0
    6.8671    2.5350    0.0000 C   0  0  0  0  0  0  0  0  0  0  0  0
    9.3118    1.8454    0.0000 C   0  0  0  0  0  0  0  0  0  0  0  0
    6.0068    1.0450    0.0000 C   0  0  0  0  0  0  0  0  0  0  0  0
   10.3081   -0.4450    0.0000 C   0  0  0  0  0  0  0  0  0  0  0  0
   23.2638    2.0483    0.0000 C   0  0  0  0  0  0  0  0  0  0  0  0
    8.5876   -0.4450    0.0000 C   0  0  0  0  0  0  0  0  0  0  0  0
    6.0068    2.0383    0.0000 C   0  0  0  0  0  0  0  0  0  0  0  0
    9.4478   -0.9417    0.0000 C   0  0  0  0  0  0  0  0  0  0  0  0
   24.1299    2.5483    0.0000 C   0  0  0  0  0  0  0  0  0  0  0  0
   13.7491   -2.4317    0.0000 C   0  0  0  0  0  0  0  0  0  0  0  0
   24.9959    2.0483    0.0000 C   0  0  0  0  0  0  0  0  0  0  0  0
   16.3299   -1.9350    0.0000 C   0  0  0  0  0  0  0  0  0  0  0  0
   13.7491   -3.4250    0.0000 C   0  0  0  0  0  0  0  0  0  0  0  0
   25.8619    2.5483    0.0000 C   0  0  0  0  0  0  0  0  0  0  0  0
   15.4696   -2.4317    0.0000 C   0  0  0  0  0  0  0  0  0  0  0  0
   17.1901   -2.4317    0.0000 C   0  0  0  0  0  0  0  0  0  0  0  0
   12.8889   -3.9217    0.0000 C   0  0  0  0  0  0  0  0  0  0  0  0
   15.4696   -5.4117    0.0000 C   0  0  0  0  0  0  0  0  0  0  0  0
   16.3299   -4.9150    0.0000 C   0  0  0  0  0  0  0  0  0  0  0  0
   16.3299   -3.9217    0.0000 C   0  0  0  0  0  0  0  0  0  0  0  0
   14.6094   -4.9151    0.0000 C   0  0  0  0  0  0  0  0  0  0  0  0
   15.4696   -3.4250    0.0000 C   0  0  0  0  0  0  0  0  0  0  0  0
   17.1901   -3.4250    0.0000 C   0  0  0  0  0  0  0  0  0  0  0  0
   26.7279    2.0483    0.0000 C   0  0  0  0  0  0  0  0  0  0  0  0
   12.8889   -4.9151    0.0000 C   0  0  0  0  0  0  0  0  0  0  0  0
   12.0286   -3.4250    0.0000 C   0  0  0  0  0  0  0  0  0  0  0  0
   12.0286   -5.4117    0.0000 C   0  0  0  0  0  0  0  0  0  0  0  0
   11.1683   -3.9217    0.0000 C   0  0  0  0  0  0  0  0  0  0  0  0
   14.6094   -6.9017    0.0000 C   0  0  0  0  0  0  0  0  0  0  0  0
   11.1683   -4.9150    0.0000 C   0  0  0  0  0  0  0  0  0  0  0  0
   13.7491   -6.4051    0.0000 C   0  0  0  0  0  0  0  0  0  0  0  0
   12.8889   -6.9017    0.0000 C   0  0  0  0  0  0  0  0  0  0  0  0
   11.1684   -6.9017    0.0000 C   0  0  0  0  0  0  0  0  0  0  0  0
   12.0286   -6.4051    0.0000 C   0  0  0  0  0  0  0  0  0  0  0  0
   12.8889   -7.8951    0.0000 C   0  0  0  0  0  0  0  0  0  0  0  0
   11.1683   -7.8951    0.0000 C   0  0  0  0  0  0  0  0  0  0  0  0
   12.0286   -8.3917    0.0000 C   0  0  0  0  0  0  0  0  0  0  0  0
  1 82  1  0
  2110  1  0
  3 48  1  0
  3 49  1  0
 48  4  1  6
 55  4  1  6
  5 53  1  0
  5 54  1  0
 46  6  1  6
 47  7  1  1
 54  8  1  1
  8 67  1  0
 51  9  1  1
 52 10  1  6
 11 56  1  0
 12 66  1  0
 12 68  1  0
 13 58  1  0
 14 68  1  0
 14 89  1  0
 15 76  1  0
 15 81  1  0
 16 60  2  0
 63 17  1  1
 64 18  1  6
 65 19  1  1
 20 61  2  0
 21 62  2  0
 22 80  1  0
 22107  1  0
 23 72  2  0
 24 84  1  0
 25 95  2  0
 26 97  1  0
 27101  1  0
 28102  1  0
 29 97  2  0
 30105  2  0
 31116  2  0
 32122  1  0
 32128  1  0
 33123  1  0
 34124  2  0
 35131  1  0
 45 36  1  1
 36 60  1  0
 50 37  1  6
 37 62  1  0
 38 57  1  0
 38 72  1  0
 39 61  1  0
 39 75  1  0
 40 73  1  0
 40 95  1  0
 87 41  1  1
 41105  1  0
 42108  1  0
 42116  1  0
113 43  1  1
 43124  1  0
126 44  1  1
 45 46  1  0
 45 48  1  0
 46 47  1  0
 47 49  1  0
 49 56  1  6
 50 51  1  0
 50 54  1  0
 51 52  1  0
 52 53  1  0
 53 58  1  1
 55 57  1  0
 55 59  1  0
 57 61  1  6
 59 69  2  0
 59 70  1  0
 60 74  1  0
 62 71  1  0
 63 64  1  0
 63 65  1  0
 64 66  1  0
 65 68  1  0
 66 84  1  1
 67 76  2  0
 67 80  1  0
 69 82  1  0
 70 83  2  0
 71 77  1  0
 72 73  1  0
 73 85  1  6
 75 78  1  0
 75 97  1  6
 76 90  1  0
 77 88  1  0
 78 79  2  0
 78 96  1  0
 79 89  1  0
 79 91  1  0
 80 92  2  0
 81 82  2  0
 81 83  1  0
 85 93  2  0
 85 99  1  0
 86 87  1  0
 86 90  2  0
 86 92  1  0
 87 95  1  0
 88 94  1  0
 89 98  2  0
 91 93  1  0
 91101  2  0
 94100  1  0
 96102  2  0
 98102  1  0
 99103  2  0
100104  1  0
101103  1  0
104106  1  0
105108  1  0
106109  1  0
107110  2  0
107111  1  0
108112  1  1
109119  1  0
110117  1  0
111118  2  0
112120  2  0
112121  1  0
113114  1  0
113116  1  0
114115  1  0
115117  2  0
115118  1  0
120122  1  0
121123  2  0
122125  2  0
123125  1  0
124126  1  0
126127  1  0
127129  1  0
127130  2  0
128129  2  0
128131  1  0
130132  1  0
131132  2  0
M  END
>  <PUBCHEM_COMPOUND_CID>  (1) 
133065662

>  <PUBCHEM_COMPOUND_CANONICALIZED>  (1) 
1

>  <PUBCHEM_CACTVS_COMPLEXITY>  (1) 
3920

>  <PUBCHEM_CACTVS_HBOND_ACCEPTOR>  (1) 
34

>  <PUBCHEM_CACTVS_HBOND_DONOR>  (1) 
24

>  <PUBCHEM_CACTVS_ROTATABLE_BOND>  (1) 
20

>  <PUBCHEM_CACTVS_SUBSKEYS>  (1) 
AAADcfB//gAGAAAAAAAAAAAAAAAAAAAAAAA0aNGDAAAAAAABVAAAHgIQCAAADD7xmCcyDoLABgCIAiHSGACCCAAgJUAIiIGOj4gfdzeHtzu3eCvn9hWfuAf4/P/OoAADKAAYSABAAAZQADCQAAAAAAAAAA==

>  <PUBCHEM_IUPAC_OPENEYE_NAME>  (1) 
(1S,2R,19R,22R,34S,37R,40R,52S)-2-[(2R,3R,4R,5S,6R)-3-acetamido-4,5-dihydroxy-6-(hydroxymethyl)tetrahydropyran-2-yl]oxy-22-amino-5,15-dichloro-64-[(2S,3R,4R,5S,6R)-3-(decanoylamino)-4,5-dihydroxy-6-(hydroxymethyl)tetrahydropyran-2-yl]oxy-26,31,44,49-tetrahydroxy-21,35,38,54,56,59-hexaoxo-47-[(3S,4S,5S,6R)-3,4,5-trihydroxy-6-(hydroxymethyl)tetrahydropyran-2-yl]oxy-7,13,28-trioxa-20,36,39,53,55,58-hexazaundecacyclo[38.14.2.23,6.214,17.219,34.18,12.123,27.129,33.141,45.010,37.046,51]hexahexaconta-3,5,8,10,12(64),14,16,23(61),24,26,29(60),30,32,41(57),42,44,46(51),47,49,62,65-henicosaene-52-carboxylic acid

>  <PUBCHEM_IUPAC_CAS_NAME>  (1) 
(1S,2R,19R,22R,34S,37R,40R,52S)-2-[[(2R,3R,4R,5S,6R)-3-acetamido-4,5-dihydroxy-6-(hydroxymethyl)-2-oxanyl]oxy]-22-amino-5,15-dichloro-64-[[(2S,3R,4R,5S,6R)-4,5-dihydroxy-6-(hydroxymethyl)-3-(1-oxodecylamino)-2-oxanyl]oxy]-26,31,44,49-tetrahydroxy-21,35,38,54,56,59-hexaoxo-47-[[(3S,4S,5S,6R)-3,4,5-trihydroxy-6-(hydroxymethyl)-2-oxanyl]oxy]-7,13,28-trioxa-20,36,39,53,55,58-hexazaundecacyclo[38.14.2.23,6.214,17.219,34.18,12.123,27.129,33.141,45.010,37.046,51]hexahexaconta-3,5,8,10,12(64),14,16,23(61),24,26,29(60),30,32,41(57),42,44,46(51),47,49,62,65-heneicosaene-52-carboxylic acid

>  <PUBCHEM_IUPAC_NAME_MARKUP>  (1) 
(1<I>S</I>,2<I>R</I>,19<I>R</I>,22<I>R</I>,34<I>S</I>,37<I>R</I>,40<I>R</I>,52<I>S</I>)-2-[(2<I>R</I>,3<I>R</I>,4<I>R</I>,5<I>S</I>,6<I>R</I>)-3-acetamido-4,5-dihydroxy-6-(hydroxymethyl)oxan-2-yl]oxy-22-amino-5,15-dichloro-64-[(2<I>S</I>,3<I>R</I>,4<I>R</I>,5<I>S</I>,6<I>R</I>)-3-(decanoylamino)-4,5-dihydroxy-6-(hydroxymethyl)oxan-2-yl]oxy-26,31,44,49-tetrahydroxy-21,35,38,54,56,59-hexaoxo-47-[(3<I>S</I>,4<I>S</I>,5<I>S</I>,6<I>R</I>)-3,4,5-trihydroxy-6-(hydroxymethyl)oxan-2-yl]oxy-7,13,28-trioxa-20,36,39,53,55,58-hexazaundecacyclo[38.14.2.2<SUP>3,6</SUP>.2<SUP>14,17</SUP>.2<SUP>19,34</SUP>.1<SUP>8,12</SUP>.1<SUP>23,27</SUP>.1<SUP>29,33</SUP>.1<SUP>41,45</SUP>.0<SUP>10,37</SUP>.0<SUP>46,51</SUP>]hexahexaconta-3,5,8,10,12(64),14,16,23(61),24,26,29(60),30,32,41(57),42,44,46(51),47,49,62,65-henicosaene-52-carboxylic acid

>  <PUBCHEM_IUPAC_NAME>  (1) 
(1S,2R,19R,22R,34S,37R,40R,52S)-2-[(2R,3R,4R,5S,6R)-3-acetamido-4,5-dihydroxy-6-(hydroxymethyl)oxan-2-yl]oxy-22-amino-5,15-dichloro-64-[(2S,3R,4R,5S,6R)-3-(decanoylamino)-4,5-dihydroxy-6-(hydroxymethyl)oxan-2-yl]oxy-26,31,44,49-tetrahydroxy-21,35,38,54,56,59-hexaoxo-47-[(3S,4S,5S,6R)-3,4,5-trihydroxy-6-(hydroxymethyl)oxan-2-yl]oxy-7,13,28-trioxa-20,36,39,53,55,58-hexazaundecacyclo[38.14.2.23,6.214,17.219,34.18,12.123,27.129,33.141,45.010,37.046,51]hexahexaconta-3,5,8,10,12(64),14,16,23(61),24,26,29(60),30,32,41(57),42,44,46(51),47,49,62,65-henicosaene-52-carboxylic acid

>  <PUBCHEM_IUPAC_SYSTEMATIC_NAME>  (1) 
(1S,2R,19R,22R,34S,37R,40R,52S)-2-[(2R,3R,4R,5S,6R)-3-acetamido-6-(hydroxymethyl)-4,5-bis(oxidanyl)oxan-2-yl]oxy-22-azanyl-5,15-bis(chloranyl)-64-[(2S,3R,4R,5S,6R)-3-(decanoylamino)-6-(hydroxymethyl)-4,5-bis(oxidanyl)oxan-2-yl]oxy-47-[(3S,4S,5S,6R)-6-(hydroxymethyl)-3,4,5-tris(oxidanyl)oxan-2-yl]oxy-26,31,44,49-tetrakis(oxidanyl)-21,35,38,54,56,59-hexakis(oxidanylidene)-7,13,28-trioxa-20,36,39,53,55,58-hexazaundecacyclo[38.14.2.23,6.214,17.219,34.18,12.123,27.129,33.141,45.010,37.046,51]hexahexaconta-3,5,8,10,12(64),14,16,23(61),24,26,29(60),30,32,41(57),42,44,46(51),47,49,62,65-henicosaene-52-carboxylic acid

>  <PUBCHEM_IUPAC_TRADITIONAL_NAME>  (1) 
(1S,2R,19R,22R,34S,37R,40R,52S)-2-[(2R,3R,4R,5S,6R)-3-acetamido-4,5-dihydroxy-6-methylol-tetrahydropyran-2-yl]oxy-22-amino-64-[(2S,3R,4R,5S,6R)-3-(caprylamino)-4,5-dihydroxy-6-methylol-tetrahydropyran-2-yl]oxy-5,15-dichloro-26,31,44,49-tetrahydroxy-21,35,38,54,56,59-hexaketo-47-[(3S,4S,5S,6R)-3,4,5-trihydroxy-6-methylol-tetrahydropyran-2-yl]oxy-7,13,28-trioxa-20,36,39,53,55,58-hexazaundecacyclo[38.14.2.23,6.214,17.219,34.18,12.123,27.129,33.141,45.010,37.046,51]hexahexaconta-3,5,8,10,12(64),14,16,23(61),24,26,29(60),30,32,41(57),42,44,46(51),47,49,62,65-heneicosaene-52-carboxylic acid

>  <PUBCHEM_IUPAC_INCHI>  (1) 
InChI=1S/C88H97Cl2N9O33/c1-3-4-5-6-7-8-9-10-60(108)94-68-74(113)71(110)58(32-101)129-87(68)132-78-55-26-40-27-56(78)126-52-18-14-38(24-47(52)90)77(131-86-67(92-34(2)103)73(112)70(109)57(31-100)128-86)69-84(121)98-66(85(122)123)45-29-42(105)30-54(127-88-76(115)75(114)72(111)59(33-102)130-88)61(45)44-23-37(13-15-49(44)106)63(81(118)99-69)96-83(120)65(40)97-82(119)64-39-21-41(104)28-43(22-39)124-53-25-36(12-16-50(53)107)62(91)80(117)93-48(79(116)95-64)20-35-11-17-51(125-55)46(89)19-35/h11-19,21-30,48,57-59,62-77,86-88,100-102,104-107,109-115H,3-10,20,31-33,91H2,1-2H3,(H,92,103)(H,93,117)(H,94,108)(H,95,116)(H,96,120)(H,97,119)(H,98,121)(H,99,118)(H,122,123)/t48-,57-,58-,59-,62-,63-,64+,65-,66+,67-,68-,69+,70-,71-,72-,73-,74-,75+,76+,77-,86+,87+,88?/m1/s1

>  <PUBCHEM_IUPAC_INCHIKEY>  (1) 
BJNLLBUOHPVGFT-CAYRISATSA-N

>  <PUBCHEM_XLOGP3_AA>  (1) 
0.5

>  <PUBCHEM_EXACT_MASS>  (1) 
1877.5565820

>  <PUBCHEM_MOLECULAR_FORMULA>  (1) 
C88H97Cl2N9O33

>  <PUBCHEM_MOLECULAR_WEIGHT>  (1) 
1879.7

>  <PUBCHEM_OPENEYE_CAN_SMILES>  (1) 
CCCCCCCCCC(=O)NC1C(C(C(OC1OC2=C3C=C4C=C2OC5=C(C=C(C=C5)C(C6C(=O)NC(C7=C(C(=CC(=C7)O)OC8C(C(C(C(O8)CO)O)O)O)C9=C(C=CC(=C9)C(C(=O)N6)NC(=O)C4NC(=O)C1C2=CC(=CC(=C2)OC2=C(C=CC(=C2)C(C(=O)NC(CC2=CC(=C(O3)C=C2)Cl)C(=O)N1)N)O)O)O)C(=O)O)OC1C(C(C(C(O1)CO)O)O)NC(=O)C)Cl)CO)O)O

>  <PUBCHEM_OPENEYE_ISO_SMILES>  (1) 
CCCCCCCCCC(=O)N[C@@H]1[C@H]([C@@H]([C@H](O[C@H]1OC2=C3C=C4C=C2OC5=C(C=C(C=C5)[C@H]([C@H]6C(=O)N[C@@H](C7=C(C(=CC(=C7)O)OC8[C@H]([C@H]([C@@H]([C@H](O8)CO)O)O)O)C9=C(C=CC(=C9)[C@H](C(=O)N6)NC(=O)[C@@H]4NC(=O)[C@@H]1C2=CC(=CC(=C2)OC2=C(C=CC(=C2)[C@H](C(=O)N[C@H](CC2=CC(=C(O3)C=C2)Cl)C(=O)N1)N)O)O)O)C(=O)O)O[C@H]1[C@@H]([C@H]([C@@H]([C@H](O1)CO)O)O)NC(=O)C)Cl)CO)O)O

>  <PUBCHEM_CACTVS_TPSA>  (1) 
662

>  <PUBCHEM_MONOISOTOPIC_WEIGHT>  (1) 
1877.5565820

>  <PUBCHEM_TOTAL_CHARGE>  (1) 
0

>  <PUBCHEM_HEAVY_ATOM_COUNT>  (1) 
132

>  <PUBCHEM_ATOM_DEF_STEREO_COUNT>  (1) 
22

>  <PUBCHEM_ATOM_UDEF_STEREO_COUNT>  (1) 
1

>  <PUBCHEM_BOND_DEF_STEREO_COUNT>  (1) 
0

>  <PUBCHEM_BOND_UDEF_STEREO_COUNT>  (1) 
0

>  <PUBCHEM_ISOTOPIC_ATOM_COUNT>  (1) 
0

>  <PUBCHEM_COMPONENT_COUNT>  (1) 
1

>  <PUBCHEM_CACTVS_TAUTO_COUNT>  (1) 
-1

>  <PUBCHEM_COORDINATE_TYPE>  (1) 
1
5
255

>  <PUBCHEM_BONDANNOTATIONS>  (1) 
52  10  6
101  103  8
107  110  8
107  111  8
108  202  6
110  117  8
111  118  8
112  120  8
112  121  8
113  210  6
115  117  8
115  118  8
120  122  8
121  123  8
122  125  8
123  125  8
127  129  8
127  130  8
128  129  8
128  131  8
130  132  8
131  132  8
68  14  3
63  17  5
64  18  6
65  19  5
45  36  5
50  37  6
48  4  6
55  4  6
126  44  6
49  56  6
53  58  5
57  147  5
59  69  8
59  70  8
46  6  6
66  84  5
67  76  8
67  80  8
69  82  8
47  7  5
70  83  8
73  166  5
75  97  6
76  90  8
78  79  8
78  96  8
79  89  8
54  8  5
80  92  8
81  82  8
81  83  8
85  93  8
85  99  8
86  90  8
86  92  8
87  178  6
89  98  8
51  9  5
91  101  8
91  93  8
96  102  8
98  102  8
99  103  8

$$$$
