644197
     RDKit          2D

 47 47  0  0  1  0  0  0  0  0999 V2000
   10.6603   -1.5600    0.0000 S   0  0  0  0  0  0  0  0  0  0  0  0
   14.9904    0.9400    0.0000 F   0  0  0  0  0  0  0  0  0  0  0  0
    8.0622   -0.0600    0.0000 O   0  0  0  0  0  0  0  0  0  0  0  0
   10.6603    2.4400    0.0000 O   0  0  0  0  0  0  0  0  0  0  0  0
    5.4641    2.4400    0.0000 O   0  0  0  0  0  0  0  0  0  0  0  0
    7.1962    4.4400    0.0000 O   0  0  0  0  0  0  0  0  0  0  0  0
   13.2583   -0.0600    0.0000 O   0  0  0  0  0  0  0  0  0  0  0  0
   13.2583    3.9400    0.0000 O   0  0  0  0  0  0  0  0  0  0  0  0
    2.8660    2.9400    0.0000 O   0  0  0  0  0  0  0  0  0  0  0  0
    3.7320   -1.5600    0.0000 O   0  0  0  0  0  0  0  0  0  0  0  0
   14.1244    2.4400    0.0000 O   0  0  0  0  0  0  0  0  0  0  0  0
    4.5981    2.9400    0.0000 O   0  0  0  0  0  0  0  0  0  0  0  0
    2.8660   -0.0600    0.0000 O   0  0  0  0  0  0  0  0  0  0  0  0
    8.9282    1.4400    0.0000 N   0  0  0  0  0  0  0  0  0  0  0  0
    6.3301    0.9400    0.0000 N   0  0  0  0  0  0  0  0  0  0  0  0
   11.5263    0.9400    0.0000 N   0  0  0  0  0  0  0  0  0  0  0  0
    4.5981   -0.0600    0.0000 N   0  0  0  0  0  0  0  0  0  0  0  0
    8.9282    4.4400    0.0000 N   0  0  0  0  0  0  0  0  0  0  0  0
    7.1962    1.4400    0.0000 C   0  0  0  0  0  0  0  0  0  0  0  0
    9.7942    0.9400    0.0000 C   0  0  0  0  0  0  0  0  0  0  0  0
    7.1962    2.4400    0.0000 C   0  0  0  0  0  0  0  0  0  0  0  0
    9.7942   -0.0600    0.0000 C   0  0  0  0  0  0  0  0  0  0  0  0
    8.0622    0.9400    0.0000 C   0  0  0  0  0  0  0  0  0  0  0  0
   10.6603    1.4400    0.0000 C   0  0  0  0  0  0  0  0  0  0  0  0
    8.0622    2.9400    0.0000 C   0  0  0  0  0  0  0  0  0  0  0  0
   12.3923    1.4400    0.0000 C   0  0  0  0  0  0  0  0  0  0  0  0
    4.5981    0.9400    0.0000 C   0  0  0  0  0  0  0  0  0  0  0  0
   10.6603   -0.5600    0.0000 C   0  0  0  0  0  0  0  0  0  0  0  0
    5.4641    1.4400    0.0000 C   0  0  0  0  0  0  0  0  0  0  0  0
   12.3923    2.4400    0.0000 C   0  0  0  0  0  0  0  0  0  0  0  0
    3.7320    1.4400    0.0000 C   0  0  0  0  0  0  0  0  0  0  0  0
    8.0622    3.9400    0.0000 C   0  0  0  0  0  0  0  0  0  0  0  0
   13.2583    0.9400    0.0000 C   0  0  0  0  0  0  0  0  0  0  0  0
   13.2583    2.9400    0.0000 C   0  0  0  0  0  0  0  0  0  0  0  0
    3.7320    2.4400    0.0000 C   0  0  0  0  0  0  0  0  0  0  0  0
   14.1244    1.4400    0.0000 C   0  0  0  0  0  0  0  0  0  0  0  0
    3.7320   -0.5600    0.0000 C   0  0  0  0  0  0  0  0  0  0  0  0
   11.5263   -2.0600    0.0000 C   0  0  0  0  0  0  0  0  0  0  0  0
    2.8660   -2.0600    0.0000 C   0  0  0  0  0  0  0  0  0  0  0  0
   14.1244    4.4400    0.0000 C   0  0  0  0  0  0  0  0  0  0  0  0
    2.8660    3.9400    0.0000 C   0  0  0  0  0  0  0  0  0  0  0  0
    2.8660   -3.0600    0.0000 C   0  0  0  0  0  0  0  0  0  0  0  0
    3.7320   -3.5600    0.0000 C   0  0  0  0  0  0  0  0  0  0  0  0
    2.0000   -3.5600    0.0000 C   0  0  0  0  0  0  0  0  0  0  0  0
    3.7320   -4.5600    0.0000 C   0  0  0  0  0  0  0  0  0  0  0  0
    2.0000   -4.5600    0.0000 C   0  0  0  0  0  0  0  0  0  0  0  0
    2.8660   -5.0600    0.0000 C   0  0  0  0  0  0  0  0  0  0  0  0
  1 28  1  0
  1 38  1  0
  2 36  1  0
  3 23  2  0
  4 24  2  0
  5 29  2  0
  6 32  2  0
  7 33  2  0
  8 34  1  0
  8 40  1  0
  9 35  1  0
  9 41  1  0
 10 37  1  0
 10 39  1  0
 11 34  2  0
 12 35  2  0
 13 37  2  0
 20 14  1  0
 14 23  1  0
 19 15  1  0
 15 29  1  0
 16 24  1  0
 26 16  1  0
 27 17  1  0
 17 37  1  0
 18 32  1  0
 19 21  1  1
 19 23  1  0
 20 22  1  6
 20 24  1  0
 21 25  1  0
 22 28  1  0
 25 32  1  0
 26 30  1  1
 26 33  1  0
 27 29  1  0
 27 31  1  1
 30 34  1  0
 31 35  1  0
 33 36  1  0
 39 42  1  0
 42 43  2  0
 42 44  1  0
 43 45  1  0
 44 46  2  0
 45 47  2  0
 46 47  1  0
M  END
>  <PUBCHEM_COMPOUND_CID>  (1) 
644197

>  <PUBCHEM_COMPOUND_CANONICALIZED>  (1) 
1

>  <PUBCHEM_CACTVS_COMPLEXITY>  (1) 
1110

>  <PUBCHEM_CACTVS_HBOND_ACCEPTOR>  (1) 
13

>  <PUBCHEM_CACTVS_HBOND_DONOR>  (1) 
5

>  <PUBCHEM_CACTVS_ROTATABLE_BOND>  (1) 
24

>  <PUBCHEM_CACTVS_SUBSKEYS>  (1) 
AAADcfB7vQBAAAAAAAAAAAAAAAAAAAAAAAAwAAAAAAAAAAABAAAAHwQQAAAADCzl2AayCILABAiIAqHSGAACAAAgABAIiIGICIkIZjqgsTicMAAm1gGIqAe/wyAOAAAAAAAAAAAAAAAAAAAAAAAAAAAAAA==

>  <PUBCHEM_IUPAC_OPENEYE_NAME>  (1) 
methyl (3S)-3-[[(2S)-2-[[(2S)-5-amino-2-[[(2S)-2-(benzyloxycarbonylamino)-4-methoxy-4-oxo-butanoyl]amino]-5-oxo-pentanoyl]amino]-4-methylsulfanyl-butanoyl]amino]-5-fluoro-4-oxo-pentanoate

>  <PUBCHEM_IUPAC_CAS_NAME>  (1) 
(3S)-3-[[(2S)-2-[[(2S)-5-amino-2-[[(2S)-4-methoxy-1,4-dioxo-2-(phenylmethoxycarbonylamino)butyl]amino]-1,5-dioxopentyl]amino]-4-(methylthio)-1-oxobutyl]amino]-5-fluoro-4-oxopentanoic acid methyl ester

>  <PUBCHEM_IUPAC_NAME_MARKUP>  (1) 
methyl (3<I>S</I>)-3-[[(2<I>S</I>)-2-[[(2<I>S</I>)-5-amino-2-[[(2<I>S</I>)-4-methoxy-4-oxo-2-(phenylmethoxycarbonylamino)butanoyl]amino]-5-oxopentanoyl]amino]-4-methylsulfanylbutanoyl]amino]-5-fluoro-4-oxopentanoate

>  <PUBCHEM_IUPAC_NAME>  (1) 
methyl (3S)-3-[[(2S)-2-[[(2S)-5-amino-2-[[(2S)-4-methoxy-4-oxo-2-(phenylmethoxycarbonylamino)butanoyl]amino]-5-oxopentanoyl]amino]-4-methylsulfanylbutanoyl]amino]-5-fluoro-4-oxopentanoate

>  <PUBCHEM_IUPAC_SYSTEMATIC_NAME>  (1) 
methyl (3S)-3-[[(2S)-2-[[(2S)-5-azanyl-2-[[(2S)-4-methoxy-4-oxidanylidene-2-(phenylmethoxycarbonylamino)butanoyl]amino]-5-oxidanylidene-pentanoyl]amino]-4-methylsulfanyl-butanoyl]amino]-5-fluoranyl-4-oxidanylidene-pentanoate

>  <PUBCHEM_IUPAC_TRADITIONAL_NAME>  (1) 
(3S)-3-[[(2S)-2-[[(2S)-5-amino-2-[[(2S)-2-(benzyloxycarbonylamino)-4-keto-4-methoxy-butanoyl]amino]-5-keto-pentanoyl]amino]-4-(methylthio)butanoyl]amino]-5-fluoro-4-keto-valeric acid methyl ester

>  <PUBCHEM_IUPAC_INCHI>  (1) 
InChI=1S/C29H40FN5O11S/c1-44-24(38)13-20(22(36)15-30)34-27(41)19(11-12-47-3)33-26(40)18(9-10-23(31)37)32-28(42)21(14-25(39)45-2)35-29(43)46-16-17-7-5-4-6-8-17/h4-8,18-21H,9-16H2,1-3H3,(H2,31,37)(H,32,42)(H,33,40)(H,34,41)(H,35,43)/t18-,19-,20-,21-/m0/s1

>  <PUBCHEM_IUPAC_INCHIKEY>  (1) 
QFITYVNVMNJELE-TUFLPTIASA-N

>  <PUBCHEM_XLOGP3_AA>  (1) 
-0.4

>  <PUBCHEM_EXACT_MASS>  (1) 
685.24290644

>  <PUBCHEM_MOLECULAR_FORMULA>  (1) 
C29H40FN5O11S

>  <PUBCHEM_MOLECULAR_WEIGHT>  (1) 
685.7

>  <PUBCHEM_OPENEYE_CAN_SMILES>  (1) 
COC(=O)CC(C(=O)CF)NC(=O)C(CCSC)NC(=O)C(CCC(=O)N)NC(=O)C(CC(=O)OC)NC(=O)OCC1=CC=CC=C1

>  <PUBCHEM_OPENEYE_ISO_SMILES>  (1) 
COC(=O)C[C@@H](C(=O)CF)NC(=O)[C@H](CCSC)NC(=O)[C@H](CCC(=O)N)NC(=O)[C@H](CC(=O)OC)NC(=O)OCC1=CC=CC=C1

>  <PUBCHEM_CACTVS_TPSA>  (1) 
264

>  <PUBCHEM_MONOISOTOPIC_WEIGHT>  (1) 
685.24290644

>  <PUBCHEM_TOTAL_CHARGE>  (1) 
0

>  <PUBCHEM_HEAVY_ATOM_COUNT>  (1) 
47

>  <PUBCHEM_ATOM_DEF_STEREO_COUNT>  (1) 
4

>  <PUBCHEM_ATOM_UDEF_STEREO_COUNT>  (1) 
0

>  <PUBCHEM_BOND_DEF_STEREO_COUNT>  (1) 
0

>  <PUBCHEM_BOND_UDEF_STEREO_COUNT>  (1) 
0

>  <PUBCHEM_ISOTOPIC_ATOM_COUNT>  (1) 
0

>  <PUBCHEM_COMPONENT_COUNT>  (1) 
1

>  <PUBCHEM_CACTVS_TAUTO_COUNT>  (1) 
-1

>  <PUBCHEM_COORDINATE_TYPE>  (1) 
1
5
255

>  <PUBCHEM_BONDANNOTATIONS>  (1) 
20  14  6
19  15  5
26  16  5
27  17  5
42  43  8
42  44  8
43  45  8
44  46  8
45  47  8
46  47  8

$$$$
