JBB20_0038.mol
  ChemDraw04102412462D

 30 33  0  0  0  0  0  0  0  0999 V2000
   -1.0673    0.2054    0.0000 C   0  0  0  0  0  0  0  0  0  0  0  0
   -0.3558   -0.2054    0.0000 N   0  0  0  0  0  0  0  0  0  0  0  0
    0.3558    0.2054    0.0000 C   0  0  0  0  0  0  0  0  0  0  0  0
    0.3558    1.0270    0.0000 C   0  0  0  0  0  0  0  0  0  0  0  0
   -0.3558    1.4378    0.0000 C   0  0  0  0  0  0  0  0  0  0  0  0
   -1.0673    1.0270    0.0000 N   0  0  0  0  0  0  0  0  0  0  0  0
    1.0673   -0.2054    0.0000 O   0  0  0  0  0  0  0  0  0  0  0  0
   -1.7789   -0.2054    0.0000 S   0  0  0  0  0  0  0  0  0  0  0  0
    1.7789    0.2054    0.0000 C   0  0  0  0  0  0  0  0  0  0  0  0
    3.2019    0.2054    0.0000 O   0  0  0  0  0  0  0  0  0  0  0  0
    3.2019    1.0270    0.0000 C   0  0  0  0  0  0  0  0  0  0  0  0
   -1.7789   -1.0270    0.0000 C   0  0  0  0  0  0  0  0  0  0  0  0
   -2.4904   -1.4378    0.0000 C   0  0  0  0  0  0  0  0  0  0  0  0
   -3.2019   -1.0270    0.0000 C   0  0  0  0  0  0  0  0  0  0  0  0
   -3.9135   -1.4378    0.0000 C   0  0  0  0  0  0  0  0  0  0  0  0
   -3.9135   -2.2595    0.0000 C   0  0  0  0  0  0  0  0  0  0  0  0
   -3.2019   -2.6703    0.0000 C   0  0  0  0  0  0  0  0  0  0  0  0
   -2.4904   -2.2595    0.0000 C   0  0  0  0  0  0  0  0  0  0  0  0
    3.9135    1.4378    0.0000 C   0  0  0  0  0  0  0  0  0  0  0  0
    3.9135    2.2595    0.0000 C   0  0  0  0  0  0  0  0  0  0  0  0
    3.2019    2.6703    0.0000 O   0  0  0  0  0  0  0  0  0  0  0  0
    2.4904    2.2595    0.0000 C   0  0  0  0  0  0  0  0  0  0  0  0
    2.4904    1.4378    0.0000 C   0  0  0  0  0  0  0  0  0  0  0  0
    1.7789    2.6703    0.0000 C   0  0  0  0  0  0  0  0  0  0  0  0
    1.0673    2.2595    0.0000 C   0  0  0  0  0  0  0  0  0  0  0  0
    1.0673    1.4378    0.0000 C   0  0  0  0  0  0  0  0  0  0  0  0
    1.7789    1.0270    0.0000 C   0  0  0  0  0  0  0  0  0  0  0  0
    4.6250    2.6703    0.0000 O   0  0  0  0  0  0  0  0  0  0  0  0
   -4.6250   -1.0270    0.0000 C   0  0  0  0  0  0  0  0  0  0  0  0
    2.4904   -0.2054    0.0000 C   0  0  0  0  0  0  0  0  0  0  0  0
  1  2  1  0      
  2  3  2  0      
  3  4  1  0      
  4  5  2  0      
  5  6  1  0      
  1  6  2  0      
  3  7  1  0      
  1  8  1  0      
  7  9  1  0      
 10 11  1  0      
  8 12  1  0      
 12 13  1  0      
 13 14  2  0      
 14 15  1  0      
 15 16  2  0      
 16 17  1  0      
 17 18  2  0      
 18 13  1  0      
 11 19  2  0      
 19 20  1  0      
 20 21  1  0      
 21 22  1  0      
 22 23  2  0      
 23 11  1  0      
 22 24  1  0      
 24 25  2  0      
 25 26  1  0      
 26 27  2  0      
 27 23  1  0      
 20 28  2  0      
 15 29  1  0      
  9 30  1  0      
 30 10  1  0      
M  END
