115358
     RDKit          2D

 33 35  0  0  1  0  0  0  0  0999 V2000
    2.0000    2.5600    0.0000 F   0  0  0  0  0  0  0  0  0  0  0  0
    2.3660    3.9260    0.0000 F   0  0  0  0  0  0  0  0  0  0  0  0
    3.3660    2.1940    0.0000 F   0  0  0  0  0  0  0  0  0  0  0  0
    6.3301    3.0600    0.0000 O   0  0  0  0  0  0  0  0  0  0  0  0
    4.5981    2.0600    0.0000 O   0  0  0  0  0  0  0  0  0  0  0  0
    9.8602    0.0359    0.0000 O   0  0  0  0  0  0  0  0  0  0  0  0
    6.3301   -0.9400    0.0000 N   0  0  0  0  0  0  0  0  0  0  0  0
    8.0901    0.0253    0.0000 N   0  0  0  0  0  0  0  0  0  0  0  0
    3.7320   -4.4400    0.0000 N   0  0  0  0  0  0  0  0  0  0  0  0
    5.4641   -1.4400    0.0000 C   0  0  0  0  0  0  0  0  0  0  0  0
    5.4641   -2.4400    0.0000 C   0  0  0  0  0  0  0  0  0  0  0  0
    4.5981   -2.9400    0.0000 C   0  0  0  0  0  0  0  0  0  0  0  0
    6.3301    0.0600    0.0000 C   0  0  0  0  0  0  0  0  0  0  0  0
    4.5981   -0.9400    0.0000 C   0  0  0  0  0  0  0  0  0  0  0  0
    7.1962    0.5600    0.0000 C   0  0  0  0  0  0  0  0  0  0  0  0
    7.1962    1.5600    0.0000 C   0  0  0  0  0  0  0  0  0  0  0  0
    4.5981   -3.9400    0.0000 C   0  0  0  0  0  0  0  0  0  0  0  0
    5.4641    0.5600    0.0000 C   0  0  0  0  0  0  0  0  0  0  0  0
    6.3301    2.0600    0.0000 C   0  0  0  0  0  0  0  0  0  0  0  0
    8.0901    2.0947    0.0000 C   0  0  0  0  0  0  0  0  0  0  0  0
    5.4641    1.5600    0.0000 C   0  0  0  0  0  0  0  0  0  0  0  0
    8.9962    1.5808    0.0000 C   0  0  0  0  0  0  0  0  0  0  0  0
    8.9962    0.5392    0.0000 C   0  0  0  0  0  0  0  0  0  0  0  0
    8.0785    3.0946    0.0000 C   0  0  0  0  0  0  0  0  0  0  0  0
    5.4641    3.5600    0.0000 C   0  0  0  0  0  0  0  0  0  0  0  0
    4.5981    3.0600    0.0000 C   0  0  0  0  0  0  0  0  0  0  0  0
    3.7320    1.5600    0.0000 C   0  0  0  0  0  0  0  0  0  0  0  0
    5.4641    4.5600    0.0000 C   0  0  0  0  0  0  0  0  0  0  0  0
    3.7320    3.5600    0.0000 C   0  0  0  0  0  0  0  0  0  0  0  0
    4.5981    5.0600    0.0000 C   0  0  0  0  0  0  0  0  0  0  0  0
    3.7320    4.5600    0.0000 C   0  0  0  0  0  0  0  0  0  0  0  0
   10.7282    0.5325    0.0000 C   0  0  0  0  0  0  0  0  0  0  0  0
    2.8660    3.0600    0.0000 C   0  0  0  0  0  0  0  0  0  0  0  0
  1 33  1  0
  2 33  1  0
  3 33  1  0
  4 19  1  0
  4 25  1  0
  5 21  1  0
  5 27  1  0
  6 23  1  0
  6 32  1  0
  7 10  1  0
  7 13  1  0
  8 15  2  0
  8 23  1  0
  9 17  1  0
 10 11  1  0
 10 14  1  0
 11 12  1  0
 12 17  1  0
 13 15  1  0
 13 18  2  0
 15 16  1  0
 16 19  1  0
 16 20  2  0
 18 21  1  0
 19 21  2  0
 20 22  1  0
 20 24  1  0
 22 23  2  0
 25 26  2  0
 25 28  1  0
 26 29  1  0
 28 30  2  0
 29 31  2  0
 29 33  1  0
 30 31  1  0
M  END
>  <PUBCHEM_COMPOUND_CID>  (1) 
115358

>  <PUBCHEM_COMPOUND_CANONICALIZED>  (1) 
1

>  <PUBCHEM_CACTVS_COMPLEXITY>  (1) 
597

>  <PUBCHEM_CACTVS_HBOND_ACCEPTOR>  (1) 
9

>  <PUBCHEM_CACTVS_HBOND_DONOR>  (1) 
2

>  <PUBCHEM_CACTVS_ROTATABLE_BOND>  (1) 
9

>  <PUBCHEM_CACTVS_SUBSKEYS>  (1) 
AAADceB7MYAAAAAAAAAAAAAAAAAAAAAAAAA8YIAAAAAAAACx9AAAHwAQAAAADCzBnhYyxvLIFACgAyRiRACCiCAhMiAImKA+/JgNZuLEsZuWOCrm0BnK6Aew8P8OgEABQgAKQCAAgAKEABSAQAAAAAAAAA==

>  <PUBCHEM_IUPAC_OPENEYE_NAME>  (1) 
N4-[2,6-dimethoxy-4-methyl-5-[3-(trifluoromethyl)phenoxy]-8-quinolyl]pentane-1,4-diamine

>  <PUBCHEM_IUPAC_CAS_NAME>  (1) 
N4-[2,6-dimethoxy-4-methyl-5-[3-(trifluoromethyl)phenoxy]-8-quinolinyl]pentane-1,4-diamine

>  <PUBCHEM_IUPAC_NAME_MARKUP>  (1) 
4-<I>N</I>-[2,6-dimethoxy-4-methyl-5-[3-(trifluoromethyl)phenoxy]quinolin-8-yl]pentane-1,4-diamine

>  <PUBCHEM_IUPAC_NAME>  (1) 
4-N-[2,6-dimethoxy-4-methyl-5-[3-(trifluoromethyl)phenoxy]quinolin-8-yl]pentane-1,4-diamine

>  <PUBCHEM_IUPAC_SYSTEMATIC_NAME>  (1) 
N4-[2,6-dimethoxy-4-methyl-5-[3-(trifluoromethyl)phenoxy]quinolin-8-yl]pentane-1,4-diamine

>  <PUBCHEM_IUPAC_TRADITIONAL_NAME>  (1) 
(4-amino-1-methyl-butyl)-[2,6-dimethoxy-4-methyl-5-[3-(trifluoromethyl)phenoxy]-8-quinolyl]amine

>  <PUBCHEM_IUPAC_INCHI>  (1) 
InChI=1S/C24H28F3N3O3/c1-14-11-20(32-4)30-22-18(29-15(2)7-6-10-28)13-19(31-3)23(21(14)22)33-17-9-5-8-16(12-17)24(25,26)27/h5,8-9,11-13,15,29H,6-7,10,28H2,1-4H3

>  <PUBCHEM_IUPAC_INCHIKEY>  (1) 
LBHLFPGPEGDCJG-UHFFFAOYSA-N

>  <PUBCHEM_XLOGP3_AA>  (1) 
5.4

>  <PUBCHEM_EXACT_MASS>  (1) 
463.20827625

>  <PUBCHEM_MOLECULAR_FORMULA>  (1) 
C24H28F3N3O3

>  <PUBCHEM_MOLECULAR_WEIGHT>  (1) 
463.5

>  <PUBCHEM_OPENEYE_CAN_SMILES>  (1) 
CC1=CC(=NC2=C1C(=C(C=C2NC(C)CCCN)OC)OC3=CC=CC(=C3)C(F)(F)F)OC

>  <PUBCHEM_OPENEYE_ISO_SMILES>  (1) 
CC1=CC(=NC2=C1C(=C(C=C2NC(C)CCCN)OC)OC3=CC=CC(=C3)C(F)(F)F)OC

>  <PUBCHEM_CACTVS_TPSA>  (1) 
78.6

>  <PUBCHEM_MONOISOTOPIC_WEIGHT>  (1) 
463.20827625

>  <PUBCHEM_TOTAL_CHARGE>  (1) 
0

>  <PUBCHEM_HEAVY_ATOM_COUNT>  (1) 
33

>  <PUBCHEM_ATOM_DEF_STEREO_COUNT>  (1) 
0

>  <PUBCHEM_ATOM_UDEF_STEREO_COUNT>  (1) 
1

>  <PUBCHEM_BOND_DEF_STEREO_COUNT>  (1) 
0

>  <PUBCHEM_BOND_UDEF_STEREO_COUNT>  (1) 
0

>  <PUBCHEM_ISOTOPIC_ATOM_COUNT>  (1) 
0

>  <PUBCHEM_COMPONENT_COUNT>  (1) 
1

>  <PUBCHEM_CACTVS_TAUTO_COUNT>  (1) 
-1

>  <PUBCHEM_COORDINATE_TYPE>  (1) 
1
5
255

>  <PUBCHEM_BONDANNOTATIONS>  (1) 
10  14  3
13  15  8
13  18  8
15  16  8
16  19  8
16  20  8
18  21  8
19  21  8
20  22  8
22  23  8
25  26  8
25  28  8
26  29  8
28  30  8
29  31  8
30  31  8
8  15  8
8  23  8

$$$$
