JBB21_0004
  -OEChem-04162410092D

 34 36  0     0  0  0  0  0  0999 V2000
   10.3603    0.9510    0.0000 F   0  0  0  0  0  0  0  0  0  0  0  0
   10.7263    2.3170    0.0000 F   0  0  0  0  0  0  0  0  0  0  0  0
    9.3602    2.6830    0.0000 F   0  0  0  0  0  0  0  0  0  0  0  0
    3.7817    1.3516    0.0000 O   0  0  0  0  0  0  0  0  0  0  0  0
    2.0000   -1.7072    0.0000 O   0  0  0  0  0  0  0  0  0  0  0  0
    5.5301   -1.6830    0.0000 N   0  0  0  0  0  0  0  0  0  0  0  0
    2.8641   -0.1622    0.0000 N   0  0  0  0  0  0  0  0  0  0  0  0
    5.5301    0.3170    0.0000 N   0  0  0  0  0  0  0  0  0  0  0  0
    6.3961   -1.1830    0.0000 N   0  0  0  0  0  0  0  0  0  0  0  0
    3.7702   -1.7177    0.0000 N   0  0  0  0  0  0  0  0  0  0  0  0
    4.6641   -0.1830    0.0000 C   0  0  0  0  0  0  0  0  0  0  0  0
    4.6641   -1.1830    0.0000 C   0  0  0  0  0  0  0  0  0  0  0  0
    6.3961   -0.1830    0.0000 C   0  0  0  0  0  0  0  0  0  0  0  0
    7.2622    0.3170    0.0000 C   0  0  0  0  0  0  0  0  0  0  0  0
    3.7702    0.3516    0.0000 C   0  0  0  0  0  0  0  0  0  0  0  0
    7.2622    1.3170    0.0000 C   0  0  0  0  0  0  0  0  0  0  0  0
    8.1282   -0.1830    0.0000 C   0  0  0  0  0  0  0  0  0  0  0  0
    2.8641   -1.2038    0.0000 C   0  0  0  0  0  0  0  0  0  0  0  0
    8.9942    1.3170    0.0000 C   0  0  0  0  0  0  0  0  0  0  0  0
    5.5301   -2.6830    0.0000 C   0  0  0  0  0  0  0  0  0  0  0  0
    8.1282    1.8170    0.0000 C   0  0  0  0  0  0  0  0  0  0  0  0
    8.9942    0.3170    0.0000 C   0  0  0  0  0  0  0  0  0  0  0  0
    2.0000    0.3411    0.0000 C   0  0  0  0  0  0  0  0  0  0  0  0
    9.8602    1.8170    0.0000 C   0  0  0  0  0  0  0  0  0  0  0  0
    6.7252    1.6270    0.0000 H   0  0  0  0  0  0  0  0  0  0  0  0
    8.1282   -0.8030    0.0000 H   0  0  0  0  0  0  0  0  0  0  0  0
    4.9101   -2.6830    0.0000 H   0  0  0  0  0  0  0  0  0  0  0  0
    5.5301   -3.3030    0.0000 H   0  0  0  0  0  0  0  0  0  0  0  0
    6.1501   -2.6830    0.0000 H   0  0  0  0  0  0  0  0  0  0  0  0
    8.1282    2.4370    0.0000 H   0  0  0  0  0  0  0  0  0  0  0  0
    9.5312    0.0070    0.0000 H   0  0  0  0  0  0  0  0  0  0  0  0
    2.3121    0.8769    0.0000 H   0  0  0  0  0  0  0  0  0  0  0  0
    1.4643    0.6532    0.0000 H   0  0  0  0  0  0  0  0  0  0  0  0
    1.6879   -0.1946    0.0000 H   0  0  0  0  0  0  0  0  0  0  0  0
  1 24  1  0  0  0  0
  2 24  1  0  0  0  0
  3 24  1  0  0  0  0
  4 15  2  0  0  0  0
  5 18  2  0  0  0  0
  6  9  1  0  0  0  0
  6 12  1  0  0  0  0
  6 20  1  0  0  0  0
  7 15  1  0  0  0  0
  7 18  1  0  0  0  0
  7 23  1  0  0  0  0
  8 11  2  0  0  0  0
  8 13  1  0  0  0  0
  9 13  2  0  0  0  0
 10 12  2  0  0  0  0
 10 18  1  0  0  0  0
 11 12  1  0  0  0  0
 11 15  1  0  0  0  0
 13 14  1  0  0  0  0
 14 16  2  0  0  0  0
 14 17  1  0  0  0  0
 16 21  1  0  0  0  0
 16 25  1  0  0  0  0
 17 22  2  0  0  0  0
 17 26  1  0  0  0  0
 19 21  2  0  0  0  0
 19 22  1  0  0  0  0
 19 24  1  0  0  0  0
 20 27  1  0  0  0  0
 20 28  1  0  0  0  0
 20 29  1  0  0  0  0
 21 30  1  0  0  0  0
 22 31  1  0  0  0  0
 23 32  1  0  0  0  0
 23 33  1  0  0  0  0
 23 34  1  0  0  0  0
M  END
> <PUBCHEM_COMPOUND_CID>
3164070

> <PUBCHEM_COMPOUND_CANONICALIZED>
1

> <PUBCHEM_CACTVS_COMPLEXITY>
674

> <PUBCHEM_CACTVS_HBOND_ACCEPTOR>
6

> <PUBCHEM_CACTVS_HBOND_DONOR>
0

> <PUBCHEM_CACTVS_ROTATABLE_BOND>
1

> <PUBCHEM_CACTVS_SUBSKEYS>
AAADccBzsYAAAAAAAAAAAAAAAAAAAAAAAAAwQIAAAAAAAACBAAAAHwAIAAAADAiBmBQzAIMAAACoAyNyNACSAAEgAAAZiAEoBJiIIKqA0RGEIABgjyIIiAcQgAAOQAAAAAAAAACAAAAAAAAAAAAAAAAAAA==

> <PUBCHEM_IUPAC_OPENEYE_NAME>
1,6-dimethyl-3-[4-(trifluoromethyl)phenyl]pyrimido[5,4-e][1,2,4]triazine-5,7-dione

> <PUBCHEM_IUPAC_CAS_NAME>
1,6-dimethyl-3-[4-(trifluoromethyl)phenyl]pyrimido[5,4-e][1,2,4]triazine-5,7-dione

> <PUBCHEM_IUPAC_NAME_MARKUP>
1,6-dimethyl-3-[4-(trifluoromethyl)phenyl]pyrimido[5,4-e][1,2,4]triazine-5,7-dione

> <PUBCHEM_IUPAC_NAME>
1,6-dimethyl-3-[4-(trifluoromethyl)phenyl]pyrimido[5,4-e][1,2,4]triazine-5,7-dione

> <PUBCHEM_IUPAC_SYSTEMATIC_NAME>
1,6-dimethyl-3-[4-(trifluoromethyl)phenyl]pyrimido[5,4-e][1,2,4]triazine-5,7-dione

> <PUBCHEM_IUPAC_TRADITIONAL_NAME>
1,6-dimethyl-3-[4-(trifluoromethyl)phenyl]pyrimido[5,4-e][1,2,4]triazine-5,7-quinone

> <PUBCHEM_IUPAC_INCHI>
InChI=1S/C14H10F3N5O2/c1-21-12(23)9-11(19-13(21)24)22(2)20-10(18-9)7-3-5-8(6-4-7)14(15,16)17/h3-6H,1-2H3

> <PUBCHEM_IUPAC_INCHIKEY>
XRVMPTWWKLKLPB-UHFFFAOYSA-N

> <PUBCHEM_XLOGP3_AA>
1.9

> <PUBCHEM_EXACT_MASS>
337.07865906

> <PUBCHEM_MOLECULAR_FORMULA>
C14H10F3N5O2

> <PUBCHEM_MOLECULAR_WEIGHT>
337.26

> <PUBCHEM_OPENEYE_CAN_SMILES>
CN1C2=NC(=O)N(C(=O)C2=NC(=N1)C3=CC=C(C=C3)C(F)(F)F)C

> <PUBCHEM_OPENEYE_ISO_SMILES>
CN1C2=NC(=O)N(C(=O)C2=NC(=N1)C3=CC=C(C=C3)C(F)(F)F)C

> <PUBCHEM_CACTVS_TPSA>
77.7

> <PUBCHEM_MONOISOTOPIC_WEIGHT>
337.07865906

> <PUBCHEM_TOTAL_CHARGE>
0

> <PUBCHEM_HEAVY_ATOM_COUNT>
24

> <PUBCHEM_ATOM_DEF_STEREO_COUNT>
0

> <PUBCHEM_ATOM_UDEF_STEREO_COUNT>
0

> <PUBCHEM_BOND_DEF_STEREO_COUNT>
0

> <PUBCHEM_BOND_UDEF_STEREO_COUNT>
0

> <PUBCHEM_ISOTOPIC_ATOM_COUNT>
0

> <PUBCHEM_COMPONENT_COUNT>
1

> <PUBCHEM_CACTVS_TAUTO_COUNT>
-1

> <PUBCHEM_COORDINATE_TYPE>
1
5
255

> <PUBCHEM_BONDANNOTATIONS>
10  12  8
10  18  8
11  15  8
14  16  8
14  17  8
16  21  8
17  22  8
19  21  8
19  22  8
6  12  8
6  9  8
7  15  8
7  18  8
8  11  8
8  13  8
9  13  8

$$$$
