JBB20_0016.mol
  ChemDraw04102411342D

 23 25  0  0  0  0  0  0  0  0999 V2000
    0.1102    0.3847    0.0000 C   0  0  0  0  0  0  0  0  0  0  0  0
   -0.6014   -0.0261    0.0000 C   0  0  0  0  0  0  0  0  0  0  0  0
    0.1102    1.2063    0.0000 O   0  0  0  0  0  0  0  0  0  0  0  0
    0.8217   -0.0261    0.0000 N   0  0  0  0  0  0  0  0  0  0  0  0
    1.5333    0.3847    0.0000 C   0  0  0  0  0  0  0  0  0  0  0  0
   -1.3129    0.3847    0.0000 S   0  0  0  0  0  0  0  0  0  0  0  0
   -2.9140   -1.0141    0.0000 N   0  0  0  0  0  0  0  0  0  0  0  0
   -2.1103   -0.8433    0.0000 C   0  0  0  0  0  0  0  0  0  0  0  0
   -2.0244   -0.0261    0.0000 C   0  0  0  0  0  0  0  0  0  0  0  0
   -2.7750    0.3080    0.0000 C   0  0  0  0  0  0  0  0  0  0  0  0
   -3.0289    1.0894    0.0000 C   0  0  0  0  0  0  0  0  0  0  0  0
   -3.8326    1.2603    0.0000 C   0  0  0  0  0  0  0  0  0  0  0  0
   -4.3824    0.6497    0.0000 C   0  0  0  0  0  0  0  0  0  0  0  0
   -4.1285   -0.1317    0.0000 C   0  0  0  0  0  0  0  0  0  0  0  0
   -3.3248   -0.3025    0.0000 C   0  0  0  0  0  0  0  0  0  0  0  0
    2.2448   -0.0261    0.0000 C   0  0  0  0  0  0  0  0  0  0  0  0
    2.9564    0.3847    0.0000 C   0  0  0  0  0  0  0  0  0  0  0  0
    3.6679   -0.0261    0.0000 C   0  0  0  0  0  0  0  0  0  0  0  0
    3.6679   -0.8478    0.0000 C   0  0  0  0  0  0  0  0  0  0  0  0
    2.9564   -1.2586    0.0000 C   0  0  0  0  0  0  0  0  0  0  0  0
    2.2448   -0.8478    0.0000 C   0  0  0  0  0  0  0  0  0  0  0  0
    4.3824    0.3864    0.0000 Cl  0  0  0  0  0  0  0  0  0  0  0  0
    4.3824   -1.2603    0.0000 Cl  0  0  0  0  0  0  0  0  0  0  0  0
  1  2  1  0      
  1  3  2  0      
  1  4  1  0      
  4  5  1  0      
  7  8  1  0      
  8  9  2  0      
  9 10  1  0      
 10 11  1  0      
 11 12  2  0      
 12 13  1  0      
 13 14  2  0      
 14 15  1  0      
  7 15  1  0      
 10 15  2  0      
  6  9  1  0      
  2  6  1  0      
 16 17  1  0      
 17 18  2  0      
 18 19  1  0      
 19 20  2  0      
 20 21  1  0      
 16 21  2  0      
 16  5  1  0      
 18 22  1  0      
 19 23  1  0      
M  END
