25022668
     RDKit          2D

 29 33  0  0  0  0  0  0  0  0999 V2000
    7.8512    3.0779    0.0000 O   0  0  0  0  0  0  0  0  0  0  0  0
    9.4975    2.5398    0.0000 O   0  0  0  0  0  0  0  0  0  0  0  0
    7.2764   -3.0779    0.0000 N   0  0  0  0  0  0  0  0  0  0  0  0
    5.4641   -3.2732    0.0000 N   0  0  0  0  0  0  0  0  0  0  0  0
    9.8547    0.8450    0.0000 C   0  0  0  0  0  0  0  0  0  0  0  0
   10.2630    1.7579    0.0000 C   0  0  0  0  0  0  0  0  0  0  0  0
   10.5967    0.1746    0.0000 C   0  0  0  0  0  0  0  0  0  0  0  0
   11.2573    1.6516    0.0000 C   0  0  0  0  0  0  0  0  0  0  0  0
   11.4636    0.6731    0.0000 C   0  0  0  0  0  0  0  0  0  0  0  0
    8.8762    0.6388    0.0000 C   0  0  0  0  0  0  0  0  0  0  0  0
    8.5655   -0.3117    0.0000 C   0  0  0  0  0  0  0  0  0  0  0  0
    8.2083    1.3831    0.0000 C   0  0  0  0  0  0  0  0  0  0  0  0
    7.5870   -0.5179    0.0000 C   0  0  0  0  0  0  0  0  0  0  0  0
    7.2298    1.1769    0.0000 C   0  0  0  0  0  0  0  0  0  0  0  0
    7.2764   -1.4685    0.0000 C   0  0  0  0  0  0  0  0  0  0  0  0
    6.9192    0.2264    0.0000 C   0  0  0  0  0  0  0  0  0  0  0  0
    8.5190    2.3336    0.0000 C   0  0  0  0  0  0  0  0  0  0  0  0
    6.3301   -1.7732    0.0000 C   0  0  0  0  0  0  0  0  0  0  0  0
    7.8600   -2.2732    0.0000 C   0  0  0  0  0  0  0  0  0  0  0  0
    6.3301   -2.7732    0.0000 C   0  0  0  0  0  0  0  0  0  0  0  0
    5.4641   -1.2732    0.0000 C   0  0  0  0  0  0  0  0  0  0  0  0
    4.5981   -1.7732    0.0000 C   0  0  0  0  0  0  0  0  0  0  0  0
    4.5981   -2.7732    0.0000 C   0  0  0  0  0  0  0  0  0  0  0  0
    3.7320   -1.2732    0.0000 C   0  0  0  0  0  0  0  0  0  0  0  0
    3.7320   -0.2732    0.0000 C   0  0  0  0  0  0  0  0  0  0  0  0
    2.8660   -1.7732    0.0000 C   0  0  0  0  0  0  0  0  0  0  0  0
    2.8660    0.2268    0.0000 C   0  0  0  0  0  0  0  0  0  0  0  0
    2.0000   -1.2732    0.0000 C   0  0  0  0  0  0  0  0  0  0  0  0
    2.0000   -0.2732    0.0000 C   0  0  0  0  0  0  0  0  0  0  0  0
  1 17  1  0
  2 17  2  0
  3 19  1  0
  3 20  1  0
  4 20  2  0
  4 23  1  0
  5  6  1  0
  5  7  1  0
  5 10  1  0
  6  8  1  0
  7  9  1  0
  8  9  1  0
 10 11  2  0
 10 12  1  0
 11 13  1  0
 12 14  2  0
 12 17  1  0
 13 15  1  0
 13 16  2  0
 14 16  1  0
 15 18  1  0
 15 19  2  0
 18 20  1  0
 18 21  2  0
 21 22  1  0
 22 23  2  0
 22 24  1  0
 24 25  2  0
 24 26  1  0
 25 27  1  0
 26 28  2  0
 27 29  2  0
 28 29  1  0
M  END
>  <PUBCHEM_COMPOUND_CID>  (1) 
25022668

>  <PUBCHEM_COMPOUND_CANONICALIZED>  (1) 
1

>  <PUBCHEM_CACTVS_COMPLEXITY>  (1) 
569

>  <PUBCHEM_CACTVS_HBOND_ACCEPTOR>  (1) 
3

>  <PUBCHEM_CACTVS_HBOND_DONOR>  (1) 
2

>  <PUBCHEM_CACTVS_ROTATABLE_BOND>  (1) 
4

>  <PUBCHEM_CACTVS_SUBSKEYS>  (1) 
AAADceB7MAAAAAAAAAAAAAAAAAAAAeIAAAA8YIAAAAAAAFgB/AAAHgAQCAAADQDBmwQ9uN7JkgCoAjL3bACCgCm1AKAJ2aEoTNiILvLAnZGEcQhswAPI2aeYyPCOwAACAAAQAACAAAQAACAAAAAAAAAAAA==

>  <PUBCHEM_IUPAC_OPENEYE_NAME>  (1) 
2-cyclopentyl-4-(5-phenyl-1H-pyrrolo[2,3-b]pyridin-3-yl)benzoic acid

>  <PUBCHEM_IUPAC_CAS_NAME>  (1) 
2-cyclopentyl-4-(5-phenyl-1H-pyrrolo[2,3-b]pyridin-3-yl)benzoic acid

>  <PUBCHEM_IUPAC_NAME_MARKUP>  (1) 
2-cyclopentyl-4-(5-phenyl-1<I>H</I>-pyrrolo[2,3-b]pyridin-3-yl)benzoic acid

>  <PUBCHEM_IUPAC_NAME>  (1) 
2-cyclopentyl-4-(5-phenyl-1H-pyrrolo[2,3-b]pyridin-3-yl)benzoic acid

>  <PUBCHEM_IUPAC_SYSTEMATIC_NAME>  (1) 
2-cyclopentyl-4-(5-phenyl-1H-pyrrolo[2,3-b]pyridin-3-yl)benzoic acid

>  <PUBCHEM_IUPAC_TRADITIONAL_NAME>  (1) 
2-cyclopentyl-4-(5-phenyl-1H-pyrrolo[2,3-b]pyridin-3-yl)benzoic acid

>  <PUBCHEM_IUPAC_INCHI>  (1) 
InChI=1S/C25H22N2O2/c28-25(29)20-11-10-18(12-21(20)17-8-4-5-9-17)23-15-27-24-22(23)13-19(14-26-24)16-6-2-1-3-7-16/h1-3,6-7,10-15,17H,4-5,8-9H2,(H,26,27)(H,28,29)

>  <PUBCHEM_IUPAC_INCHIKEY>  (1) 
WVSBGSNVCDAMCF-UHFFFAOYSA-N

>  <PUBCHEM_XLOGP3_AA>  (1) 
6.1

>  <PUBCHEM_EXACT_MASS>  (1) 
382.168127949

>  <PUBCHEM_MOLECULAR_FORMULA>  (1) 
C25H22N2O2

>  <PUBCHEM_MOLECULAR_WEIGHT>  (1) 
382.5

>  <PUBCHEM_OPENEYE_CAN_SMILES>  (1) 
C1CCC(C1)C2=C(C=CC(=C2)C3=CNC4=C3C=C(C=N4)C5=CC=CC=C5)C(=O)O

>  <PUBCHEM_OPENEYE_ISO_SMILES>  (1) 
C1CCC(C1)C2=C(C=CC(=C2)C3=CNC4=C3C=C(C=N4)C5=CC=CC=C5)C(=O)O

>  <PUBCHEM_CACTVS_TPSA>  (1) 
66

>  <PUBCHEM_MONOISOTOPIC_WEIGHT>  (1) 
382.168127949

>  <PUBCHEM_TOTAL_CHARGE>  (1) 
0

>  <PUBCHEM_HEAVY_ATOM_COUNT>  (1) 
29

>  <PUBCHEM_ATOM_DEF_STEREO_COUNT>  (1) 
0

>  <PUBCHEM_ATOM_UDEF_STEREO_COUNT>  (1) 
0

>  <PUBCHEM_BOND_DEF_STEREO_COUNT>  (1) 
0

>  <PUBCHEM_BOND_UDEF_STEREO_COUNT>  (1) 
0

>  <PUBCHEM_ISOTOPIC_ATOM_COUNT>  (1) 
0

>  <PUBCHEM_COMPONENT_COUNT>  (1) 
1

>  <PUBCHEM_CACTVS_TAUTO_COUNT>  (1) 
-1

>  <PUBCHEM_COORDINATE_TYPE>  (1) 
1
5
255

>  <PUBCHEM_BONDANNOTATIONS>  (1) 
10  11  8
10  12  8
11  13  8
12  14  8
13  16  8
14  16  8
15  18  8
15  19  8
18  20  8
18  21  8
21  22  8
22  23  8
24  25  8
24  26  8
25  27  8
26  28  8
27  29  8
28  29  8
3  19  8
3  20  8
4  20  8
4  23  8

$$$$
