JBB20_0023.mol
  ChemDraw04102412022D

 42 47  0  0  0  0  0  0  0  0999 V2000
   -0.8827    1.2599    0.0000 S   0  0  0  0  0  0  0  0  0  0  0  0
   -0.3977    0.5924    0.0000 C   0  0  0  0  0  0  0  0  0  0  0  0
   -0.8827   -0.0750    0.0000 N   0  0  0  0  0  0  0  0  0  0  0  0
   -1.6673    0.1799    0.0000 C   0  0  0  0  0  0  0  0  0  0  0  0
   -1.6673    1.0049    0.0000 C   0  0  0  0  0  0  0  0  0  0  0  0
   -2.3817    1.4174    0.0000 C   0  0  0  0  0  0  0  0  0  0  0  0
   -3.0962    1.0049    0.0000 C   0  0  0  0  0  0  0  0  0  0  0  0
   -3.0962    0.1799    0.0000 C   0  0  0  0  0  0  0  0  0  0  0  0
   -2.3817   -0.2326    0.0000 C   0  0  0  0  0  0  0  0  0  0  0  0
   -3.8107   -0.2326    0.0000 O   0  0  0  0  0  0  0  0  0  0  0  0
   -3.8107   -1.0576    0.0000 C   0  0  0  0  0  0  0  0  0  0  0  0
   -4.5252   -1.4701    0.0000 C   0  0  0  0  0  0  0  0  0  0  0  0
   -4.5252   -2.2951    0.0000 C   0  0  0  0  0  0  0  0  0  0  0  0
   -3.8107   -2.7076    0.0000 C   0  0  0  0  0  0  0  0  0  0  0  0
   -3.0962   -2.2951    0.0000 C   0  0  0  0  0  0  0  0  0  0  0  0
   -3.0962   -1.4701    0.0000 C   0  0  0  0  0  0  0  0  0  0  0  0
   -0.5471   -0.8287    0.0000 C   0  0  0  0  0  0  0  0  0  0  0  0
    0.2734   -0.9149    0.0000 C   0  0  0  0  0  0  0  0  0  0  0  0
    0.7583   -0.2475    0.0000 C   0  0  0  0  0  0  0  0  0  0  0  0
    0.4228    0.5062    0.0000 C   0  0  0  0  0  0  0  0  0  0  0  0
   -1.0320   -1.4961    0.0000 O   0  0  0  0  0  0  0  0  0  0  0  0
    0.6089   -1.6686    0.0000 C   0  0  0  0  0  0  0  0  0  0  0  0
    0.1240   -2.3360    0.0000 C   0  0  0  0  0  0  0  0  0  0  0  0
    0.4596   -3.0897    0.0000 C   0  0  0  0  0  0  0  0  0  0  0  0
    1.2801   -3.1759    0.0000 C   0  0  0  0  0  0  0  0  0  0  0  0
    1.7650   -2.5085    0.0000 C   0  0  0  0  0  0  0  0  0  0  0  0
    1.4294   -1.7548    0.0000 C   0  0  0  0  0  0  0  0  0  0  0  0
    0.9077    1.1736    0.0000 C   0  0  0  0  0  0  0  0  0  0  0  0
    0.5721    1.9273    0.0000 O   0  0  0  0  0  0  0  0  0  0  0  0
    1.7282    1.0874    0.0000 N   0  0  0  0  0  0  0  0  0  0  0  0
    2.2131    1.7548    0.0000 C   0  0  0  0  0  0  0  0  0  0  0  0
    3.0336    1.6686    0.0000 C   0  0  0  0  0  0  0  0  0  0  0  0
    1.8775    2.5085    0.0000 C   0  0  0  0  0  0  0  0  0  0  0  0
    2.3624    3.1759    0.0000 O   0  0  0  0  0  0  0  0  0  0  0  0
    1.0570    2.5947    0.0000 O   0  0  0  0  0  0  0  0  0  0  0  0
    3.3691    0.9149    0.0000 C   0  0  0  0  0  0  0  0  0  0  0  0
    2.8842    0.2475    0.0000 C   0  0  0  0  0  0  0  0  0  0  0  0
    3.2198   -0.5062    0.0000 C   0  0  0  0  0  0  0  0  0  0  0  0
    4.0402   -0.5924    0.0000 C   0  0  0  0  0  0  0  0  0  0  0  0
    4.5252    0.0750    0.0000 C   0  0  0  0  0  0  0  0  0  0  0  0
    4.1896    0.8287    0.0000 C   0  0  0  0  0  0  0  0  0  0  0  0
    4.3758   -1.3461    0.0000 O   0  0  0  0  0  0  0  0  0  0  0  0
  1  2  1  0      
  3  4  1  0      
  4  5  1  0      
  1  5  1  0      
  6  7  1  0      
  7  8  2  0      
  8  9  1  0      
  9  4  2  0      
  6  5  2  0      
  2  3  1  0      
  8 10  1  0      
 10 11  1  0      
 11 12  1  0      
 12 13  1  0      
 13 14  1  0      
 14 15  1  0      
 15 16  1  0      
 16 11  1  0      
  3 17  1  0      
 17 18  1  0      
 18 19  2  0      
 19 20  1  0      
 20  2  2  0      
 17 21  2  0      
 18 22  1  0      
 22 23  2  0      
 23 24  1  0      
 24 25  2  0      
 25 26  1  0      
 26 27  2  0      
 27 22  1  0      
 20 28  1  0      
 28 29  2  0      
 28 30  1  0      
 30 31  1  0      
 31 32  1  0      
 31 33  1  0      
 33 34  1  0      
 33 35  2  0      
 32 36  1  0      
 36 37  2  0      
 37 38  1  0      
 38 39  2  0      
 39 40  1  0      
 40 41  2  0      
 41 36  1  0      
 39 42  1  0      
M  END
