JBB39_0002.mol
  ChemDraw04112412302D

 42 45  0  0  1  0  0  0  0  0999 V2000
   -3.2924    0.1305    0.0000 C   0  0  0  0  0  0  0  0  0  0  0  0
   -2.5809   -0.2803    0.0000 C   0  0  0  0  0  0  0  0  0  0  0  0
   -1.8693    0.1305    0.0000 N   0  0  0  0  0  0  0  0  0  0  0  0
   -2.5809   -1.1020    0.0000 O   0  0  0  0  0  0  0  0  0  0  0  0
   -1.1578   -0.2803    0.0000 C   0  0  0  0  0  0  0  0  0  0  0  0
   -1.1578   -1.1020    0.0000 C   0  0  0  0  0  0  0  0  0  0  0  0
   -0.4463    0.1305    0.0000 C   0  0  0  0  0  0  0  0  0  0  0  0
   -0.4463    0.9521    0.0000 O   0  0  0  0  0  0  0  0  0  0  0  0
    0.2653   -0.2803    0.0000 N   0  0  0  0  0  0  0  0  0  0  0  0
   -0.4433   -1.5145    0.0000 C   0  0  0  0  0  0  0  0  0  0  0  0
    0.9798    0.1322    0.0000 C   0  0  0  0  0  0  0  0  0  0  0  0
    1.6942   -0.2803    0.0000 C   0  0  0  0  0  0  0  0  0  0  0  0
    2.4087    0.1322    0.0000 C   0  0  0  0  0  0  0  0  0  0  0  0
    4.0069    0.1524    0.0000 C   0  0  0  0  0  0  0  0  0  0  0  0
    4.7214   -0.2601    0.0000 C   0  0  0  0  0  0  0  0  0  0  0  0
    0.9798    0.9572    0.0000 C   0  0  0  0  0  0  0  0  0  0  0  0
    1.6014    1.4995    0.0000 C   0  0  0  0  0  0  0  0  0  0  0  0
    2.4258    1.4673    0.0000 C   0  0  0  0  0  0  0  0  0  0  0  0
    2.7112    2.2413    0.0000 C   0  0  0  0  0  0  0  0  0  0  0  0
    2.0633    2.7520    0.0000 N   0  0  0  0  0  0  0  0  0  0  0  0
    1.3774    2.2935    0.0000 C   0  0  0  0  0  0  0  0  0  0  0  0
    0.6033    2.5790    0.0000 O   0  0  0  0  0  0  0  0  0  0  0  0
    5.4358    0.1524    0.0000 C   0  0  0  0  0  0  0  0  0  0  0  0
    6.1503   -0.2601    0.0000 C   0  0  0  0  0  0  0  0  0  0  0  0
    6.1503   -1.0851    0.0000 C   0  0  0  0  0  0  0  0  0  0  0  0
    5.4358   -1.4976    0.0000 C   0  0  0  0  0  0  0  0  0  0  0  0
    4.7214   -1.0851    0.0000 C   0  0  0  0  0  0  0  0  0  0  0  0
   -0.4433   -2.3395    0.0000 C   0  0  0  0  0  0  0  0  0  0  0  0
    0.2711   -2.7520    0.0000 C   0  0  0  0  0  0  0  0  0  0  0  0
    0.9856   -2.3395    0.0000 C   0  0  0  0  0  0  0  0  0  0  0  0
    0.9856   -1.5145    0.0000 C   0  0  0  0  0  0  0  0  0  0  0  0
    0.2711   -1.1020    0.0000 C   0  0  0  0  0  0  0  0  0  0  0  0
   -4.0069   -0.2820    0.0000 C   0  0  0  0  0  0  0  0  0  0  0  0
   -4.7214    0.1305    0.0000 C   0  0  0  0  0  0  0  0  0  0  0  0
   -4.7214    0.9555    0.0000 C   0  0  0  0  0  0  0  0  0  0  0  0
   -5.4358    1.3680    0.0000 C   0  0  0  0  0  0  0  0  0  0  0  0
   -6.1503    0.9555    0.0000 C   0  0  0  0  0  0  0  0  0  0  0  0
   -6.1503    0.1305    0.0000 C   0  0  0  0  0  0  0  0  0  0  0  0
   -5.4358   -0.2820    0.0000 C   0  0  0  0  0  0  0  0  0  0  0  0
    1.6942   -1.1053    0.0000 O   0  0  0  0  0  0  0  0  0  0  0  0
    2.4087    0.9572    0.0000 O   0  0  0  0  0  0  0  0  0  0  0  0
    3.1232   -0.2803    0.0000 N   0  0  0  0  0  0  0  0  0  0  0  0
  2  3  1  0      
  2  4  2  0      
  3  5  1  0      
  5  6  1  6      
  7  8  2  0      
  2  1  1  0      
  5  7  1  0      
  7  9  1  0      
  6 10  1  0      
  9 11  1  0      
 11 12  1  0      
 14 15  1  0      
 11 16  1  1      
 16 17  1  0      
 17 18  1  1      
 18 19  1  0      
 19 20  1  0      
 20 21  1  0      
 21 17  1  0      
 21 22  2  0      
 15 23  2  0      
 23 24  1  0      
 24 25  2  0      
 25 26  1  0      
 26 27  2  0      
 27 15  1  0      
 10 28  1  0      
 28 29  1  0      
 29 30  1  0      
 30 31  1  0      
 31 32  1  0      
 32 10  1  0      
  1 33  2  0      
 33 34  1  0      
 34 35  2  0      
 35 36  1  0      
 36 37  2  0      
 37 38  1  0      
 38 39  2  0      
 39 34  1  0      
 12 13  1  0      
 12 40  2  0      
 13 41  2  0      
 13 42  1  0      
 14 42  1  0      
M  END
