JBB38_0016.mol
  ChemDraw04112411432D

 45 46  0  0  1  0  0  0  0  0999 V2000
   -1.4947   -0.0709    0.0000 C   0  0  0  0  0  0  0  0  0  0  0  0
   -0.7832   -0.4817    0.0000 C   0  0  0  0  0  0  0  0  0  0  0  0
   -0.0716   -0.0709    0.0000 N   0  0  0  0  0  0  0  0  0  0  0  0
   -0.7832   -1.3033    0.0000 O   0  0  0  0  0  0  0  0  0  0  0  0
    0.6399   -0.4817    0.0000 C   0  0  0  0  0  0  0  0  0  0  0  0
    0.6399   -1.3033    0.0000 C   0  0  0  0  0  0  0  0  0  0  0  0
    1.3515   -0.0709    0.0000 C   0  0  0  0  0  0  0  0  0  0  0  0
    1.3515    0.7507    0.0000 O   0  0  0  0  0  0  0  0  0  0  0  0
    2.0630   -0.4817    0.0000 N   0  0  0  0  0  0  0  0  0  0  0  0
   -2.2062   -0.4817    0.0000 N   0  0  0  0  0  0  0  0  0  0  0  0
   -2.9178   -0.0709    0.0000 C   0  0  0  0  0  0  0  0  0  0  0  0
   -0.7832    1.1615    0.0000 C   0  0  0  0  0  0  0  0  0  0  0  0
   -1.4947    0.7507    0.0000 C   0  0  0  0  0  0  0  0  0  0  0  0
   -3.6293   -0.4817    0.0000 C   0  0  0  0  0  0  0  0  0  0  0  0
   -2.9178    0.7507    0.0000 O   0  0  0  0  0  0  0  0  0  0  0  0
   -4.3409   -0.0709    0.0000 N   0  0  0  0  0  0  0  0  0  0  0  0
   -5.0524   -0.4817    0.0000 C   0  0  0  0  0  0  0  0  0  0  0  0
   -2.2062    1.1615    0.0000 C   0  0  0  0  0  0  0  0  0  0  0  0
   -3.6293   -1.3033    0.0000 C   0  0  0  0  0  0  0  0  0  0  0  0
   -5.7640   -0.0709    0.0000 C   0  0  0  0  0  0  0  0  0  0  0  0
   -5.0524   -1.3033    0.0000 O   0  0  0  0  0  0  0  0  0  0  0  0
   -5.8498    0.7462    0.0000 C   0  0  0  0  0  0  0  0  0  0  0  0
   -6.6535    0.9171    0.0000 C   0  0  0  0  0  0  0  0  0  0  0  0
   -7.0643    0.2055    0.0000 O   0  0  0  0  0  0  0  0  0  0  0  0
   -6.5145   -0.4051    0.0000 N   0  0  0  0  0  0  0  0  0  0  0  0
   -6.9877    1.6676    0.0000 C   0  0  0  0  0  0  0  0  0  0  0  0
    1.3544   -1.7158    0.0000 C   0  0  0  0  0  0  0  0  0  0  0  0
    1.3544   -2.5408    0.0000 C   0  0  0  0  0  0  0  0  0  0  0  0
    2.0689   -1.3033    0.0000 C   0  0  0  0  0  0  0  0  0  0  0  0
    2.7775   -0.0692    0.0000 C   0  0  0  0  0  0  0  0  0  0  0  0
    3.4920   -0.4817    0.0000 C   0  0  0  0  0  0  0  0  0  0  0  0
    4.2064   -0.0692    0.0000 C   0  0  0  0  0  0  0  0  0  0  0  0
    4.9209   -0.4817    0.0000 C   0  0  0  0  0  0  0  0  0  0  0  0
    5.6354   -0.0692    0.0000 O   0  0  0  0  0  0  0  0  0  0  0  0
    4.9209   -1.3067    0.0000 O   0  0  0  0  0  0  0  0  0  0  0  0
    6.3498   -0.4817    0.0000 C   0  0  0  0  0  0  0  0  0  0  0  0
    7.0643   -0.0692    0.0000 C   0  0  0  0  0  0  0  0  0  0  0  0
    7.0643    0.7558    0.0000 C   0  0  0  0  0  0  0  0  0  0  0  0
    2.7775    0.7558    0.0000 C   0  0  0  0  0  0  0  0  0  0  0  0
    3.4920    1.1683    0.0000 C   0  0  0  0  0  0  0  0  0  0  0  0
    4.2456    0.8327    0.0000 C   0  0  0  0  0  0  0  0  0  0  0  0
    4.7977    1.4458    0.0000 C   0  0  0  0  0  0  0  0  0  0  0  0
    4.3852    2.1603    0.0000 N   0  0  0  0  0  0  0  0  0  0  0  0
    3.5782    1.9888    0.0000 C   0  0  0  0  0  0  0  0  0  0  0  0
    2.9651    2.5408    0.0000 O   0  0  0  0  0  0  0  0  0  0  0  0
  2  3  1  0      
  2  4  2  0      
  5  3  1  1      
  5  6  1  6      
  7  8  2  0      
 10 11  1  0      
 10  1  1  0      
  2  1  1  0      
 12 13  1  0      
 11 14  1  0      
 11 15  2  0      
 14 16  1  0      
 16 17  1  0      
  1 13  1  1      
  5  7  1  0      
  7  9  1  0      
 13 18  1  0      
 14 19  1  6      
 17 20  1  0      
 17 21  2  0      
 20 22  1  0      
 22 23  2  0      
 23 24  1  0      
 24 25  1  0      
 25 20  2  0      
 23 26  1  0      
  6 27  1  0      
 27 28  1  0      
 27 29  1  0      
  9 30  1  0      
 30 31  1  0      
 31 32  2  0      
 32 33  1  0      
 33 34  1  0      
 33 35  2  0      
 34 36  1  0      
 36 37  1  0      
 37 38  1  0      
 30 39  1  1      
 40 39  1  1      
 40 41  1  0      
 41 42  1  0      
 42 43  1  0      
 43 44  1  0      
 44 40  1  0      
 44 45  2  0      
M  END
