JBB38_0012.mol
  ChemDraw04112411452D

 27 26  0  0  1  0  0  0  0  0999 V2000
   -3.9179   -0.4150    0.0000 C   0  0  0  0  0  0  0  0  0  0  0  0
   -3.2063   -0.0042    0.0000 C   0  0  0  0  0  0  0  0  0  0  0  0
   -2.4948   -0.4150    0.0000 N   0  0  0  0  0  0  0  0  0  0  0  0
   -3.2063    0.8174    0.0000 O   0  0  0  0  0  0  0  0  0  0  0  0
   -1.7832   -0.0042    0.0000 C   0  0  0  0  0  0  0  0  0  0  0  0
   -1.0717   -0.4150    0.0000 C   0  0  0  0  0  0  0  0  0  0  0  0
   -1.7832    0.8174    0.0000 C   0  0  0  0  0  0  0  0  0  0  0  0
   -1.0717    1.2282    0.0000 C   0  0  0  0  0  0  0  0  0  0  0  0
   -0.3602   -0.0042    0.0000 N   0  0  0  0  0  0  0  0  0  0  0  0
   -1.0717   -1.2367    0.0000 O   0  0  0  0  0  0  0  0  0  0  0  0
    1.0629   -0.0042    0.0000 C   0  0  0  0  0  0  0  0  0  0  0  0
    1.7745   -0.4150    0.0000 N   0  0  0  0  0  0  0  0  0  0  0  0
    1.0629    0.8174    0.0000 O   0  0  0  0  0  0  0  0  0  0  0  0
    0.3514   -0.4150    0.0000 C   0  0  0  0  0  0  0  0  0  0  0  0
    0.3514   -1.2367    0.0000 C   0  0  0  0  0  0  0  0  0  0  0  0
    1.0629   -1.6475    0.0000 C   0  0  0  0  0  0  0  0  0  0  0  0
    1.7774   -1.2350    0.0000 C   0  0  0  0  0  0  0  0  0  0  0  0
    1.0629   -2.4725    0.0000 C   0  0  0  0  0  0  0  0  0  0  0  0
   -1.0717    2.0532    0.0000 C   0  0  0  0  0  0  0  0  0  0  0  0
   -0.3572    0.8157    0.0000 C   0  0  0  0  0  0  0  0  0  0  0  0
    2.4889   -0.0025    0.0000 C   0  0  0  0  0  0  0  0  0  0  0  0
    3.2034   -0.4150    0.0000 C   0  0  0  0  0  0  0  0  0  0  0  0
    2.4889    0.8225    0.0000 C   0  0  0  0  0  0  0  0  0  0  0  0
    3.2034    1.2350    0.0000 C   0  0  0  0  0  0  0  0  0  0  0  0
    3.2034    2.0600    0.0000 S   0  0  0  0  0  0  0  0  0  0  0  0
    3.9179    2.4725    0.0000 C   0  0  0  0  0  0  0  0  0  0  0  0
    3.9179   -0.0025    0.0000 O   0  0  0  0  0  0  0  0  0  0  0  0
  1  2  1  0      
  2  3  1  0      
  2  4  2  0      
  3  5  1  0      
  5  6  1  0      
  5  7  1  1      
  7  8  1  0      
  6  9  1  0      
  6 10  2  0      
 11 12  1  0      
 11 13  2  0      
  9 14  1  0      
 14 11  1  0      
 14 15  1  6      
 15 16  1  0      
 16 17  1  0      
 18 16  1  0      
  8 19  1  0      
  8 20  1  0      
 12 21  1  0      
 21 22  1  0      
 21 23  1  1      
 23 24  1  0      
 24 25  1  0      
 25 26  1  0      
 22 27  2  0      
M  END
