JBB38_0013.mol
  ChemDraw04112410532D

 42 45  0  0  1  0  0  0  0  0999 V2000
   -3.2034    0.1379    0.0000 C   0  0  0  0  0  0  0  0  0  0  0  0
   -2.4919   -0.2729    0.0000 C   0  0  0  0  0  0  0  0  0  0  0  0
   -1.7803    0.1379    0.0000 N   0  0  0  0  0  0  0  0  0  0  0  0
   -2.4919   -1.0945    0.0000 O   0  0  0  0  0  0  0  0  0  0  0  0
   -1.0688   -0.2729    0.0000 C   0  0  0  0  0  0  0  0  0  0  0  0
   -0.3572    0.1379    0.0000 C   0  0  0  0  0  0  0  0  0  0  0  0
   -1.0688   -1.0945    0.0000 C   0  0  0  0  0  0  0  0  0  0  0  0
   -0.3572   -1.5053    0.0000 C   0  0  0  0  0  0  0  0  0  0  0  0
    0.3543   -0.2729    0.0000 N   0  0  0  0  0  0  0  0  0  0  0  0
   -0.3572    0.9595    0.0000 O   0  0  0  0  0  0  0  0  0  0  0  0
    1.7774   -0.2729    0.0000 C   0  0  0  0  0  0  0  0  0  0  0  0
    2.4889    0.1379    0.0000 C   0  0  0  0  0  0  0  0  0  0  0  0
    1.7774   -1.0945    0.0000 O   0  0  0  0  0  0  0  0  0  0  0  0
    1.0659    0.1379    0.0000 C   0  0  0  0  0  0  0  0  0  0  0  0
    1.0659    0.9595    0.0000 C   0  0  0  0  0  0  0  0  0  0  0  0
    1.7774    1.3703    0.0000 C   0  0  0  0  0  0  0  0  0  0  0  0
    3.2034   -0.2746    0.0000 N   0  0  0  0  0  0  0  0  0  0  0  0
    3.9179    0.1379    0.0000 C   0  0  0  0  0  0  0  0  0  0  0  0
   -3.9179   -0.2746    0.0000 C   0  0  0  0  0  0  0  0  0  0  0  0
   -4.6323    0.1379    0.0000 C   0  0  0  0  0  0  0  0  0  0  0  0
   -4.6323    0.9629    0.0000 C   0  0  0  0  0  0  0  0  0  0  0  0
   -5.3468    1.3754    0.0000 C   0  0  0  0  0  0  0  0  0  0  0  0
   -6.0613    0.9629    0.0000 C   0  0  0  0  0  0  0  0  0  0  0  0
   -6.0613    0.1379    0.0000 C   0  0  0  0  0  0  0  0  0  0  0  0
   -5.3468   -0.2746    0.0000 C   0  0  0  0  0  0  0  0  0  0  0  0
   -0.3572   -2.3303    0.0000 C   0  0  0  0  0  0  0  0  0  0  0  0
    0.3572   -2.7428    0.0000 C   0  0  0  0  0  0  0  0  0  0  0  0
    1.0717   -2.3303    0.0000 C   0  0  0  0  0  0  0  0  0  0  0  0
    1.0717   -1.5053    0.0000 C   0  0  0  0  0  0  0  0  0  0  0  0
    0.3572   -1.0928    0.0000 C   0  0  0  0  0  0  0  0  0  0  0  0
    2.5311    1.0348    0.0000 C   0  0  0  0  0  0  0  0  0  0  0  0
    3.0831    1.6479    0.0000 C   0  0  0  0  0  0  0  0  0  0  0  0
    2.6706    2.3623    0.0000 N   0  0  0  0  0  0  0  0  0  0  0  0
    1.8636    2.1908    0.0000 C   0  0  0  0  0  0  0  0  0  0  0  0
    1.2505    2.7428    0.0000 O   0  0  0  0  0  0  0  0  0  0  0  0
    2.4889    0.7347    0.0000 O   0  0  0  0  0  0  0  0  0  0  0  0
    4.6323   -0.2746    0.0000 C   0  0  0  0  0  0  0  0  0  0  0  0
    4.6323   -1.0996    0.0000 C   0  0  0  0  0  0  0  0  0  0  0  0
    5.3468   -1.5121    0.0000 C   0  0  0  0  0  0  0  0  0  0  0  0
    6.0613   -1.0996    0.0000 C   0  0  0  0  0  0  0  0  0  0  0  0
    6.0613   -0.2746    0.0000 C   0  0  0  0  0  0  0  0  0  0  0  0
    5.3468    0.1379    0.0000 C   0  0  0  0  0  0  0  0  0  0  0  0
  1  2  1  0      
  2  3  1  0      
  2  4  2  0      
  3  5  1  0      
  5  6  1  0      
  5  7  1  6      
  7  8  1  0      
  6  9  1  0      
  6 10  2  0      
 11 12  1  0      
 11 13  2  0      
  9 14  1  0      
 14 11  1  0      
 14 15  1  1      
 15 16  1  0      
 12 17  1  0      
 17 18  1  0      
  1 19  2  0      
 19 20  1  0      
 20 21  2  0      
 21 22  1  0      
 22 23  2  0      
 23 24  1  0      
 24 25  2  0      
 25 20  1  0      
  8 26  1  0      
 26 27  1  0      
 27 28  1  0      
 28 29  1  0      
 29 30  1  0      
 30  8  1  0      
 16 31  1  1      
 31 32  1  0      
 32 33  1  0      
 33 34  1  0      
 34 16  1  0      
 34 35  2  0      
 12 36  2  0      
 18 37  1  0      
 37 38  2  0      
 38 39  1  0      
 39 40  2  0      
 40 41  1  0      
 41 42  2  0      
 42 37  1  0      
M  END
