16132300
     RDKit          2D

236239  0  0  1  0  0  0  0  0999 V2000
   11.8626    5.9400    0.0000 S   0  0  0  0  0  0  0  0  0  0  0  0
   10.5991    8.9400    0.0000 O   0  0  0  0  0  0  0  0  0  0  0  0
    7.8671   -2.5600    0.0000 O   0  0  0  0  0  0  0  0  0  0  0  0
    7.8671   11.4400    0.0000 O   0  0  0  0  0  0  0  0  0  0  0  0
   13.3312   11.4400    0.0000 O   0  0  0  0  0  0  0  0  0  0  0  0
    5.1350   -5.0600    0.0000 O   0  0  0  0  0  0  0  0  0  0  0  0
   10.5991   -5.0600    0.0000 O   0  0  0  0  0  0  0  0  0  0  0  0
   20.0587    4.4400    0.0000 O   0  0  0  0  0  0  0  0  0  0  0  0
   22.7908    1.9400    0.0000 O   0  0  0  0  0  0  0  0  0  0  0  0
   17.3267    1.9400    0.0000 O   0  0  0  0  0  0  0  0  0  0  0  0
    6.3985    1.9400    0.0000 O   0  0  0  0  0  0  0  0  0  0  0  0
   18.7953   11.4400    0.0000 O   0  0  0  0  0  0  0  0  0  0  0  0
   21.5273    8.9400    0.0000 O   0  0  0  0  0  0  0  0  0  0  0  0
   13.3312    8.4400    0.0000 O   0  0  0  0  0  0  0  0  0  0  0  0
   16.0632    8.9400    0.0000 O   0  0  0  0  0  0  0  0  0  0  0  0
   13.3312   -2.5600    0.0000 O   0  0  0  0  0  0  0  0  0  0  0  0
   13.3312   -5.5600    0.0000 O   0  0  0  0  0  0  0  0  0  0  0  0
    9.1305    4.4400    0.0000 O   0  0  0  0  0  0  0  0  0  0  0  0
   14.5946    4.4400    0.0000 O   0  0  0  0  0  0  0  0  0  0  0  0
   11.8626    1.9400    0.0000 O   0  0  0  0  0  0  0  0  0  0  0  0
    4.2690   10.4400    0.0000 O   0  0  0  0  0  0  0  0  0  0  0  0
    5.1350    8.9400    0.0000 O   0  0  0  0  0  0  0  0  0  0  0  0
   16.0632   -5.0600    0.0000 O   0  0  0  0  0  0  0  0  0  0  0  0
   15.1972   11.4400    0.0000 O   0  0  0  0  0  0  0  0  0  0  0  0
    4.2690   11.4400    0.0000 O   0  0  0  0  0  0  0  0  0  0  0  0
    9.9965   -0.0600    0.0000 O   0  0  0  0  0  0  0  0  0  0  0  0
   25.8574   13.4400    0.0000 O   0  0  0  0  0  0  0  0  0  0  0  0
   18.7953   -2.5600    0.0000 O   0  0  0  0  0  0  0  0  0  0  0  0
   21.5273   -5.0600    0.0000 O   0  0  0  0  0  0  0  0  0  0  0  0
   22.7908   -9.0600    0.0000 O   0  0  0  0  0  0  0  0  0  0  0  0
   17.3267  -12.0600    0.0000 O   0  0  0  0  0  0  0  0  0  0  0  0
   20.0587   -9.5600    0.0000 O   0  0  0  0  0  0  0  0  0  0  0  0
   13.4651   -0.5600    0.0000 O   0  0  0  0  0  0  0  0  0  0  0  0
   22.7908  -12.0600    0.0000 O   0  0  0  0  0  0  0  0  0  0  0  0
   17.9292   -5.0600    0.0000 O   0  0  0  0  0  0  0  0  0  0  0  0
   14.5946   -9.5600    0.0000 O   0  0  0  0  0  0  0  0  0  0  0  0
   23.2594   -1.0600    0.0000 O   0  0  0  0  0  0  0  0  0  0  0  0
   24.1254   -2.5600    0.0000 O   0  0  0  0  0  0  0  0  0  0  0  0
   11.8626  -12.0600    0.0000 O   0  0  0  0  0  0  0  0  0  0  0  0
    9.1305   -9.5600    0.0000 O   0  0  0  0  0  0  0  0  0  0  0  0
   11.8626   -8.0600    0.0000 O   0  0  0  0  0  0  0  0  0  0  0  0
   12.7286   -9.5600    0.0000 O   0  0  0  0  0  0  0  0  0  0  0  0
    9.1305  -12.5600    0.0000 O   0  0  0  0  0  0  0  0  0  0  0  0
    6.3985  -12.0600    0.0000 O   0  0  0  0  0  0  0  0  0  0  0  0
    9.5991   10.4400    0.0000 N   0  0  0  0  0  0  0  0  0  0  0  0
   12.3312    9.9400    0.0000 N   0  0  0  0  0  0  0  0  0  0  0  0
    9.5991   -3.5600    0.0000 N   0  0  0  0  0  0  0  0  0  0  0  0
    6.8671   -4.0600    0.0000 N   0  0  0  0  0  0  0  0  0  0  0  0
    4.6664    2.9400    0.0000 N   0  0  0  0  0  0  0  0  0  0  0  0
   21.0587    2.9400    0.0000 N   0  0  0  0  0  0  0  0  0  0  0  0
   18.3267    3.4400    0.0000 N   0  0  0  0  0  0  0  0  0  0  0  0
   20.5273   10.4400    0.0000 N   0  0  0  0  0  0  0  0  0  0  0  0
   23.2594    9.9400    0.0000 N   0  0  0  0  0  0  0  0  0  0  0  0
   12.3312   -4.0600    0.0000 N   0  0  0  0  0  0  0  0  0  0  0  0
    6.8671    9.9400    0.0000 N   0  0  0  0  0  0  0  0  0  0  0  0
   15.0632   10.4400    0.0000 N   0  0  0  0  0  0  0  0  0  0  0  0
   17.7953    9.9400    0.0000 N   0  0  0  0  0  0  0  0  0  0  0  0
    7.3985    3.4400    0.0000 N   0  0  0  0  0  0  0  0  0  0  0  0
   15.5946    2.9400    0.0000 N   0  0  0  0  0  0  0  0  0  0  0  0
   10.1305    2.9400    0.0000 N   0  0  0  0  0  0  0  0  0  0  0  0
   15.0632   -3.5600    0.0000 N   0  0  0  0  0  0  0  0  0  0  0  0
   12.8626    3.4400    0.0000 N   0  0  0  0  0  0  0  0  0  0  0  0
    4.2690   -0.5600    0.0000 N   0  0  0  0  0  0  0  0  0  0  0  0
   11.4651   -0.5600    0.0000 N   0  0  0  0  0  0  0  0  0  0  0  0
   21.7908    0.4400    0.0000 N   0  0  0  0  0  0  0  0  0  0  0  0
   25.3888    4.4400    0.0000 N   0  0  0  0  0  0  0  0  0  0  0  0
    2.9344    5.9400    0.0000 N   0  0  0  0  0  0  0  0  0  0  0  0
   17.7953   -4.0600    0.0000 N   0  0  0  0  0  0  0  0  0  0  0  0
   16.0632   12.9400    0.0000 N   0  0  0  0  0  0  0  0  0  0  0  0
    5.1350   12.9400    0.0000 N   0  0  0  0  0  0  0  0  0  0  0  0
    8.2645   -0.0600    0.0000 N   0  0  0  0  0  0  0  0  0  0  0  0
   20.5273   -3.5600    0.0000 N   0  0  0  0  0  0  0  0  0  0  0  0
    2.5369   -0.5600    0.0000 N   0  0  0  0  0  0  0  0  0  0  0  0
    3.4030   -2.0600    0.0000 N   0  0  0  0  0  0  0  0  0  0  0  0
   12.3312    0.9400    0.0000 N   0  0  0  0  0  0  0  0  0  0  0  0
   18.3267  -10.5600    0.0000 N   0  0  0  0  0  0  0  0  0  0  0  0
   23.2594   -4.0600    0.0000 N   0  0  0  0  0  0  0  0  0  0  0  0
   10.5991    0.9400    0.0000 N   0  0  0  0  0  0  0  0  0  0  0  0
   21.0587  -11.0600    0.0000 N   0  0  0  0  0  0  0  0  0  0  0  0
   15.5946  -11.0600    0.0000 N   0  0  0  0  0  0  0  0  0  0  0  0
   18.7953   -6.5600    0.0000 N   0  0  0  0  0  0  0  0  0  0  0  0
   12.8626  -10.5600    0.0000 N   0  0  0  0  0  0  0  0  0  0  0  0
   10.1305  -11.0600    0.0000 N   0  0  0  0  0  0  0  0  0  0  0  0
    7.3985  -10.5600    0.0000 N   0  0  0  0  0  0  0  0  0  0  0  0
    4.6664  -11.0600    0.0000 N   0  0  0  0  0  0  0  0  0  0  0  0
    4.5619   -8.0655    0.0000 N   0  0  0  0  0  0  0  0  0  0  0  0
    3.0837   -8.7236    0.0000 N   0  0  0  0  0  0  0  0  0  0  0  0
   11.4651   11.4400    0.0000 C   0  0  0  0  0  0  0  0  0  0  0  0
   11.4651   10.4400    0.0000 C   0  0  0  0  0  0  0  0  0  0  0  0
    8.7331    9.9400    0.0000 C   0  0  0  0  0  0  0  0  0  0  0  0
   10.5991   11.9400    0.0000 C   0  0  0  0  0  0  0  0  0  0  0  0
    8.7331   -4.0600    0.0000 C   0  0  0  0  0  0  0  0  0  0  0  0
    8.7331    8.9400    0.0000 C   0  0  0  0  0  0  0  0  0  0  0  0
    8.7331   -5.0600    0.0000 C   0  0  0  0  0  0  0  0  0  0  0  0
   10.5991    9.9400    0.0000 C   0  0  0  0  0  0  0  0  0  0  0  0
    7.8671    8.4400    0.0000 C   0  0  0  0  0  0  0  0  0  0  0  0
    7.8671   -5.5600    0.0000 C   0  0  0  0  0  0  0  0  0  0  0  0
    6.0010   -3.5600    0.0000 C   0  0  0  0  0  0  0  0  0  0  0  0
   12.3312   11.9400    0.0000 C   0  0  0  0  0  0  0  0  0  0  0  0
   19.1927    2.9400    0.0000 C   0  0  0  0  0  0  0  0  0  0  0  0
    6.0010   -2.5600    0.0000 C   0  0  0  0  0  0  0  0  0  0  0  0
   21.9247    3.4400    0.0000 C   0  0  0  0  0  0  0  0  0  0  0  0
    7.8671   -3.5600    0.0000 C   0  0  0  0  0  0  0  0  0  0  0  0
    5.5324    3.4400    0.0000 C   0  0  0  0  0  0  0  0  0  0  0  0
   11.4651   -3.5600    0.0000 C   0  0  0  0  0  0  0  0  0  0  0  0
   19.6613    9.9400    0.0000 C   0  0  0  0  0  0  0  0  0  0  0  0
   19.6613    8.9400    0.0000 C   0  0  0  0  0  0  0  0  0  0  0  0
   19.1927    1.9400    0.0000 C   0  0  0  0  0  0  0  0  0  0  0  0
    7.8671   10.4400    0.0000 C   0  0  0  0  0  0  0  0  0  0  0  0
   21.9247    4.4400    0.0000 C   0  0  0  0  0  0  0  0  0  0  0  0
    5.5324    4.4400    0.0000 C   0  0  0  0  0  0  0  0  0  0  0  0
   16.4606    3.4400    0.0000 C   0  0  0  0  0  0  0  0  0  0  0  0
   10.5991   12.9400    0.0000 C   0  0  0  0  0  0  0  0  0  0  0  0
   14.1972    9.9400    0.0000 C   0  0  0  0  0  0  0  0  0  0  0  0
   13.3312   10.4400    0.0000 C   0  0  0  0  0  0  0  0  0  0  0  0
    5.1350   -4.0600    0.0000 C   0  0  0  0  0  0  0  0  0  0  0  0
   18.7953    8.4400    0.0000 C   0  0  0  0  0  0  0  0  0  0  0  0
   22.3933   10.4400    0.0000 C   0  0  0  0  0  0  0  0  0  0  0  0
   11.4651   -2.5600    0.0000 C   0  0  0  0  0  0  0  0  0  0  0  0
   10.5991   -4.0600    0.0000 C   0  0  0  0  0  0  0  0  0  0  0  0
    5.1350   -2.0600    0.0000 C   0  0  0  0  0  0  0  0  0  0  0  0
   16.4606    4.4400    0.0000 C   0  0  0  0  0  0  0  0  0  0  0  0
    7.8671    7.4400    0.0000 C   0  0  0  0  0  0  0  0  0  0  0  0
    7.0010    8.9400    0.0000 C   0  0  0  0  0  0  0  0  0  0  0  0
   20.0587    3.4400    0.0000 C   0  0  0  0  0  0  0  0  0  0  0  0
   20.0587    1.4400    0.0000 C   0  0  0  0  0  0  0  0  0  0  0  0
    7.8671   -6.5600    0.0000 C   0  0  0  0  0  0  0  0  0  0  0  0
    7.0010   -5.0600    0.0000 C   0  0  0  0  0  0  0  0  0  0  0  0
   22.7908    4.9400    0.0000 C   0  0  0  0  0  0  0  0  0  0  0  0
    4.6664    4.9400    0.0000 C   0  0  0  0  0  0  0  0  0  0  0  0
   22.7908    2.9400    0.0000 C   0  0  0  0  0  0  0  0  0  0  0  0
   17.3267    2.9400    0.0000 C   0  0  0  0  0  0  0  0  0  0  0  0
   16.9292   10.4400    0.0000 C   0  0  0  0  0  0  0  0  0  0  0  0
    6.3985    2.9400    0.0000 C   0  0  0  0  0  0  0  0  0  0  0  0
   18.7953   10.4400    0.0000 C   0  0  0  0  0  0  0  0  0  0  0  0
   10.5991   -2.0600    0.0000 C   0  0  0  0  0  0  0  0  0  0  0  0
   21.5273    9.9400    0.0000 C   0  0  0  0  0  0  0  0  0  0  0  0
    8.2645    2.9400    0.0000 C   0  0  0  0  0  0  0  0  0  0  0  0
   22.3933   11.4400    0.0000 C   0  0  0  0  0  0  0  0  0  0  0  0
   20.0587    0.4400    0.0000 C   0  0  0  0  0  0  0  0  0  0  0  0
   23.6568    4.4400    0.0000 C   0  0  0  0  0  0  0  0  0  0  0  0
    5.1350   -1.0600    0.0000 C   0  0  0  0  0  0  0  0  0  0  0  0
    4.6664    5.9400    0.0000 C   0  0  0  0  0  0  0  0  0  0  0  0
   14.1972    8.9400    0.0000 C   0  0  0  0  0  0  0  0  0  0  0  0
   16.0632    9.9400    0.0000 C   0  0  0  0  0  0  0  0  0  0  0  0
   14.1972   -4.0600    0.0000 C   0  0  0  0  0  0  0  0  0  0  0  0
    6.0010   10.4400    0.0000 C   0  0  0  0  0  0  0  0  0  0  0  0
   18.7953    7.4400    0.0000 C   0  0  0  0  0  0  0  0  0  0  0  0
   17.9292    8.9400    0.0000 C   0  0  0  0  0  0  0  0  0  0  0  0
    8.2645    1.9400    0.0000 C   0  0  0  0  0  0  0  0  0  0  0  0
   13.3312   -3.5600    0.0000 C   0  0  0  0  0  0  0  0  0  0  0  0
   17.3267    4.9400    0.0000 C   0  0  0  0  0  0  0  0  0  0  0  0
   15.5946    4.9400    0.0000 C   0  0  0  0  0  0  0  0  0  0  0  0
   16.9292   11.4400    0.0000 C   0  0  0  0  0  0  0  0  0  0  0  0
   10.5991   -1.0600    0.0000 C   0  0  0  0  0  0  0  0  0  0  0  0
   10.9965    3.4400    0.0000 C   0  0  0  0  0  0  0  0  0  0  0  0
   13.7286    2.9400    0.0000 C   0  0  0  0  0  0  0  0  0  0  0  0
    9.1305    3.4400    0.0000 C   0  0  0  0  0  0  0  0  0  0  0  0
   14.5946    3.4400    0.0000 C   0  0  0  0  0  0  0  0  0  0  0  0
   23.2594   11.9400    0.0000 C   0  0  0  0  0  0  0  0  0  0  0  0
   14.1972   -5.0600    0.0000 C   0  0  0  0  0  0  0  0  0  0  0  0
   20.9247   -0.0600    0.0000 C   0  0  0  0  0  0  0  0  0  0  0  0
   24.5228    4.9400    0.0000 C   0  0  0  0  0  0  0  0  0  0  0  0
    3.8004    6.4400    0.0000 C   0  0  0  0  0  0  0  0  0  0  0  0
    6.0010   11.4400    0.0000 C   0  0  0  0  0  0  0  0  0  0  0  0
   10.9965    4.4400    0.0000 C   0  0  0  0  0  0  0  0  0  0  0  0
    9.1305    1.4400    0.0000 C   0  0  0  0  0  0  0  0  0  0  0  0
   11.8626    2.9400    0.0000 C   0  0  0  0  0  0  0  0  0  0  0  0
   16.9292   -3.5600    0.0000 C   0  0  0  0  0  0  0  0  0  0  0  0
    5.1350    9.9400    0.0000 C   0  0  0  0  0  0  0  0  0  0  0  0
   13.7286    1.9400    0.0000 C   0  0  0  0  0  0  0  0  0  0  0  0
   16.0632   -4.0600    0.0000 C   0  0  0  0  0  0  0  0  0  0  0  0
   15.0632   -5.5600    0.0000 C   0  0  0  0  0  0  0  0  0  0  0  0
   16.0632   11.9400    0.0000 C   0  0  0  0  0  0  0  0  0  0  0  0
   23.2594   12.9400    0.0000 C   0  0  0  0  0  0  0  0  0  0  0  0
   24.1254   11.4400    0.0000 C   0  0  0  0  0  0  0  0  0  0  0  0
   11.8626    4.9400    0.0000 C   0  0  0  0  0  0  0  0  0  0  0  0
   16.9292   -2.5600    0.0000 C   0  0  0  0  0  0  0  0  0  0  0  0
    5.1350   11.9400    0.0000 C   0  0  0  0  0  0  0  0  0  0  0  0
    9.1305    0.4400    0.0000 C   0  0  0  0  0  0  0  0  0  0  0  0
    3.4030   -1.0600    0.0000 C   0  0  0  0  0  0  0  0  0  0  0  0
   24.1254   13.4400    0.0000 C   0  0  0  0  0  0  0  0  0  0  0  0
   24.9914   11.9400    0.0000 C   0  0  0  0  0  0  0  0  0  0  0  0
   24.9914   12.9400    0.0000 C   0  0  0  0  0  0  0  0  0  0  0  0
   16.0632   -2.0600    0.0000 C   0  0  0  0  0  0  0  0  0  0  0  0
   11.4651    0.4400    0.0000 C   0  0  0  0  0  0  0  0  0  0  0  0
   19.6613   -4.0600    0.0000 C   0  0  0  0  0  0  0  0  0  0  0  0
   18.7953   -3.5600    0.0000 C   0  0  0  0  0  0  0  0  0  0  0  0
   19.6613   -5.0600    0.0000 C   0  0  0  0  0  0  0  0  0  0  0  0
   16.4606  -10.5600    0.0000 C   0  0  0  0  0  0  0  0  0  0  0  0
   16.4606   -9.5600    0.0000 C   0  0  0  0  0  0  0  0  0  0  0  0
   15.1972   -2.5600    0.0000 C   0  0  0  0  0  0  0  0  0  0  0  0
   16.0632   -1.0600    0.0000 C   0  0  0  0  0  0  0  0  0  0  0  0
   22.3933   -3.5600    0.0000 C   0  0  0  0  0  0  0  0  0  0  0  0
   19.1927  -11.0600    0.0000 C   0  0  0  0  0  0  0  0  0  0  0  0
   21.9247  -10.5600    0.0000 C   0  0  0  0  0  0  0  0  0  0  0  0
   21.5273   -4.0600    0.0000 C   0  0  0  0  0  0  0  0  0  0  0  0
   10.9965    6.4400    0.0000 C   0  0  0  0  0  0  0  0  0  0  0  0
   17.3267  -11.0600    0.0000 C   0  0  0  0  0  0  0  0  0  0  0  0
   19.1927  -12.0600    0.0000 C   0  0  0  0  0  0  0  0  0  0  0  0
   21.9247   -9.5600    0.0000 C   0  0  0  0  0  0  0  0  0  0  0  0
   20.0587  -10.5600    0.0000 C   0  0  0  0  0  0  0  0  0  0  0  0
   22.7908  -11.0600    0.0000 C   0  0  0  0  0  0  0  0  0  0  0  0
   14.3312   -2.0600    0.0000 C   0  0  0  0  0  0  0  0  0  0  0  0
   15.1972   -0.5600    0.0000 C   0  0  0  0  0  0  0  0  0  0  0  0
   22.3933   -2.5600    0.0000 C   0  0  0  0  0  0  0  0  0  0  0  0
   17.3267   -9.0600    0.0000 C   0  0  0  0  0  0  0  0  0  0  0  0
   15.5946   -9.0600    0.0000 C   0  0  0  0  0  0  0  0  0  0  0  0
   18.7953   -5.5600    0.0000 C   0  0  0  0  0  0  0  0  0  0  0  0
   14.3312   -1.0600    0.0000 C   0  0  0  0  0  0  0  0  0  0  0  0
   20.0587  -12.5600    0.0000 C   0  0  0  0  0  0  0  0  0  0  0  0
   14.5946  -10.5600    0.0000 C   0  0  0  0  0  0  0  0  0  0  0  0
   13.7286  -11.0600    0.0000 C   0  0  0  0  0  0  0  0  0  0  0  0
   21.0587   -9.0600    0.0000 C   0  0  0  0  0  0  0  0  0  0  0  0
   23.2594   -2.0600    0.0000 C   0  0  0  0  0  0  0  0  0  0  0  0
   20.9247  -12.0600    0.0000 C   0  0  0  0  0  0  0  0  0  0  0  0
   20.0587  -13.5600    0.0000 C   0  0  0  0  0  0  0  0  0  0  0  0
   13.7286  -12.0600    0.0000 C   0  0  0  0  0  0  0  0  0  0  0  0
   10.9965  -10.5600    0.0000 C   0  0  0  0  0  0  0  0  0  0  0  0
   11.8626  -11.0600    0.0000 C   0  0  0  0  0  0  0  0  0  0  0  0
   21.7908  -12.5600    0.0000 C   0  0  0  0  0  0  0  0  0  0  0  0
   20.9247  -14.0600    0.0000 C   0  0  0  0  0  0  0  0  0  0  0  0
   21.7908  -13.5600    0.0000 C   0  0  0  0  0  0  0  0  0  0  0  0
   10.9965   -9.5600    0.0000 C   0  0  0  0  0  0  0  0  0  0  0  0
    9.1305  -10.5600    0.0000 C   0  0  0  0  0  0  0  0  0  0  0  0
    8.2645  -11.0600    0.0000 C   0  0  0  0  0  0  0  0  0  0  0  0
   11.8626   -9.0600    0.0000 C   0  0  0  0  0  0  0  0  0  0  0  0
    8.2645  -12.0600    0.0000 C   0  0  0  0  0  0  0  0  0  0  0  0
    6.3985  -11.0600    0.0000 C   0  0  0  0  0  0  0  0  0  0  0  0
    5.5324  -10.5600    0.0000 C   0  0  0  0  0  0  0  0  0  0  0  0
    5.5324   -9.5600    0.0000 C   0  0  0  0  0  0  0  0  0  0  0  0
    4.6664   -9.0600    0.0000 C   0  0  0  0  0  0  0  0  0  0  0  0
    3.7529   -9.4667    0.0000 C   0  0  0  0  0  0  0  0  0  0  0  0
    3.5837   -7.8576    0.0000 C   0  0  0  0  0  0  0  0  0  0  0  0
    2.8660   -2.3700    0.0000 H   0  0  0  0  0  0  0  0  0  0  0  0
   10.5991    1.5600    0.0000 H   0  0  0  0  0  0  0  0  0  0  0  0
  1177  1  0
  1198  1  0
  2 95  2  0
  3103  2  0
  4109  2  0
  5115  2  0
  6116  2  0
  7120  2  0
  8125  2  0
  9131  2  0
 10132  2  0
 11134  2  0
 12135  2  0
 13137  2  0
 14144  1  0
 15145  2  0
 16151  2  0
161 17  1  0
 18158  2  0
 19159  2  0
 20168  2  0
 21170  1  0
 22170  2  0
 23172  2  0
 24174  2  0
 25179  2  0
 26180  2  0
 27184  1  0
 28188  2  0
 29197  2  0
201 30  1  0
 31199  2  0
 32202  2  0
 33210  1  0
 34203  2  0
 35209  2  0
 36212  2  0
 37215  1  0
 38215  2  0
 39220  2  0
 40225  2  0
 41227  1  0
 42227  2  0
 43228  1  0
 44229  2  0
 90 45  1  0
 45 95  1  0
 89 46  1  6
 46115  1  0
 92 47  1  0
 47120  1  0
 98 48  1  0
 48103  1  0
104 49  1  0
 49116  1  0
102 50  1  0
 50125  1  0
100 51  1  0
 51132  1  0
106 52  1  0
 52137  1  0
118 53  1  0
 53131  1  0
105 54  1  0
 54151  1  0
 55109  1  0
147 55  1  0
114 56  1  0
 56145  1  0
133 57  1  0
 57135  1  0
 58134  1  0
138 58  1  0
112 59  1  1
 59159  1  0
156 60  1  0
 60158  1  0
146 61  1  1
 61172  1  0
157 62  1  0
 62168  1  0
 63142  1  0
 63181  1  0
 64155  1  0
 64186  1  0
 65162  1  0
 66163  1  0
 67164  1  0
169 68  1  0
 68188  1  0
 69174  1  0
 70179  1  0
 71180  1  0
187 72  1  0
 72197  1  0
 73181  1  0
 74181  2  0
 74235  1  0
 75186  1  0
195 76  1  0
 76199  1  0
194 77  1  0
 77203  1  0
 78186  2  0
 78236  1  0
196 79  1  1
 79202  1  0
190 80  1  1
 80212  1  0
 81209  1  0
213 82  1  0
 82220  1  0
219 83  1  0
 83225  1  0
226 84  1  0
 84229  1  0
230 85  1  1
 86232  1  0
 86234  1  0
 87233  1  0
 87234  2  0
 88 89  1  0
 88 91  1  0
 88 99  1  6
 89 95  1  0
 90 93  1  1
 90109  1  0
 91113  1  0
 92 94  1  1
 92103  1  0
 93 96  1  0
 94 97  1  0
 96123  1  0
 96124  1  0
 97127  1  0
 97128  1  0
 98101  1  6
 98116  1  0
100108  1  6
100125  1  0
101121  1  0
102110  1  1
102131  1  0
104111  1  1
104134  1  0
105119  1  6
105120  1  0
106107  1  1
106135  1  0
107117  1  0
108126  1  0
110129  1  0
111130  1  0
112122  1  0
112132  1  0
114115  1  0
114144  1  1
117148  1  0
117149  1  0
118137  1  0
118139  1  6
119136  1  0
121142  1  0
122152  1  0
122153  1  0
126140  1  0
129141  1  0
130143  1  0
133145  1  0
133154  1  6
136155  1  0
138150  1  6
138158  1  0
139160  1  0
140162  1  0
141163  1  0
143164  1  0
146151  1  0
146161  1  0
147165  1  6
147170  1  0
150167  1  0
154174  1  0
156166  1  1
156168  1  0
157159  1  0
157171  1  6
160175  2  0
160176  1  0
161173  1  1
165179  1  0
166177  1  0
167180  1  0
169172  1  0
169178  1  6
175182  1  0
176183  2  0
178185  1  0
182184  2  0
183184  1  0
185192  2  0
185193  1  0
187188  1  0
187189  1  1
189209  1  0
190191  1  0
190199  1  0
191207  1  0
191208  1  0
192204  1  0
193205  2  0
194197  1  0
194206  1  6
195200  1  6
195202  1  0
196201  1  0
196203  1  0
200211  1  0
201214  1  1
204210  2  0
205210  1  0
206215  1  0
211216  2  0
211217  1  0
212213  1  0
213218  1  6
216221  1  0
217222  2  0
219220  1  0
219224  1  1
221223  2  0
222223  1  0
224227  1  0
225226  1  0
226228  1  6
229230  1  0
230231  1  0
231232  1  0
232233  2  0
M  END
>  <PUBCHEM_COMPOUND_CID>  (1) 
16132300

>  <PUBCHEM_COMPOUND_CANONICALIZED>  (1) 
1

>  <PUBCHEM_CACTVS_COMPLEXITY>  (1) 
7580

>  <PUBCHEM_CACTVS_HBOND_ACCEPTOR>  (1) 
51

>  <PUBCHEM_CACTVS_HBOND_DONOR>  (1) 
51

>  <PUBCHEM_CACTVS_ROTATABLE_BOND>  (1) 
115

>  <PUBCHEM_CACTVS_SUBSKEYS>  (1) 
AAADcfB//gBAAAAAAAAAAAAAAAAAAWAAAAAwYMAAAAAAAAAB1AAAHgQQCAAADTzl3ga/npbJkgioAzX3fAACgC2xMrAJ2YG+eIiKfj7i2TOUcAAu9hPY2Ce/y6COIAAAAAAAAABAAAAAAAAAAAAAAAAAAA==

>  <PUBCHEM_IUPAC_OPENEYE_NAME>  (1) 
(2S)-4-amino-2-[[(2S)-2-[[(2S,3S)-2-[[(2S)-2-[[(2S)-4-amino-2-[[(2S)-2-[[(2S)-2-[[(2S)-6-amino-2-[[(2S)-6-amino-2-[[(2S)-2-[[(2S)-2-[[(2S)-2-[[(2S)-5-amino-2-[[(2S)-6-amino-2-[[(2S)-2-[[(2S)-2-[[(2S)-2-[[(2S,3R)-2-[[(2S)-2-[[(2S)-4-amino-2-[[(2S)-2-[[(2S,3R)-2-[[(2S)-2-[[(2S)-2-[[(2S)-2-[[(2S)-2-[[(2S)-2-[[(2S)-2-amino-3-(1H-imidazol-5-yl)propanoyl]amino]-3-hydroxy-propanoyl]amino]-3-carboxy-propanoyl]amino]propanoyl]amino]-3-methyl-butanoyl]amino]-3-phenyl-propanoyl]amino]-3-hydroxy-butanoyl]amino]-3-carboxy-propanoyl]amino]-4-oxo-butanoyl]amino]-3-(4-hydroxyphenyl)propanoyl]amino]-3-hydroxy-butanoyl]amino]-5-guanidino-pentanoyl]amino]-4-methyl-pentanoyl]amino]-5-guanidino-pentanoyl]amino]hexanoyl]amino]-5-oxo-pentanoyl]amino]-4-methylsulfanyl-butanoyl]amino]propanoyl]amino]-3-methyl-butanoyl]amino]hexanoyl]amino]hexanoyl]amino]-3-(4-hydroxyphenyl)propanoyl]amino]-4-methyl-pentanoyl]amino]-4-oxo-butanoyl]amino]-3-hydroxy-propanoyl]amino]-3-methyl-pentanoyl]amino]-4-methyl-pentanoyl]amino]-4-oxo-butanoic acid

>  <PUBCHEM_IUPAC_CAS_NAME>  (1) 
(2S)-4-amino-2-[[(2S)-2-[[(2S,3S)-2-[[(2S)-2-[[(2S)-4-amino-2-[[(2S)-2-[[(2S)-2-[[(2S)-6-amino-2-[[(2S)-6-amino-2-[[(2S)-2-[[(2S)-2-[[(2S)-2-[[(2S)-5-amino-2-[[(2S)-6-amino-2-[[(2S)-2-[[(2S)-2-[[(2S)-2-[[(2S,3R)-2-[[(2S)-2-[[(2S)-4-amino-2-[[(2S)-2-[[(2S,3R)-2-[[(2S)-2-[[(2S)-2-[[(2S)-2-[[(2S)-2-[[(2S)-2-[[(2S)-2-amino-3-(1H-imidazol-5-yl)-1-oxopropyl]amino]-3-hydroxy-1-oxopropyl]amino]-3-carboxy-1-oxopropyl]amino]-1-oxopropyl]amino]-3-methyl-1-oxobutyl]amino]-1-oxo-3-phenylpropyl]amino]-3-hydroxy-1-oxobutyl]amino]-3-carboxy-1-oxopropyl]amino]-1,4-dioxobutyl]amino]-3-(4-hydroxyphenyl)-1-oxopropyl]amino]-3-hydroxy-1-oxobutyl]amino]-5-carbamimidamido-1-oxopentyl]amino]-4-methyl-1-oxopentyl]amino]-5-carbamimidamido-1-oxopentyl]amino]-1-oxohexyl]amino]-1,5-dioxopentyl]amino]-4-(methylthio)-1-oxobutyl]amino]-1-oxopropyl]amino]-3-methyl-1-oxobutyl]amino]-1-oxohexyl]amino]-1-oxohexyl]amino]-3-(4-hydroxyphenyl)-1-oxopropyl]amino]-4-methyl-1-oxopentyl]amino]-1,4-dioxobutyl]amino]-3-hydroxy-1-oxopropyl]amino]-3-methyl-1-oxopentyl]amino]-4-methyl-1-oxopentyl]amino]-4-oxobutanoic acid

>  <PUBCHEM_IUPAC_NAME_MARKUP>  (1) 
(2<I>S</I>)-4-amino-2-[[(2<I>S</I>)-2-[[(2<I>S</I>,3<I>S</I>)-2-[[(2<I>S</I>)-2-[[(2<I>S</I>)-4-amino-2-[[(2<I>S</I>)-2-[[(2<I>S</I>)-2-[[(2<I>S</I>)-6-amino-2-[[(2<I>S</I>)-6-amino-2-[[(2<I>S</I>)-2-[[(2<I>S</I>)-2-[[(2<I>S</I>)-2-[[(2<I>S</I>)-5-amino-2-[[(2<I>S</I>)-6-amino-2-[[(2<I>S</I>)-2-[[(2<I>S</I>)-2-[[(2<I>S</I>)-2-[[(2<I>S</I>,3<I>R</I>)-2-[[(2<I>S</I>)-2-[[(2<I>S</I>)-4-amino-2-[[(2<I>S</I>)-2-[[(2<I>S</I>,3<I>R</I>)-2-[[(2<I>S</I>)-2-[[(2<I>S</I>)-2-[[(2<I>S</I>)-2-[[(2<I>S</I>)-2-[[(2<I>S</I>)-2-[[(2<I>S</I>)-2-amino-3-(1<I>H</I>-imidazol-5-yl)propanoyl]amino]-3-hydroxypropanoyl]amino]-3-carboxypropanoyl]amino]propanoyl]amino]-3-methylbutanoyl]amino]-3-phenylpropanoyl]amino]-3-hydroxybutanoyl]amino]-3-carboxypropanoyl]amino]-4-oxobutanoyl]amino]-3-(4-hydroxyphenyl)propanoyl]amino]-3-hydroxybutanoyl]amino]-5-carbamimidamidopentanoyl]amino]-4-methylpentanoyl]amino]-5-carbamimidamidopentanoyl]amino]hexanoyl]amino]-5-oxopentanoyl]amino]-4-methylsulfanylbutanoyl]amino]propanoyl]amino]-3-methylbutanoyl]amino]hexanoyl]amino]hexanoyl]amino]-3-(4-hydroxyphenyl)propanoyl]amino]-4-methylpentanoyl]amino]-4-oxobutanoyl]amino]-3-hydroxypropanoyl]amino]-3-methylpentanoyl]amino]-4-methylpentanoyl]amino]-4-oxobutanoic acid

>  <PUBCHEM_IUPAC_NAME>  (1) 
(2S)-4-amino-2-[[(2S)-2-[[(2S,3S)-2-[[(2S)-2-[[(2S)-4-amino-2-[[(2S)-2-[[(2S)-2-[[(2S)-6-amino-2-[[(2S)-6-amino-2-[[(2S)-2-[[(2S)-2-[[(2S)-2-[[(2S)-5-amino-2-[[(2S)-6-amino-2-[[(2S)-2-[[(2S)-2-[[(2S)-2-[[(2S,3R)-2-[[(2S)-2-[[(2S)-4-amino-2-[[(2S)-2-[[(2S,3R)-2-[[(2S)-2-[[(2S)-2-[[(2S)-2-[[(2S)-2-[[(2S)-2-[[(2S)-2-amino-3-(1H-imidazol-5-yl)propanoyl]amino]-3-hydroxypropanoyl]amino]-3-carboxypropanoyl]amino]propanoyl]amino]-3-methylbutanoyl]amino]-3-phenylpropanoyl]amino]-3-hydroxybutanoyl]amino]-3-carboxypropanoyl]amino]-4-oxobutanoyl]amino]-3-(4-hydroxyphenyl)propanoyl]amino]-3-hydroxybutanoyl]amino]-5-carbamimidamidopentanoyl]amino]-4-methylpentanoyl]amino]-5-carbamimidamidopentanoyl]amino]hexanoyl]amino]-5-oxopentanoyl]amino]-4-methylsulfanylbutanoyl]amino]propanoyl]amino]-3-methylbutanoyl]amino]hexanoyl]amino]hexanoyl]amino]-3-(4-hydroxyphenyl)propanoyl]amino]-4-methylpentanoyl]amino]-4-oxobutanoyl]amino]-3-hydroxypropanoyl]amino]-3-methylpentanoyl]amino]-4-methylpentanoyl]amino]-4-oxobutanoic acid

>  <PUBCHEM_IUPAC_SYSTEMATIC_NAME>  (1) 
(2S)-4-azanyl-2-[[(2S)-2-[[(2S,3S)-2-[[(2S)-2-[[(2S)-4-azanyl-2-[[(2S)-2-[[(2S)-2-[[(2S)-6-azanyl-2-[[(2S)-6-azanyl-2-[[(2S)-2-[[(2S)-2-[[(2S)-2-[[(2S)-5-azanyl-2-[[(2S)-6-azanyl-2-[[(2S)-2-[[(2S)-2-[[(2S)-2-[[(2S,3R)-2-[[(2S)-2-[[(2S)-4-azanyl-2-[[(2S)-2-[[(2S,3R)-2-[[(2S)-2-[[(2S)-2-[[(2S)-2-[[(2S)-2-[[(2S)-2-[[(2S)-2-azanyl-3-(1H-imidazol-5-yl)propanoyl]amino]-3-oxidanyl-propanoyl]amino]-4-oxidanyl-4-oxidanylidene-butanoyl]amino]propanoyl]amino]-3-methyl-butanoyl]amino]-3-phenyl-propanoyl]amino]-3-oxidanyl-butanoyl]amino]-4-oxidanyl-4-oxidanylidene-butanoyl]amino]-4-oxidanylidene-butanoyl]amino]-3-(4-hydroxyphenyl)propanoyl]amino]-3-oxidanyl-butanoyl]amino]-5-carbamimidamido-pentanoyl]amino]-4-methyl-pentanoyl]amino]-5-carbamimidamido-pentanoyl]amino]hexanoyl]amino]-5-oxidanylidene-pentanoyl]amino]-4-methylsulfanyl-butanoyl]amino]propanoyl]amino]-3-methyl-butanoyl]amino]hexanoyl]amino]hexanoyl]amino]-3-(4-hydroxyphenyl)propanoyl]amino]-4-methyl-pentanoyl]amino]-4-oxidanylidene-butanoyl]amino]-3-oxidanyl-propanoyl]amino]-3-methyl-pentanoyl]amino]-4-methyl-pentanoyl]amino]-4-oxidanylidene-butanoic acid

>  <PUBCHEM_IUPAC_TRADITIONAL_NAME>  (1) 
(2S)-4-amino-2-[[(2S)-2-[[(2S,3S)-2-[[(2S)-2-[[(2S)-4-amino-2-[[(2S)-2-[[(2S)-2-[[(2S)-6-amino-2-[[(2S)-6-amino-2-[[(2S)-2-[[(2S)-2-[[(2S)-2-[[(2S)-5-amino-2-[[(2S)-6-amino-2-[[(2S)-2-[[(2S)-2-[[(2S)-2-[[(2S,3R)-2-[[(2S)-2-[[(2S)-4-amino-2-[[(2S)-2-[[(2S,3R)-2-[[(2S)-2-[[(2S)-2-[[(2S)-2-[[(2S)-2-[[(2S)-2-[[(2S)-2-amino-3-(1H-imidazol-5-yl)propanoyl]amino]-3-hydroxy-propanoyl]amino]-3-carboxy-propanoyl]amino]propanoyl]amino]-3-methyl-butanoyl]amino]-3-phenyl-propanoyl]amino]-3-hydroxy-butanoyl]amino]-3-carboxy-propanoyl]amino]-4-keto-butanoyl]amino]-3-(4-hydroxyphenyl)propanoyl]amino]-3-hydroxy-butanoyl]amino]-5-guanidino-pentanoyl]amino]-4-methyl-pentanoyl]amino]-5-guanidino-pentanoyl]amino]hexanoyl]amino]-5-keto-pentanoyl]amino]-4-(methylthio)butanoyl]amino]propanoyl]amino]-3-methyl-butanoyl]amino]hexanoyl]amino]hexanoyl]amino]-3-(4-hydroxyphenyl)propanoyl]amino]-4-methyl-pentanoyl]amino]-4-keto-butanoyl]amino]-3-hydroxy-propanoyl]amino]-3-methyl-pentanoyl]amino]-4-methyl-pentanoyl]amino]-4-keto-butyric acid

>  <PUBCHEM_IUPAC_INCHI>  (1) 
InChI=1S/C147H237N43O43S/c1-18-75(12)115(142(229)180-96(56-72(6)7)131(218)183-104(145(232)233)63-110(155)200)188-139(226)106(68-192)185-134(221)101(62-109(154)199)177-130(217)95(55-71(4)5)174-132(219)97(58-81-37-41-84(195)42-38-81)175-125(212)88(33-23-26-49-149)167-123(210)89(34-24-27-50-150)171-140(227)113(73(8)9)186-118(205)76(13)164-121(208)93(47-53-234-17)170-127(214)92(45-46-107(152)197)169-122(209)87(32-22-25-48-148)166-124(211)90(35-28-51-161-146(156)157)168-129(216)94(54-70(2)3)173-126(213)91(36-29-52-162-147(158)159)172-143(230)116(78(15)193)189-136(223)98(59-82-39-43-85(196)44-40-82)176-133(220)100(61-108(153)198)178-135(222)103(65-112(203)204)182-144(231)117(79(16)194)190-137(224)99(57-80-30-20-19-21-31-80)181-141(228)114(74(10)11)187-119(206)77(14)165-128(215)102(64-111(201)202)179-138(225)105(67-191)184-120(207)86(151)60-83-66-160-69-163-83/h19-21,30-31,37-44,66,69-79,86-106,113-117,191-196H,18,22-29,32-36,45-65,67-68,148-151H2,1-17H3,(H2,152,197)(H2,153,198)(H2,154,199)(H2,155,200)(H,160,163)(H,164,208)(H,165,215)(H,166,211)(H,167,210)(H,168,216)(H,169,209)(H,170,214)(H,171,227)(H,172,230)(H,173,213)(H,174,219)(H,175,212)(H,176,220)(H,177,217)(H,178,222)(H,179,225)(H,180,229)(H,181,228)(H,182,231)(H,183,218)(H,184,207)(H,185,221)(H,186,205)(H,187,206)(H,188,226)(H,189,223)(H,190,224)(H,201,202)(H,203,204)(H,232,233)(H4,156,157,161)(H4,158,159,162)/t75-,76-,77-,78+,79+,86-,87-,88-,89-,90-,91-,92-,93-,94-,95-,96-,97-,98-,99-,100-,101-,102-,103-,104-,105-,106-,113-,114-,115-,116-,117-/m0/s1

>  <PUBCHEM_IUPAC_INCHIKEY>  (1) 
VBUWHHLIZKOSMS-RIWXPGAOSA-N

>  <PUBCHEM_XLOGP3_AA>  (1) 
-15.9

>  <PUBCHEM_EXACT_MASS>  (1) 
3325.7434694

>  <PUBCHEM_MOLECULAR_FORMULA>  (1) 
C147H237N43O43S

>  <PUBCHEM_MOLECULAR_WEIGHT>  (1) 
3326.8

>  <PUBCHEM_OPENEYE_CAN_SMILES>  (1) 
CCC(C)C(C(=O)NC(CC(C)C)C(=O)NC(CC(=O)N)C(=O)O)NC(=O)C(CO)NC(=O)C(CC(=O)N)NC(=O)C(CC(C)C)NC(=O)C(CC1=CC=C(C=C1)O)NC(=O)C(CCCCN)NC(=O)C(CCCCN)NC(=O)C(C(C)C)NC(=O)C(C)NC(=O)C(CCSC)NC(=O)C(CCC(=O)N)NC(=O)C(CCCCN)NC(=O)C(CCCNC(=N)N)NC(=O)C(CC(C)C)NC(=O)C(CCCNC(=N)N)NC(=O)C(C(C)O)NC(=O)C(CC2=CC=C(C=C2)O)NC(=O)C(CC(=O)N)NC(=O)C(CC(=O)O)NC(=O)C(C(C)O)NC(=O)C(CC3=CC=CC=C3)NC(=O)C(C(C)C)NC(=O)C(C)NC(=O)C(CC(=O)O)NC(=O)C(CO)NC(=O)C(CC4=CN=CN4)N

>  <PUBCHEM_OPENEYE_ISO_SMILES>  (1) 
CC[C@H](C)[C@@H](C(=O)N[C@@H](CC(C)C)C(=O)N[C@@H](CC(=O)N)C(=O)O)NC(=O)[C@H](CO)NC(=O)[C@H](CC(=O)N)NC(=O)[C@H](CC(C)C)NC(=O)[C@H](CC1=CC=C(C=C1)O)NC(=O)[C@H](CCCCN)NC(=O)[C@H](CCCCN)NC(=O)[C@H](C(C)C)NC(=O)[C@H](C)NC(=O)[C@H](CCSC)NC(=O)[C@H](CCC(=O)N)NC(=O)[C@H](CCCCN)NC(=O)[C@H](CCCNC(=N)N)NC(=O)[C@H](CC(C)C)NC(=O)[C@H](CCCNC(=N)N)NC(=O)[C@H]([C@@H](C)O)NC(=O)[C@H](CC2=CC=C(C=C2)O)NC(=O)[C@H](CC(=O)N)NC(=O)[C@H](CC(=O)O)NC(=O)[C@H]([C@@H](C)O)NC(=O)[C@H](CC3=CC=CC=C3)NC(=O)[C@H](C(C)C)NC(=O)[C@H](C)NC(=O)[C@H](CC(=O)O)NC(=O)[C@H](CO)NC(=O)[C@H](CC4=CN=CN4)N

>  <PUBCHEM_CACTVS_TPSA>  (1) 
1470

>  <PUBCHEM_MONOISOTOPIC_WEIGHT>  (1) 
3324.7401145

>  <PUBCHEM_TOTAL_CHARGE>  (1) 
0

>  <PUBCHEM_HEAVY_ATOM_COUNT>  (1) 
234

>  <PUBCHEM_ATOM_DEF_STEREO_COUNT>  (1) 
31

>  <PUBCHEM_ATOM_UDEF_STEREO_COUNT>  (1) 
0

>  <PUBCHEM_BOND_DEF_STEREO_COUNT>  (1) 
0

>  <PUBCHEM_BOND_UDEF_STEREO_COUNT>  (1) 
0

>  <PUBCHEM_ISOTOPIC_ATOM_COUNT>  (1) 
0

>  <PUBCHEM_COMPONENT_COUNT>  (1) 
1

>  <PUBCHEM_CACTVS_TAUTO_COUNT>  (1) 
-1

>  <PUBCHEM_COORDINATE_TYPE>  (1) 
1
5
255

>  <PUBCHEM_BONDANNOTATIONS>  (1) 
160  175  8
160  176  8
161  17  5
175  182  8
176  183  8
182  184  8
183  184  8
185  192  8
185  193  8
192  204  8
193  205  8
204  210  8
205  210  8
211  216  8
211  217  8
216  221  8
217  222  8
221  223  8
222  223  8
232  233  8
201  30  5
90  45  5
89  46  6
92  47  5
98  48  6
104  49  5
102  50  5
100  51  6
106  52  5
118  53  6
105  54  6
147  55  6
114  56  5
133  57  6
138  58  6
112  59  5
156  60  5
146  61  5
157  62  6
169  68  6
187  72  5
195  76  6
194  77  6
196  79  5
190  80  5
213  82  6
219  83  5
226  84  6
230  85  5
86  232  8
86  234  8
87  233  8
87  234  8
88  99  6

$$$$
