JBB47_0007.mol
  ChemDraw06102409262D

 24 27  0  0  0  0  0  0  0  0999 V2000
   -3.0371    1.6660    0.0000 C   0  0  0  0  0  0  0  0  0  0  0  0
   -1.6928    0.8898    0.0000 C   0  0  0  0  0  0  0  0  0  0  0  0
   -1.6928    1.6660    0.0000 C   0  0  0  0  0  0  0  0  0  0  0  0
   -2.3650    2.0540    0.0000 O   0  0  0  0  0  0  0  0  0  0  0  0
   -1.0206    0.5017    0.0000 C   0  0  0  0  0  0  0  0  0  0  0  0
   -0.3485    0.8898    0.0000 C   0  0  0  0  0  0  0  0  0  0  0  0
   -0.3485    1.6660    0.0000 C   0  0  0  0  0  0  0  0  0  0  0  0
   -1.0206    2.0540    0.0000 C   0  0  0  0  0  0  0  0  0  0  0  0
    0.3237    0.5017    0.0000 C   0  0  0  0  0  0  0  0  0  0  0  0
    0.9959    0.8898    0.0000 N   0  0  0  0  0  0  0  0  0  0  0  0
    0.9959    1.6660    0.0000 C   0  0  0  0  0  0  0  0  0  0  0  0
    0.3237    2.0540    0.0000 C   0  0  0  0  0  0  0  0  0  0  0  0
   -0.3042    0.0455    0.0000 C   0  0  0  0  0  0  0  0  0  0  0  0
   -0.0644   -0.6926    0.0000 N   0  0  0  0  0  0  0  0  0  0  0  0
    0.7118   -0.6926    0.0000 C   0  0  0  0  0  0  0  0  0  0  0  0
    0.9516    0.0455    0.0000 C   0  0  0  0  0  0  0  0  0  0  0  0
    1.2311   -1.2694    0.0000 C   0  0  0  0  0  0  0  0  0  0  0  0
    1.9903   -1.1080    0.0000 C   0  0  0  0  0  0  0  0  0  0  0  0
    2.2301   -0.3699    0.0000 C   0  0  0  0  0  0  0  0  0  0  0  0
    1.7108    0.2069    0.0000 C   0  0  0  0  0  0  0  0  0  0  0  0
   -1.0424    0.2854    0.0000 O   0  0  0  0  0  0  0  0  0  0  0  0
   -2.4073    0.4773    0.0000 F   0  0  0  0  0  0  0  0  0  0  0  0
    3.0371   -0.1984    0.0000 Br  0  0  0  0  0  0  0  0  0  0  0  0
    0.9762   -2.0540    0.0000 Br  0  0  0  0  0  0  0  0  0  0  0  0
  2  3  2  0      
  3  4  1  0      
  4  1  1  0      
  2  5  1  0      
  5  6  2  0      
  6  7  1  0      
  7  8  2  0      
  8  3  1  0      
  6  9  1  0      
  9 10  1  0      
 10 11  1  0      
 12  7  1  0      
  9 13  1  0      
 13 14  1  0      
 14 15  1  0      
 15 16  2  0      
 16  9  1  0      
 15 17  1  0      
 17 18  2  0      
 18 19  1  0      
 19 20  2  0      
 20 16  1  0      
 13 21  2  0      
  2 22  1  0      
 12 11  1  0      
 19 23  1  0      
 17 24  1  0      
M  END
