JBB5_0002.mol
  ChemDraw03062411292D

 26 27  0  0  1  0  0  0  0  0999 V2000
   -4.1466    1.4379    0.0000 C   0  0  0  0  0  0  0  0  0  0  0  0
   -4.8582    1.0271    0.0000 C   0  0  0  0  0  0  0  0  0  0  0  0
   -4.8582    0.2054    0.0000 C   0  0  0  0  0  0  0  0  0  0  0  0
   -4.1466   -0.2054    0.0000 C   0  0  0  0  0  0  0  0  0  0  0  0
   -3.4351    0.2054    0.0000 C   0  0  0  0  0  0  0  0  0  0  0  0
   -3.4351    1.0271    0.0000 C   0  0  0  0  0  0  0  0  0  0  0  0
   -2.7235   -0.2054    0.0000 C   0  0  0  0  0  0  0  0  0  0  0  0
    0.8345    0.2054    0.0000 C   0  0  0  0  0  0  0  0  0  0  0  0
    1.5461   -0.2054    0.0000 N   0  0  0  0  0  0  0  0  0  0  0  0
    0.8345    1.0271    0.0000 O   0  0  0  0  0  0  0  0  0  0  0  0
    2.2577    0.2054    0.0000 C   0  0  0  0  0  0  0  0  0  0  0  0
    3.0083   -0.1288    0.0000 S   0  0  0  0  0  0  0  0  0  0  0  0
    3.5581    0.4818    0.0000 C   0  0  0  0  0  0  0  0  0  0  0  0
    3.1473    1.1934    0.0000 C   0  0  0  0  0  0  0  0  0  0  0  0
    2.3435    1.0226    0.0000 N   0  0  0  0  0  0  0  0  0  0  0  0
    4.3753    0.3959    0.0000 N   0  3  0  0  0  0  0  0  0  0  0  0
    4.8582    1.0607    0.0000 O   0  5  0  0  0  0  0  0  0  0  0  0
    4.7095   -0.3547    0.0000 O   0  0  0  0  0  0  0  0  0  0  0  0
   -2.0119    0.2054    0.0000 O   0  0  0  0  0  0  0  0  0  0  0  0
   -1.3003   -0.2054    0.0000 C   0  0  0  0  0  0  0  0  0  0  0  0
   -0.5887    0.2054    0.0000 N   0  0  0  0  0  0  0  0  0  0  0  0
   -1.3003   -1.0271    0.0000 O   0  0  0  0  0  0  0  0  0  0  0  0
    0.1229   -0.2054    0.0000 C   0  0  0  0  0  0  0  0  0  0  0  0
    0.1229   -1.0271    0.0000 C   0  0  0  0  0  0  0  0  0  0  0  0
    0.8345   -1.4379    0.0000 C   0  0  0  0  0  0  0  0  0  0  0  0
   -0.5887   -1.4379    0.0000 C   0  0  0  0  0  0  0  0  0  0  0  0
  1  2  2  0      
  2  3  1  0      
  3  4  2  0      
  4  5  1  0      
  5  6  2  0      
  6  1  1  0      
  5  7  1  0      
  8  9  1  0      
  8 10  2  0      
  9 11  1  0      
 12 13  1  0      
 13 14  2  0      
 14 15  1  0      
 15 11  2  0      
 11 12  1  0      
 13 16  1  0      
 16 17  1  0      
 16 18  2  0      
  7 19  1  0      
 19 20  1  0      
 20 21  1  0      
 20 22  2  0      
 21 23  1  0      
 23  8  1  0      
 23 24  1  6      
 24 25  1  0      
 24 26  1  0      
M  CHG  2  16   1  17  -1
M  END
