JBB5_0003.mol
  ChemDraw03062411322D

 30 32  0  0  1  0  0  0  0  0999 V2000
   -4.1466    2.0567    0.0000 C   0  0  0  0  0  0  0  0  0  0  0  0
   -4.8582    1.6458    0.0000 C   0  0  0  0  0  0  0  0  0  0  0  0
   -4.8582    0.8242    0.0000 C   0  0  0  0  0  0  0  0  0  0  0  0
   -4.1466    0.4133    0.0000 C   0  0  0  0  0  0  0  0  0  0  0  0
   -3.4351    0.8242    0.0000 C   0  0  0  0  0  0  0  0  0  0  0  0
   -3.4351    1.6458    0.0000 C   0  0  0  0  0  0  0  0  0  0  0  0
   -2.7235    0.4133    0.0000 C   0  0  0  0  0  0  0  0  0  0  0  0
    0.8345    0.8242    0.0000 C   0  0  0  0  0  0  0  0  0  0  0  0
    1.5461    0.4133    0.0000 N   0  0  0  0  0  0  0  0  0  0  0  0
    0.8345    1.6458    0.0000 O   0  0  0  0  0  0  0  0  0  0  0  0
    2.2577    0.8242    0.0000 C   0  0  0  0  0  0  0  0  0  0  0  0
    3.0083    0.4900    0.0000 S   0  0  0  0  0  0  0  0  0  0  0  0
    3.5581    1.1006    0.0000 C   0  0  0  0  0  0  0  0  0  0  0  0
    3.1473    1.8122    0.0000 C   0  0  0  0  0  0  0  0  0  0  0  0
    2.3435    1.6413    0.0000 N   0  0  0  0  0  0  0  0  0  0  0  0
    4.3753    1.0147    0.0000 N   0  3  0  0  0  0  0  0  0  0  0  0
    4.8582    1.6794    0.0000 O   0  5  0  0  0  0  0  0  0  0  0  0
    4.7095    0.2641    0.0000 O   0  0  0  0  0  0  0  0  0  0  0  0
   -2.0119    0.8242    0.0000 O   0  0  0  0  0  0  0  0  0  0  0  0
   -1.3003    0.4133    0.0000 C   0  0  0  0  0  0  0  0  0  0  0  0
   -0.5887    0.8242    0.0000 N   0  0  0  0  0  0  0  0  0  0  0  0
   -1.3003   -0.4083    0.0000 O   0  0  0  0  0  0  0  0  0  0  0  0
    0.1229    0.4133    0.0000 C   0  0  0  0  0  0  0  0  0  0  0  0
    0.1229   -0.4083    0.0000 C   0  0  0  0  0  0  0  0  0  0  0  0
    0.8345   -0.8192    0.0000 C   0  0  0  0  0  0  0  0  0  0  0  0
    0.8345   -1.6442    0.0000 C   0  0  0  0  0  0  0  0  0  0  0  0
    1.5489   -2.0567    0.0000 C   0  0  0  0  0  0  0  0  0  0  0  0
    2.2634   -1.6442    0.0000 C   0  0  0  0  0  0  0  0  0  0  0  0
    2.2634   -0.8192    0.0000 C   0  0  0  0  0  0  0  0  0  0  0  0
    1.5489   -0.4067    0.0000 C   0  0  0  0  0  0  0  0  0  0  0  0
  1  2  2  0      
  2  3  1  0      
  3  4  2  0      
  4  5  1  0      
  5  6  2  0      
  6  1  1  0      
  5  7  1  0      
  8  9  1  0      
  8 10  2  0      
  9 11  1  0      
 12 13  1  0      
 13 14  2  0      
 14 15  1  0      
 15 11  2  0      
 11 12  1  0      
 13 16  1  0      
 16 17  1  0      
 16 18  2  0      
  7 19  1  0      
 19 20  1  0      
 20 21  1  0      
 20 22  2  0      
 21 23  1  0      
 23  8  1  0      
 23 24  1  6      
 24 25  1  0      
 25 26  2  0      
 26 27  1  0      
 27 28  2  0      
 28 29  1  0      
 29 30  2  0      
 30 25  1  0      
M  CHG  2  16   1  17  -1
M  END
