JBB7_0017.mol
  ChemDraw03062415062D

 40 41  0  0  1  0  0  0  0  0999 V2000
    3.6395    0.0034    0.0000 C   0  0  0  0  0  0  0  0  0  0  0  0
    2.9309   -0.4058    0.0000 O   0  0  0  0  0  0  0  0  0  0  0  0
    2.2222    0.0034    0.0000 C   0  0  0  0  0  0  0  0  0  0  0  0
    1.5135   -0.4058    0.0000 C   0  0  0  0  0  0  0  0  0  0  0  0
    2.2222    0.8216    0.0000 O   0  0  0  0  0  0  0  0  0  0  0  0
    0.8049    0.0034    0.0000 N   0  0  0  0  0  0  0  0  0  0  0  0
    0.0962   -0.4058    0.0000 C   0  0  0  0  0  0  0  0  0  0  0  0
    0.0962   -1.2241    0.0000 O   0  0  0  0  0  0  0  0  0  0  0  0
    4.3482   -0.4058    0.0000 C   0  0  0  0  0  0  0  0  0  0  0  0
   -0.6124    0.0034    0.0000 C   0  0  0  0  0  0  0  0  0  0  0  0
   -1.3211   -0.4058    0.0000 N   0  0  0  0  0  0  0  0  0  0  0  0
   -2.0298    0.0034    0.0000 C   0  0  0  0  0  0  0  0  0  0  0  0
   -2.7384   -0.4058    0.0000 C   0  0  0  0  0  0  0  0  0  0  0  0
   -2.0298    0.8216    0.0000 O   0  0  0  0  0  0  0  0  0  0  0  0
   -0.6124    0.8216    0.0000 C   0  0  0  0  0  0  0  0  0  0  0  0
    0.0962    1.2308    0.0000 C   0  0  0  0  0  0  0  0  0  0  0  0
   -3.4471    0.0034    0.0000 N   0  0  0  0  0  0  0  0  0  0  0  0
   -4.1494   -0.4165    0.0000 C   0  0  0  0  0  0  0  0  0  0  0  0
   -4.8615   -0.0133    0.0000 C   0  0  0  0  0  0  0  0  0  0  0  0
   -4.1426   -1.2348    0.0000 O   0  0  0  0  0  0  0  0  0  0  0  0
    0.0962    2.0491    0.0000 C   0  0  0  0  0  0  0  0  0  0  0  0
    0.8049    0.8216    0.0000 C   0  0  0  0  0  0  0  0  0  0  0  0
   -2.7384   -1.2241    0.0000 C   0  0  0  0  0  0  0  0  0  0  0  0
   -2.0298   -1.6332    0.0000 C   0  0  0  0  0  0  0  0  0  0  0  0
   -3.4529   -1.6366    0.0000 C   0  0  0  0  0  0  0  0  0  0  0  0
   -2.7384   -2.0491    0.0000 C   0  0  0  0  0  0  0  0  0  0  0  0
    5.2462    0.1784    0.0000 N   0  0  0  0  0  0  0  0  0  0  0  0
    5.9636   -0.2151    0.0000 C   0  0  0  0  0  0  0  0  0  0  0  0
    6.5596    0.3457    0.0000 C   0  0  0  0  0  0  0  0  0  0  0  0
    6.2104    1.0858    0.0000 C   0  0  0  0  0  0  0  0  0  0  0  0
    5.3987    0.9824    0.0000 C   0  0  0  0  0  0  0  0  0  0  0  0
    4.8379    1.5783    0.0000 O   0  0  0  0  0  0  0  0  0  0  0  0
    6.0670   -1.0268    0.0000 O   0  0  0  0  0  0  0  0  0  0  0  0
   -4.9546    0.8064    0.0000 C   0  0  0  0  0  0  0  0  0  0  0  0
   -5.7630    0.9712    0.0000 S   0  0  0  0  0  0  0  0  0  0  0  0
   -6.1695    0.2533    0.0000 C   0  0  0  0  0  0  0  0  0  0  0  0
   -5.6123   -0.3552    0.0000 N   0  0  0  0  0  0  0  0  0  0  0  0
   -5.7771   -1.1635    0.0000 C   0  0  0  0  0  0  0  0  0  0  0  0
   -5.1594   -1.7104    0.0000 C   0  0  0  0  0  0  0  0  0  0  0  0
   -6.5596   -1.4250    0.0000 O   0  0  0  0  0  0  0  0  0  0  0  0
  1  2  1  0      
  2  3  1  0      
  3  4  1  0      
  3  5  2  0      
  4  6  1  0      
  6  7  1  0      
  7  8  2  0      
  7 10  1  0      
 10 11  1  0      
 11 12  1  0      
 12 13  1  0      
 12 14  2  0      
 10 15  1  1      
 15 16  1  0      
  1  9  1  0      
 17 13  1  0      
 17 18  1  0      
 18 19  1  0      
 18 20  2  0      
 16 21  1  0      
 16 22  1  0      
 13 23  1  6      
 23 24  1  0      
 23 25  1  0      
 23 26  1  0      
 28 29  1  0      
 29 30  2  0      
 30 31  1  0      
 31 27  1  0      
 28 27  1  0      
 31 32  2  0      
 28 33  2  0      
  9 27  1  0      
 19 34  1  1      
 34 35  1  0      
 35 36  1  0      
 36 37  1  0      
 37 19  1  0      
 37 38  1  0      
 38 39  1  0      
 38 40  2  0      
M  END
