JBB7_0007.mol
  ChemDraw03062414202D

 40 39  0  0  1  0  0  0  0  0999 V2000
    3.6044    1.9427    0.0000 C   0  0  0  0  0  0  0  0  0  0  0  0
    2.8958    1.5336    0.0000 C   0  0  0  0  0  0  0  0  0  0  0  0
    2.1871    1.9427    0.0000 O   0  0  0  0  0  0  0  0  0  0  0  0
    1.4784    1.5336    0.0000 C   0  0  0  0  0  0  0  0  0  0  0  0
    0.7698    1.9427    0.0000 C   0  0  0  0  0  0  0  0  0  0  0  0
    1.4784    0.7153    0.0000 O   0  0  0  0  0  0  0  0  0  0  0  0
    0.0611    1.5336    0.0000 N   0  0  0  0  0  0  0  0  0  0  0  0
   -0.6475    1.9427    0.0000 C   0  0  0  0  0  0  0  0  0  0  0  0
   -0.6475    2.7610    0.0000 O   0  0  0  0  0  0  0  0  0  0  0  0
    4.3131    1.5336    0.0000 N   0  0  0  0  0  0  0  0  0  0  0  0
    5.0606    1.8664    0.0000 C   0  0  0  0  0  0  0  0  0  0  0  0
    5.6082    1.2583    0.0000 C   0  0  0  0  0  0  0  0  0  0  0  0
    5.1990    0.5496    0.0000 C   0  0  0  0  0  0  0  0  0  0  0  0
    4.3986    0.7198    0.0000 C   0  0  0  0  0  0  0  0  0  0  0  0
    3.7905    0.1722    0.0000 O   0  0  0  0  0  0  0  0  0  0  0  0
    5.2308    2.6668    0.0000 O   0  0  0  0  0  0  0  0  0  0  0  0
   -1.3562    1.5336    0.0000 C   0  0  0  0  0  0  0  0  0  0  0  0
   -2.0649    1.9427    0.0000 N   0  0  0  0  0  0  0  0  0  0  0  0
   -2.7735    1.5336    0.0000 C   0  0  0  0  0  0  0  0  0  0  0  0
   -3.4822    1.9427    0.0000 C   0  0  0  0  0  0  0  0  0  0  0  0
   -2.7735    0.7153    0.0000 O   0  0  0  0  0  0  0  0  0  0  0  0
   -4.1908    1.5336    0.0000 N   0  0  0  0  0  0  0  0  0  0  0  0
   -4.8995    1.9427    0.0000 C   0  0  0  0  0  0  0  0  0  0  0  0
   -5.6082    1.5336    0.0000 C   0  0  0  0  0  0  0  0  0  0  0  0
   -4.8995    2.7610    0.0000 O   0  0  0  0  0  0  0  0  0  0  0  0
   -3.4822    2.7610    0.0000 C   0  0  0  0  0  0  0  0  0  0  0  0
   -2.7735    3.1701    0.0000 C   0  0  0  0  0  0  0  0  0  0  0  0
   -4.1908    3.1701    0.0000 C   0  0  0  0  0  0  0  0  0  0  0  0
   -1.3562    0.7153    0.0000 C   0  0  0  0  0  0  0  0  0  0  0  0
   -0.6475    0.3061    0.0000 C   0  0  0  0  0  0  0  0  0  0  0  0
   -0.6475   -0.5122    0.0000 C   0  0  0  0  0  0  0  0  0  0  0  0
    0.0611   -0.9213    0.0000 C   0  0  0  0  0  0  0  0  0  0  0  0
    0.0611   -1.7396    0.0000 N   0  0  0  0  0  0  0  0  0  0  0  0
    0.7727   -2.1504    0.0000 C   0  0  0  0  0  0  0  0  0  0  0  0
    1.4843   -2.5613    0.0000 F   0  0  0  0  0  0  0  0  0  0  0  0
    1.4843   -1.7396    0.0000 F   0  0  0  0  0  0  0  0  0  0  0  0
    0.7727   -2.9721    0.0000 F   0  0  0  0  0  0  0  0  0  0  0  0
   -0.4726   -2.4586    0.0000 C   0  0  0  0  0  0  0  0  0  0  0  0
   -0.0617   -3.1701    0.0000 O   0  0  0  0  0  0  0  0  0  0  0  0
   -0.8834   -1.7470    0.0000 O   0  0  0  0  0  0  0  0  0  0  0  0
 38 39  2  0      
 38 40  2  0      
 34 35  1  0      
 34 36  1  0      
 34 37  1  0      
 33 34  1  0      
 32 33  1  0      
  2  3  1  0      
  3  4  1  0      
  4  5  1  0      
  4  6  2  0      
  5  7  1  0      
  7  8  1  0      
  8  9  2  0      
 11 12  1  0      
 12 13  2  0      
 13 14  1  0      
 14 10  1  0      
 11 10  1  0      
 14 15  2  0      
 11 16  2  0      
  1 10  1  0      
  2  1  1  0      
  8 17  1  0      
 17 18  1  0      
 18 19  1  0      
 19 20  1  0      
 19 21  2  0      
 20 22  1  0      
 22 23  1  0      
 23 24  1  0      
 23 25  2  0      
 20 26  1  6      
 26 27  1  0      
 26 28  1  0      
 17 29  1  1      
 29 30  1  0      
 30 31  1  0      
 31 32  1  0      
M  STY  1   1 SUP
M  SLB  1   1   1
M  SAL   1  8  33  34  35  36  37  38  39  40
M  SBL   1  1   7
M  SMT   1 NHCF3COO
M  SBV   1   7    0.0000    0.8183
M  END
