JBB7_0013.mol
  ChemDraw03062414592D

 48 47  0  0  1  0  0  0  0  0999 V2000
    3.9642    1.5336    0.0000 C   0  0  0  0  0  0  0  0  0  0  0  0
    3.2556    1.1244    0.0000 O   0  0  0  0  0  0  0  0  0  0  0  0
    2.5469    1.5336    0.0000 C   0  0  0  0  0  0  0  0  0  0  0  0
    1.8383    1.1244    0.0000 C   0  0  0  0  0  0  0  0  0  0  0  0
    2.5469    2.3519    0.0000 O   0  0  0  0  0  0  0  0  0  0  0  0
    1.1296    1.5336    0.0000 N   0  0  0  0  0  0  0  0  0  0  0  0
    0.4209    1.1244    0.0000 C   0  0  0  0  0  0  0  0  0  0  0  0
    0.4209    0.3061    0.0000 O   0  0  0  0  0  0  0  0  0  0  0  0
    4.6729    1.1244    0.0000 C   0  0  0  0  0  0  0  0  0  0  0  0
   -0.2877    1.5336    0.0000 C   0  0  0  0  0  0  0  0  0  0  0  0
   -0.9964    1.1244    0.0000 N   0  0  0  0  0  0  0  0  0  0  0  0
   -1.7050    1.5336    0.0000 C   0  0  0  0  0  0  0  0  0  0  0  0
   -2.4137    1.1244    0.0000 C   0  0  0  0  0  0  0  0  0  0  0  0
   -1.7050    2.3519    0.0000 O   0  0  0  0  0  0  0  0  0  0  0  0
   -0.2877    2.3519    0.0000 C   0  0  0  0  0  0  0  0  0  0  0  0
    0.4209    2.7610    0.0000 C   0  0  0  0  0  0  0  0  0  0  0  0
   -3.1224    1.5336    0.0000 N   0  0  0  0  0  0  0  0  0  0  0  0
   -3.8247    1.1137    0.0000 C   0  0  0  0  0  0  0  0  0  0  0  0
   -4.5368    1.5169    0.0000 C   0  0  0  0  0  0  0  0  0  0  0  0
   -3.8179    0.2954    0.0000 O   0  0  0  0  0  0  0  0  0  0  0  0
    5.3816    1.5336    0.0000 N   0  0  0  0  0  0  0  0  0  0  0  0
    6.1291    1.2007    0.0000 C   0  0  0  0  0  0  0  0  0  0  0  0
    6.6767    1.8088    0.0000 C   0  0  0  0  0  0  0  0  0  0  0  0
    6.2675    2.5175    0.0000 C   0  0  0  0  0  0  0  0  0  0  0  0
    5.4671    2.3474    0.0000 C   0  0  0  0  0  0  0  0  0  0  0  0
    4.8590    2.8949    0.0000 O   0  0  0  0  0  0  0  0  0  0  0  0
    6.2992    0.4003    0.0000 O   0  0  0  0  0  0  0  0  0  0  0  0
    0.4209    3.5793    0.0000 C   0  0  0  0  0  0  0  0  0  0  0  0
    1.1296    2.3519    0.0000 C   0  0  0  0  0  0  0  0  0  0  0  0
   -2.4137    0.3061    0.0000 C   0  0  0  0  0  0  0  0  0  0  0  0
   -1.7050   -0.1030    0.0000 C   0  0  0  0  0  0  0  0  0  0  0  0
   -1.7050   -0.9213    0.0000 C   0  0  0  0  0  0  0  0  0  0  0  0
   -0.9964   -1.3305    0.0000 C   0  0  0  0  0  0  0  0  0  0  0  0
   -5.2478    1.0984    0.0000 N   0  0  0  0  0  0  0  0  0  0  0  0
   -4.5437    2.3419    0.0000 C   0  0  0  0  0  0  0  0  0  0  0  0
   -3.8327    2.7603    0.0000 C   0  0  0  0  0  0  0  0  0  0  0  0
   -5.2616    2.7484    0.0000 C   0  0  0  0  0  0  0  0  0  0  0  0
   -5.9657    1.5049    0.0000 C   0  0  0  0  0  0  0  0  0  0  0  0
   -6.6767    1.0865    0.0000 C   0  0  0  0  0  0  0  0  0  0  0  0
   -5.9726    2.3299    0.0000 O   0  0  0  0  0  0  0  0  0  0  0  0
   -0.9964   -2.1487    0.0000 N   0  0  0  0  0  0  0  0  0  0  0  0
   -0.2848   -2.5596    0.0000 C   0  0  0  0  0  0  0  0  0  0  0  0
    0.4268   -2.9704    0.0000 F   0  0  0  0  0  0  0  0  0  0  0  0
    0.4268   -2.1487    0.0000 F   0  0  0  0  0  0  0  0  0  0  0  0
   -0.2848   -3.3812    0.0000 F   0  0  0  0  0  0  0  0  0  0  0  0
   -1.5301   -2.8677    0.0000 C   0  0  0  0  0  0  0  0  0  0  0  0
   -1.1192   -3.5793    0.0000 O   0  0  0  0  0  0  0  0  0  0  0  0
   -1.9409   -2.1561    0.0000 O   0  0  0  0  0  0  0  0  0  0  0  0
 46 47  2  0      
 46 48  2  0      
 42 43  1  0      
 42 44  1  0      
 42 45  1  0      
 41 42  1  0      
 33 41  1  0      
  1  2  1  0      
  2  3  1  0      
  3  4  1  0      
  3  5  2  0      
  4  6  1  0      
  6  7  1  0      
  7  8  2  0      
  7 10  1  0      
 10 11  1  0      
 11 12  1  0      
 12 13  1  0      
 12 14  2  0      
 10 15  1  1      
 15 16  1  0      
  1  9  1  0      
 17 13  1  0      
 17 18  1  0      
 18 19  1  0      
 18 20  2  0      
 22 23  1  0      
 23 24  2  0      
 24 25  1  0      
 25 21  1  0      
 22 21  1  0      
 25 26  2  0      
 22 27  2  0      
  9 21  1  0      
 16 28  1  0      
 16 29  1  0      
 13 30  1  6      
 30 31  1  0      
 31 32  1  0      
 32 33  1  0      
 19 34  1  0      
 19 35  1  1      
 35 36  1  0      
 35 37  1  0      
 34 38  1  0      
 38 39  1  0      
 38 40  2  0      
M  STY  1   1 SUP
M  SLB  1   1   1
M  SAL   1  8  41  42  43  44  45  46  47  48
M  SBL   1  1   7
M  SMT   1 NHCF3COO
M  SBV   1   7    0.0000    0.8183
M  END
