JBB7_0005.mol
  ChemDraw03062414052D

 24 25  0  0  1  0  0  0  0  0999 V2000
    3.0393    0.2717    0.0000 N   0  0  0  0  0  0  0  0  0  0  0  0
    3.8038   -0.0381    0.0000 C   0  0  0  0  0  0  0  0  0  0  0  0
    4.3348    0.5933    0.0000 C   0  0  0  0  0  0  0  0  0  0  0  0
    3.8984    1.2934    0.0000 C   0  0  0  0  0  0  0  0  0  0  0  0
    3.0977    1.0947    0.0000 C   0  0  0  0  0  0  0  0  0  0  0  0
    2.4663    1.6257    0.0000 O   0  0  0  0  0  0  0  0  0  0  0  0
    4.0026   -0.8389    0.0000 O   0  0  0  0  0  0  0  0  0  0  0  0
    2.3391   -0.1647    0.0000 C   0  0  0  0  0  0  0  0  0  0  0  0
    1.6111    0.2234    0.0000 C   0  0  0  0  0  0  0  0  0  0  0  0
    0.9110   -0.2130    0.0000 O   0  0  0  0  0  0  0  0  0  0  0  0
    0.1830    0.1751    0.0000 C   0  0  0  0  0  0  0  0  0  0  0  0
   -0.5171   -0.2613    0.0000 C   0  0  0  0  0  0  0  0  0  0  0  0
    0.1551    0.9996    0.0000 O   0  0  0  0  0  0  0  0  0  0  0  0
   -1.2451    0.1268    0.0000 N   0  0  0  0  0  0  0  0  0  0  0  0
   -1.9452   -0.3096    0.0000 C   0  0  0  0  0  0  0  0  0  0  0  0
   -2.6732    0.0785    0.0000 C   0  0  0  0  0  0  0  0  0  0  0  0
   -1.9173   -1.1341    0.0000 O   0  0  0  0  0  0  0  0  0  0  0  0
   -2.7872    0.8956    0.0000 C   0  0  0  0  0  0  0  0  0  0  0  0
   -3.5995    1.0397    0.0000 S   0  0  0  0  0  0  0  0  0  0  0  0
   -3.9876    0.3117    0.0000 C   0  0  0  0  0  0  0  0  0  0  0  0
   -3.4151   -0.2824    0.0000 N   0  0  0  0  0  0  0  0  0  0  0  0
   -3.5593   -1.0947    0.0000 C   0  0  0  0  0  0  0  0  0  0  0  0
   -2.9279   -1.6257    0.0000 C   0  0  0  0  0  0  0  0  0  0  0  0
   -4.3348   -1.3760    0.0000 O   0  0  0  0  0  0  0  0  0  0  0  0
  2  3  1  0      
  3  4  2  0      
  4  5  1  0      
  5  1  1  0      
  2  1  1  0      
  5  6  2  0      
  2  7  2  0      
  1  8  1  0      
  8  9  1  0      
  9 10  1  0      
 10 11  1  0      
 11 12  1  0      
 11 13  2  0      
 12 14  1  0      
 14 15  1  0      
 15 16  1  0      
 15 17  2  0      
 16 18  1  1      
 18 19  1  0      
 19 20  1  0      
 20 21  1  0      
 21 16  1  0      
 21 22  1  0      
 22 23  1  0      
 22 24  2  0      
M  END
