MCSJ25_0096.mol
  ChemDraw04192415322D

 33 35  0  0  1  0  0  0  0  0999 V2000
   -3.6862   -0.3374    0.0000 C   0  0  0  0  0  0  0  0  0  0  0  0
   -3.6862   -1.1624    0.0000 C   0  0  0  0  0  0  0  0  0  0  0  0
   -2.9717   -1.5749    0.0000 C   0  0  0  0  0  0  0  0  0  0  0  0
   -2.2572   -1.1624    0.0000 C   0  0  0  0  0  0  0  0  0  0  0  0
   -2.2572   -0.3374    0.0000 C   0  0  0  0  0  0  0  0  0  0  0  0
   -2.9717    0.0751    0.0000 C   0  0  0  0  0  0  0  0  0  0  0  0
   -1.4726   -1.4173    0.0000 N   0  0  0  0  0  0  0  0  0  0  0  0
   -0.9877   -0.7499    0.0000 C   0  0  0  0  0  0  0  0  0  0  0  0
   -1.4726   -0.0824    0.0000 C   0  0  0  0  0  0  0  0  0  0  0  0
   -1.2177    0.7022    0.0000 C   0  0  0  0  0  0  0  0  0  0  0  0
   -0.4107    0.8737    0.0000 C   0  0  0  0  0  0  0  0  0  0  0  0
    0.1727    0.2904    0.0000 N   0  0  0  0  0  0  0  0  0  0  0  0
   -0.1764    1.6647    0.0000 C   0  0  0  0  0  0  0  0  0  0  0  0
    0.6205    1.8783    0.0000 N   0  0  0  0  0  0  0  0  0  0  0  0
    1.2039    1.2949    0.0000 C   0  0  0  0  0  0  0  0  0  0  0  0
    2.0007    1.5084    0.0000 C   0  0  0  0  0  0  0  0  0  0  0  0
    2.5841    0.9251    0.0000 C   0  0  0  0  0  0  0  0  0  0  0  0
    3.3810    1.1386    0.0000 C   0  0  0  0  0  0  0  0  0  0  0  0
    3.5945    1.9355    0.0000 C   0  0  0  0  0  0  0  0  0  0  0  0
    3.0112    2.5188    0.0000 C   0  0  0  0  0  0  0  0  0  0  0  0
    2.2143    2.3053    0.0000 C   0  0  0  0  0  0  0  0  0  0  0  0
    0.9977    0.2904    0.0000 C   0  0  0  0  0  0  0  0  0  0  0  0
    1.4102    1.0048    0.0000 O   0  0  0  0  0  0  0  0  0  0  0  0
    1.4102   -0.4241    0.0000 C   0  0  0  0  0  0  0  0  0  0  0  0
    2.2352   -0.4241    0.0000 N   0  0  0  0  0  0  0  0  0  0  0  0
    1.1966   -1.2210    0.0000 C   0  0  0  0  0  0  0  0  0  0  0  0
    1.7800   -1.8044    0.0000 C   0  0  0  0  0  0  0  0  0  0  0  0
    1.3675   -2.5188    0.0000 C   0  0  0  0  0  0  0  0  0  0  0  0
    2.4487   -1.2210    0.0000 C   0  0  0  0  0  0  0  0  0  0  0  0
    3.2737   -1.2210    0.0000 C   0  0  0  0  0  0  0  0  0  0  0  0
    3.6862   -1.9355    0.0000 Cl  0  0  0  0  0  0  0  0  0  0  0  0
    2.2352   -2.0179    0.0000 O   0  0  0  0  0  0  0  0  0  0  0  0
   -0.7521    2.2557    0.0000 O   0  0  0  0  0  0  0  0  0  0  0  0
  1  2  2  0      
  2  3  1  0      
  3  4  2  0      
  4  5  1  0      
  5  6  2  0      
  6  1  1  0      
  4  7  1  0      
  7  8  1  0      
  8  9  2  0      
  9  5  1  0      
  9 10  1  0      
 10 11  1  0      
 11 12  1  0      
 11 13  1  1      
 13 14  1  0      
 14 15  1  0      
 15 16  1  0      
 16 17  2  0      
 17 18  1  0      
 18 19  2  0      
 19 20  1  0      
 20 21  2  0      
 21 16  1  0      
 12 22  1  0      
 22 23  2  0      
 22 24  1  0      
 24 25  1  0      
 24 26  1  1      
 26 27  1  0      
 27 28  2  0      
 25 29  1  0      
 29 30  1  0      
 30 31  1  0      
 29 32  2  0      
 13 33  2  0      
M  END
