MCSJ25_0043.mol
  ChemDraw04192413302D

 27 29  0  0  0  0  0  0  0  0999 V2000
   -5.8532    0.3372    0.0000 C   0  0  0  0  0  0  0  0  0  0  0  0
   -5.5436   -0.4239    0.0000 C   0  0  0  0  0  0  0  0  0  0  0  0
   -4.7297   -0.5363    0.0000 C   0  0  0  0  0  0  0  0  0  0  0  0
   -4.2253    0.1124    0.0000 C   0  0  0  0  0  0  0  0  0  0  0  0
   -4.5349    0.8735    0.0000 C   0  0  0  0  0  0  0  0  0  0  0  0
   -5.3489    0.9859    0.0000 C   0  0  0  0  0  0  0  0  0  0  0  0
   -4.2686   -1.2164    0.0000 N   0  0  0  0  0  0  0  0  0  0  0  0
   -3.4793   -0.9881    0.0000 C   0  0  0  0  0  0  0  0  0  0  0  0
   -3.4526   -0.1668    0.0000 C   0  0  0  0  0  0  0  0  0  0  0  0
   -2.7724    0.2943    0.0000 S   0  0  0  0  0  0  0  0  0  0  0  0
   -2.0331   -0.0642    0.0000 C   0  0  0  0  0  0  0  0  0  0  0  0
   -1.3530    0.3969    0.0000 C   0  0  0  0  0  0  0  0  0  0  0  0
   -0.6136    0.0385    0.0000 N   0  0  0  0  0  0  0  0  0  0  0  0
   -1.4122    1.2164    0.0000 O   0  0  0  0  0  0  0  0  0  0  0  0
    0.0665    0.4995    0.0000 C   0  0  0  0  0  0  0  0  0  0  0  0
    0.8059    0.1411    0.0000 C   0  0  0  0  0  0  0  0  0  0  0  0
    0.8651   -0.6784    0.0000 C   0  0  0  0  0  0  0  0  0  0  0  0
    1.6045   -1.0369    0.0000 C   0  0  0  0  0  0  0  0  0  0  0  0
    2.2846   -0.5758    0.0000 C   0  0  0  0  0  0  0  0  0  0  0  0
    2.2253    0.2437    0.0000 C   0  0  0  0  0  0  0  0  0  0  0  0
    1.4860    0.6022    0.0000 C   0  0  0  0  0  0  0  0  0  0  0  0
    3.0270   -0.9357    0.0000 O   0  0  0  0  0  0  0  0  0  0  0  0
    3.7098   -0.4727    0.0000 C   0  0  0  0  0  0  0  0  0  0  0  0
    4.4243   -0.8852    0.0000 C   0  0  0  0  0  0  0  0  0  0  0  0
    5.1388   -0.4727    0.0000 N   0  0  0  0  0  0  0  0  0  0  0  0
    5.8532   -0.8852    0.0000 C   0  0  0  0  0  0  0  0  0  0  0  0
    5.1388    0.3523    0.0000 C   0  0  0  0  0  0  0  0  0  0  0  0
  1  2  2  0      
  2  3  1  0      
  3  4  2  0      
  4  5  1  0      
  5  6  2  0      
  6  1  1  0      
  3  7  1  0      
  7  8  1  0      
  8  9  2  0      
  9  4  1  0      
  9 10  1  0      
 10 11  1  0      
 11 12  1  0      
 12 13  1  0      
 12 14  2  0      
 13 15  1  0      
 15 16  1  0      
 16 17  2  0      
 17 18  1  0      
 18 19  2  0      
 19 20  1  0      
 20 21  2  0      
 21 16  1  0      
 19 22  1  0      
 22 23  1  0      
 23 24  1  0      
 24 25  1  0      
 25 26  1  0      
 25 27  1  0      
M  END
