MCSJ25_0024.mol
  ChemDraw04192412492D

 17 18  0  0  0  0  0  0  0  0999 V2000
   -1.0402    1.0086    0.0000 C   0  0  0  0  0  0  0  0  0  0  0  0
   -1.0402    0.1870    0.0000 C   0  0  0  0  0  0  0  0  0  0  0  0
   -0.3286   -0.2239    0.0000 C   0  0  0  0  0  0  0  0  0  0  0  0
    0.3830    0.1870    0.0000 C   0  0  0  0  0  0  0  0  0  0  0  0
    0.3830    1.0086    0.0000 C   0  0  0  0  0  0  0  0  0  0  0  0
   -0.3286    1.4195    0.0000 C   0  0  0  0  0  0  0  0  0  0  0  0
    1.1645   -0.0670    0.0000 N   0  0  0  0  0  0  0  0  0  0  0  0
    1.6474    0.5978    0.0000 C   0  0  0  0  0  0  0  0  0  0  0  0
    1.1645    1.2625    0.0000 C   0  0  0  0  0  0  0  0  0  0  0  0
    1.4184   -0.8484    0.0000 C   0  0  0  0  0  0  0  0  0  0  0  0
    2.4691    0.5978    0.0000 O   0  0  0  0  0  0  0  0  0  0  0  0
    1.4184    2.0440    0.0000 O   0  0  0  0  0  0  0  0  0  0  0  0
   -1.7546    1.4211    0.0000 C   0  0  0  0  0  0  0  0  0  0  0  0
   -2.4691    1.0086    0.0000 O   0  0  0  0  0  0  0  0  0  0  0  0
   -1.7546    2.2461    0.0000 O   0  0  0  0  0  0  0  0  0  0  0  0
    0.8663   -1.4615    0.0000 C   0  0  0  0  0  0  0  0  0  0  0  0
    1.1213   -2.2461    0.0000 C   0  0  0  0  0  0  0  0  0  0  0  0
  1  2  2  0      
  2  3  1  0      
  3  4  2  0      
  4  5  1  0      
  5  6  2  0      
  6  1  1  0      
  4  7  1  0      
  7  8  1  0      
  8  9  1  0      
  9  5  1  0      
  7 10  1  0      
  8 11  2  0      
  9 12  2  0      
  1 13  1  0      
 13 14  1  0      
 13 15  2  0      
 10 16  1  0      
 16 17  1  0      
M  END
