146909214
     RDKit          2D

 36 40  0  0  0  0  0  0  0  0999 V2000
    2.8680   -0.2915    0.0000 S   0  0  0  0  0  0  0  0  0  0  0  0
    2.0038   -0.7948    0.0000 F   0  0  0  0  0  0  0  0  0  0  0  0
    2.0000    0.2052    0.0000 F   0  0  0  0  0  0  0  0  0  0  0  0
    2.8718   -1.2915    0.0000 F   0  0  0  0  0  0  0  0  0  0  0  0
    2.8641    0.7085    0.0000 F   0  0  0  0  0  0  0  0  0  0  0  0
    3.7359   -0.7881    0.0000 F   0  0  0  0  0  0  0  0  0  0  0  0
   10.7282   -1.7673    0.0000 O   0  0  0  0  0  0  0  0  0  0  0  0
    6.3981   -1.2673    0.0000 O   0  0  0  0  0  0  0  0  0  0  0  0
   13.3263   -0.2673    0.0000 N   0  0  0  0  0  0  0  0  0  0  0  0
    7.2641    0.2327    0.0000 N   0  0  0  0  0  0  0  0  0  0  0  0
    6.3981    1.7327    0.0000 N   0  0  0  0  0  0  0  0  0  0  0  0
   14.1923    0.2327    0.0000 C   0  0  0  0  0  0  0  0  0  0  0  0
   15.1058   -0.1741    0.0000 C   0  0  0  0  0  0  0  0  0  0  0  0
   14.2968    1.2272    0.0000 C   0  0  0  0  0  0  0  0  0  0  0  0
   15.7750    0.5691    0.0000 C   0  0  0  0  0  0  0  0  0  0  0  0
   15.2750    1.4351    0.0000 C   0  0  0  0  0  0  0  0  0  0  0  0
   12.4602    0.2327    0.0000 C   0  0  0  0  0  0  0  0  0  0  0  0
   13.3263   -1.2673    0.0000 C   0  0  0  0  0  0  0  0  0  0  0  0
   11.5942   -0.2673    0.0000 C   0  0  0  0  0  0  0  0  0  0  0  0
   12.4602   -1.7673    0.0000 C   0  0  0  0  0  0  0  0  0  0  0  0
   11.5942   -1.2673    0.0000 C   0  0  0  0  0  0  0  0  0  0  0  0
    9.8622   -1.2673    0.0000 C   0  0  0  0  0  0  0  0  0  0  0  0
    9.8622   -0.2673    0.0000 C   0  0  0  0  0  0  0  0  0  0  0  0
    8.9962   -1.7673    0.0000 C   0  0  0  0  0  0  0  0  0  0  0  0
    3.7320    0.2119    0.0000 C   0  0  0  0  0  0  0  0  0  0  0  0
    8.1301   -0.2673    0.0000 C   0  0  0  0  0  0  0  0  0  0  0  0
    8.9962    0.2327    0.0000 C   0  0  0  0  0  0  0  0  0  0  0  0
    8.1301   -1.2673    0.0000 C   0  0  0  0  0  0  0  0  0  0  0  0
    5.5320    0.2327    0.0000 C   0  0  0  0  0  0  0  0  0  0  0  0
    4.6381   -0.3020    0.0000 C   0  0  0  0  0  0  0  0  0  0  0  0
    5.5320    1.2327    0.0000 C   0  0  0  0  0  0  0  0  0  0  0  0
    6.3981   -0.2673    0.0000 C   0  0  0  0  0  0  0  0  0  0  0  0
    3.7320    1.2535    0.0000 C   0  0  0  0  0  0  0  0  0  0  0  0
    7.2641    1.2327    0.0000 C   0  0  0  0  0  0  0  0  0  0  0  0
    4.6381    1.7673    0.0000 C   0  0  0  0  0  0  0  0  0  0  0  0
    8.1301    1.7327    0.0000 C   0  0  0  0  0  0  0  0  0  0  0  0
  1  2  1  0
  1  3  1  0
  1  4  1  0
  1  5  1  0
  1  6  1  0
  1 25  1  0
  7 21  1  0
  7 22  1  0
  8 32  2  0
  9 12  1  0
  9 17  1  0
  9 18  1  0
 10 26  1  0
 10 32  1  0
 10 34  1  0
 11 31  1  0
 11 34  2  0
 12 13  1  0
 12 14  1  0
 13 15  1  0
 14 16  1  0
 15 16  1  0
 17 19  1  0
 18 20  1  0
 19 21  1  0
 20 21  1  0
 22 23  2  0
 22 24  1  0
 23 27  1  0
 24 28  2  0
 25 30  2  0
 25 33  1  0
 26 27  2  0
 26 28  1  0
 29 30  1  0
 29 31  2  0
 29 32  1  0
 31 35  1  0
 33 35  2  0
 34 36  1  0
M  END
>  <PUBCHEM_COMPOUND_CID>  (1) 
146909214

>  <PUBCHEM_COMPOUND_CANONICALIZED>  (1) 
1

>  <PUBCHEM_CACTVS_COMPLEXITY>  (1) 
863

>  <PUBCHEM_CACTVS_HBOND_ACCEPTOR>  (1) 
9

>  <PUBCHEM_CACTVS_HBOND_DONOR>  (1) 
0

>  <PUBCHEM_CACTVS_ROTATABLE_BOND>  (1) 
4

>  <PUBCHEM_CACTVS_SUBSKEYS>  (1) 
AAADceB7McBAAAAAAAAAAAAAAAAAAYAAAAA8YIEAAAAAAACBQAAAHgQAAAQADDzh2AYzx4MABACoAidydACCCAElIgAJiBkebMgMJjrE/ZuGOajmxBHI6ce4yACOAEQAgAACAAAAiAEAAAQAAAAAAAAAAA==

>  <PUBCHEM_IUPAC_OPENEYE_NAME>  (1) 
3-[4-[(1-cyclopentyl-4-piperidyl)oxy]phenyl]-2-methyl-6-(pentafluoro-lambda6-sulfanyl)quinazolin-4-one

>  <PUBCHEM_IUPAC_CAS_NAME>  (1) 
3-[4-[(1-cyclopentyl-4-piperidinyl)oxy]phenyl]-2-methyl-6-(pentafluoro-lambda6-sulfanyl)-4-quinazolinone

>  <PUBCHEM_IUPAC_NAME_MARKUP>  (1) 
3-[4-(1-cyclopentylpiperidin-4-yl)oxyphenyl]-2-methyl-6-(pentafluoro-&lambda;<SUP>6</SUP>-sulfanyl)quinazolin-4-one

>  <PUBCHEM_IUPAC_NAME>  (1) 
3-[4-(1-cyclopentylpiperidin-4-yl)oxyphenyl]-2-methyl-6-(pentafluoro-lambda6-sulfanyl)quinazolin-4-one

>  <PUBCHEM_IUPAC_SYSTEMATIC_NAME>  (1) 
3-[4-(1-cyclopentylpiperidin-4-yl)oxyphenyl]-2-methyl-6-[pentakis(fluoranyl)-lambda6-sulfanyl]quinazolin-4-one

>  <PUBCHEM_IUPAC_TRADITIONAL_NAME>  (1) 
3-[4-[(1-cyclopentyl-4-piperidyl)oxy]phenyl]-2-methyl-6-pentafluoropersulfuranyl-quinazolin-4-one

>  <PUBCHEM_IUPAC_INCHI>  (1) 
InChI=1S/C25H28F5N3O2S/c1-17-31-24-11-10-22(36(26,27,28,29)30)16-23(24)25(34)33(17)19-6-8-20(9-7-19)35-21-12-14-32(15-13-21)18-4-2-3-5-18/h6-11,16,18,21H,2-5,12-15H2,1H3

>  <PUBCHEM_IUPAC_INCHIKEY>  (1) 
AAZBNPTVFZEWKG-UHFFFAOYSA-N

>  <PUBCHEM_XLOGP3_AA>  (1) 
7.5

>  <PUBCHEM_EXACT_MASS>  (1) 
529.18223913

>  <PUBCHEM_MOLECULAR_FORMULA>  (1) 
C25H28F5N3O2S

>  <PUBCHEM_MOLECULAR_WEIGHT>  (1) 
529.6

>  <PUBCHEM_OPENEYE_CAN_SMILES>  (1) 
CC1=NC2=C(C=C(C=C2)S(F)(F)(F)(F)F)C(=O)N1C3=CC=C(C=C3)OC4CCN(CC4)C5CCCC5

>  <PUBCHEM_OPENEYE_ISO_SMILES>  (1) 
CC1=NC2=C(C=C(C=C2)S(F)(F)(F)(F)F)C(=O)N1C3=CC=C(C=C3)OC4CCN(CC4)C5CCCC5

>  <PUBCHEM_CACTVS_TPSA>  (1) 
46.1

>  <PUBCHEM_MONOISOTOPIC_WEIGHT>  (1) 
529.18223913

>  <PUBCHEM_TOTAL_CHARGE>  (1) 
0

>  <PUBCHEM_HEAVY_ATOM_COUNT>  (1) 
36

>  <PUBCHEM_ATOM_DEF_STEREO_COUNT>  (1) 
0

>  <PUBCHEM_ATOM_UDEF_STEREO_COUNT>  (1) 
0

>  <PUBCHEM_BOND_DEF_STEREO_COUNT>  (1) 
0

>  <PUBCHEM_BOND_UDEF_STEREO_COUNT>  (1) 
0

>  <PUBCHEM_ISOTOPIC_ATOM_COUNT>  (1) 
0

>  <PUBCHEM_COMPONENT_COUNT>  (1) 
1

>  <PUBCHEM_CACTVS_TAUTO_COUNT>  (1) 
-1

>  <PUBCHEM_COORDINATE_TYPE>  (1) 
1
5
255

>  <PUBCHEM_BONDANNOTATIONS>  (1) 
10  32  8
10  34  8
11  31  8
11  34  8
22  23  8
22  24  8
23  27  8
24  28  8
25  30  8
25  33  8
26  27  8
26  28  8
29  30  8
29  31  8
29  32  8
31  35  8
33  35  8

$$$$
