3598
     RDKit          2D

 21 22  0  0  0  0  0  0  0  0999 V2000
    6.0010   -1.2057    0.0000 Cl  0  0  0  0  0  0  0  0  0  0  0  0
    6.2386    0.1416    0.0000 Cl  0  0  0  0  0  0  0  0  0  0  0  0
    2.5369   -3.2057    0.0000 Cl  0  0  0  0  0  0  0  0  0  0  0  0
    3.6674    3.2057    0.0000 Cl  0  0  0  0  0  0  0  0  0  0  0  0
    6.0010   -3.2057    0.0000 Cl  0  0  0  0  0  0  0  0  0  0  0  0
    6.9226    2.0209    0.0000 Cl  0  0  0  0  0  0  0  0  0  0  0  0
    2.5369   -1.2057    0.0000 O   0  0  0  0  0  0  0  0  0  0  0  0
    2.9834    1.3264    0.0000 O   0  0  0  0  0  0  0  0  0  0  0  0
    4.2690   -0.2057    0.0000 C   0  0  0  0  0  0  0  0  0  0  0  0
    4.2690   -1.2057    0.0000 C   0  0  0  0  0  0  0  0  0  0  0  0
    4.6110    0.7340    0.0000 C   0  0  0  0  0  0  0  0  0  0  0  0
    3.4030   -1.7057    0.0000 C   0  0  0  0  0  0  0  0  0  0  0  0
    3.9682    1.5000    0.0000 C   0  0  0  0  0  0  0  0  0  0  0  0
    5.1350   -1.7057    0.0000 C   0  0  0  0  0  0  0  0  0  0  0  0
    5.5958    0.9076    0.0000 C   0  0  0  0  0  0  0  0  0  0  0  0
    3.4030   -2.7057    0.0000 C   0  0  0  0  0  0  0  0  0  0  0  0
    4.3102    2.4397    0.0000 C   0  0  0  0  0  0  0  0  0  0  0  0
    5.1350   -2.7057    0.0000 C   0  0  0  0  0  0  0  0  0  0  0  0
    5.9378    1.8473    0.0000 C   0  0  0  0  0  0  0  0  0  0  0  0
    4.2690   -3.2057    0.0000 C   0  0  0  0  0  0  0  0  0  0  0  0
    5.2950    2.6133    0.0000 C   0  0  0  0  0  0  0  0  0  0  0  0
  1 14  1  0
  2 15  1  0
  3 16  1  0
  4 17  1  0
  5 18  1  0
  6 19  1  0
  7 12  1  0
  8 13  1  0
  9 10  1  0
  9 11  1  0
 10 12  2  0
 10 14  1  0
 11 13  2  0
 11 15  1  0
 12 16  1  0
 13 17  1  0
 14 18  2  0
 15 19  2  0
 16 20  2  0
 17 21  2  0
 18 20  1  0
 19 21  1  0
M  END
>  <PUBCHEM_COMPOUND_CID>  (1) 
3598

>  <PUBCHEM_COMPOUND_CANONICALIZED>  (1) 
1

>  <PUBCHEM_CACTVS_COMPLEXITY>  (1) 
328

>  <PUBCHEM_CACTVS_HBOND_ACCEPTOR>  (1) 
2

>  <PUBCHEM_CACTVS_HBOND_DONOR>  (1) 
2

>  <PUBCHEM_CACTVS_ROTATABLE_BOND>  (1) 
2

>  <PUBCHEM_CACTVS_SUBSKEYS>  (1) 
AAADcYBwMAAHAAAAAAAAAAAAAAAAAAAAAAAwYAAAAAAAAAABQAAAGgIACAAADAaAmCAwBoAAAgCAAiBCAAACAAAgJUAAikAEC4gIJiKDEhKAcAAkwBEImAeA4OQOACAQIQCJCAQAQCBCARIQCAAAAAAAAA==

>  <PUBCHEM_IUPAC_OPENEYE_NAME>  (1) 
3,4,6-trichloro-2-[(2,3,5-trichloro-6-hydroxy-phenyl)methyl]phenol

>  <PUBCHEM_IUPAC_CAS_NAME>  (1) 
3,4,6-trichloro-2-[(2,3,5-trichloro-6-hydroxyphenyl)methyl]phenol

>  <PUBCHEM_IUPAC_NAME_MARKUP>  (1) 
3,4,6-trichloro-2-[(2,3,5-trichloro-6-hydroxyphenyl)methyl]phenol

>  <PUBCHEM_IUPAC_NAME>  (1) 
3,4,6-trichloro-2-[(2,3,5-trichloro-6-hydroxyphenyl)methyl]phenol

>  <PUBCHEM_IUPAC_SYSTEMATIC_NAME>  (1) 
3,4,6-tris(chloranyl)-2-[[2,3,5-tris(chloranyl)-6-oxidanyl-phenyl]methyl]phenol

>  <PUBCHEM_IUPAC_TRADITIONAL_NAME>  (1) 
3,4,6-trichloro-2-(2,3,5-trichloro-6-hydroxy-benzyl)phenol

>  <PUBCHEM_IUPAC_INCHI>  (1) 
InChI=1S/C13H6Cl6O2/c14-6-2-8(16)12(20)4(10(6)18)1-5-11(19)7(15)3-9(17)13(5)21/h2-3,20-21H,1H2

>  <PUBCHEM_IUPAC_INCHIKEY>  (1) 
ACGUYXCXAPNIKK-UHFFFAOYSA-N

>  <PUBCHEM_XLOGP3>  (1) 
7.5

>  <PUBCHEM_EXACT_MASS>  (1) 
405.846945

>  <PUBCHEM_MOLECULAR_FORMULA>  (1) 
C13H6Cl6O2

>  <PUBCHEM_MOLECULAR_WEIGHT>  (1) 
406.9

>  <PUBCHEM_OPENEYE_CAN_SMILES>  (1) 
C1=C(C(=C(C(=C1Cl)Cl)CC2=C(C(=CC(=C2Cl)Cl)Cl)O)O)Cl

>  <PUBCHEM_OPENEYE_ISO_SMILES>  (1) 
C1=C(C(=C(C(=C1Cl)Cl)CC2=C(C(=CC(=C2Cl)Cl)Cl)O)O)Cl

>  <PUBCHEM_CACTVS_TPSA>  (1) 
40.5

>  <PUBCHEM_MONOISOTOPIC_WEIGHT>  (1) 
403.849896

>  <PUBCHEM_TOTAL_CHARGE>  (1) 
0

>  <PUBCHEM_HEAVY_ATOM_COUNT>  (1) 
21

>  <PUBCHEM_ATOM_DEF_STEREO_COUNT>  (1) 
0

>  <PUBCHEM_ATOM_UDEF_STEREO_COUNT>  (1) 
0

>  <PUBCHEM_BOND_DEF_STEREO_COUNT>  (1) 
0

>  <PUBCHEM_BOND_UDEF_STEREO_COUNT>  (1) 
0

>  <PUBCHEM_ISOTOPIC_ATOM_COUNT>  (1) 
0

>  <PUBCHEM_COMPONENT_COUNT>  (1) 
1

>  <PUBCHEM_CACTVS_TAUTO_COUNT>  (1) 
-1

>  <PUBCHEM_COORDINATE_TYPE>  (1) 
1
5
255

>  <PUBCHEM_BONDANNOTATIONS>  (1) 
10  12  8
10  14  8
11  13  8
11  15  8
12  16  8
13  17  8
14  18  8
15  19  8
16  20  8
17  21  8
18  20  8
19  21  8

$$$$
