MCSJ25_0014.mol
  ChemDraw04192412452D

 16 17  0  0  0  0  0  0  0  0999 V2000
   -1.3974    1.4162    0.0000 C   0  0  0  0  0  0  0  0  0  0  0  0
   -1.3974    0.5946    0.0000 C   0  0  0  0  0  0  0  0  0  0  0  0
   -0.6858    0.1837    0.0000 C   0  0  0  0  0  0  0  0  0  0  0  0
    0.0258    0.5946    0.0000 C   0  0  0  0  0  0  0  0  0  0  0  0
    0.0258    1.4162    0.0000 C   0  0  0  0  0  0  0  0  0  0  0  0
   -0.6858    1.8271    0.0000 C   0  0  0  0  0  0  0  0  0  0  0  0
    0.8072    0.3407    0.0000 N   0  0  0  0  0  0  0  0  0  0  0  0
    1.2902    1.0054    0.0000 C   0  0  0  0  0  0  0  0  0  0  0  0
    0.8072    1.6702    0.0000 C   0  0  0  0  0  0  0  0  0  0  0  0
    1.0611   -0.4408    0.0000 C   0  0  0  0  0  0  0  0  0  0  0  0
    2.1119    1.0054    0.0000 O   0  0  0  0  0  0  0  0  0  0  0  0
    1.0611    2.4516    0.0000 O   0  0  0  0  0  0  0  0  0  0  0  0
   -2.1119    1.8287    0.0000 I   0  0  0  0  0  0  0  0  0  0  0  0
    0.5091   -1.0539    0.0000 C   0  0  0  0  0  0  0  0  0  0  0  0
    0.7640   -1.8385    0.0000 C   0  0  0  0  0  0  0  0  0  0  0  0
    0.2120   -2.4516    0.0000 C   0  0  0  0  0  0  0  0  0  0  0  0
  1  2  2  0      
  2  3  1  0      
  3  4  2  0      
  4  5  1  0      
  5  6  2  0      
  6  1  1  0      
  4  7  1  0      
  7  8  1  0      
  8  9  1  0      
  9  5  1  0      
  7 10  1  0      
  8 11  2  0      
  9 12  2  0      
  1 13  1  0      
 10 14  1  0      
 14 15  1  0      
 15 16  1  0      
M  END
