54671203
     RDKit          2D

 32 35  0  0  1  0  0  0  0  0999 V2000
    6.9338   -1.9246    0.0000 O   0  0  0  0  0  0  0  0  0  0  0  0
    6.0678    1.5754    0.0000 O   0  0  0  0  0  0  0  0  0  0  0  0
    6.9338    2.0754    0.0000 O   0  0  0  0  0  0  0  0  0  0  0  0
    4.8427    2.0536    0.0000 O   0  0  0  0  0  0  0  0  0  0  0  0
    8.6822    2.1100    0.0000 O   0  0  0  0  0  0  0  0  0  0  0  0
    3.4037   -0.9488    0.0000 O   0  0  0  0  0  0  0  0  0  0  0  0
   10.5194    2.1530    0.0000 O   0  0  0  0  0  0  0  0  0  0  0  0
    3.4075    2.0995    0.0000 O   0  0  0  0  0  0  0  0  0  0  0  0
    5.1854   -1.9592    0.0000 N   0  0  0  0  0  0  0  0  0  0  0  0
    2.5357    0.6029    0.0000 N   0  0  0  0  0  0  0  0  0  0  0  0
    6.0678   -0.4246    0.0000 C   0  0  0  0  0  0  0  0  0  0  0  0
    7.7998   -0.4246    0.0000 C   0  0  0  0  0  0  0  0  0  0  0  0
    6.9338   -0.9246    0.0000 C   0  0  0  0  0  0  0  0  0  0  0  0
    6.0678    0.5754    0.0000 C   0  0  0  0  0  0  0  0  0  0  0  0
    5.1738   -0.9593    0.0000 C   0  0  0  0  0  0  0  0  0  0  0  0
    8.6938   -0.9593    0.0000 C   0  0  0  0  0  0  0  0  0  0  0  0
    7.7998    0.5754    0.0000 C   0  0  0  0  0  0  0  0  0  0  0  0
    6.9338    1.0754    0.0000 C   0  0  0  0  0  0  0  0  0  0  0  0
    5.1738    1.1100    0.0000 C   0  0  0  0  0  0  0  0  0  0  0  0
    9.5998   -0.4455    0.0000 C   0  0  0  0  0  0  0  0  0  0  0  0
    4.2678   -0.4455    0.0000 C   0  0  0  0  0  0  0  0  0  0  0  0
    8.6938    1.1100    0.0000 C   0  0  0  0  0  0  0  0  0  0  0  0
    4.2678    0.5962    0.0000 C   0  0  0  0  0  0  0  0  0  0  0  0
    9.5998    0.5962    0.0000 C   0  0  0  0  0  0  0  0  0  0  0  0
    8.6822   -1.9592    0.0000 C   0  0  0  0  0  0  0  0  0  0  0  0
   10.5310   -1.0024    0.0000 C   0  0  0  0  0  0  0  0  0  0  0  0
    4.3252   -2.4692    0.0000 C   0  0  0  0  0  0  0  0  0  0  0  0
    6.0572   -2.4492    0.0000 C   0  0  0  0  0  0  0  0  0  0  0  0
   10.5310    1.1531    0.0000 C   0  0  0  0  0  0  0  0  0  0  0  0
    3.4037    1.0995    0.0000 C   0  0  0  0  0  0  0  0  0  0  0  0
   11.4748   -0.4671    0.0000 C   0  0  0  0  0  0  0  0  0  0  0  0
   11.4748    0.6179    0.0000 C   0  0  0  0  0  0  0  0  0  0  0  0
 13  1  1  6
 14  2  1  6
  3 18  2  0
  4 19  1  0
  5 22  1  0
  6 21  2  0
  7 29  1  0
  8 30  2  0
 15  9  1  6
  9 27  1  0
  9 28  1  0
 10 30  1  0
 11 13  1  0
 11 14  1  0
 11 15  1  1
 12 13  1  0
 12 16  1  0
 12 17  1  1
 14 18  1  0
 14 19  1  0
 15 21  1  0
 16 20  1  0
 16 25  1  6
 17 18  1  0
 17 22  2  0
 19 23  2  0
 20 24  2  0
 20 26  1  0
 21 23  1  0
 22 24  1  0
 23 30  1  0
 24 29  1  0
 26 31  2  0
 29 32  2  0
 31 32  1  0
M  END
>  <PUBCHEM_COMPOUND_CID>  (1) 
54671203

>  <PUBCHEM_COMPOUND_CANONICALIZED>  (1) 
1

>  <PUBCHEM_CACTVS_COMPLEXITY>  (1) 
956

>  <PUBCHEM_CACTVS_HBOND_ACCEPTOR>  (1) 
9

>  <PUBCHEM_CACTVS_HBOND_DONOR>  (1) 
6

>  <PUBCHEM_CACTVS_ROTATABLE_BOND>  (1) 
2

>  <PUBCHEM_CACTVS_SUBSKEYS>  (1) 
AAADceB7PAAAAAAAAAAAAAAAAAAAAAAAAAAwYIEAAAAAAACBAAAAHgAQCAAADXzhmAYyBoNAAgCIAqFSEAKCAAAgIAAIiAHOCMgJNz6KkTKEcAAn4BEJmQf+7vSugAABAAAYAADAAAYQADAAAAAAAAAAAA==

>  <PUBCHEM_IUPAC_OPENEYE_NAME>  (1) 
(4S,4aR,5S,5aR,6R,12aR)-4-(dimethylamino)-1,5,10,11,12a-pentahydroxy-6-methyl-3,12-dioxo-4a,5,5a,6-tetrahydro-4H-tetracene-2-carboxamide

>  <PUBCHEM_IUPAC_CAS_NAME>  (1) 
(4S,4aR,5S,5aR,6R,12aR)-4-(dimethylamino)-1,5,10,11,12a-pentahydroxy-6-methyl-3,12-dioxo-4a,5,5a,6-tetrahydro-4H-tetracene-2-carboxamide

>  <PUBCHEM_IUPAC_NAME_MARKUP>  (1) 
(4<I>S</I>,4<I>a</I><I>R</I>,5<I>S</I>,5<I>a</I><I>R</I>,6<I>R</I>,12<I>a</I><I>R</I>)-4-(dimethylamino)-1,5,10,11,12<I>a</I>-pentahydroxy-6-methyl-3,12-dioxo-4<I>a</I>,5,5<I>a</I>,6-tetrahydro-4<I>H</I>-tetracene-2-carboxamide

>  <PUBCHEM_IUPAC_NAME>  (1) 
(4S,4aR,5S,5aR,6R,12aR)-4-(dimethylamino)-1,5,10,11,12a-pentahydroxy-6-methyl-3,12-dioxo-4a,5,5a,6-tetrahydro-4H-tetracene-2-carboxamide

>  <PUBCHEM_IUPAC_SYSTEMATIC_NAME>  (1) 
(4S,4aR,5S,5aR,6R,12aR)-4-(dimethylamino)-6-methyl-1,5,10,11,12a-pentakis(oxidanyl)-3,12-bis(oxidanylidene)-4a,5,5a,6-tetrahydro-4H-tetracene-2-carboxamide

>  <PUBCHEM_IUPAC_TRADITIONAL_NAME>  (1) 
(4S,4aR,5S,5aR,6R,12aR)-4-(dimethylamino)-1,5,10,11,12a-pentahydroxy-3,12-diketo-6-methyl-4a,5,5a,6-tetrahydro-4H-tetracene-2-carboxamide

>  <PUBCHEM_IUPAC_INCHI>  (1) 
InChI=1S/C22H24N2O8/c1-7-8-5-4-6-9(25)11(8)16(26)12-10(7)17(27)14-15(24(2)3)18(28)13(21(23)31)20(30)22(14,32)19(12)29/h4-7,10,14-15,17,25-27,30,32H,1-3H3,(H2,23,31)/t7-,10+,14+,15-,17-,22-/m0/s1

>  <PUBCHEM_IUPAC_INCHIKEY>  (1) 
SGKRLCUYIXIAHR-AKNGSSGZSA-N

>  <PUBCHEM_XLOGP3>  (1) 
-0.7

>  <PUBCHEM_EXACT_MASS>  (1) 
444.15326573

>  <PUBCHEM_MOLECULAR_FORMULA>  (1) 
C22H24N2O8

>  <PUBCHEM_MOLECULAR_WEIGHT>  (1) 
444.4

>  <PUBCHEM_OPENEYE_CAN_SMILES>  (1) 
CC1C2C(C3C(C(=O)C(=C(C3(C(=O)C2=C(C4=C1C=CC=C4O)O)O)O)C(=O)N)N(C)C)O

>  <PUBCHEM_OPENEYE_ISO_SMILES>  (1) 
C[C@@H]1[C@H]2[C@@H]([C@H]3[C@@H](C(=O)C(=C([C@]3(C(=O)C2=C(C4=C1C=CC=C4O)O)O)O)C(=O)N)N(C)C)O

>  <PUBCHEM_CACTVS_TPSA>  (1) 
182

>  <PUBCHEM_MONOISOTOPIC_WEIGHT>  (1) 
444.15326573

>  <PUBCHEM_TOTAL_CHARGE>  (1) 
0

>  <PUBCHEM_HEAVY_ATOM_COUNT>  (1) 
32

>  <PUBCHEM_ATOM_DEF_STEREO_COUNT>  (1) 
6

>  <PUBCHEM_ATOM_UDEF_STEREO_COUNT>  (1) 
0

>  <PUBCHEM_BOND_DEF_STEREO_COUNT>  (1) 
0

>  <PUBCHEM_BOND_UDEF_STEREO_COUNT>  (1) 
0

>  <PUBCHEM_ISOTOPIC_ATOM_COUNT>  (1) 
0

>  <PUBCHEM_COMPONENT_COUNT>  (1) 
1

>  <PUBCHEM_CACTVS_TAUTO_COUNT>  (1) 
-1

>  <PUBCHEM_COORDINATE_TYPE>  (1) 
1
5
255

>  <PUBCHEM_BONDANNOTATIONS>  (1) 
13  1  6
11  33  6
12  34  6
16  25  6
14  2  6
20  24  8
20  26  8
24  29  8
26  31  8
29  32  8
31  32  8
15  9  6

$$$$
