MCSJ20_0018.mol
  ChemDraw04192410322D

 22 23  0  0  0  0  0  0  0  0999 V2000
    0.8764    0.0000    0.0000 C   0  0  0  0  0  0  0  0  0  0  0  0
    1.5909    0.4125    0.0000 O   0  0  0  0  0  0  0  0  0  0  0  0
    2.3054    0.0000    0.0000 C   0  0  0  0  0  0  0  0  0  0  0  0
    0.8764   -0.8250    0.0000 O   0  0  0  0  0  0  0  0  0  0  0  0
    2.3054   -0.8250    0.0000 C   0  0  0  0  0  0  0  0  0  0  0  0
    3.0199   -1.2375    0.0000 N   0  0  0  0  0  0  0  0  0  0  0  0
    3.7343   -0.8250    0.0000 C   0  0  0  0  0  0  0  0  0  0  0  0
    3.7343    0.0000    0.0000 C   0  0  0  0  0  0  0  0  0  0  0  0
    3.0199    0.4125    0.0000 C   0  0  0  0  0  0  0  0  0  0  0  0
    4.4488    0.4125    0.0000 Cl  0  0  0  0  0  0  0  0  0  0  0  0
    0.1620    0.4125    0.0000 C   0  0  0  0  0  0  0  0  0  0  0  0
    0.1620    1.2375    0.0000 C   0  0  0  0  0  0  0  0  0  0  0  0
   -0.6988    0.1297    0.0000 C   0  0  0  0  0  0  0  0  0  0  0  0
   -1.3137    0.6797    0.0000 C   0  0  0  0  0  0  0  0  0  0  0  0
   -2.0974    0.4222    0.0000 C   0  0  0  0  0  0  0  0  0  0  0  0
   -2.2663   -0.3853    0.0000 C   0  0  0  0  0  0  0  0  0  0  0  0
   -1.6514   -0.9353    0.0000 C   0  0  0  0  0  0  0  0  0  0  0  0
   -0.8677   -0.6778    0.0000 C   0  0  0  0  0  0  0  0  0  0  0  0
   -3.0501   -0.6428    0.0000 C   0  0  0  0  0  0  0  0  0  0  0  0
   -3.6650   -0.0927    0.0000 C   0  0  0  0  0  0  0  0  0  0  0  0
   -3.4961    0.7148    0.0000 C   0  0  0  0  0  0  0  0  0  0  0  0
   -4.4488   -0.3502    0.0000 C   0  0  0  0  0  0  0  0  0  0  0  0
  1  2  1  0      
  2  3  1  0      
  1  4  2  0      
  3  5  2  0      
  5  6  1  0      
  6  7  2  0      
  7  8  1  0      
  8  9  2  0      
  9  3  1  0      
  8 10  1  0      
  1 11  1  0      
 11 12  1  0      
 11 13  1  0      
 13 14  2  0      
 14 15  1  0      
 15 16  2  0      
 16 17  1  0      
 17 18  2  0      
 18 13  1  0      
 16 19  1  0      
 19 20  1  0      
 20 21  1  0      
 20 22  1  0      
M  END
