MCSJ31_0029
  -OEChem-07172407422D

 44 44  0     1  0  0  0  0  0999 V2000
    8.9282    1.7500    0.0000 Cl  0  0  0  0  0  0  0  0  0  0  0  0
    8.9282    3.7500    0.0000 Cl  0  0  0  0  0  0  0  0  0  0  0  0
    7.1962   -1.2500    0.0000 O   0  0  0  0  0  0  0  0  0  0  0  0
    4.5981    0.2500    0.0000 O   0  0  0  0  0  0  0  0  0  0  0  0
    2.8660   -0.7500    0.0000 O   0  0  0  0  0  0  0  0  0  0  0  0
    6.3301   -2.7500    0.0000 O   0  0  0  0  0  0  0  0  0  0  0  0
    2.8660   -2.7500    0.0000 O   0  0  0  0  0  0  0  0  0  0  0  0
    4.5981   -2.7500    0.0000 N   0  0  0  0  0  0  0  0  0  0  0  0
    7.1962    1.7500    0.0000 C   0  0  1  0  0  0  0  0  0  0  0  0
    7.1962    0.7500    0.0000 C   0  0  0  0  0  0  0  0  0  0  0  0
    6.3301    0.2500    0.0000 C   0  0  1  0  0  0  0  0  0  0  0  0
    8.0622    2.2500    0.0000 C   0  0  2  0  0  0  0  0  0  0  0  0
    6.3301    2.2500    0.0000 C   0  0  0  0  0  0  0  0  0  0  0  0
    6.3301   -0.7500    0.0000 C   0  0  0  0  0  0  0  0  0  0  0  0
    5.4641    0.7500    0.0000 C   0  0  0  0  0  0  0  0  0  0  0  0
    8.0622    3.2500    0.0000 C   0  0  0  0  0  0  0  0  0  0  0  0
    5.4641   -1.2500    0.0000 C   0  0  0  0  0  0  0  0  0  0  0  0
    4.5981   -0.7500    0.0000 C   0  0  0  0  0  0  0  0  0  0  0  0
    5.4641   -2.2500    0.0000 C   0  0  0  0  0  0  0  0  0  0  0  0
    3.7320   -1.2500    0.0000 C   0  0  0  0  0  0  0  0  0  0  0  0
    3.7320   -2.2500    0.0000 C   0  0  0  0  0  0  0  0  0  0  0  0
    2.0000   -1.2500    0.0000 C   0  0  0  0  0  0  0  0  0  0  0  0
    2.8660   -3.7500    0.0000 C   0  0  0  0  0  0  0  0  0  0  0  0
    6.6592    1.4400    0.0000 H   0  0  0  0  0  0  0  0  0  0  0  0
    7.4082    0.1674    0.0000 H   0  0  0  0  0  0  0  0  0  0  0  0
    7.8067    0.8577    0.0000 H   0  0  0  0  0  0  0  0  0  0  0  0
    5.7932   -0.0600    0.0000 H   0  0  0  0  0  0  0  0  0  0  0  0
    8.0622    1.6300    0.0000 H   0  0  0  0  0  0  0  0  0  0  0  0
    6.6401    2.7869    0.0000 H   0  0  0  0  0  0  0  0  0  0  0  0
    5.7932    2.5600    0.0000 H   0  0  0  0  0  0  0  0  0  0  0  0
    6.0201    1.7131    0.0000 H   0  0  0  0  0  0  0  0  0  0  0  0
    5.7741    1.2869    0.0000 H   0  0  0  0  0  0  0  0  0  0  0  0
    4.9272    1.0600    0.0000 H   0  0  0  0  0  0  0  0  0  0  0  0
    5.1541    0.2131    0.0000 H   0  0  0  0  0  0  0  0  0  0  0  0
    7.8501    3.8326    0.0000 H   0  0  0  0  0  0  0  0  0  0  0  0
    7.4516    3.1423    0.0000 H   0  0  0  0  0  0  0  0  0  0  0  0
    4.5981   -3.3700    0.0000 H   0  0  0  0  0  0  0  0  0  0  0  0
    4.0611    0.5600    0.0000 H   0  0  0  0  0  0  0  0  0  0  0  0
    1.6900   -0.7131    0.0000 H   0  0  0  0  0  0  0  0  0  0  0  0
    1.4631   -1.5600    0.0000 H   0  0  0  0  0  0  0  0  0  0  0  0
    2.3100   -1.7869    0.0000 H   0  0  0  0  0  0  0  0  0  0  0  0
    2.2460   -3.7500    0.0000 H   0  0  0  0  0  0  0  0  0  0  0  0
    2.8660   -4.3700    0.0000 H   0  0  0  0  0  0  0  0  0  0  0  0
    3.4860   -3.7500    0.0000 H   0  0  0  0  0  0  0  0  0  0  0  0
 12  1  1  6  0  0  0
  2 16  1  0  0  0  0
  3 14  2  0  0  0  0
  4 18  1  0  0  0  0
  4 38  1  0  0  0  0
  5 20  1  0  0  0  0
  5 22  1  0  0  0  0
  6 19  2  0  0  0  0
  7 21  1  0  0  0  0
  7 23  1  0  0  0  0
  8 19  1  0  0  0  0
  8 21  1  0  0  0  0
  8 37  1  0  0  0  0
  9 10  1  0  0  0  0
  9 12  1  0  0  0  0
  9 13  1  6  0  0  0
  9 24  1  0  0  0  0
 10 11  1  0  0  0  0
 10 25  1  0  0  0  0
 10 26  1  0  0  0  0
 11 14  1  0  0  0  0
 11 15  1  1  0  0  0
 11 27  1  0  0  0  0
 12 16  1  0  0  0  0
 12 28  1  0  0  0  0
 13 29  1  0  0  0  0
 13 30  1  0  0  0  0
 13 31  1  0  0  0  0
 14 17  1  0  0  0  0
 15 32  1  0  0  0  0
 15 33  1  0  0  0  0
 15 34  1  0  0  0  0
 16 35  1  0  0  0  0
 16 36  1  0  0  0  0
 17 18  2  0  0  0  0
 17 19  1  0  0  0  0
 18 20  1  0  0  0  0
 20 21  2  0  0  0  0
 22 39  1  0  0  0  0
 22 40  1  0  0  0  0
 22 41  1  0  0  0  0
 23 42  1  0  0  0  0
 23 43  1  0  0  0  0
 23 44  1  0  0  0  0
M  END
> <PUBCHEM_COMPOUND_CID>
54676868

> <PUBCHEM_COMPOUND_CANONICALIZED>
1

> <PUBCHEM_CACTVS_COMPLEXITY>
544

> <PUBCHEM_CACTVS_HBOND_ACCEPTOR>
5

> <PUBCHEM_CACTVS_HBOND_DONOR>
2

> <PUBCHEM_CACTVS_ROTATABLE_BOND>
8

> <PUBCHEM_CACTVS_SUBSKEYS>
AAADceByOAAGAAAAAAAAAAAAAAAAAAAAAAAgAAAAAAAAAAAAAAAAHgIQCAAADQeBgEICAALABgCIAoFQUACACAAgIAAACEEAAkkJBBoJoAAEEAAAgAALsQMYiMCOAAAAAAAAAAAAAAAAAAAAAAAAAAAAAA==

> <PUBCHEM_IUPAC_OPENEYE_NAME>
3-[(2S,4S,5R)-5,6-dichloro-2,4-dimethyl-hexanoyl]-4-hydroxy-5,6-dimethoxy-1H-pyridin-2-one

> <PUBCHEM_IUPAC_CAS_NAME>
3-[(2S,4S,5R)-5,6-dichloro-2,4-dimethyl-1-oxohexyl]-4-hydroxy-5,6-dimethoxy-1H-pyridin-2-one

> <PUBCHEM_IUPAC_NAME_MARKUP>
3-[(2<I>S</I>,4<I>S</I>,5<I>R</I>)-5,6-dichloro-2,4-dimethylhexanoyl]-4-hydroxy-5,6-dimethoxy-1<I>H</I>-pyridin-2-one

> <PUBCHEM_IUPAC_NAME>
3-[(2S,4S,5R)-5,6-dichloro-2,4-dimethylhexanoyl]-4-hydroxy-5,6-dimethoxy-1H-pyridin-2-one

> <PUBCHEM_IUPAC_SYSTEMATIC_NAME>
3-[(2S,4S,5R)-5,6-bis(chloranyl)-2,4-dimethyl-hexanoyl]-5,6-dimethoxy-4-oxidanyl-1H-pyridin-2-one

> <PUBCHEM_IUPAC_TRADITIONAL_NAME>
3-[(2S,4S,5R)-5,6-dichloro-2,4-dimethyl-hexanoyl]-4-hydroxy-5,6-dimethoxy-2-pyridone

> <PUBCHEM_IUPAC_INCHI>
InChI=1S/C15H21Cl2NO5/c1-7(9(17)6-16)5-8(2)11(19)10-12(20)13(22-3)15(23-4)18-14(10)21/h7-9H,5-6H2,1-4H3,(H2,18,20,21)/t7-,8-,9-/m0/s1

> <PUBCHEM_IUPAC_INCHIKEY>
OVULNOOPECCZRG-CIUDSAMLSA-N

> <PUBCHEM_XLOGP3_AA>
2.8

> <PUBCHEM_EXACT_MASS>
365.0796782

> <PUBCHEM_MOLECULAR_FORMULA>
C15H21Cl2NO5

> <PUBCHEM_MOLECULAR_WEIGHT>
366.2

> <PUBCHEM_OPENEYE_CAN_SMILES>
CC(CC(C)C(=O)C1=C(C(=C(NC1=O)OC)OC)O)C(CCl)Cl

> <PUBCHEM_OPENEYE_ISO_SMILES>
C[C@@H](C[C@H](C)C(=O)C1=C(C(=C(NC1=O)OC)OC)O)[C@H](CCl)Cl

> <PUBCHEM_CACTVS_TPSA>
84.9

> <PUBCHEM_MONOISOTOPIC_WEIGHT>
365.0796782

> <PUBCHEM_TOTAL_CHARGE>
0

> <PUBCHEM_HEAVY_ATOM_COUNT>
23

> <PUBCHEM_ATOM_DEF_STEREO_COUNT>
3

> <PUBCHEM_ATOM_UDEF_STEREO_COUNT>
0

> <PUBCHEM_BOND_DEF_STEREO_COUNT>
0

> <PUBCHEM_BOND_UDEF_STEREO_COUNT>
0

> <PUBCHEM_ISOTOPIC_ATOM_COUNT>
0

> <PUBCHEM_COMPONENT_COUNT>
1

> <PUBCHEM_CACTVS_TAUTO_COUNT>
-1

> <PUBCHEM_COORDINATE_TYPE>
1
5
255

> <PUBCHEM_BONDANNOTATIONS>
12  1  6
11  15  5
17  18  8
17  19  8
18  20  8
20  21  8
8  19  8
8  21  8
9  13  6

$$$$
