MCSJ15_0002.mol
  ChemDraw02082411032D

 35 37  0  0  0  0  0  0  0  0999 V2000
   -3.5724    1.2375    0.0000 C   0  0  0  0  0  0  0  0  0  0  0  0
   -3.5724    0.4125    0.0000 C   0  0  0  0  0  0  0  0  0  0  0  0
   -2.8579    0.0000    0.0000 C   0  0  0  0  0  0  0  0  0  0  0  0
   -2.1434    0.4125    0.0000 C   0  0  0  0  0  0  0  0  0  0  0  0
   -2.1434    1.2375    0.0000 C   0  0  0  0  0  0  0  0  0  0  0  0
   -2.8579    1.6500    0.0000 C   0  0  0  0  0  0  0  0  0  0  0  0
   -1.4289    1.6500    0.0000 C   0  0  0  0  0  0  0  0  0  0  0  0
   -0.7145    1.2375    0.0000 C   0  0  0  0  0  0  0  0  0  0  0  0
   -0.7145    0.4125    0.0000 C   0  0  0  0  0  0  0  0  0  0  0  0
    0.0000    0.0000    0.0000 C   0  0  0  0  0  0  0  0  0  0  0  0
    0.7145    0.4125    0.0000 C   0  0  0  0  0  0  0  0  0  0  0  0
    0.7145    1.2375    0.0000 C   0  0  0  0  0  0  0  0  0  0  0  0
    0.0000    1.6500    0.0000 C   0  0  0  0  0  0  0  0  0  0  0  0
    1.4289    1.6500    0.0000 C   0  0  0  0  0  0  0  0  0  0  0  0
    2.1434    1.2375    0.0000 C   0  0  0  0  0  0  0  0  0  0  0  0
    2.1434    0.4125    0.0000 C   0  0  0  0  0  0  0  0  0  0  0  0
    2.8579    0.0000    0.0000 C   0  0  0  0  0  0  0  0  0  0  0  0
    3.5724    0.4125    0.0000 C   0  0  0  0  0  0  0  0  0  0  0  0
    3.5724    1.2375    0.0000 C   0  0  0  0  0  0  0  0  0  0  0  0
    2.8579    1.6500    0.0000 C   0  0  0  0  0  0  0  0  0  0  0  0
    0.0000   -0.8250    0.0000 O   0  0  0  0  0  0  0  0  0  0  0  0
    0.0000    2.4750    0.0000 O   0  0  0  0  0  0  0  0  0  0  0  0
    0.7145   -1.2375    0.0000 C   0  0  0  0  0  0  0  0  0  0  0  0
    0.7145   -2.0625    0.0000 N   0  0  0  0  0  0  0  0  0  0  0  0
    1.4289   -0.8250    0.0000 O   0  0  0  0  0  0  0  0  0  0  0  0
    1.4289   -2.4750    0.0000 C   0  0  0  0  0  0  0  0  0  0  0  0
    2.1434   -2.0625    0.0000 C   0  0  0  0  0  0  0  0  0  0  0  0
    2.8579   -2.4750    0.0000 C   0  0  0  0  0  0  0  0  0  0  0  0
    3.5724   -2.0625    0.0000 N   0  0  0  0  0  0  0  0  0  0  0  0
   -4.2868    0.0000    0.0000 N   0  3  0  0  0  0  0  0  0  0  0  0
   -4.9984    0.4108    0.0000 O   0  0  0  0  0  0  0  0  0  0  0  0
   -4.2868   -0.8217    0.0000 O   0  5  0  0  0  0  0  0  0  0  0  0
    4.2868    0.0000    0.0000 N   0  3  0  0  0  0  0  0  0  0  0  0
    4.2868   -0.8217    0.0000 O   0  0  0  0  0  0  0  0  0  0  0  0
    4.9984    0.4108    0.0000 O   0  5  0  0  0  0  0  0  0  0  0  0
 30 31  2  0      
 30 32  1  0      
  2 30  1  0      
 33 34  2  0      
 33 35  1  0      
 18 33  1  0      
  1  2  2  0      
  2  3  1  0      
  3  4  2  0      
  4  5  1  0      
  5  6  2  0      
  6  1  1  0      
  5  7  1  0      
  7  8  2  0      
  8  9  1  0      
  9 10  1  0      
 10 11  1  0      
 11 12  1  0      
 12 13  1  0      
 13  8  1  0      
 12 14  2  0      
 14 15  1  0      
 15 16  2  0      
 16 17  1  0      
 17 18  2  0      
 18 19  1  0      
 19 20  2  0      
 20 15  1  0      
 10 21  1  0      
 13 22  2  0      
 21 23  1  0      
 23 24  1  0      
 23 25  2  0      
 24 26  1  0      
 26 27  1  0      
 27 28  1  0      
 28 29  1  0      
M  CHG  4  30   1  32  -1  33   1  35  -1
M  STY  1   1 SUP
M  SLB  1   1   1
M  SAL   1  3  30  31  32
M  SBL   1  1   3
M  SMT   1 ^NO2
M  SBV   1   3    0.7145    0.4125
M  STY  1   2 SUP
M  SLB  1   2   2
M  SAL   2  3  33  34  35
M  SBL   2  1   6
M  SMT   2 NO2
M  SBV   2   6   -0.7145    0.4125
M  END
