2719
     RDKit          2D

 22 23  0  0  1  0  0  0  0  0999 V2000
    2.0000   -4.0068    0.0000 Cl  0  0  0  0  0  0  0  0  0  0  0  0
    8.1282    2.5173    0.0000 N   0  0  0  0  0  0  0  0  0  0  0  0
    5.5301   -0.9827    0.0000 N   0  0  0  0  0  0  0  0  0  0  0  0
    5.5301   -3.9827    0.0000 N   0  0  0  0  0  0  0  0  0  0  0  0
    6.3961    0.5173    0.0000 C   0  0  0  0  0  0  0  0  0  0  0  0
    7.2622    1.0173    0.0000 C   0  0  0  0  0  0  0  0  0  0  0  0
    6.3961   -0.4827    0.0000 C   0  0  0  0  0  0  0  0  0  0  0  0
    7.2622    2.0173    0.0000 C   0  0  0  0  0  0  0  0  0  0  0  0
    7.2622   -0.9827    0.0000 C   0  0  0  0  0  0  0  0  0  0  0  0
    8.1282    3.5173    0.0000 C   0  0  0  0  0  0  0  0  0  0  0  0
    8.9942    2.0173    0.0000 C   0  0  0  0  0  0  0  0  0  0  0  0
    5.5301   -1.9827    0.0000 C   0  0  0  0  0  0  0  0  0  0  0  0
    4.6641   -2.4827    0.0000 C   0  0  0  0  0  0  0  0  0  0  0  0
    8.9942    4.0173    0.0000 C   0  0  0  0  0  0  0  0  0  0  0  0
    9.8602    2.5173    0.0000 C   0  0  0  0  0  0  0  0  0  0  0  0
    6.3961   -2.4827    0.0000 C   0  0  0  0  0  0  0  0  0  0  0  0
    4.6641   -3.4827    0.0000 C   0  0  0  0  0  0  0  0  0  0  0  0
    3.7702   -1.9480    0.0000 C   0  0  0  0  0  0  0  0  0  0  0  0
    6.3961   -3.4827    0.0000 C   0  0  0  0  0  0  0  0  0  0  0  0
    3.7702   -4.0173    0.0000 C   0  0  0  0  0  0  0  0  0  0  0  0
    2.8641   -2.4618    0.0000 C   0  0  0  0  0  0  0  0  0  0  0  0
    2.8641   -3.5035    0.0000 C   0  0  0  0  0  0  0  0  0  0  0  0
  1 22  1  0
  2  8  1  0
  2 10  1  0
  2 11  1  0
  3  7  1  0
  3 12  1  0
  4 17  2  0
  4 19  1  0
  5  6  1  0
  5  7  1  0
  6  8  1  0
  7  9  1  0
 10 14  1  0
 11 15  1  0
 12 13  2  0
 12 16  1  0
 13 17  1  0
 13 18  1  0
 16 19  2  0
 17 20  1  0
 18 21  2  0
 20 22  2  0
 21 22  1  0
M  END
>  <PUBCHEM_COMPOUND_CID>  (1) 
2719

>  <PUBCHEM_COMPOUND_CANONICALIZED>  (1) 
1

>  <PUBCHEM_CACTVS_COMPLEXITY>  (1) 
309

>  <PUBCHEM_CACTVS_HBOND_ACCEPTOR>  (1) 
3

>  <PUBCHEM_CACTVS_HBOND_DONOR>  (1) 
1

>  <PUBCHEM_CACTVS_ROTATABLE_BOND>  (1) 
8

>  <PUBCHEM_CACTVS_SUBSKEYS>  (1) 
AAADceB7AAAEAAAAAAAAAAAAAAAAAAAAAAA8QAAAAAAAAACx8AAAHAIQAAAADCrBHiQ+wPPIEACgAzRnRACCgCAxByAI2KA4ZpgIIOLB09GEJAhgkADIyAcQgIAOBAAAAAICAAAIAAAABAQAAAAAAAAAAA==

>  <PUBCHEM_IUPAC_OPENEYE_NAME>  (1) 
N4-(7-chloro-4-quinolyl)-N1,N1-diethyl-pentane-1,4-diamine

>  <PUBCHEM_IUPAC_CAS_NAME>  (1) 
N4-(7-chloro-4-quinolinyl)-N1,N1-diethylpentane-1,4-diamine

>  <PUBCHEM_IUPAC_NAME_MARKUP>  (1) 
4-<I>N</I>-(7-chloroquinolin-4-yl)-1-<I>N</I>,1-<I>N</I>-diethylpentane-1,4-diamine

>  <PUBCHEM_IUPAC_NAME>  (1) 
4-N-(7-chloroquinolin-4-yl)-1-N,1-N-diethylpentane-1,4-diamine

>  <PUBCHEM_IUPAC_SYSTEMATIC_NAME>  (1) 
N4-(7-chloranylquinolin-4-yl)-N1,N1-diethyl-pentane-1,4-diamine

>  <PUBCHEM_IUPAC_TRADITIONAL_NAME>  (1) 
4-[(7-chloro-4-quinolyl)amino]pentyl-diethyl-amine

>  <PUBCHEM_IUPAC_INCHI>  (1) 
InChI=1S/C18H26ClN3/c1-4-22(5-2)12-6-7-14(3)21-17-10-11-20-18-13-15(19)8-9-16(17)18/h8-11,13-14H,4-7,12H2,1-3H3,(H,20,21)

>  <PUBCHEM_IUPAC_INCHIKEY>  (1) 
WHTVZRBIWZFKQO-UHFFFAOYSA-N

>  <PUBCHEM_XLOGP3>  (1) 
4.6

>  <PUBCHEM_EXACT_MASS>  (1) 
319.1815255

>  <PUBCHEM_MOLECULAR_FORMULA>  (1) 
C18H26ClN3

>  <PUBCHEM_MOLECULAR_WEIGHT>  (1) 
319.9

>  <PUBCHEM_OPENEYE_CAN_SMILES>  (1) 
CCN(CC)CCCC(C)NC1=C2C=CC(=CC2=NC=C1)Cl

>  <PUBCHEM_OPENEYE_ISO_SMILES>  (1) 
CCN(CC)CCCC(C)NC1=C2C=CC(=CC2=NC=C1)Cl

>  <PUBCHEM_CACTVS_TPSA>  (1) 
28.2

>  <PUBCHEM_MONOISOTOPIC_WEIGHT>  (1) 
319.1815255

>  <PUBCHEM_TOTAL_CHARGE>  (1) 
0

>  <PUBCHEM_HEAVY_ATOM_COUNT>  (1) 
22

>  <PUBCHEM_ATOM_DEF_STEREO_COUNT>  (1) 
0

>  <PUBCHEM_ATOM_UDEF_STEREO_COUNT>  (1) 
1

>  <PUBCHEM_BOND_DEF_STEREO_COUNT>  (1) 
0

>  <PUBCHEM_BOND_UDEF_STEREO_COUNT>  (1) 
0

>  <PUBCHEM_ISOTOPIC_ATOM_COUNT>  (1) 
0

>  <PUBCHEM_COMPONENT_COUNT>  (1) 
1

>  <PUBCHEM_CACTVS_TAUTO_COUNT>  (1) 
-1

>  <PUBCHEM_COORDINATE_TYPE>  (1) 
1
5
255

>  <PUBCHEM_BONDANNOTATIONS>  (1) 
12  13  8
12  16  8
13  17  8
13  18  8
16  19  8
17  20  8
18  21  8
20  22  8
21  22  8
4  17  8
4  19  8
7  9  3

$$$$
