MCSJ25_0051.mol
  ChemDraw07042413542D

 24 26  0  0  0  0  0  0  0  0999 V2000
   -3.6603    0.0014    0.0000 C   0  0  0  0  0  0  0  0  0  0  0  0
   -3.3507   -0.7597    0.0000 C   0  0  0  0  0  0  0  0  0  0  0  0
   -2.5367   -0.8721    0.0000 C   0  0  0  0  0  0  0  0  0  0  0  0
   -2.0324   -0.2234    0.0000 C   0  0  0  0  0  0  0  0  0  0  0  0
   -2.3420    0.5377    0.0000 C   0  0  0  0  0  0  0  0  0  0  0  0
   -3.1560    0.6501    0.0000 C   0  0  0  0  0  0  0  0  0  0  0  0
   -2.0756   -1.5522    0.0000 N   0  0  0  0  0  0  0  0  0  0  0  0
   -1.2863   -1.3239    0.0000 C   0  0  0  0  0  0  0  0  0  0  0  0
   -1.2596   -0.5026    0.0000 C   0  0  0  0  0  0  0  0  0  0  0  0
   -0.5795   -0.0415    0.0000 S   0  0  0  0  0  0  0  0  0  0  0  0
    0.1599   -0.4000    0.0000 C   0  0  0  0  0  0  0  0  0  0  0  0
    0.8400    0.0611    0.0000 C   0  0  0  0  0  0  0  0  0  0  0  0
    1.5793   -0.2973    0.0000 N   0  0  0  0  0  0  0  0  0  0  0  0
    0.7807    0.8806    0.0000 O   0  0  0  0  0  0  0  0  0  0  0  0
    2.2594    0.1638    0.0000 C   0  0  0  0  0  0  0  0  0  0  0  0
    2.9988   -0.1947    0.0000 C   0  0  0  0  0  0  0  0  0  0  0  0
    3.0581   -1.0142    0.0000 C   0  0  0  0  0  0  0  0  0  0  0  0
    3.7974   -1.3727    0.0000 C   0  0  0  0  0  0  0  0  0  0  0  0
    4.4775   -0.9116    0.0000 C   0  0  0  0  0  0  0  0  0  0  0  0
    4.4183   -0.0920    0.0000 C   0  0  0  0  0  0  0  0  0  0  0  0
    3.6789    0.2664    0.0000 C   0  0  0  0  0  0  0  0  0  0  0  0
    3.6194    1.0893    0.0000 O   0  0  0  0  0  0  0  0  0  0  0  0
    4.3023    1.5522    0.0000 C   0  0  0  0  0  0  0  0  0  0  0  0
   -4.4775    0.1143    0.0000 Br  0  0  0  0  0  0  0  0  0  0  0  0
  1  2  2  0      
  2  3  1  0      
  3  4  2  0      
  4  5  1  0      
  5  6  2  0      
  6  1  1  0      
  3  7  1  0      
  7  8  1  0      
  8  9  2  0      
  9  4  1  0      
  9 10  1  0      
 10 11  1  0      
 11 12  1  0      
 12 13  1  0      
 12 14  2  0      
 13 15  1  0      
 15 16  1  0      
 16 17  2  0      
 17 18  1  0      
 18 19  2  0      
 19 20  1  0      
 20 21  2  0      
 21 16  1  0      
 21 22  1  0      
 22 23  1  0      
  1 24  1  0      
M  END
