23425626
     RDKit          2D

 24 26  0  0  0  0  0  0  0  0999 V2000
    5.9140    1.9615    0.0000 O   0  0  0  0  0  0  0  0  0  0  0  0
    2.0000    1.1366    0.0000 O   0  0  0  0  0  0  0  0  0  0  0  0
    4.9820   -2.4996    0.0000 N   0  0  0  0  0  0  0  0  0  0  0  0
    3.6464    0.5985    0.0000 N   0  0  0  0  0  0  0  0  0  0  0  0
    4.2677    2.4996    0.0000 N   0  0  0  0  0  0  0  0  0  0  0  0
    6.5656   -1.6948    0.0000 C   0  0  0  0  0  0  0  0  0  0  0  0
    5.5656   -1.6948    0.0000 C   0  0  0  0  0  0  0  0  0  0  0  0
    4.9820   -0.8901    0.0000 C   0  0  0  0  0  0  0  0  0  0  0  0
    4.0358   -1.1948    0.0000 C   0  0  0  0  0  0  0  0  0  0  0  0
    4.0358   -2.1948    0.0000 C   0  0  0  0  0  0  0  0  0  0  0  0
    6.5656   -2.6948    0.0000 C   0  0  0  0  0  0  0  0  0  0  0  0
    6.5656   -0.6948    0.0000 C   0  0  0  0  0  0  0  0  0  0  0  0
    7.5656   -1.6948    0.0000 C   0  0  0  0  0  0  0  0  0  0  0  0
    5.2927    0.0604    0.0000 C   0  0  0  0  0  0  0  0  0  0  0  0
    3.1698   -0.6948    0.0000 C   0  0  0  0  0  0  0  0  0  0  0  0
    3.1698   -2.6948    0.0000 C   0  0  0  0  0  0  0  0  0  0  0  0
    4.6249    0.8047    0.0000 C   0  0  0  0  0  0  0  0  0  0  0  0
    2.3038   -1.1948    0.0000 C   0  0  0  0  0  0  0  0  0  0  0  0
    2.3038   -2.1948    0.0000 C   0  0  0  0  0  0  0  0  0  0  0  0
    8.0656   -2.5608    0.0000 C   0  0  0  0  0  0  0  0  0  0  0  0
    4.9355    1.7552    0.0000 C   0  0  0  0  0  0  0  0  0  0  0  0
    2.9785    1.3428    0.0000 C   0  0  0  0  0  0  0  0  0  0  0  0
    3.2892    2.2933    0.0000 C   0  0  0  0  0  0  0  0  0  0  0  0
    2.6213    3.0376    0.0000 C   0  0  0  0  0  0  0  0  0  0  0  0
  1 21  2  0
  2 22  2  0
  3  7  1  0
  3 10  1  0
  4 17  1  0
  4 22  1  0
  5 21  1  0
  5 23  1  0
  6  7  1  0
  6 11  1  0
  6 12  1  0
  6 13  1  0
  7  8  2  0
  8  9  1  0
  8 14  1  0
  9 10  2  0
  9 15  1  0
 10 16  1  0
 13 20  2  0
 14 17  2  0
 15 18  2  0
 16 19  2  0
 17 21  1  0
 18 19  1  0
 22 23  1  0
 23 24  2  0
M  END
>  <PUBCHEM_COMPOUND_CID>  (1) 
23425626

>  <PUBCHEM_COMPOUND_CANONICALIZED>  (1) 
1

>  <PUBCHEM_CACTVS_COMPLEXITY>  (1) 
620

>  <PUBCHEM_CACTVS_HBOND_ACCEPTOR>  (1) 
2

>  <PUBCHEM_CACTVS_HBOND_DONOR>  (1) 
3

>  <PUBCHEM_CACTVS_ROTATABLE_BOND>  (1) 
3

>  <PUBCHEM_CACTVS_SUBSKEYS>  (1) 
AAADceB7MAAAAAAAAAAAAAAAAAAAAWAAAAA8QAAAAAAAAFgB8AAAHgAQAAAADgiBngAywPLJkACoAyVyVACCgCAhAiAImSCwZNgIYOLAkbGUIAhglADIyYcQgMAPgAAAAAACAAAAAAAAAAQAAAAAAAAAAA==

>  <PUBCHEM_IUPAC_OPENEYE_NAME>  (1) 
(3Z)-3-[[2-(1,1-dimethylallyl)-1H-indol-3-yl]methylene]-6-methylene-piperazine-2,5-dione

>  <PUBCHEM_IUPAC_CAS_NAME>  (1) 
(3Z)-3-[[2-(2-methylbut-3-en-2-yl)-1H-indol-3-yl]methylidene]-6-methylenepiperazine-2,5-dione

>  <PUBCHEM_IUPAC_NAME_MARKUP>  (1) 
(3<I>Z</I>)-3-[[2-(2-methylbut-3-en-2-yl)-1<I>H</I>-indol-3-yl]methylidene]-6-methylidenepiperazine-2,5-dione

>  <PUBCHEM_IUPAC_NAME>  (1) 
(3Z)-3-[[2-(2-methylbut-3-en-2-yl)-1H-indol-3-yl]methylidene]-6-methylidenepiperazine-2,5-dione

>  <PUBCHEM_IUPAC_SYSTEMATIC_NAME>  (1) 
(3Z)-3-[[2-(2-methylbut-3-en-2-yl)-1H-indol-3-yl]methylidene]-6-methylidene-piperazine-2,5-dione

>  <PUBCHEM_IUPAC_TRADITIONAL_NAME>  (1) 
(3Z)-3-[[2-(1,1-dimethylallyl)-1H-indol-3-yl]methylene]-6-methylene-piperazine-2,5-quinone

>  <PUBCHEM_IUPAC_INCHI>  (1) 
InChI=1S/C19H19N3O2/c1-5-19(3,4)16-13(12-8-6-7-9-14(12)21-16)10-15-18(24)20-11(2)17(23)22-15/h5-10,21H,1-2H2,3-4H3,(H,20,24)(H,22,23)/b15-10-

>  <PUBCHEM_IUPAC_INCHIKEY>  (1) 
GVVVEKSVCAGUTP-GDNBJRDFSA-N

>  <PUBCHEM_XLOGP3_AA>  (1) 
3.6

>  <PUBCHEM_EXACT_MASS>  (1) 
321.147726857

>  <PUBCHEM_MOLECULAR_FORMULA>  (1) 
C19H19N3O2

>  <PUBCHEM_MOLECULAR_WEIGHT>  (1) 
321.4

>  <PUBCHEM_OPENEYE_CAN_SMILES>  (1) 
CC(C)(C=C)C1=C(C2=CC=CC=C2N1)C=C3C(=O)NC(=C)C(=O)N3

>  <PUBCHEM_OPENEYE_ISO_SMILES>  (1) 
CC(C)(C=C)C1=C(C2=CC=CC=C2N1)/C=C\3/C(=O)NC(=C)C(=O)N3

>  <PUBCHEM_CACTVS_TPSA>  (1) 
74

>  <PUBCHEM_MONOISOTOPIC_WEIGHT>  (1) 
321.147726857

>  <PUBCHEM_TOTAL_CHARGE>  (1) 
0

>  <PUBCHEM_HEAVY_ATOM_COUNT>  (1) 
24

>  <PUBCHEM_ATOM_DEF_STEREO_COUNT>  (1) 
0

>  <PUBCHEM_ATOM_UDEF_STEREO_COUNT>  (1) 
0

>  <PUBCHEM_BOND_DEF_STEREO_COUNT>  (1) 
1

>  <PUBCHEM_BOND_UDEF_STEREO_COUNT>  (1) 
0

>  <PUBCHEM_ISOTOPIC_ATOM_COUNT>  (1) 
0

>  <PUBCHEM_COMPONENT_COUNT>  (1) 
1

>  <PUBCHEM_CACTVS_TAUTO_COUNT>  (1) 
-1

>  <PUBCHEM_COORDINATE_TYPE>  (1) 
1
5
255

>  <PUBCHEM_BONDANNOTATIONS>  (1) 
10  16  8
15  18  8
16  19  8
17  21  8
18  19  8
22  23  8
3  10  8
3  7  8
4  17  8
4  22  8
5  21  8
5  23  8
7  8  8
8  9  8
9  10  8
9  15  8

$$$$
