148052241
     RDKit          2D

 39 43  0  0  0  0  0  0  0  0999 V2000
    2.8680   -0.2915    0.0000 S   0  0  0  0  0  0  0  0  0  0  0  0
    2.0038   -0.7948    0.0000 F   0  0  0  0  0  0  0  0  0  0  0  0
    2.0000    0.2052    0.0000 F   0  0  0  0  0  0  0  0  0  0  0  0
    2.8718   -1.2915    0.0000 F   0  0  0  0  0  0  0  0  0  0  0  0
    2.8641    0.7085    0.0000 F   0  0  0  0  0  0  0  0  0  0  0  0
    3.7359   -0.7881    0.0000 F   0  0  0  0  0  0  0  0  0  0  0  0
   10.7282   -1.7673    0.0000 O   0  0  0  0  0  0  0  0  0  0  0  0
   14.1923    1.2327    0.0000 O   0  0  0  0  0  0  0  0  0  0  0  0
    6.3981   -1.2673    0.0000 O   0  0  0  0  0  0  0  0  0  0  0  0
   13.3263   -0.2673    0.0000 N   0  0  0  0  0  0  0  0  0  0  0  0
    7.2641    0.2327    0.0000 N   0  0  0  0  0  0  0  0  0  0  0  0
    6.3981    1.7327    0.0000 N   0  0  0  0  0  0  0  0  0  0  0  0
   15.0583   -0.2673    0.0000 C   0  0  0  0  0  0  0  0  0  0  0  0
   15.0583   -1.2673    0.0000 C   0  0  0  0  0  0  0  0  0  0  0  0
   15.9244    0.2327    0.0000 C   0  0  0  0  0  0  0  0  0  0  0  0
   15.9244   -1.7673    0.0000 C   0  0  0  0  0  0  0  0  0  0  0  0
   16.7904   -0.2673    0.0000 C   0  0  0  0  0  0  0  0  0  0  0  0
   16.7904   -1.2673    0.0000 C   0  0  0  0  0  0  0  0  0  0  0  0
   14.1923    0.2327    0.0000 C   0  0  0  0  0  0  0  0  0  0  0  0
   12.4602    0.2327    0.0000 C   0  0  0  0  0  0  0  0  0  0  0  0
   13.3263   -1.2673    0.0000 C   0  0  0  0  0  0  0  0  0  0  0  0
   11.5942   -1.2673    0.0000 C   0  0  0  0  0  0  0  0  0  0  0  0
   11.5942   -0.2673    0.0000 C   0  0  0  0  0  0  0  0  0  0  0  0
   12.4602   -1.7673    0.0000 C   0  0  0  0  0  0  0  0  0  0  0  0
    9.8622   -1.2673    0.0000 C   0  0  0  0  0  0  0  0  0  0  0  0
    3.7320    0.2119    0.0000 C   0  0  0  0  0  0  0  0  0  0  0  0
    8.9962   -1.7673    0.0000 C   0  0  0  0  0  0  0  0  0  0  0  0
    9.8622   -0.2673    0.0000 C   0  0  0  0  0  0  0  0  0  0  0  0
    8.1301   -0.2673    0.0000 C   0  0  0  0  0  0  0  0  0  0  0  0
    5.5320    0.2327    0.0000 C   0  0  0  0  0  0  0  0  0  0  0  0
    4.6381   -0.3020    0.0000 C   0  0  0  0  0  0  0  0  0  0  0  0
    8.1301   -1.2673    0.0000 C   0  0  0  0  0  0  0  0  0  0  0  0
    8.9962    0.2327    0.0000 C   0  0  0  0  0  0  0  0  0  0  0  0
    5.5320    1.2327    0.0000 C   0  0  0  0  0  0  0  0  0  0  0  0
    3.7320    1.2535    0.0000 C   0  0  0  0  0  0  0  0  0  0  0  0
    6.3981   -0.2673    0.0000 C   0  0  0  0  0  0  0  0  0  0  0  0
    7.2641    1.2327    0.0000 C   0  0  0  0  0  0  0  0  0  0  0  0
    4.6381    1.7673    0.0000 C   0  0  0  0  0  0  0  0  0  0  0  0
    8.1301    1.7327    0.0000 C   0  0  0  0  0  0  0  0  0  0  0  0
  1  2  1  0
  1  3  1  0
  1  4  1  0
  1  5  1  0
  1  6  1  0
  1 26  1  0
  7 22  1  0
  7 25  1  0
  8 19  2  0
  9 36  2  0
 10 19  1  0
 10 20  1  0
 10 21  1  0
 11 29  1  0
 11 36  1  0
 11 37  1  0
 12 34  1  0
 12 37  2  0
 13 14  1  0
 13 15  1  0
 13 19  1  0
 14 16  1  0
 15 17  1  0
 16 18  1  0
 17 18  1  0
 20 23  1  0
 21 24  1  0
 22 23  1  0
 22 24  1  0
 25 27  2  0
 25 28  1  0
 26 31  2  0
 26 35  1  0
 27 32  1  0
 28 33  2  0
 29 32  2  0
 29 33  1  0
 30 31  1  0
 30 34  2  0
 30 36  1  0
 34 38  1  0
 35 38  2  0
 37 39  1  0
M  END
>  <PUBCHEM_COMPOUND_CID>  (1) 
148052241

>  <PUBCHEM_COMPOUND_CANONICALIZED>  (1) 
1

>  <PUBCHEM_CACTVS_COMPLEXITY>  (1) 
972

>  <PUBCHEM_CACTVS_HBOND_ACCEPTOR>  (1) 
9

>  <PUBCHEM_CACTVS_HBOND_DONOR>  (1) 
0

>  <PUBCHEM_CACTVS_ROTATABLE_BOND>  (1) 
4

>  <PUBCHEM_CACTVS_SUBSKEYS>  (1) 
AAADceB7McBAAAAAAAAAAAAAAAAAAAAAAAA8YMECAAAAAACBQAAAHgQAAAQADRzh2AYzx4MABACoAidydACCCAElIgAJiBkebMgMJjrE/ZuGOajmxhHI6ce4yACOAEQAgAACAAAAiAEAAAQAAAAAAAAAAA==

>  <PUBCHEM_IUPAC_OPENEYE_NAME>  (1) 
3-[4-[[1-(cyclohexanecarbonyl)-4-piperidyl]oxy]phenyl]-2-methyl-6-(pentafluoro-lambda6-sulfanyl)quinazolin-4-one

>  <PUBCHEM_IUPAC_CAS_NAME>  (1) 
3-[4-[[1-[cyclohexyl(oxo)methyl]-4-piperidinyl]oxy]phenyl]-2-methyl-6-(pentafluoro-lambda6-sulfanyl)-4-quinazolinone

>  <PUBCHEM_IUPAC_NAME_MARKUP>  (1) 
3-[4-[1-(cyclohexanecarbonyl)piperidin-4-yl]oxyphenyl]-2-methyl-6-(pentafluoro-&lambda;<SUP>6</SUP>-sulfanyl)quinazolin-4-one

>  <PUBCHEM_IUPAC_NAME>  (1) 
3-[4-[1-(cyclohexanecarbonyl)piperidin-4-yl]oxyphenyl]-2-methyl-6-(pentafluoro-lambda6-sulfanyl)quinazolin-4-one

>  <PUBCHEM_IUPAC_SYSTEMATIC_NAME>  (1) 
3-[4-(1-cyclohexylcarbonylpiperidin-4-yl)oxyphenyl]-2-methyl-6-[pentakis(fluoranyl)-lambda6-sulfanyl]quinazolin-4-one

>  <PUBCHEM_IUPAC_TRADITIONAL_NAME>  (1) 
3-[4-[[1-(cyclohexanecarbonyl)-4-piperidyl]oxy]phenyl]-2-methyl-6-pentafluoropersulfuranyl-quinazolin-4-one

>  <PUBCHEM_IUPAC_INCHI>  (1) 
InChI=1S/C27H30F5N3O3S/c1-18-33-25-12-11-23(39(28,29,30,31)32)17-24(25)27(37)35(18)20-7-9-21(10-8-20)38-22-13-15-34(16-14-22)26(36)19-5-3-2-4-6-19/h7-12,17,19,22H,2-6,13-16H2,1H3

>  <PUBCHEM_IUPAC_INCHIKEY>  (1) 
JGOLFGJFZZPEJI-UHFFFAOYSA-N

>  <PUBCHEM_XLOGP3_AA>  (1) 
7.8

>  <PUBCHEM_EXACT_MASS>  (1) 
571.19280381

>  <PUBCHEM_MOLECULAR_FORMULA>  (1) 
C27H30F5N3O3S

>  <PUBCHEM_MOLECULAR_WEIGHT>  (1) 
571.6

>  <PUBCHEM_OPENEYE_CAN_SMILES>  (1) 
CC1=NC2=C(C=C(C=C2)S(F)(F)(F)(F)F)C(=O)N1C3=CC=C(C=C3)OC4CCN(CC4)C(=O)C5CCCCC5

>  <PUBCHEM_OPENEYE_ISO_SMILES>  (1) 
CC1=NC2=C(C=C(C=C2)S(F)(F)(F)(F)F)C(=O)N1C3=CC=C(C=C3)OC4CCN(CC4)C(=O)C5CCCCC5

>  <PUBCHEM_CACTVS_TPSA>  (1) 
63.2

>  <PUBCHEM_MONOISOTOPIC_WEIGHT>  (1) 
571.19280381

>  <PUBCHEM_TOTAL_CHARGE>  (1) 
0

>  <PUBCHEM_HEAVY_ATOM_COUNT>  (1) 
39

>  <PUBCHEM_ATOM_DEF_STEREO_COUNT>  (1) 
0

>  <PUBCHEM_ATOM_UDEF_STEREO_COUNT>  (1) 
0

>  <PUBCHEM_BOND_DEF_STEREO_COUNT>  (1) 
0

>  <PUBCHEM_BOND_UDEF_STEREO_COUNT>  (1) 
0

>  <PUBCHEM_ISOTOPIC_ATOM_COUNT>  (1) 
0

>  <PUBCHEM_COMPONENT_COUNT>  (1) 
1

>  <PUBCHEM_CACTVS_TAUTO_COUNT>  (1) 
-1

>  <PUBCHEM_COORDINATE_TYPE>  (1) 
1
5
255

>  <PUBCHEM_BONDANNOTATIONS>  (1) 
11  36  8
11  37  8
12  34  8
12  37  8
25  27  8
25  28  8
26  31  8
26  35  8
27  32  8
28  33  8
29  32  8
29  33  8
30  31  8
30  34  8
30  36  8
34  38  8
35  38  8

$$$$
