MCSJ25_0068.mol
  ChemDraw04192414162D

 19 21  0  0  0  0  0  0  0  0999 V2000
   -2.7437    0.3314    0.0000 C   0  0  0  0  0  0  0  0  0  0  0  0
   -2.0508   -0.1164    0.0000 C   0  0  0  0  0  0  0  0  0  0  0  0
   -1.3165    0.2597    0.0000 C   0  0  0  0  0  0  0  0  0  0  0  0
   -1.2752    1.0837    0.0000 C   0  0  0  0  0  0  0  0  0  0  0  0
   -1.9680    1.5315    0.0000 N   0  0  0  0  0  0  0  0  0  0  0  0
   -2.7023    1.1553    0.0000 C   0  0  0  0  0  0  0  0  0  0  0  0
   -3.4779   -0.0448    0.0000 Cl  0  0  0  0  0  0  0  0  0  0  0  0
   -0.6236   -0.1881    0.0000 O   0  0  0  0  0  0  0  0  0  0  0  0
    0.1106    0.1881    0.0000 C   0  0  0  0  0  0  0  0  0  0  0  0
    0.1520    1.0120    0.0000 O   0  0  0  0  0  0  0  0  0  0  0  0
    0.8035   -0.2597    0.0000 C   0  0  0  0  0  0  0  0  0  0  0  0
    0.7621   -1.0837    0.0000 C   0  0  0  0  0  0  0  0  0  0  0  0
    1.4550   -1.5315    0.0000 C   0  0  0  0  0  0  0  0  0  0  0  0
    2.1893   -1.1553    0.0000 C   0  0  0  0  0  0  0  0  0  0  0  0
    2.2307   -0.3314    0.0000 C   0  0  0  0  0  0  0  0  0  0  0  0
    1.5378    0.1164    0.0000 C   0  0  0  0  0  0  0  0  0  0  0  0
    2.9601   -1.4493    0.0000 N   0  0  0  0  0  0  0  0  0  0  0  0
    3.4779   -0.8070    0.0000 C   0  0  0  0  0  0  0  0  0  0  0  0
    3.0271   -0.1161    0.0000 C   0  0  0  0  0  0  0  0  0  0  0  0
  1  2  2  0      
  2  3  1  0      
  3  4  2  0      
  4  5  1  0      
  5  6  2  0      
  6  1  1  0      
  1  7  1  0      
  3  8  1  0      
  8  9  1  0      
  9 10  2  0      
  9 11  1  0      
 11 12  2  0      
 12 13  1  0      
 13 14  2  0      
 14 15  1  0      
 15 16  2  0      
 16 11  1  0      
 14 17  1  0      
 17 18  1  0      
 18 19  2  0      
 19 15  1  0      
M  END
