MCSJ25_0039.mol
  ChemDraw04192413242D

 24 26  0  0  0  0  0  0  0  0999 V2000
   -3.6171    2.8914    0.0000 C   0  0  0  0  0  0  0  0  0  0  0  0
   -3.7880    2.0877    0.0000 C   0  0  0  0  0  0  0  0  0  0  0  0
   -3.1774    1.5379    0.0000 C   0  0  0  0  0  0  0  0  0  0  0  0
   -2.3959    1.7918    0.0000 C   0  0  0  0  0  0  0  0  0  0  0  0
   -2.2251    2.5955    0.0000 C   0  0  0  0  0  0  0  0  0  0  0  0
   -2.8357    3.1453    0.0000 C   0  0  0  0  0  0  0  0  0  0  0  0
   -3.1774    0.7162    0.0000 N   0  0  0  0  0  0  0  0  0  0  0  0
   -2.3959    0.4623    0.0000 C   0  0  0  0  0  0  0  0  0  0  0  0
   -1.9129    1.1271    0.0000 C   0  0  0  0  0  0  0  0  0  0  0  0
   -3.8421    0.2333    0.0000 C   0  0  0  0  0  0  0  0  0  0  0  0
   -1.0913    1.1271    0.0000 S   0  0  0  0  0  0  0  0  0  0  0  0
   -0.6804    0.4155    0.0000 C   0  0  0  0  0  0  0  0  0  0  0  0
    0.1412    0.4155    0.0000 C   0  0  0  0  0  0  0  0  0  0  0  0
    0.5521   -0.2961    0.0000 N   0  0  0  0  0  0  0  0  0  0  0  0
    0.5521    1.1271    0.0000 O   0  0  0  0  0  0  0  0  0  0  0  0
    1.3738   -0.2961    0.0000 C   0  0  0  0  0  0  0  0  0  0  0  0
    1.7846   -1.0077    0.0000 C   0  0  0  0  0  0  0  0  0  0  0  0
    1.3738   -1.7193    0.0000 C   0  0  0  0  0  0  0  0  0  0  0  0
    1.7846   -2.4309    0.0000 C   0  0  0  0  0  0  0  0  0  0  0  0
    2.6063   -2.4309    0.0000 C   0  0  0  0  0  0  0  0  0  0  0  0
    3.0171   -1.7193    0.0000 C   0  0  0  0  0  0  0  0  0  0  0  0
    2.6063   -1.0077    0.0000 C   0  0  0  0  0  0  0  0  0  0  0  0
    3.8421   -1.7193    0.0000 Cl  0  0  0  0  0  0  0  0  0  0  0  0
    3.0188   -3.1453    0.0000 Cl  0  0  0  0  0  0  0  0  0  0  0  0
  1  2  2  0      
  2  3  1  0      
  3  4  2  0      
  4  5  1  0      
  5  6  2  0      
  6  1  1  0      
  3  7  1  0      
  7  8  1  0      
  8  9  2  0      
  9  4  1  0      
  7 10  1  0      
  9 11  1  0      
 11 12  1  0      
 12 13  1  0      
 13 14  1  0      
 13 15  2  0      
 14 16  1  0      
 16 17  1  0      
 17 18  2  0      
 18 19  1  0      
 19 20  2  0      
 20 21  1  0      
 21 22  2  0      
 22 17  1  0      
 21 23  1  0      
 20 24  1  0      
M  END
