MCSJ17_0003.mol
  ChemDraw02132412352D

 34 38  0  0  1  0  0  0  0  0999 V2000
   -5.3595   -0.3904    0.0000 C   0  0  0  0  0  0  0  0  0  0  0  0
   -4.8766   -1.0552    0.0000 C   0  0  0  0  0  0  0  0  0  0  0  0
   -4.0594   -0.9693    0.0000 C   0  0  0  0  0  0  0  0  0  0  0  0
   -3.7252   -0.2186    0.0000 C   0  0  0  0  0  0  0  0  0  0  0  0
   -4.2082    0.4461    0.0000 C   0  0  0  0  0  0  0  0  0  0  0  0
   -5.0253    0.3602    0.0000 C   0  0  0  0  0  0  0  0  0  0  0  0
   -5.5083    1.0250    0.0000 O   0  0  0  0  0  0  0  0  0  0  0  0
   -2.9080   -0.1328    0.0000 C   0  0  0  0  0  0  0  0  0  0  0  0
   -2.3582   -0.7434    0.0000 C   0  0  0  0  0  0  0  0  0  0  0  0
   -1.6076   -0.4092    0.0000 N   0  0  0  0  0  0  0  0  0  0  0  0
   -1.6935    0.4080    0.0000 N   0  0  0  0  0  0  0  0  0  0  0  0
   -2.4972    0.5788    0.0000 N   0  0  0  0  0  0  0  0  0  0  0  0
   -0.8960   -0.8200    0.0000 C   0  0  0  0  0  0  0  0  0  0  0  0
   -0.1844   -0.4092    0.0000 C   0  0  0  0  0  0  0  0  0  0  0  0
    0.5272   -0.8200    0.0000 N   0  0  0  0  0  0  0  0  0  0  0  0
    1.2388   -0.4092    0.0000 C   0  0  0  0  0  0  0  0  0  0  0  0
    1.2388    0.4125    0.0000 C   0  0  0  0  0  0  0  0  0  0  0  0
    0.5272    0.8233    0.0000 C   0  0  0  0  0  0  0  0  0  0  0  0
   -0.1844    0.4125    0.0000 C   0  0  0  0  0  0  0  0  0  0  0  0
    0.2569    0.3552    0.0000 C   0  0  0  0  0  0  0  0  0  0  0  0
    0.2569   -0.1854    0.0000 C   0  0  0  0  0  0  0  0  0  0  0  0
    1.9504    0.8233    0.0000 C   0  0  0  0  0  0  0  0  0  0  0  0
    2.6619    0.4125    0.0000 N   0  0  0  0  0  0  0  0  0  0  0  0
    1.9504    1.6450    0.0000 O   0  0  0  0  0  0  0  0  0  0  0  0
    3.3735    0.8233    0.0000 C   0  0  0  0  0  0  0  0  0  0  0  0
    4.0851    0.4125    0.0000 C   0  0  0  0  0  0  0  0  0  0  0  0
    4.0851   -0.4092    0.0000 C   0  0  0  0  0  0  0  0  0  0  0  0
    3.3735   -0.8200    0.0000 O   0  0  0  0  0  0  0  0  0  0  0  0
    2.6619   -0.4092    0.0000 C   0  0  0  0  0  0  0  0  0  0  0  0
    4.7967   -0.8200    0.0000 C   0  0  0  0  0  0  0  0  0  0  0  0
    5.5083   -0.4092    0.0000 C   0  0  0  0  0  0  0  0  0  0  0  0
    5.5083    0.4125    0.0000 C   0  0  0  0  0  0  0  0  0  0  0  0
    4.7967    0.8233    0.0000 C   0  0  0  0  0  0  0  0  0  0  0  0
    0.5272   -1.6450    0.0000 H   0  0  0  0  0  0  0  0  0  0  0  0
  1  2  2  0      
  2  3  1  0      
  3  4  2  0      
  4  5  1  0      
  5  6  2  0      
  6  1  1  0      
  6  7  1  0      
  4  8  1  0      
  8  9  2  0      
  9 10  1  0      
 10 11  1  0      
 11 12  2  0      
 12  8  1  0      
 10 13  1  0      
 14 13  1  6      
 14 15  1  0      
 15 16  1  0      
 16 17  1  0      
 17 18  1  0      
 18 19  1  0      
 19 14  1  0      
 18 20  1  0      
 20 21  1  0      
 21 15  1  0      
 17 22  1  6      
 22 23  1  0      
 22 24  2  0      
 23 25  1  0      
 25 26  1  0      
 26 27  2  0      
 27 28  1  0      
 28 29  1  0      
 27 30  1  0      
 30 31  2  0      
 31 32  1  0      
 32 33  2  0      
 33 26  1  0      
 15 34  1  0      
M  END
