MCSJ12_0003.mol
  ChemDraw02082410492D

 48 52  0  0  1  0  0  0  0  0999 V2000
   -5.3585    1.2227    0.0000 C   0  0  0  0  0  0  0  0  0  0  0  0
   -5.3585    0.3977    0.0000 C   0  0  0  0  0  0  0  0  0  0  0  0
   -4.6441   -0.0148    0.0000 C   0  0  0  0  0  0  0  0  0  0  0  0
   -3.9296    0.3977    0.0000 C   0  0  0  0  0  0  0  0  0  0  0  0
   -3.9296    1.2227    0.0000 C   0  0  0  0  0  0  0  0  0  0  0  0
   -4.6441    1.6352    0.0000 C   0  0  0  0  0  0  0  0  0  0  0  0
   -3.2151    1.6352    0.0000 C   0  0  0  0  0  0  0  0  0  0  0  0
   -2.5006    1.2227    0.0000 C   0  0  0  0  0  0  0  0  0  0  0  0
   -1.7862    1.6352    0.0000 C   0  0  0  0  0  0  0  0  0  0  0  0
   -1.7862    2.4602    0.0000 C   0  0  0  0  0  0  0  0  0  0  0  0
   -2.5006    2.8727    0.0000 C   0  0  0  0  0  0  0  0  0  0  0  0
   -3.2151    2.4602    0.0000 C   0  0  0  0  0  0  0  0  0  0  0  0
   -1.0717    1.2227    0.0000 S   0  0  0  0  0  0  0  0  0  0  0  0
   -0.3572    1.6352    0.0000 N   0  0  0  0  0  0  0  0  0  0  0  0
   -1.6551    0.6393    0.0000 O   0  0  0  0  0  0  0  0  0  0  0  0
   -0.4883    0.6393    0.0000 O   0  0  0  0  0  0  0  0  0  0  0  0
    0.3572    1.2227    0.0000 C   0  0  0  0  0  0  0  0  0  0  0  0
    0.3572    0.3977    0.0000 C   0  0  0  0  0  0  0  0  0  0  0  0
    1.0717    1.6352    0.0000 C   0  0  0  0  0  0  0  0  0  0  0  0
    1.0717    2.4602    0.0000 O   0  0  0  0  0  0  0  0  0  0  0  0
    1.7862    1.2227    0.0000 N   0  0  0  0  0  0  0  0  0  0  0  0
    1.0717   -0.0148    0.0000 C   0  0  0  0  0  0  0  0  0  0  0  0
    1.7862    0.3977    0.0000 C   0  0  0  0  0  0  0  0  0  0  0  0
    2.5006   -0.0148    0.0000 C   0  0  0  0  0  0  0  0  0  0  0  0
    3.2151    0.3977    0.0000 N   0  0  0  0  0  0  0  0  0  0  0  0
    3.2151    1.2227    0.0000 C   0  0  0  0  0  0  0  0  0  0  0  0
    2.5006    1.6352    0.0000 C   0  0  0  0  0  0  0  0  0  0  0  0
    0.6592   -0.7293    0.0000 C   0  0  0  0  0  0  0  0  0  0  0  0
    1.0717   -1.4437    0.0000 C   0  0  0  0  0  0  0  0  0  0  0  0
    1.8967   -1.4437    0.0000 C   0  0  0  0  0  0  0  0  0  0  0  0
    2.3092   -0.7293    0.0000 C   0  0  0  0  0  0  0  0  0  0  0  0
    1.8967   -0.0148    0.0000 C   0  0  0  0  0  0  0  0  0  0  0  0
    0.6592   -2.1582    0.0000 C   0  0  0  0  0  0  0  0  0  0  0  0
    1.0717   -2.8727    0.0000 N   0  0  0  0  0  0  0  0  0  0  0  0
   -0.1658   -2.1582    0.0000 N   0  0  0  0  0  0  0  0  0  0  0  0
   -6.0730   -0.0148    0.0000 O   0  0  0  0  0  0  0  0  0  0  0  0
   -3.2151   -0.0148    0.0000 O   0  0  0  0  0  0  0  0  0  0  0  0
   -2.5006    0.3977    0.0000 C   0  0  0  0  0  0  0  0  0  0  0  0
   -6.7875    0.3977    0.0000 C   0  0  0  0  0  0  0  0  0  0  0  0
    3.9296   -0.0148    0.0000 C   0  0  0  0  0  0  0  0  0  0  0  0
    4.6441    0.3977    0.0000 N   0  0  0  0  0  0  0  0  0  0  0  0
    5.3585   -0.0148    0.0000 C   0  0  0  0  0  0  0  0  0  0  0  0
    5.3585   -0.8398    0.0000 C   0  0  0  0  0  0  0  0  0  0  0  0
    6.0730   -1.2523    0.0000 C   0  0  0  0  0  0  0  0  0  0  0  0
    6.7875   -0.8398    0.0000 C   0  0  0  0  0  0  0  0  0  0  0  0
    6.7875   -0.0148    0.0000 C   0  0  0  0  0  0  0  0  0  0  0  0
    6.0730    0.3977    0.0000 C   0  0  0  0  0  0  0  0  0  0  0  0
    3.9296   -0.8398    0.0000 O   0  0  0  0  0  0  0  0  0  0  0  0
  1  2  2  0      
  2  3  1  0      
  3  4  2  0      
  4  5  1  0      
  5  6  2  0      
  6  1  1  0      
  5  7  1  0      
  7  8  2  0      
  8  9  1  0      
  9 10  2  0      
 10 11  1  0      
 11 12  2  0      
 12  7  1  0      
  9 13  1  0      
 13 14  1  0      
 13 15  2  0      
 13 16  2  0      
 14 17  1  0      
 17 18  1  6      
 17 19  1  0      
 19 20  2  0      
 19 21  1  0      
 18 22  1  0      
 21 23  1  0      
 23 24  1  0      
 24 25  1  0      
 25 26  1  0      
 26 27  1  0      
 27 21  1  0      
 22 28  2  0      
 28 29  1  0      
 29 30  2  0      
 30 31  1  0      
 31 32  2  0      
 32 22  1  0      
 29 33  1  0      
 33 34  1  0      
 33 35  2  0      
  2 36  1  0      
  4 37  1  0      
 37 38  1  0      
 36 39  1  0      
 25 40  1  0      
 40 41  1  0      
 41 42  1  0      
 42 43  1  0      
 43 44  1  0      
 44 45  1  0      
 45 46  1  0      
 46 47  1  0      
 47 42  1  0      
 40 48  2  0      
M  END
