11561899
     RDKit          2D

 34 36  0  0  1  0  0  0  0  0999 V2000
    6.8770    3.3169    0.0000 O   0  0  0  0  0  0  0  0  0  0  0  0
    9.7619   -0.4026    0.0000 O   0  0  0  0  0  0  0  0  0  0  0  0
    9.2619   -1.2686    0.0000 O   0  0  0  0  0  0  0  0  0  0  0  0
   10.7619    1.3294    0.0000 O   0  0  0  0  0  0  0  0  0  0  0  0
    6.7619   -3.8667    0.0000 O   0  0  0  0  0  0  0  0  0  0  0  0
    2.8660   -1.0007    0.0000 O   0  0  0  0  0  0  0  0  0  0  0  0
    8.5983    3.7781    0.0000 N   0  0  0  0  0  0  0  0  0  0  0  0
    7.7619   -0.4026    0.0000 N   0  0  0  0  0  0  0  0  0  0  0  0
    6.7619   -2.1347    0.0000 N   0  0  0  0  0  0  0  0  0  0  0  0
    4.6783   -3.8054    0.0000 N   0  0  0  0  0  0  0  0  0  0  0  0
    8.2619    2.1955    0.0000 C   0  0  0  0  0  0  0  0  0  0  0  0
    7.7619    1.3294    0.0000 C   0  0  0  0  0  0  0  0  0  0  0  0
    9.2564    2.3000    0.0000 C   0  0  0  0  0  0  0  0  0  0  0  0
    8.2619    0.4634    0.0000 C   0  0  0  0  0  0  0  0  0  0  0  0
    9.4643    3.2781    0.0000 C   0  0  0  0  0  0  0  0  0  0  0  0
    7.8551    3.1090    0.0000 C   0  0  0  0  0  0  0  0  0  0  0  0
    7.7619   -2.1347    0.0000 C   0  0  0  0  0  0  0  0  0  0  0  0
    8.2619   -3.0007    0.0000 C   0  0  0  0  0  0  0  0  0  0  0  0
    9.2619    0.4634    0.0000 C   0  0  0  0  0  0  0  0  0  0  0  0
    8.2619   -1.2686    0.0000 C   0  0  0  0  0  0  0  0  0  0  0  0
    9.2619   -3.0007    0.0000 C   0  0  0  0  0  0  0  0  0  0  0  0
    9.7619    1.3294    0.0000 C   0  0  0  0  0  0  0  0  0  0  0  0
    9.7619   -3.8667    0.0000 C   0  0  0  0  0  0  0  0  0  0  0  0
    9.7619   -2.1347    0.0000 C   0  0  0  0  0  0  0  0  0  0  0  0
    6.2619   -3.0007    0.0000 C   0  0  0  0  0  0  0  0  0  0  0  0
    5.2619   -3.0007    0.0000 C   0  0  0  0  0  0  0  0  0  0  0  0
    4.6783   -2.1960    0.0000 C   0  0  0  0  0  0  0  0  0  0  0  0
    3.7320   -2.5007    0.0000 C   0  0  0  0  0  0  0  0  0  0  0  0
    3.7320   -3.5007    0.0000 C   0  0  0  0  0  0  0  0  0  0  0  0
    2.8660   -2.0007    0.0000 C   0  0  0  0  0  0  0  0  0  0  0  0
    2.8660   -4.0007    0.0000 C   0  0  0  0  0  0  0  0  0  0  0  0
    2.0000   -2.5007    0.0000 C   0  0  0  0  0  0  0  0  0  0  0  0
    2.0000   -3.5007    0.0000 C   0  0  0  0  0  0  0  0  0  0  0  0
    2.0000   -0.5007    0.0000 C   0  0  0  0  0  0  0  0  0  0  0  0
  1 16  2  0
  2 19  2  0
  3 20  2  0
  4 22  1  0
  5 25  2  0
  6 30  1  0
  6 34  1  0
  7 15  1  0
  7 16  1  0
 14  8  1  0
  8 20  1  0
 17  9  1  0
  9 25  1  0
 10 26  1  0
 10 29  1  0
 11 12  1  1
 11 13  1  0
 11 16  1  0
 14 12  1  1
 13 15  1  0
 14 19  1  0
 17 18  1  6
 17 20  1  0
 18 21  1  0
 19 22  1  0
 21 23  1  0
 21 24  1  0
 25 26  1  0
 26 27  2  0
 27 28  1  0
 28 29  2  0
 28 30  1  0
 29 31  1  0
 30 32  2  0
 31 33  2  0
 32 33  1  0
M  END
>  <PUBCHEM_COMPOUND_CID>  (1) 
11561899

>  <PUBCHEM_COMPOUND_CANONICALIZED>  (1) 
1

>  <PUBCHEM_CACTVS_COMPLEXITY>  (1) 
760

>  <PUBCHEM_CACTVS_HBOND_ACCEPTOR>  (1) 
6

>  <PUBCHEM_CACTVS_HBOND_DONOR>  (1) 
5

>  <PUBCHEM_CACTVS_ROTATABLE_BOND>  (1) 
11

>  <PUBCHEM_CACTVS_SUBSKEYS>  (1) 
AAADcfB7uAAAAAAAAAAAAAAAAAAAAWLAAAAwAAAAAAAAAFgB8AAAHgAQCAAADSzhngYyxvLJlgCoA6VyVAKCiCAnIiAImaH+bNgMdvLEtbuUcShm1hnI6Ye837P+AAAAAgAKAAAAAAAEABQAAAAAAAAAAA==

>  <PUBCHEM_IUPAC_OPENEYE_NAME>  (1) 
N-[(1S)-1-[[(1S)-3-hydroxy-2-oxo-1-[[(3S)-2-oxopyrrolidin-3-yl]methyl]propyl]carbamoyl]-3-methyl-butyl]-4-methoxy-1H-indole-2-carboxamide

>  <PUBCHEM_IUPAC_CAS_NAME>  (1) 
N-[(2S)-1-[[(2S)-4-hydroxy-3-oxo-1-[(3S)-2-oxo-3-pyrrolidinyl]butan-2-yl]amino]-4-methyl-1-oxopentan-2-yl]-4-methoxy-1H-indole-2-carboxamide

>  <PUBCHEM_IUPAC_NAME_MARKUP>  (1) 
<I>N</I>-[(2<I>S</I>)-1-[[(2<I>S</I>)-4-hydroxy-3-oxo-1-[(3<I>S</I>)-2-oxopyrrolidin-3-yl]butan-2-yl]amino]-4-methyl-1-oxopentan-2-yl]-4-methoxy-1<I>H</I>-indole-2-carboxamide

>  <PUBCHEM_IUPAC_NAME>  (1) 
N-[(2S)-1-[[(2S)-4-hydroxy-3-oxo-1-[(3S)-2-oxopyrrolidin-3-yl]butan-2-yl]amino]-4-methyl-1-oxopentan-2-yl]-4-methoxy-1H-indole-2-carboxamide

>  <PUBCHEM_IUPAC_SYSTEMATIC_NAME>  (1) 
4-methoxy-N-[(2S)-4-methyl-1-oxidanylidene-1-[[(2S)-4-oxidanyl-3-oxidanylidene-1-[(3S)-2-oxidanylidenepyrrolidin-3-yl]butan-2-yl]amino]pentan-2-yl]-1H-indole-2-carboxamide

>  <PUBCHEM_IUPAC_TRADITIONAL_NAME>  (1) 
N-[(1S)-1-[[(1S)-3-hydroxy-2-keto-1-[[(3S)-2-ketopyrrolidin-3-yl]methyl]propyl]carbamoyl]-3-methyl-butyl]-4-methoxy-1H-indole-2-carboxamide

>  <PUBCHEM_IUPAC_INCHI>  (1) 
InChI=1S/C24H32N4O6/c1-13(2)9-18(23(32)27-17(20(30)12-29)10-14-7-8-25-22(14)31)28-24(33)19-11-15-16(26-19)5-4-6-21(15)34-3/h4-6,11,13-14,17-18,26,29H,7-10,12H2,1-3H3,(H,25,31)(H,27,32)(H,28,33)/t14-,17-,18-/m0/s1

>  <PUBCHEM_IUPAC_INCHIKEY>  (1) 
QDIMHKWNHMVDJB-WBAXXEDZSA-N

>  <PUBCHEM_XLOGP3_AA>  (1) 
1.6

>  <PUBCHEM_EXACT_MASS>  (1) 
472.23218475

>  <PUBCHEM_MOLECULAR_FORMULA>  (1) 
C24H32N4O6

>  <PUBCHEM_MOLECULAR_WEIGHT>  (1) 
472.5

>  <PUBCHEM_OPENEYE_CAN_SMILES>  (1) 
CC(C)CC(C(=O)NC(CC1CCNC1=O)C(=O)CO)NC(=O)C2=CC3=C(N2)C=CC=C3OC

>  <PUBCHEM_OPENEYE_ISO_SMILES>  (1) 
CC(C)C[C@@H](C(=O)N[C@@H](C[C@@H]1CCNC1=O)C(=O)CO)NC(=O)C2=CC3=C(N2)C=CC=C3OC

>  <PUBCHEM_CACTVS_TPSA>  (1) 
150

>  <PUBCHEM_MONOISOTOPIC_WEIGHT>  (1) 
472.23218475

>  <PUBCHEM_TOTAL_CHARGE>  (1) 
0

>  <PUBCHEM_HEAVY_ATOM_COUNT>  (1) 
34

>  <PUBCHEM_ATOM_DEF_STEREO_COUNT>  (1) 
3

>  <PUBCHEM_ATOM_UDEF_STEREO_COUNT>  (1) 
0

>  <PUBCHEM_BOND_DEF_STEREO_COUNT>  (1) 
0

>  <PUBCHEM_BOND_UDEF_STEREO_COUNT>  (1) 
0

>  <PUBCHEM_ISOTOPIC_ATOM_COUNT>  (1) 
0

>  <PUBCHEM_COMPONENT_COUNT>  (1) 
1

>  <PUBCHEM_CACTVS_TAUTO_COUNT>  (1) 
-1

>  <PUBCHEM_COORDINATE_TYPE>  (1) 
1
5
255

>  <PUBCHEM_BONDANNOTATIONS>  (1) 
10  26  8
10  29  8
11  12  5
26  27  8
27  28  8
28  29  8
28  30  8
29  31  8
30  32  8
31  33  8
32  33  8
14  8  5
17  9  6

$$$$
