MCSJ25_0084.mol
  ChemDraw04192415122D

 40 45  0  0  1  0  0  0  0  0999 V2000
   -0.4560    0.1277    0.0000 C   0  0  0  0  0  0  0  0  0  0  0  0
   -0.4560   -0.6973    0.0000 C   0  0  0  0  0  0  0  0  0  0  0  0
    0.2585   -1.1098    0.0000 N   0  0  0  0  0  0  0  0  0  0  0  0
    0.9729   -0.6973    0.0000 C   0  0  0  0  0  0  0  0  0  0  0  0
    0.9729    0.1277    0.0000 C   0  0  0  0  0  0  0  0  0  0  0  0
    0.2585    0.5402    0.0000 C   0  0  0  0  0  0  0  0  0  0  0  0
    0.2585    1.3652    0.0000 O   0  0  0  0  0  0  0  0  0  0  0  0
   -1.1705    0.5402    0.0000 C   0  0  0  0  0  0  0  0  0  0  0  0
   -1.8849    0.1277    0.0000 C   0  0  0  0  0  0  0  0  0  0  0  0
    1.7324   -0.1945    0.0000 C   0  0  0  0  0  0  0  0  0  0  0  0
    2.2736    0.4281    0.0000 N   0  0  0  0  0  0  0  0  0  0  0  0
    1.8486    1.1353    0.0000 C   0  0  0  0  0  0  0  0  0  0  0  0
    1.0448    0.9496    0.0000 C   0  0  0  0  0  0  0  0  0  0  0  0
    0.6323    1.6641    0.0000 H   0  0  0  0  0  0  0  0  0  0  0  0
    1.4573    1.6641    0.0000 C   0  0  0  0  0  0  0  0  0  0  0  0
    1.7324   -1.0195    0.0000 C   0  0  0  0  0  0  0  0  0  0  0  0
    2.5170   -1.2745    0.0000 C   0  0  0  0  0  0  0  0  0  0  0  0
    3.0019   -0.6070    0.0000 N   0  0  0  0  0  0  0  0  0  0  0  0
    2.5170    0.0604    0.0000 C   0  0  0  0  0  0  0  0  0  0  0  0
    1.1193   -1.5716    0.0000 C   0  0  0  0  0  0  0  0  0  0  0  0
    1.2908   -2.3785    0.0000 C   0  0  0  0  0  0  0  0  0  0  0  0
    2.0754   -2.6335    0.0000 C   0  0  0  0  0  0  0  0  0  0  0  0
    2.6885   -2.0815    0.0000 C   0  0  0  0  0  0  0  0  0  0  0  0
    3.3139    0.2739    0.0000 O   0  0  0  0  0  0  0  0  0  0  0  0
   -2.5994    0.5402    0.0000 C   0  0  0  0  0  0  0  0  0  0  0  0
   -3.3139    0.1277    0.0000 C   0  0  0  0  0  0  0  0  0  0  0  0
   -3.3139   -0.6973    0.0000 C   0  0  0  0  0  0  0  0  0  0  0  0
   -2.5994   -1.1098    0.0000 C   0  0  0  0  0  0  0  0  0  0  0  0
   -1.8849   -0.6973    0.0000 C   0  0  0  0  0  0  0  0  0  0  0  0
    2.2823    1.6641    0.0000 C   0  0  0  0  0  0  0  0  0  0  0  0
    2.6948    2.3785    0.0000 C   0  0  0  0  0  0  0  0  0  0  0  0
    2.2823    3.0930    0.0000 C   0  0  0  0  0  0  0  0  0  0  0  0
    1.4573    3.0930    0.0000 C   0  0  0  0  0  0  0  0  0  0  0  0
    1.0448    2.3785    0.0000 C   0  0  0  0  0  0  0  0  0  0  0  0
    0.2585   -1.9348    0.0000 S   0  0  0  0  0  0  0  0  0  0  0  0
   -0.5665   -1.9348    0.0000 O   0  0  0  0  0  0  0  0  0  0  0  0
    0.4720   -2.7317    0.0000 O   0  0  0  0  0  0  0  0  0  0  0  0
    0.9729   -2.3473    0.0000 C   0  0  0  0  0  0  0  0  0  0  0  0
    2.9880    0.8406    0.0000 C   0  0  0  0  0  0  0  0  0  0  0  0
    0.8783   -3.0930    0.0000 Cl  0  0  0  0  0  0  0  0  0  0  0  0
  1  2  1  0      
  2  3  1  0      
  3  4  1  0      
  5  4  1  1      
  5  6  1  6      
  6  1  1  0      
  6  7  2  0      
  1  8  2  0      
  8  9  1  0      
  5 10  1  0      
 10 11  1  0      
 11 12  1  0      
 12 13  1  0      
 13  5  1  0      
 13 14  1  6      
 13 15  1  1      
 10 16  1  6      
 16 17  2  0      
 17 18  1  0      
 18 19  1  0      
 10 19  1  1      
 16 20  1  0      
 20 21  2  0      
 21 22  1  0      
 22 23  2  0      
 23 17  1  0      
 19 24  2  0      
  9 25  2  0      
 25 26  1  0      
 26 27  2  0      
 27 28  1  0      
 28 29  2  0      
 29  9  1  0      
 15 30  2  0      
 30 31  1  0      
 31 32  2  0      
 32 33  1  0      
 33 34  2  0      
 34 15  1  0      
  3 35  1  0      
 35 36  2  0      
 35 37  2  0      
 35 38  1  0      
 11 39  1  0      
 21 40  1  0      
M  END
