MCSJ25_0071.mol
  ChemDraw04192414092D

 22 24  0  0  0  0  0  0  0  0999 V2000
   -2.1785    1.9837    0.0000 C   0  0  0  0  0  0  0  0  0  0  0  0
   -2.1785    1.1587    0.0000 C   0  0  0  0  0  0  0  0  0  0  0  0
   -1.4640    0.7462    0.0000 N   0  0  0  0  0  0  0  0  0  0  0  0
   -0.7495    1.1587    0.0000 C   0  0  0  0  0  0  0  0  0  0  0  0
   -0.7495    1.9837    0.0000 C   0  0  0  0  0  0  0  0  0  0  0  0
   -1.4640    2.3962    0.0000 C   0  0  0  0  0  0  0  0  0  0  0  0
   -2.8930    2.3962    0.0000 Cl  0  0  0  0  0  0  0  0  0  0  0  0
   -0.0351    2.3962    0.0000 O   0  0  0  0  0  0  0  0  0  0  0  0
    0.6794    1.9837    0.0000 C   0  0  0  0  0  0  0  0  0  0  0  0
    0.6794    1.1587    0.0000 C   0  0  0  0  0  0  0  0  0  0  0  0
    1.3939    2.3962    0.0000 O   0  0  0  0  0  0  0  0  0  0  0  0
   -0.0351    0.7462    0.0000 C   0  0  0  0  0  0  0  0  0  0  0  0
   -0.0351   -0.0788    0.0000 C   0  0  0  0  0  0  0  0  0  0  0  0
    0.6794   -0.4913    0.0000 C   0  0  0  0  0  0  0  0  0  0  0  0
    1.3939   -0.0788    0.0000 C   0  0  0  0  0  0  0  0  0  0  0  0
    1.3939    0.7462    0.0000 C   0  0  0  0  0  0  0  0  0  0  0  0
    2.1785   -0.3337    0.0000 N   0  0  0  0  0  0  0  0  0  0  0  0
    2.6634    0.3337    0.0000 C   0  0  0  0  0  0  0  0  0  0  0  0
    2.1785    1.0012    0.0000 C   0  0  0  0  0  0  0  0  0  0  0  0
    2.1785   -1.1587    0.0000 C   0  0  0  0  0  0  0  0  0  0  0  0
    2.8930   -1.5712    0.0000 C   0  0  0  0  0  0  0  0  0  0  0  0
    2.8930   -2.3962    0.0000 C   0  0  0  0  0  0  0  0  0  0  0  0
  1  2  2  0      
  2  3  1  0      
  3  4  2  0      
  4  5  1  0      
  5  6  2  0      
  6  1  1  0      
  1  7  1  0      
  5  8  1  0      
  8  9  1  0      
  9 10  1  0      
  9 11  2  0      
 10 12  2  0      
 12 13  1  0      
 13 14  2  0      
 14 15  1  0      
 15 16  2  0      
 16 10  1  0      
 15 17  1  0      
 17 18  1  0      
 18 19  2  0      
 19 16  1  0      
 17 20  1  0      
 20 21  1  0      
 21 22  2  0      
M  END
