73481
     RDKit          2D

 45 51  0  0  1  0  0  0  0  0999 V2000
    7.2066    1.2758    0.0000 O   0  0  0  0  0  0  0  0  0  0  0  0
    6.6743    3.7214    0.0000 O   0  0  0  0  0  0  0  0  0  0  0  0
    8.9657    4.2918    0.0000 O   0  0  0  0  0  0  0  0  0  0  0  0
    7.7556    3.7303    0.0000 O   0  0  0  0  0  0  0  0  0  0  0  0
    5.9340   -2.9296    0.0000 O   0  0  0  0  0  0  0  0  0  0  0  0
    7.5064   -4.1713    0.0000 O   0  0  0  0  0  0  0  0  0  0  0  0
    9.8338   -0.2166    0.0000 N   0  0  0  0  0  0  0  0  0  0  0  0
    2.8660    1.7770    0.0000 N   0  0  0  0  0  0  0  0  0  0  0  0
    8.9657    0.2846    0.0000 C   0  0  0  0  0  0  0  0  0  0  0  0
    3.7341    1.2758    0.0000 C   0  0  0  0  0  0  0  0  0  0  0  0
    8.9657    1.2870    0.0000 C   0  0  0  0  0  0  0  0  0  0  0  0
   10.7020    0.2846    0.0000 C   0  0  0  0  0  0  0  0  0  0  0  0
    4.6022    1.7770    0.0000 C   0  0  0  0  0  0  0  0  0  0  0  0
    9.8338    1.7882    0.0000 C   0  0  0  0  0  0  0  0  0  0  0  0
   10.7020    1.2870    0.0000 C   0  0  0  0  0  0  0  0  0  0  0  0
    8.0976   -0.2166    0.0000 C   0  0  0  0  0  0  0  0  0  0  0  0
    2.8660    2.7795    0.0000 C   0  0  0  0  0  0  0  0  0  0  0  0
    4.6022    2.7795    0.0000 C   0  0  0  0  0  0  0  0  0  0  0  0
    3.7341    3.2807    0.0000 C   0  0  0  0  0  0  0  0  0  0  0  0
    3.7341    0.2734    0.0000 C   0  0  0  0  0  0  0  0  0  0  0  0
    8.0976    1.7882    0.0000 C   0  0  0  0  0  0  0  0  0  0  0  0
    5.4704    1.2758    0.0000 C   0  0  0  0  0  0  0  0  0  0  0  0
    9.8338   -1.2166    0.0000 C   0  0  0  0  0  0  0  0  0  0  0  0
    6.3385    1.7770    0.0000 C   0  0  0  0  0  0  0  0  0  0  0  0
    9.8338    2.7906    0.0000 C   0  0  0  0  0  0  0  0  0  0  0  0
    5.4704    3.2807    0.0000 C   0  0  0  0  0  0  0  0  0  0  0  0
    7.9431   -1.1983    0.0000 C   0  0  0  0  0  0  0  0  0  0  0  0
    2.0000    1.2770    0.0000 C   0  0  0  0  0  0  0  0  0  0  0  0
    8.0976    2.7906    0.0000 C   0  0  0  0  0  0  0  0  0  0  0  0
    4.2424   -0.5074    0.0000 C   0  0  0  0  0  0  0  0  0  0  0  0
    6.3385    2.7795    0.0000 C   0  0  0  0  0  0  0  0  0  0  0  0
    8.9657    3.2918    0.0000 C   0  0  0  0  0  0  0  0  0  0  0  0
    7.0114   -1.5681    0.0000 C   0  0  0  0  0  0  0  0  0  0  0  0
    8.7292   -1.8204    0.0000 C   0  0  0  0  0  0  0  0  0  0  0  0
    5.2438   -0.4635    0.0000 C   0  0  0  0  0  0  0  0  0  0  0  0
    3.7797   -1.3966    0.0000 C   0  0  0  0  0  0  0  0  0  0  0  0
    6.8657   -2.5598    0.0000 C   0  0  0  0  0  0  0  0  0  0  0  0
    8.5835   -2.8121    0.0000 C   0  0  0  0  0  0  0  0  0  0  0  0
    5.3198   -2.1981    0.0000 C   0  0  0  0  0  0  0  0  0  0  0  0
    5.7826   -1.3088    0.0000 C   0  0  0  0  0  0  0  0  0  0  0  0
    4.3184   -2.2419    0.0000 C   0  0  0  0  0  0  0  0  0  0  0  0
    7.6518   -3.1819    0.0000 C   0  0  0  0  0  0  0  0  0  0  0  0
    6.0264    4.4832    0.0000 C   0  0  0  0  0  0  0  0  0  0  0  0
    9.8318    4.7918    0.0000 C   0  0  0  0  0  0  0  0  0  0  0  0
    8.2906   -4.7918    0.0000 C   0  0  0  0  0  0  0  0  0  0  0  0
  1 21  1  0
  1 24  1  0
  2 31  1  0
  2 43  1  0
  3 32  1  0
  3 44  1  0
  4 29  1  0
  5 37  1  0
  5 39  1  0
  6 42  1  0
  6 45  1  0
  9  7  1  1
  7 12  1  0
  7 23  1  0
 10  8  1  6
  8 17  1  0
  8 28  1  0
  9 11  1  0
  9 16  1  0
 10 13  1  0
 10 20  1  0
 11 14  2  0
 11 21  1  0
 12 15  1  0
 13 18  2  0
 13 22  1  0
 14 15  1  0
 14 25  1  0
 16 27  1  0
 17 19  1  0
 18 19  1  0
 18 26  1  0
 20 30  1  0
 21 29  2  0
 22 24  2  0
 24 31  1  0
 25 32  2  0
 26 31  2  0
 27 33  1  0
 27 34  2  0
 29 32  1  0
 30 35  2  0
 30 36  1  0
 33 37  2  0
 34 38  1  0
 35 40  1  0
 36 41  2  0
 37 42  1  0
 38 42  2  0
 39 40  2  0
 39 41  1  0
M  END
>  <PUBCHEM_COMPOUND_CID>  (1) 
73481

>  <PUBCHEM_COMPOUND_CANONICALIZED>  (1) 
1

>  <PUBCHEM_CACTVS_COMPLEXITY>  (1) 
963

>  <PUBCHEM_CACTVS_HBOND_ACCEPTOR>  (1) 
8

>  <PUBCHEM_CACTVS_HBOND_DONOR>  (1) 
1

>  <PUBCHEM_CACTVS_ROTATABLE_BOND>  (1) 
3

>  <PUBCHEM_CACTVS_SUBSKEYS>  (1) 
AAADcfB/OAAAAAAAAAAAAAAAAAAAAAAAAAA8eMGCAAAAAACxVAAAHgAACAAADCzBmAYyBoMABgCAAiBCAACCCAAgIAAIiAAOjIgNJyKGsRuGeCvnwBWLuAew8P8OoAABCAAYQABAAAIQADCAAAAAAAAAAA==

>  <PUBCHEM_IUPAC_OPENEYE_NAME>  (1) 
(1S,14S)-9,20,25-trimethoxy-15,30-dimethyl-7,23-dioxa-15,30-diazaheptacyclo[22.6.2.23,6.18,12.114,18.027,31.022,33]hexatriaconta-3(36),4,6(35),8,10,12(34),18,20,22(33),24,26,31-dodecaen-21-ol

>  <PUBCHEM_IUPAC_CAS_NAME>  (1) 
(1S,14S)-9,20,25-trimethoxy-15,30-dimethyl-7,23-dioxa-15,30-diazaheptacyclo[22.6.2.23,6.18,12.114,18.027,31.022,33]hexatriaconta-3(36),4,6(35),8,10,12(34),18,20,22(33),24,26,31-dodecaen-21-ol

>  <PUBCHEM_IUPAC_NAME_MARKUP>  (1) 
(1<I>S</I>,14<I>S</I>)-9,20,25-trimethoxy-15,30-dimethyl-7,23-dioxa-15,30-diazaheptacyclo[22.6.2.2<SUP>3,6</SUP>.1<SUP>8,12</SUP>.1<SUP>14,18</SUP>.0<SUP>27,31</SUP>.0<SUP>22,33</SUP>]hexatriaconta-3(36),4,6(35),8,10,12(34),18,20,22(33),24,26,31-dodecaen-21-ol

>  <PUBCHEM_IUPAC_NAME>  (1) 
(1S,14S)-9,20,25-trimethoxy-15,30-dimethyl-7,23-dioxa-15,30-diazaheptacyclo[22.6.2.23,6.18,12.114,18.027,31.022,33]hexatriaconta-3(36),4,6(35),8,10,12(34),18,20,22(33),24,26,31-dodecaen-21-ol

>  <PUBCHEM_IUPAC_SYSTEMATIC_NAME>  (1) 
(1S,14S)-9,20,25-trimethoxy-15,30-dimethyl-7,23-dioxa-15,30-diazaheptacyclo[22.6.2.23,6.18,12.114,18.027,31.022,33]hexatriaconta-3(36),4,6(35),8,10,12(34),18,20,22(33),24,26,31-dodecaen-21-ol

>  <PUBCHEM_IUPAC_TRADITIONAL_NAME>  (1) 
(1S,14S)-9,20,25-trimethoxy-15,30-dimethyl-7,23-dioxa-15,30-diazaheptacyclo[22.6.2.23,6.18,12.114,18.027,31.022,33]hexatriaconta-3(36),4,6(35),8,10,12(34),18,20,22(33),24,26,31-dodecaen-21-ol

>  <PUBCHEM_IUPAC_INCHI>  (1) 
InChI=1S/C37H40N2O6/c1-38-14-12-24-19-31(42-4)33-21-27(24)28(38)16-22-6-9-26(10-7-22)44-32-18-23(8-11-30(32)41-3)17-29-35-25(13-15-39(29)2)20-34(43-5)36(40)37(35)45-33/h6-11,18-21,28-29,40H,12-17H2,1-5H3/t28-,29-/m0/s1

>  <PUBCHEM_IUPAC_INCHIKEY>  (1) 
IIQSJHUEZBTSAT-VMPREFPWSA-N

>  <PUBCHEM_XLOGP3_AA>  (1) 
6.1

>  <PUBCHEM_EXACT_MASS>  (1) 
608.28863700

>  <PUBCHEM_MOLECULAR_FORMULA>  (1) 
C37H40N2O6

>  <PUBCHEM_MOLECULAR_WEIGHT>  (1) 
608.7

>  <PUBCHEM_OPENEYE_CAN_SMILES>  (1) 
CN1CCC2=CC(=C3C=C2C1CC4=CC=C(C=C4)OC5=C(C=CC(=C5)CC6C7=C(O3)C(=C(C=C7CCN6C)OC)O)OC)OC

>  <PUBCHEM_OPENEYE_ISO_SMILES>  (1) 
CN1CCC2=CC(=C3C=C2[C@@H]1CC4=CC=C(C=C4)OC5=C(C=CC(=C5)C[C@H]6C7=C(O3)C(=C(C=C7CCN6C)OC)O)OC)OC

>  <PUBCHEM_CACTVS_TPSA>  (1) 
72.9

>  <PUBCHEM_MONOISOTOPIC_WEIGHT>  (1) 
608.28863700

>  <PUBCHEM_TOTAL_CHARGE>  (1) 
0

>  <PUBCHEM_HEAVY_ATOM_COUNT>  (1) 
45

>  <PUBCHEM_ATOM_DEF_STEREO_COUNT>  (1) 
2

>  <PUBCHEM_ATOM_UDEF_STEREO_COUNT>  (1) 
0

>  <PUBCHEM_BOND_DEF_STEREO_COUNT>  (1) 
0

>  <PUBCHEM_BOND_UDEF_STEREO_COUNT>  (1) 
0

>  <PUBCHEM_ISOTOPIC_ATOM_COUNT>  (1) 
0

>  <PUBCHEM_COMPONENT_COUNT>  (1) 
1

>  <PUBCHEM_CACTVS_TAUTO_COUNT>  (1) 
-1

>  <PUBCHEM_COORDINATE_TYPE>  (1) 
1
5
255

>  <PUBCHEM_BONDANNOTATIONS>  (1) 
10  47  5
11  14  8
11  21  8
13  18  8
13  22  8
14  25  8
18  26  8
21  29  8
22  24  8
24  31  8
25  32  8
26  31  8
27  33  8
27  34  8
29  32  8
30  35  8
30  36  8
33  37  8
34  38  8
35  40  8
36  41  8
37  42  8
38  42  8
39  40  8
39  41  8
9  46  6

$$$$
