MCSJ25_0059.mol
  ChemDraw04192413482D

 29 32  0  0  0  0  0  0  0  0999 V2000
   -3.9705    0.9462    0.0000 C   0  0  0  0  0  0  0  0  0  0  0  0
   -3.6609    0.1851    0.0000 C   0  0  0  0  0  0  0  0  0  0  0  0
   -2.8470    0.0727    0.0000 C   0  0  0  0  0  0  0  0  0  0  0  0
   -2.3426    0.7213    0.0000 C   0  0  0  0  0  0  0  0  0  0  0  0
   -2.6522    1.4825    0.0000 C   0  0  0  0  0  0  0  0  0  0  0  0
   -3.4662    1.5949    0.0000 C   0  0  0  0  0  0  0  0  0  0  0  0
   -2.3859   -0.6074    0.0000 N   0  0  0  0  0  0  0  0  0  0  0  0
   -1.5966   -0.3791    0.0000 C   0  0  0  0  0  0  0  0  0  0  0  0
   -1.5699    0.4422    0.0000 C   0  0  0  0  0  0  0  0  0  0  0  0
   -0.8897    0.9032    0.0000 S   0  0  0  0  0  0  0  0  0  0  0  0
   -0.1504    0.5448    0.0000 C   0  0  0  0  0  0  0  0  0  0  0  0
    0.5297    1.0059    0.0000 C   0  0  0  0  0  0  0  0  0  0  0  0
    1.2691    0.6474    0.0000 N   0  0  0  0  0  0  0  0  0  0  0  0
    0.4705    1.8254    0.0000 O   0  0  0  0  0  0  0  0  0  0  0  0
    1.9492    1.1085    0.0000 C   0  0  0  0  0  0  0  0  0  0  0  0
    2.6886    0.7501    0.0000 C   0  0  0  0  0  0  0  0  0  0  0  0
    2.7478   -0.0695    0.0000 C   0  0  0  0  0  0  0  0  0  0  0  0
    3.4872   -0.4279    0.0000 C   0  0  0  0  0  0  0  0  0  0  0  0
    4.1673    0.0332    0.0000 C   0  0  0  0  0  0  0  0  0  0  0  0
    4.1080    0.8527    0.0000 C   0  0  0  0  0  0  0  0  0  0  0  0
    3.3687    1.2112    0.0000 C   0  0  0  0  0  0  0  0  0  0  0  0
    1.3286   -0.1754    0.0000 C   0  0  0  0  0  0  0  0  0  0  0  0
   -4.1673   -0.4662    0.0000 Br  0  0  0  0  0  0  0  0  0  0  0  0
    0.6141   -0.5879    0.0000 C   0  0  0  0  0  0  0  0  0  0  0  0
   -0.1004   -0.1754    0.0000 C   0  0  0  0  0  0  0  0  0  0  0  0
   -0.8148   -0.5879    0.0000 C   0  0  0  0  0  0  0  0  0  0  0  0
   -0.8148   -1.4129    0.0000 C   0  0  0  0  0  0  0  0  0  0  0  0
   -0.1004   -1.8254    0.0000 C   0  0  0  0  0  0  0  0  0  0  0  0
    0.6141   -1.4129    0.0000 C   0  0  0  0  0  0  0  0  0  0  0  0
  1  2  2  0      
  2  3  1  0      
  3  4  2  0      
  4  5  1  0      
  5  6  2  0      
  6  1  1  0      
  3  7  1  0      
  7  8  1  0      
  8  9  2  0      
  9  4  1  0      
  9 10  1  0      
 10 11  1  0      
 11 12  1  0      
 12 13  1  0      
 12 14  2  0      
 13 15  1  0      
 15 16  1  0      
 16 17  2  0      
 17 18  1  0      
 18 19  2  0      
 19 20  1  0      
 20 21  2  0      
 21 16  1  0      
 13 22  1  0      
  2 23  1  0      
 22 24  1  0      
 24 25  2  0      
 25 26  1  0      
 26 27  2  0      
 27 28  1  0      
 28 29  2  0      
 29 24  1  0      
M  END
