MCSJ25_0062.mol
  ChemDraw04192414002D

 22 24  0  0  0  0  0  0  0  0999 V2000
   -4.0213    0.0734    0.0000 C   0  0  0  0  0  0  0  0  0  0  0  0
   -3.8078   -0.7235    0.0000 C   0  0  0  0  0  0  0  0  0  0  0  0
   -3.0109   -0.9370    0.0000 C   0  0  0  0  0  0  0  0  0  0  0  0
   -2.4276   -0.3536    0.0000 C   0  0  0  0  0  0  0  0  0  0  0  0
   -2.6411    0.4433    0.0000 C   0  0  0  0  0  0  0  0  0  0  0  0
   -3.4380    0.6568    0.0000 C   0  0  0  0  0  0  0  0  0  0  0  0
   -2.6364   -1.6721    0.0000 N   0  0  0  0  0  0  0  0  0  0  0  0
   -1.8215   -1.5430    0.0000 C   0  0  0  0  0  0  0  0  0  0  0  0
   -1.6925   -0.7282    0.0000 C   0  0  0  0  0  0  0  0  0  0  0  0
   -0.9574   -0.3536    0.0000 S   0  0  0  0  0  0  0  0  0  0  0  0
   -0.2655   -0.8029    0.0000 C   0  0  0  0  0  0  0  0  0  0  0  0
    0.4490   -0.3904    0.0000 C   0  0  0  0  0  0  0  0  0  0  0  0
    1.1635   -0.8029    0.0000 N   0  0  0  0  0  0  0  0  0  0  0  0
    1.8779   -0.3904    0.0000 C   0  0  0  0  0  0  0  0  0  0  0  0
    2.5924   -0.8029    0.0000 C   0  0  0  0  0  0  0  0  0  0  0  0
    3.3069   -0.3904    0.0000 C   0  0  0  0  0  0  0  0  0  0  0  0
    3.3069    0.4346    0.0000 C   0  0  0  0  0  0  0  0  0  0  0  0
    2.5924    0.8471    0.0000 C   0  0  0  0  0  0  0  0  0  0  0  0
    1.8779    0.4346    0.0000 C   0  0  0  0  0  0  0  0  0  0  0  0
    0.4490    0.4346    0.0000 O   0  0  0  0  0  0  0  0  0  0  0  0
    2.5924    1.6721    0.0000 Cl  0  0  0  0  0  0  0  0  0  0  0  0
    4.0213    0.8471    0.0000 Cl  0  0  0  0  0  0  0  0  0  0  0  0
  1  2  2  0      
  2  3  1  0      
  3  4  2  0      
  4  5  1  0      
  5  6  2  0      
  6  1  1  0      
  3  7  1  0      
  7  8  1  0      
  8  9  2  0      
  9  4  1  0      
  9 10  1  0      
 10 11  1  0      
 11 12  1  0      
 12 13  1  0      
 13 14  1  0      
 14 15  2  0      
 15 16  1  0      
 16 17  2  0      
 17 18  1  0      
 18 19  2  0      
 19 14  1  0      
 12 20  2  0      
 18 21  1  0      
 17 22  1  0      
M  END
