392622
     RDKit          2D

 50 53  0  0  1  0  0  0  0  0999 V2000
   12.6090    0.0476    0.0000 S   0  0  0  0  0  0  0  0  0  0  0  0
    8.9757   -1.3433    0.0000 S   0  0  0  0  0  0  0  0  0  0  0  0
    2.8660    0.2500    0.0000 O   0  0  0  0  0  0  0  0  0  0  0  0
    6.3301    0.2500    0.0000 O   0  0  0  0  0  0  0  0  0  0  0  0
    6.3301   -1.7500    0.0000 O   0  0  0  0  0  0  0  0  0  0  0  0
    5.4641   -0.2500    0.0000 O   0  0  0  0  0  0  0  0  0  0  0  0
    8.9282    2.7500    0.0000 O   0  0  0  0  0  0  0  0  0  0  0  0
    5.4641    1.7500    0.0000 N   0  0  0  0  0  0  0  0  0  0  0  0
    4.5981   -1.7500    0.0000 N   0  0  0  0  0  0  0  0  0  0  0  0
    8.0622    1.2500    0.0000 N   0  0  0  0  0  0  0  0  0  0  0  0
    9.7942    1.2500    0.0000 N   0  0  0  0  0  0  0  0  0  0  0  0
   12.4398    1.6567    0.0000 N   0  0  0  0  0  0  0  0  0  0  0  0
    9.1448   -2.9524    0.0000 N   0  0  0  0  0  0  0  0  0  0  0  0
    4.5981    1.2500    0.0000 C   0  0  0  0  0  0  0  0  0  0  0  0
    4.5981    0.2500    0.0000 C   0  0  0  0  0  0  0  0  0  0  0  0
    3.7320   -0.2500    0.0000 C   0  0  0  0  0  0  0  0  0  0  0  0
    3.7320   -1.2500    0.0000 C   0  0  0  0  0  0  0  0  0  0  0  0
    3.7320    1.7500    0.0000 C   0  0  0  0  0  0  0  0  0  0  0  0
    2.8660   -1.7500    0.0000 C   0  0  0  0  0  0  0  0  0  0  0  0
    7.1962    1.7500    0.0000 C   0  0  0  0  0  0  0  0  0  0  0  0
    7.1962    2.7500    0.0000 C   0  0  0  0  0  0  0  0  0  0  0  0
    6.3301    1.2500    0.0000 C   0  0  0  0  0  0  0  0  0  0  0  0
    3.7320    2.7500    0.0000 C   0  0  0  0  0  0  0  0  0  0  0  0
    2.8660   -2.7500    0.0000 C   0  0  0  0  0  0  0  0  0  0  0  0
    8.0622    3.2500    0.0000 C   0  0  0  0  0  0  0  0  0  0  0  0
    6.3301    3.2500    0.0000 C   0  0  0  0  0  0  0  0  0  0  0  0
    2.8660    3.2500    0.0000 C   0  0  0  0  0  0  0  0  0  0  0  0
    4.5981    3.2500    0.0000 C   0  0  0  0  0  0  0  0  0  0  0  0
    5.4641   -1.2500    0.0000 C   0  0  0  0  0  0  0  0  0  0  0  0
    3.7320   -3.2500    0.0000 C   0  0  0  0  0  0  0  0  0  0  0  0
    2.0000   -3.2500    0.0000 C   0  0  0  0  0  0  0  0  0  0  0  0
    8.9282    1.7500    0.0000 C   0  0  0  0  0  0  0  0  0  0  0  0
    2.8660    4.2500    0.0000 C   0  0  0  0  0  0  0  0  0  0  0  0
    4.5981    4.2500    0.0000 C   0  0  0  0  0  0  0  0  0  0  0  0
    3.7320   -4.2500    0.0000 C   0  0  0  0  0  0  0  0  0  0  0  0
    2.0000   -4.2500    0.0000 C   0  0  0  0  0  0  0  0  0  0  0  0
    3.7320    4.7500    0.0000 C   0  0  0  0  0  0  0  0  0  0  0  0
    2.8660   -4.7500    0.0000 C   0  0  0  0  0  0  0  0  0  0  0  0
   10.6603    1.7500    0.0000 C   0  0  0  0  0  0  0  0  0  0  0  0
    9.7942    0.2500    0.0000 C   0  0  0  0  0  0  0  0  0  0  0  0
    7.1962   -1.2500    0.0000 C   0  0  0  0  0  0  0  0  0  0  0  0
   11.5263    1.2500    0.0000 C   0  0  0  0  0  0  0  0  0  0  0  0
    8.0622   -1.7500    0.0000 C   0  0  0  0  0  0  0  0  0  0  0  0
   13.1090    0.9136    0.0000 C   0  0  0  0  0  0  0  0  0  0  0  0
   11.6308    0.2555    0.0000 C   0  0  0  0  0  0  0  0  0  0  0  0
   14.1035    1.0181    0.0000 C   0  0  0  0  0  0  0  0  0  0  0  0
   14.6913    0.2091    0.0000 C   0  0  0  0  0  0  0  0  0  0  0  0
   14.5102    1.9317    0.0000 C   0  0  0  0  0  0  0  0  0  0  0  0
    8.1667   -2.7445    0.0000 C   0  0  0  0  0  0  0  0  0  0  0  0
    9.6448   -2.0864    0.0000 C   0  0  0  0  0  0  0  0  0  0  0  0
  1 44  1  0
  1 45  1  0
  2 43  1  0
  2 50  1  0
 16  3  1  1
  4 22  2  0
  5 29  1  0
  5 41  1  0
  6 29  2  0
  7 32  2  0
 14  8  1  0
  8 22  1  0
 17  9  1  0
  9 29  1  0
 20 10  1  6
 10 32  1  0
 11 32  1  0
 11 39  1  0
 11 40  1  0
 12 42  1  0
 12 44  2  0
 13 49  1  0
 13 50  2  0
 14 15  1  6
 14 18  1  0
 15 16  1  0
 16 17  1  0
 17 19  1  1
 18 23  1  0
 19 24  1  0
 20 21  1  0
 20 22  1  0
 21 25  1  0
 21 26  1  0
 23 27  2  0
 23 28  1  0
 24 30  2  0
 24 31  1  0
 27 33  1  0
 28 34  2  0
 30 35  1  0
 31 36  2  0
 33 37  2  0
 34 37  1  0
 35 38  2  0
 36 38  1  0
 39 42  1  0
 41 43  1  0
 42 45  2  0
 43 49  2  0
 44 46  1  0
 46 47  1  0
 46 48  1  0
M  END
>  <PUBCHEM_COMPOUND_CID>  (1) 
392622

>  <PUBCHEM_COMPOUND_CANONICALIZED>  (1) 
1

>  <PUBCHEM_CACTVS_COMPLEXITY>  (1) 
1040

>  <PUBCHEM_CACTVS_HBOND_ACCEPTOR>  (1) 
9

>  <PUBCHEM_CACTVS_HBOND_DONOR>  (1) 
4

>  <PUBCHEM_CACTVS_ROTATABLE_BOND>  (1) 
18

>  <PUBCHEM_CACTVS_SUBSKEYS>  (1) 
AAADcfB/uABgAAAAAAAAAAAAAAAAAWLAAAAwYAAAAAAAAAAB9AAAHgQQCAAADTzl3ga/iZPIFgisAzV3XACC8KBxCjhI2J24bImKdDLgsTmcYAgulgL4qAeQwPAOAAAAAAAAAAAAAAAAAAAAAAAAAAAAAA==

>  <PUBCHEM_IUPAC_OPENEYE_NAME>  (1) 
thiazol-5-ylmethyl N-[(1S,2S,4S)-1-benzyl-2-hydroxy-4-[[(2S)-2-[[(2-isopropylthiazol-4-yl)methyl-methyl-carbamoyl]amino]-3-methyl-butanoyl]amino]-5-phenyl-pentyl]carbamate

>  <PUBCHEM_IUPAC_CAS_NAME>  (1) 
N-[(2S,3S,5S)-3-hydroxy-5-[[(2S)-3-methyl-2-[[[methyl-[(2-propan-2-yl-4-thiazolyl)methyl]amino]-oxomethyl]amino]-1-oxobutyl]amino]-1,6-diphenylhexan-2-yl]carbamic acid 5-thiazolylmethyl ester

>  <PUBCHEM_IUPAC_NAME_MARKUP>  (1) 
1,3-thiazol-5-ylmethyl <I>N</I>-[(2<I>S</I>,3<I>S</I>,5<I>S</I>)-3-hydroxy-5-[[(2<I>S</I>)-3-methyl-2-[[methyl-[(2-propan-2-yl-1,3-thiazol-4-yl)methyl]carbamoyl]amino]butanoyl]amino]-1,6-diphenylhexan-2-yl]carbamate

>  <PUBCHEM_IUPAC_NAME>  (1) 
1,3-thiazol-5-ylmethyl N-[(2S,3S,5S)-3-hydroxy-5-[[(2S)-3-methyl-2-[[methyl-[(2-propan-2-yl-1,3-thiazol-4-yl)methyl]carbamoyl]amino]butanoyl]amino]-1,6-diphenylhexan-2-yl]carbamate

>  <PUBCHEM_IUPAC_SYSTEMATIC_NAME>  (1) 
1,3-thiazol-5-ylmethyl N-[(2S,3S,5S)-5-[[(2S)-3-methyl-2-[[methyl-[(2-propan-2-yl-1,3-thiazol-4-yl)methyl]carbamoyl]amino]butanoyl]amino]-3-oxidanyl-1,6-diphenyl-hexan-2-yl]carbamate

>  <PUBCHEM_IUPAC_TRADITIONAL_NAME>  (1) 
N-[(1S,2S,4S)-1-benzyl-2-hydroxy-4-[[(2S)-2-[[(2-isopropylthiazol-4-yl)methyl-methyl-carbamoyl]amino]-3-methyl-butanoyl]amino]-5-phenyl-pentyl]carbamic acid thiazol-5-ylmethyl ester

>  <PUBCHEM_IUPAC_INCHI>  (1) 
InChI=1S/C37H48N6O5S2/c1-24(2)33(42-36(46)43(5)20-29-22-49-35(40-29)25(3)4)34(45)39-28(16-26-12-8-6-9-13-26)18-32(44)31(17-27-14-10-7-11-15-27)41-37(47)48-21-30-19-38-23-50-30/h6-15,19,22-25,28,31-33,44H,16-18,20-21H2,1-5H3,(H,39,45)(H,41,47)(H,42,46)/t28-,31-,32-,33-/m0/s1

>  <PUBCHEM_IUPAC_INCHIKEY>  (1) 
NCDNCNXCDXHOMX-XGKFQTDJSA-N

>  <PUBCHEM_XLOGP3_AA>  (1) 
6

>  <PUBCHEM_EXACT_MASS>  (1) 
720.31276100

>  <PUBCHEM_MOLECULAR_FORMULA>  (1) 
C37H48N6O5S2

>  <PUBCHEM_MOLECULAR_WEIGHT>  (1) 
720.9

>  <PUBCHEM_OPENEYE_CAN_SMILES>  (1) 
CC(C)C1=NC(=CS1)CN(C)C(=O)NC(C(C)C)C(=O)NC(CC2=CC=CC=C2)CC(C(CC3=CC=CC=C3)NC(=O)OCC4=CN=CS4)O

>  <PUBCHEM_OPENEYE_ISO_SMILES>  (1) 
CC(C)C1=NC(=CS1)CN(C)C(=O)N[C@@H](C(C)C)C(=O)N[C@@H](CC2=CC=CC=C2)C[C@@H]([C@H](CC3=CC=CC=C3)NC(=O)OCC4=CN=CS4)O

>  <PUBCHEM_CACTVS_TPSA>  (1) 
202

>  <PUBCHEM_MONOISOTOPIC_WEIGHT>  (1) 
720.31276100

>  <PUBCHEM_TOTAL_CHARGE>  (1) 
0

>  <PUBCHEM_HEAVY_ATOM_COUNT>  (1) 
50

>  <PUBCHEM_ATOM_DEF_STEREO_COUNT>  (1) 
4

>  <PUBCHEM_ATOM_UDEF_STEREO_COUNT>  (1) 
0

>  <PUBCHEM_BOND_DEF_STEREO_COUNT>  (1) 
0

>  <PUBCHEM_BOND_UDEF_STEREO_COUNT>  (1) 
0

>  <PUBCHEM_ISOTOPIC_ATOM_COUNT>  (1) 
0

>  <PUBCHEM_COMPONENT_COUNT>  (1) 
1

>  <PUBCHEM_CACTVS_TAUTO_COUNT>  (1) 
16

>  <PUBCHEM_COORDINATE_TYPE>  (1) 
1
5
255

>  <PUBCHEM_BONDANNOTATIONS>  (1) 
1  44  8
1  45  8
20  10  6
12  42  8
12  44  8
13  49  8
13  50  8
2  43  8
2  50  8
23  27  8
23  28  8
24  30  8
24  31  8
27  33  8
28  34  8
16  3  5
30  35  8
31  36  8
33  37  8
34  37  8
35  38  8
36  38  8
42  45  8
43  49  8
14  8  6
17  9  5

$$$$
