SA18_0002.mol
  ChemDraw05222415162D

 35 38  0  0  0  0  0  0  0  0999 V2000
    1.4167   -1.2163    0.0000 C   0  0  0  0  0  0  0  0  0  0  0  0
    1.4167   -2.0413    0.0000 C   0  0  0  0  0  0  0  0  0  0  0  0
    2.1312   -2.4538    0.0000 C   0  0  0  0  0  0  0  0  0  0  0  0
    2.8457   -2.0413    0.0000 C   0  0  0  0  0  0  0  0  0  0  0  0
    2.8457   -1.2163    0.0000 C   0  0  0  0  0  0  0  0  0  0  0  0
    2.1312   -0.8038    0.0000 C   0  0  0  0  0  0  0  0  0  0  0  0
    0.7023   -0.8038    0.0000 C   0  0  0  0  0  0  0  0  0  0  0  0
    0.7023    0.0212    0.0000 N   0  0  0  0  0  0  0  0  0  0  0  0
    2.1312   -3.2788    0.0000 F   0  0  0  0  0  0  0  0  0  0  0  0
    3.5601   -2.4538    0.0000 F   0  0  0  0  0  0  0  0  0  0  0  0
    3.5601   -0.8038    0.0000 F   0  0  0  0  0  0  0  0  0  0  0  0
   -0.0122    0.4337    0.0000 C   0  0  0  0  0  0  0  0  0  0  0  0
    1.4167    0.4337    0.0000 C   0  0  0  0  0  0  0  0  0  0  0  0
    2.1312    0.0212    0.0000 O   0  0  0  0  0  0  0  0  0  0  0  0
    1.4167    1.2587    0.0000 N   0  0  0  0  0  0  0  0  0  0  0  0
   -0.7267    0.0212    0.0000 N   0  0  0  0  0  0  0  0  0  0  0  0
   -0.0122    1.2587    0.0000 N   0  0  0  0  0  0  0  0  0  0  0  0
    0.7023    1.6712    0.0000 C   0  0  0  0  0  0  0  0  0  0  0  0
    0.7023    2.4962    0.0000 O   0  0  0  0  0  0  0  0  0  0  0  0
    2.1312    1.6712    0.0000 C   0  0  0  0  0  0  0  0  0  0  0  0
    2.1312    2.4962    0.0000 C   0  0  0  0  0  0  0  0  0  0  0  0
    1.4167    2.9087    0.0000 O   0  0  0  0  0  0  0  0  0  0  0  0
    2.8457    2.9087    0.0000 N   0  0  0  0  0  0  0  0  0  0  0  0
    3.5601    2.4962    0.0000 C   0  0  0  0  0  0  0  0  0  0  0  0
   -1.4412    0.4337    0.0000 C   0  0  0  0  0  0  0  0  0  0  0  0
   -2.1556    0.0212    0.0000 C   0  0  0  0  0  0  0  0  0  0  0  0
   -1.4412    1.2587    0.0000 C   0  0  0  0  0  0  0  0  0  0  0  0
   -2.1556    1.6712    0.0000 C   0  0  0  0  0  0  0  0  0  0  0  0
   -2.8701    1.2587    0.0000 C   0  0  0  0  0  0  0  0  0  0  0  0
   -2.8701    0.4337    0.0000 C   0  0  0  0  0  0  0  0  0  0  0  0
   -2.1556   -0.8038    0.0000 Cl  0  0  0  0  0  0  0  0  0  0  0  0
   -2.3272    2.4781    0.0000 C   0  0  0  0  0  0  0  0  0  0  0  0
   -3.1476    2.5644    0.0000 N   0  0  0  0  0  0  0  0  0  0  0  0
   -3.4832    1.8107    0.0000 N   0  0  0  0  0  0  0  0  0  0  0  0
   -3.5601    3.2788    0.0000 C   0  0  0  0  0  0  0  0  0  0  0  0
  1  2  2  0      
  2  3  1  0      
  3  4  2  0      
  4  5  1  0      
  5  6  2  0      
  6  1  1  0      
  1  7  1  0      
  7  8  1  0      
  3  9  1  0      
  4 10  1  0      
  5 11  1  0      
  8 12  1  0      
  8 13  1  0      
 13 14  2  0      
 13 15  1  0      
 12 16  2  0      
 12 17  1  0      
 17 18  1  0      
 15 18  1  0      
 18 19  2  0      
 15 20  1  0      
 20 21  1  0      
 21 22  2  0      
 21 23  1  0      
 23 24  1  0      
 16 25  1  0      
 25 26  1  0      
 25 27  2  0      
 27 28  1  0      
 28 29  1  0      
 29 30  1  0      
 30 26  2  0      
 26 31  1  0      
 28 32  2  0      
 32 33  1  0      
 33 34  1  0      
 34 29  2  0      
 33 35  1  0      
M  END
