SA1_0008.mol
  ChemDraw02172415382D

 46 47  0  0  0  0  0  0  0  0999 V2000
   -6.1902   -3.2943    0.0000 C   0  0  0  0  0  0  0  0  0  0  0  0
   -5.3933   -3.0808    0.0000 C   0  0  0  0  0  0  0  0  0  0  0  0
   -5.1798   -2.2839    0.0000 C   0  0  0  0  0  0  0  0  0  0  0  0
   -5.7631   -1.7005    0.0000 C   0  0  0  0  0  0  0  0  0  0  0  0
   -6.5600   -1.9141    0.0000 C   0  0  0  0  0  0  0  0  0  0  0  0
   -6.7736   -2.7110    0.0000 C   0  0  0  0  0  0  0  0  0  0  0  0
   -4.3829   -2.0704    0.0000 C   0  0  0  0  0  0  0  0  0  0  0  0
   -4.1694   -1.2735    0.0000 O   0  0  0  0  0  0  0  0  0  0  0  0
   -3.3725   -1.0600    0.0000 C   0  0  0  0  0  0  0  0  0  0  0  0
   -3.1589   -0.2631    0.0000 C   0  0  0  0  0  0  0  0  0  0  0  0
   -2.7891   -1.6433    0.0000 O   0  0  0  0  0  0  0  0  0  0  0  0
   -2.3621   -0.0495    0.0000 C   0  0  0  0  0  0  0  0  0  0  0  0
   -1.7787   -0.6329    0.0000 N   0  0  0  0  0  0  0  0  0  0  0  0
   -2.1485    0.7473    0.0000 C   0  0  0  0  0  0  0  0  0  0  0  0
   -2.7319    1.3307    0.0000 O   0  0  0  0  0  0  0  0  0  0  0  0
   -1.3516    0.9609    0.0000 N   0  0  0  0  0  0  0  0  0  0  0  0
   -0.9818   -0.4194    0.0000 C   0  0  0  0  0  0  0  0  0  0  0  0
   -0.3984   -1.0027    0.0000 O   0  0  0  0  0  0  0  0  0  0  0  0
   -0.7683    0.3775    0.0000 O   0  0  0  0  0  0  0  0  0  0  0  0
    0.4266   -1.0027    0.0000 C   0  0  0  0  0  0  0  0  0  0  0  0
    0.4266   -1.8277    0.0000 C   0  0  0  0  0  0  0  0  0  0  0  0
    1.2516   -1.0027    0.0000 C   0  0  0  0  0  0  0  0  0  0  0  0
    0.4266   -0.1777    0.0000 C   0  0  0  0  0  0  0  0  0  0  0  0
   -1.1381    1.7578    0.0000 C   0  0  0  0  0  0  0  0  0  0  0  0
   -0.3412    1.9713    0.0000 C   0  0  0  0  0  0  0  0  0  0  0  0
   -1.7215    2.3411    0.0000 C   0  0  0  0  0  0  0  0  0  0  0  0
    0.2421    1.3879    0.0000 C   0  0  0  0  0  0  0  0  0  0  0  0
    1.0390    1.6014    0.0000 C   0  0  0  0  0  0  0  0  0  0  0  0
    1.6224    1.0181    0.0000 C   0  0  0  0  0  0  0  0  0  0  0  0
    2.4193    1.2316    0.0000 N   0  0  0  0  0  0  0  0  0  0  0  0
    3.0026    0.6482    0.0000 C   0  0  0  0  0  0  0  0  0  0  0  0
    3.7995    0.8618    0.0000 O   0  0  0  0  0  0  0  0  0  0  0  0
    2.7891   -0.1486    0.0000 O   0  0  0  0  0  0  0  0  0  0  0  0
    4.3829    0.2784    0.0000 C   0  0  0  0  0  0  0  0  0  0  0  0
    5.1798    0.4919    0.0000 C   0  0  0  0  0  0  0  0  0  0  0  0
   -1.5080    3.1380    0.0000 O   0  0  0  0  0  0  0  0  0  0  0  0
   -2.5184    2.1276    0.0000 O   0  0  0  0  0  0  0  0  0  0  0  0
   -3.1017    2.7110    0.0000 C   0  0  0  0  0  0  0  0  0  0  0  0
   -3.6851    2.1276    0.0000 C   0  0  0  0  0  0  0  0  0  0  0  0
   -2.5184    3.2943    0.0000 C   0  0  0  0  0  0  0  0  0  0  0  0
   -3.6851    3.2943    0.0000 C   0  0  0  0  0  0  0  0  0  0  0  0
    5.7631   -0.0914    0.0000 C   0  0  0  0  0  0  0  0  0  0  0  0
    6.5600    0.1221    0.0000 C   0  0  0  0  0  0  0  0  0  0  0  0
    6.7736    0.9190    0.0000 C   0  0  0  0  0  0  0  0  0  0  0  0
    6.1902    1.5023    0.0000 C   0  0  0  0  0  0  0  0  0  0  0  0
    5.3933    1.2888    0.0000 C   0  0  0  0  0  0  0  0  0  0  0  0
  1  2  2  0      
  2  3  1  0      
  3  4  2  0      
  4  5  1  0      
  5  6  2  0      
  6  1  1  0      
  3  7  1  0      
  7  8  1  0      
  8  9  1  0      
  9 10  1  0      
  9 11  2  0      
 10 12  1  0      
 12 13  1  0      
 12 14  1  0      
 14 15  2  0      
 14 16  1  0      
 13 17  1  0      
 17 18  1  0      
 17 19  2  0      
 18 20  1  0      
 20 21  1  0      
 20 22  1  0      
 20 23  1  0      
 16 24  1  0      
 24 25  1  0      
 24 26  1  0      
 25 27  1  0      
 27 28  1  0      
 28 29  1  0      
 29 30  1  0      
 30 31  1  0      
 31 32  1  0      
 31 33  2  0      
 32 34  1  0      
 34 35  1  0      
 26 36  2  0      
 26 37  1  0      
 37 38  1  0      
 38 39  1  0      
 38 40  1  0      
 38 41  1  0      
 35 42  2  0      
 42 43  1  0      
 43 44  2  0      
 44 45  1  0      
 45 46  2  0      
 46 35  1  0      
M  END
