SA21_0004.mol
  ChemDraw05232411252D

 32 36  0  0  0  0  0  0  0  0999 V2000
   -3.0950    0.7150    0.0000 C   0  0  0  0  0  0  0  0  0  0  0  0
   -3.0950   -0.1100    0.0000 C   0  0  0  0  0  0  0  0  0  0  0  0
   -2.3805   -0.5225    0.0000 C   0  0  0  0  0  0  0  0  0  0  0  0
   -1.6660   -0.1100    0.0000 C   0  0  0  0  0  0  0  0  0  0  0  0
   -1.6660    0.7150    0.0000 N   0  0  0  0  0  0  0  0  0  0  0  0
   -2.3805    1.1275    0.0000 C   0  0  0  0  0  0  0  0  0  0  0  0
   -0.9516   -0.5225    0.0000 N   0  0  0  0  0  0  0  0  0  0  0  0
   -0.2371   -0.1100    0.0000 C   0  0  0  0  0  0  0  0  0  0  0  0
   -0.2371    0.7150    0.0000 C   0  0  0  0  0  0  0  0  0  0  0  0
   -0.9516    1.1275    0.0000 C   0  0  0  0  0  0  0  0  0  0  0  0
    0.5475   -0.3649    0.0000 N   0  0  0  0  0  0  0  0  0  0  0  0
    1.0325    0.3025    0.0000 C   0  0  0  0  0  0  0  0  0  0  0  0
    0.5475    0.9699    0.0000 C   0  0  0  0  0  0  0  0  0  0  0  0
    1.8575    0.3025    0.0000 C   0  0  0  0  0  0  0  0  0  0  0  0
    2.2700    1.0170    0.0000 N   0  0  0  0  0  0  0  0  0  0  0  0
    2.2700   -0.4120    0.0000 O   0  0  0  0  0  0  0  0  0  0  0  0
   -0.9516    1.9525    0.0000 O   0  0  0  0  0  0  0  0  0  0  0  0
   -2.3805   -1.3475    0.0000 H   0  0  0  0  0  0  0  0  0  0  0  0
    0.8025   -1.1496    0.0000 C   0  0  0  0  0  0  0  0  0  0  0  0
    0.2504   -1.7627    0.0000 C   0  0  0  0  0  0  0  0  0  0  0  0
   -0.5565   -1.5911    0.0000 C   0  0  0  0  0  0  0  0  0  0  0  0
   -1.1086   -2.2042    0.0000 C   0  0  0  0  0  0  0  0  0  0  0  0
   -0.8536   -2.9889    0.0000 C   0  0  0  0  0  0  0  0  0  0  0  0
   -0.0466   -3.1604    0.0000 C   0  0  0  0  0  0  0  0  0  0  0  0
    0.5054   -2.5473    0.0000 C   0  0  0  0  0  0  0  0  0  0  0  0
    1.8575    1.7314    0.0000 C   0  0  0  0  0  0  0  0  0  0  0  0
    2.2700    2.4459    0.0000 C   0  0  0  0  0  0  0  0  0  0  0  0
    1.8575    3.1604    0.0000 C   0  0  0  0  0  0  0  0  0  0  0  0
    1.0325    3.1604    0.0000 C   0  0  0  0  0  0  0  0  0  0  0  0
    0.6200    2.4459    0.0000 C   0  0  0  0  0  0  0  0  0  0  0  0
    1.0325    1.7314    0.0000 C   0  0  0  0  0  0  0  0  0  0  0  0
    3.0950    2.4459    0.0000 F   0  0  0  0  0  0  0  0  0  0  0  0
  1  2  1  0      
  2  3  2  0      
  3  4  1  0      
  4  5  1  0      
  5  6  1  0      
  6  1  2  0      
  4  7  2  0      
  7  8  1  0      
  8  9  2  0      
  9 10  1  0      
 10  5  1  0      
  8 11  1  0      
 11 12  1  0      
 12 13  2  0      
 13  9  1  0      
 12 14  1  0      
 14 15  1  0      
 14 16  2  0      
 10 17  2  0      
  3 18  1  0      
 11 19  1  0      
 19 20  1  0      
 20 21  2  0      
 21 22  1  0      
 22 23  2  0      
 23 24  1  0      
 24 25  2  0      
 25 20  1  0      
 15 26  1  0      
 26 27  2  0      
 27 28  1  0      
 28 29  2  0      
 29 30  1  0      
 30 31  2  0      
 31 26  1  0      
 27 32  1  0      
M  END
