492405
     RDKit          2D

 11 11  0  0  0  0  0  0  0  0999 V2000
    6.3301    0.6550    0.0000 F   0  0  0  0  0  0  0  0  0  0  0  0
    2.8660   -1.3450    0.0000 O   0  0  0  0  0  0  0  0  0  0  0  0
    2.0000    0.1550    0.0000 O   0  0  0  0  0  0  0  0  0  0  0  0
    4.5981   -1.3450    0.0000 N   0  0  0  0  0  0  0  0  0  0  0  0
    4.5981    0.6550    0.0000 N   0  0  0  0  0  0  0  0  0  0  0  0
    2.8660    1.6550    0.0000 N   0  0  0  0  0  0  0  0  0  0  0  0
    3.7320    0.1550    0.0000 C   0  0  0  0  0  0  0  0  0  0  0  0
    3.7320   -0.8450    0.0000 C   0  0  0  0  0  0  0  0  0  0  0  0
    5.4641   -0.8450    0.0000 C   0  0  0  0  0  0  0  0  0  0  0  0
    5.4641    0.1550    0.0000 C   0  0  0  0  0  0  0  0  0  0  0  0
    2.8660    0.6550    0.0000 C   0  0  0  0  0  0  0  0  0  0  0  0
  1 10  1  0
  2  8  2  0
  3 11  2  0
  4  8  1  0
  4  9  1  0
  5  7  2  0
  5 10  1  0
  6 11  1  0
  7  8  1  0
  7 11  1  0
  9 10  2  0
M  END
>  <PUBCHEM_COMPOUND_CID>  (1) 
492405

>  <PUBCHEM_COMPOUND_CANONICALIZED>  (1) 
1

>  <PUBCHEM_CACTVS_COMPLEXITY>  (1) 
282

>  <PUBCHEM_CACTVS_HBOND_ACCEPTOR>  (1) 
4

>  <PUBCHEM_CACTVS_HBOND_DONOR>  (1) 
2

>  <PUBCHEM_CACTVS_ROTATABLE_BOND>  (1) 
1

>  <PUBCHEM_CACTVS_SUBSKEYS>  (1) 
AAADcYBjMQAAAAAAAAAAAAAAAAAAAAAAAAAgAAAAAAAAAAAAAAAAHwAQAAAACAjBgAQAAALAAACoAQE2VAAAAAAAAgAAAIEIAAAAAAgIQAAEAAAAAgAAAAAAAAAAAAAAAAAAAAAAAAAAAAAAAAAAAAAAAA==

>  <PUBCHEM_IUPAC_OPENEYE_NAME>  (1) 
5-fluoro-2-oxo-1H-pyrazine-3-carboxamide

>  <PUBCHEM_IUPAC_CAS_NAME>  (1) 
5-fluoro-2-oxo-1H-pyrazine-3-carboxamide

>  <PUBCHEM_IUPAC_NAME_MARKUP>  (1) 
5-fluoro-2-oxo-1<I>H</I>-pyrazine-3-carboxamide

>  <PUBCHEM_IUPAC_NAME>  (1) 
5-fluoro-2-oxo-1H-pyrazine-3-carboxamide

>  <PUBCHEM_IUPAC_SYSTEMATIC_NAME>  (1) 
5-fluoranyl-2-oxidanylidene-1H-pyrazine-3-carboxamide

>  <PUBCHEM_IUPAC_TRADITIONAL_NAME>  (1) 
5-fluoro-2-keto-1H-pyrazine-3-carboxamide

>  <PUBCHEM_IUPAC_INCHI>  (1) 
InChI=1S/C5H4FN3O2/c6-2-1-8-5(11)3(9-2)4(7)10/h1H,(H2,7,10)(H,8,11)

>  <PUBCHEM_IUPAC_INCHIKEY>  (1) 
ZCGNOVWYSGBHAU-UHFFFAOYSA-N

>  <PUBCHEM_XLOGP3_AA>  (1) 
-0.6

>  <PUBCHEM_EXACT_MASS>  (1) 
157.02875454

>  <PUBCHEM_MOLECULAR_FORMULA>  (1) 
C5H4FN3O2

>  <PUBCHEM_MOLECULAR_WEIGHT>  (1) 
157.10

>  <PUBCHEM_OPENEYE_CAN_SMILES>  (1) 
C1=C(N=C(C(=O)N1)C(=O)N)F

>  <PUBCHEM_OPENEYE_ISO_SMILES>  (1) 
C1=C(N=C(C(=O)N1)C(=O)N)F

>  <PUBCHEM_CACTVS_TPSA>  (1) 
84.6

>  <PUBCHEM_MONOISOTOPIC_WEIGHT>  (1) 
157.02875454

>  <PUBCHEM_TOTAL_CHARGE>  (1) 
0

>  <PUBCHEM_HEAVY_ATOM_COUNT>  (1) 
11

>  <PUBCHEM_ATOM_DEF_STEREO_COUNT>  (1) 
0

>  <PUBCHEM_ATOM_UDEF_STEREO_COUNT>  (1) 
0

>  <PUBCHEM_BOND_DEF_STEREO_COUNT>  (1) 
0

>  <PUBCHEM_BOND_UDEF_STEREO_COUNT>  (1) 
0

>  <PUBCHEM_ISOTOPIC_ATOM_COUNT>  (1) 
0

>  <PUBCHEM_COMPONENT_COUNT>  (1) 
1

>  <PUBCHEM_CACTVS_TAUTO_COUNT>  (1) 
-1

>  <PUBCHEM_COORDINATE_TYPE>  (1) 
1
5
255

>  <PUBCHEM_BONDANNOTATIONS>  (1) 
4  8  8
4  9  8
5  10  8
5  7  8
7  8  8
9  10  8

$$$$
