SA43_0004.mol
  ChemDraw05022412502D

 31 33  0  0  0  0  0  0  0  0999 V2000
   -2.4427   -2.2466    0.0000 C   0  0  0  0  0  0  0  0  0  0  0  0
   -2.6135   -3.0503    0.0000 C   0  0  0  0  0  0  0  0  0  0  0  0
   -2.0029   -3.6001    0.0000 C   0  0  0  0  0  0  0  0  0  0  0  0
   -1.2214   -3.3462    0.0000 C   0  0  0  0  0  0  0  0  0  0  0  0
   -1.0506   -2.5425    0.0000 C   0  0  0  0  0  0  0  0  0  0  0  0
   -1.6612   -1.9927    0.0000 C   0  0  0  0  0  0  0  0  0  0  0  0
   -0.5098   -3.7570    0.0000 N   0  0  0  0  0  0  0  0  0  0  0  0
    0.1008   -3.2072    0.0000 C   0  0  0  0  0  0  0  0  0  0  0  0
   -0.2334   -2.4566    0.0000 C   0  0  0  0  0  0  0  0  0  0  0  0
    0.1774   -1.7450    0.0000 C   0  0  0  0  0  0  0  0  0  0  0  0
   -0.2334   -1.0334    0.0000 C   0  0  0  0  0  0  0  0  0  0  0  0
    0.1774   -0.3218    0.0000 C   0  0  0  0  0  0  0  0  0  0  0  0
   -1.0551   -1.0334    0.0000 O   0  0  0  0  0  0  0  0  0  0  0  0
    0.9991   -0.3218    0.0000 C   0  0  0  0  0  0  0  0  0  0  0  0
    1.4099    0.3898    0.0000 C   0  0  0  0  0  0  0  0  0  0  0  0
    0.9991    1.1013    0.0000 C   0  0  0  0  0  0  0  0  0  0  0  0
    0.1774    1.1013    0.0000 C   0  0  0  0  0  0  0  0  0  0  0  0
   -0.2334    0.3898    0.0000 C   0  0  0  0  0  0  0  0  0  0  0  0
    1.4099    1.8129    0.0000 N   0  0  0  0  0  0  0  0  0  0  0  0
    0.9045   -3.3781    0.0000 O   0  0  0  0  0  0  0  0  0  0  0  0
   -3.0533   -1.6968    0.0000 H   0  0  0  0  0  0  0  0  0  0  0  0
    0.9991    2.5245    0.0000 S   0  0  0  0  0  0  0  0  0  0  0  0
    2.2316    1.8129    0.0000 S   0  0  0  0  0  0  0  0  0  0  0  0
    2.2316    0.9913    0.0000 O   0  0  0  0  0  0  0  0  0  0  0  0
    3.0533    1.8129    0.0000 O   0  0  0  0  0  0  0  0  0  0  0  0
    2.2316    2.6346    0.0000 C   0  0  0  0  0  0  0  0  0  0  0  0
    0.5883    3.2361    0.0000 O   0  0  0  0  0  0  0  0  0  0  0  0
    0.2875    2.1137    0.0000 O   0  0  0  0  0  0  0  0  0  0  0  0
    1.7107    2.9354    0.0000 C   0  0  0  0  0  0  0  0  0  0  0  0
    2.9432    3.0454    0.0000 C   0  0  0  0  0  0  0  0  0  0  0  0
    1.7107    3.7570    0.0000 C   0  0  0  0  0  0  0  0  0  0  0  0
  1  2  2  0      
  2  3  1  0      
  3  4  2  0      
  4  5  1  0      
  5  6  2  0      
  6  1  1  0      
  4  7  1  0      
  7  8  1  0      
  8  9  1  0      
  9  5  1  0      
  9 10  2  0      
 10 11  1  0      
 11 12  1  0      
 11 13  2  0      
 12 14  2  0      
 14 15  1  0      
 15 16  2  0      
 16 17  1  0      
 17 18  2  0      
 18 12  1  0      
 16 19  1  0      
  8 20  2  0      
  1 21  1  0      
 19 22  1  0      
 19 23  1  0      
 23 24  2  0      
 23 25  2  0      
 23 26  1  0      
 22 27  2  0      
 22 28  2  0      
 22 29  1  0      
 26 30  1  0      
 29 31  1  0      
M  END
