SA44_0013.mol
  ChemDraw05022413442D

 38 42  0  0  1  0  0  0  0  0999 V2000
   -3.8499    1.4437    0.0000 C   0  0  0  0  0  0  0  0  0  0  0  0
   -3.8499    0.6187    0.0000 C   0  0  0  0  0  0  0  0  0  0  0  0
   -3.0653    0.3638    0.0000 O   0  0  0  0  0  0  0  0  0  0  0  0
   -2.5803    1.0313    0.0000 C   0  0  0  0  0  0  0  0  0  0  0  0
   -3.0653    1.6987    0.0000 C   0  0  0  0  0  0  0  0  0  0  0  0
   -1.8659    1.4437    0.0000 C   0  0  0  0  0  0  0  0  0  0  0  0
   -1.1514    1.0313    0.0000 N   0  0  0  0  0  0  0  0  0  0  0  0
   -0.4369    1.4437    0.0000 C   0  0  0  0  0  0  0  0  0  0  0  0
    0.2775    1.0313    0.0000 C   0  0  0  0  0  0  0  0  0  0  0  0
    0.9920    1.4437    0.0000 N   0  0  0  0  0  0  0  0  0  0  0  0
   -1.8659    2.2687    0.0000 O   0  0  0  0  0  0  0  0  0  0  0  0
   -1.1514    0.2062    0.0000 C   0  0  0  0  0  0  0  0  0  0  0  0
    0.2775    0.2062    0.0000 O   0  0  0  0  0  0  0  0  0  0  0  0
   -1.8659   -0.2063    0.0000 C   0  0  0  0  0  0  0  0  0  0  0  0
   -1.8659   -1.0313    0.0000 C   0  0  0  0  0  0  0  0  0  0  0  0
   -1.1514   -1.4437    0.0000 C   0  0  0  0  0  0  0  0  0  0  0  0
   -0.4369   -1.0313    0.0000 C   0  0  0  0  0  0  0  0  0  0  0  0
   -0.4369   -0.2063    0.0000 C   0  0  0  0  0  0  0  0  0  0  0  0
   -1.1514   -2.2687    0.0000 C   0  0  0  0  0  0  0  0  0  0  0  0
   -1.8659   -2.6812    0.0000 C   0  0  0  0  0  0  0  0  0  0  0  0
   -1.8659   -3.5062    0.0000 C   0  0  0  0  0  0  0  0  0  0  0  0
   -1.1514   -3.9187    0.0000 C   0  0  0  0  0  0  0  0  0  0  0  0
   -0.4369   -3.5062    0.0000 C   0  0  0  0  0  0  0  0  0  0  0  0
   -0.4369   -2.6812    0.0000 C   0  0  0  0  0  0  0  0  0  0  0  0
    1.7065    1.0313    0.0000 C   0  0  0  0  0  0  0  0  0  0  0  0
    2.4209    1.4437    0.0000 C   0  0  0  0  0  0  0  0  0  0  0  0
    3.1354    1.0313    0.0000 C   0  0  0  0  0  0  0  0  0  0  0  0
    3.8499    1.4437    0.0000 C   0  0  0  0  0  0  0  0  0  0  0  0
    3.8499    2.2687    0.0000 C   0  0  0  0  0  0  0  0  0  0  0  0
    3.1354    2.6812    0.0000 C   0  0  0  0  0  0  0  0  0  0  0  0
    2.4209    2.2687    0.0000 C   0  0  0  0  0  0  0  0  0  0  0  0
    1.7065    0.2062    0.0000 C   0  0  0  0  0  0  0  0  0  0  0  0
   -0.4369    2.2687    0.0000 C   0  0  0  0  0  0  0  0  0  0  0  0
    0.2775    2.6812    0.0000 C   0  0  0  0  0  0  0  0  0  0  0  0
    0.2775    3.5062    0.0000 N   0  0  0  0  0  0  0  0  0  0  0  0
   -0.4369    3.9187    0.0000 C   0  0  0  0  0  0  0  0  0  0  0  0
   -1.1514    3.5062    0.0000 C   0  0  0  0  0  0  0  0  0  0  0  0
   -1.1514    2.6812    0.0000 C   0  0  0  0  0  0  0  0  0  0  0  0
  1  2  2  0      
  2  3  1  0      
  3  4  1  0      
  4  5  2  0      
  5  1  1  0      
  4  6  1  0      
  6  7  1  0      
  7  8  1  0      
  8  9  1  0      
  9 10  1  0      
  6 11  2  0      
  7 12  1  0      
  9 13  2  0      
 12 14  2  0      
 14 15  1  0      
 15 16  2  0      
 16 17  1  0      
 17 18  2  0      
 18 12  1  0      
 16 19  1  0      
 19 20  2  0      
 20 21  1  0      
 21 22  2  0      
 22 23  1  0      
 23 24  2  0      
 24 19  1  0      
 10 25  1  0      
 25 26  1  0      
 26 27  2  0      
 27 28  1  0      
 28 29  2  0      
 29 30  1  0      
 30 31  2  0      
 31 26  1  0      
 25 32  1  6      
  8 33  1  0      
 33 34  2  0      
 34 35  1  0      
 35 36  2  0      
 36 37  1  0      
 37 38  2  0      
 38 33  1  0      
M  END
