SA44_0016.mol
  ChemDraw05022415452D

 20 21  0  0  0  0  0  0  0  0999 V2000
   -0.9142    0.0519    0.0000 C   0  0  0  0  0  0  0  0  0  0  0  0
   -0.8283   -0.7653    0.0000 C   0  0  0  0  0  0  0  0  0  0  0  0
   -0.0246   -0.9362    0.0000 C   0  0  0  0  0  0  0  0  0  0  0  0
    0.3863   -0.2246    0.0000 C   0  0  0  0  0  0  0  0  0  0  0  0
   -0.1635    0.3861    0.0000 O   0  0  0  0  0  0  0  0  0  0  0  0
   -1.6258    0.4627    0.0000 C   0  0  0  0  0  0  0  0  0  0  0  0
   -2.3374    0.0519    0.0000 N   0  0  0  0  0  0  0  0  0  0  0  0
   -3.0489    0.4627    0.0000 N   0  0  0  0  0  0  0  0  0  0  0  0
   -3.7605    0.0519    0.0000 C   0  0  0  0  0  0  0  0  0  0  0  0
   -4.4721    0.4627    0.0000 N   0  0  0  0  0  0  0  0  0  0  0  0
   -3.7605   -0.7698    0.0000 S   0  0  0  0  0  0  0  0  0  0  0  0
    1.2034   -0.1387    0.0000 C   0  0  0  0  0  0  0  0  0  0  0  0
    1.6864   -0.8034    0.0000 C   0  0  0  0  0  0  0  0  0  0  0  0
    2.5036   -0.7175    0.0000 C   0  0  0  0  0  0  0  0  0  0  0  0
    2.8378    0.0331    0.0000 C   0  0  0  0  0  0  0  0  0  0  0  0
    2.3548    0.6978    0.0000 C   0  0  0  0  0  0  0  0  0  0  0  0
    1.5376    0.6120    0.0000 C   0  0  0  0  0  0  0  0  0  0  0  0
    3.6549    0.1190    0.0000 C   0  0  0  0  0  0  0  0  0  0  0  0
    3.5691    0.9362    0.0000 O   0  0  0  0  0  0  0  0  0  0  0  0
    4.4721    0.2049    0.0000 O   0  0  0  0  0  0  0  0  0  0  0  0
  1  2  2  0      
  2  3  1  0      
  3  4  2  0      
  4  5  1  0      
  5  1  1  0      
  1  6  1  0      
  6  7  2  0      
  7  8  1  0      
  8  9  1  0      
  9 10  1  0      
  9 11  2  0      
  4 12  1  0      
 12 13  2  0      
 13 14  1  0      
 14 15  2  0      
 15 16  1  0      
 16 17  2  0      
 17 12  1  0      
 15 18  1  0      
 18 19  2  0      
 18 20  1  0      
M  END
