SA44_0003.mol
  ChemDraw05022413312D

 46 49  0  0  1  0  0  0  0  0999 V2000
   -2.1434   -0.1166    0.0000 N   0  0  0  0  0  0  0  0  0  0  0  0
   -1.4289   -0.5291    0.0000 C   0  0  0  0  0  0  0  0  0  0  0  0
   -0.7145   -0.1166    0.0000 N   0  0  0  0  0  0  0  0  0  0  0  0
   -1.4289   -1.3541    0.0000 O   0  0  0  0  0  0  0  0  0  0  0  0
   -0.0000   -0.5291    0.0000 C   0  0  0  0  0  0  0  0  0  0  0  0
    0.7145   -0.1166    0.0000 C   0  0  0  0  0  0  0  0  0  0  0  0
    1.4289   -0.5291    0.0000 N   0  0  0  0  0  0  0  0  0  0  0  0
    2.1434   -0.1166    0.0000 C   0  0  0  0  0  0  0  0  0  0  0  0
    2.8579   -0.5291    0.0000 C   0  0  0  0  0  0  0  0  0  0  0  0
    3.5724   -0.1166    0.0000 C   0  0  0  0  0  0  0  0  0  0  0  0
    4.2868   -0.5291    0.0000 N   0  0  0  0  0  0  0  0  0  0  0  0
    5.0013   -0.1166    0.0000 C   0  0  0  0  0  0  0  0  0  0  0  0
    5.7158   -0.5291    0.0000 C   0  0  0  0  0  0  0  0  0  0  0  0
   -0.0000   -1.3541    0.0000 C   0  0  0  0  0  0  0  0  0  0  0  0
    2.1434    0.7084    0.0000 C   0  0  0  0  0  0  0  0  0  0  0  0
    0.7145   -1.7666    0.0000 C   0  0  0  0  0  0  0  0  0  0  0  0
    0.7145    0.7084    0.0000 O   0  0  0  0  0  0  0  0  0  0  0  0
    2.7268    1.2917    0.0000 C   0  0  0  0  0  0  0  0  0  0  0  0
    3.5416    1.1627    0.0000 C   0  0  0  0  0  0  0  0  0  0  0  0
    3.9162    1.8977    0.0000 C   0  0  0  0  0  0  0  0  0  0  0  0
    3.3328    2.4811    0.0000 N   0  0  0  0  0  0  0  0  0  0  0  0
    2.5977    2.1066    0.0000 C   0  0  0  0  0  0  0  0  0  0  0  0
    1.8626    2.4811    0.0000 O   0  0  0  0  0  0  0  0  0  0  0  0
    1.1270   -2.4811    0.0000 C   0  0  0  0  0  0  0  0  0  0  0  0
    1.5395   -1.7666    0.0000 C   0  0  0  0  0  0  0  0  0  0  0  0
    3.5724    0.7084    0.0000 O   0  0  0  0  0  0  0  0  0  0  0  0
    2.8579   -1.3541    0.0000 O   0  0  0  0  0  0  0  0  0  0  0  0
    5.7158   -1.3541    0.0000 C   0  0  0  0  0  0  0  0  0  0  0  0
    6.4302   -1.7666    0.0000 C   0  0  0  0  0  0  0  0  0  0  0  0
    7.1447   -1.3541    0.0000 C   0  0  0  0  0  0  0  0  0  0  0  0
    7.1447   -0.5291    0.0000 C   0  0  0  0  0  0  0  0  0  0  0  0
    6.4302   -0.1166    0.0000 C   0  0  0  0  0  0  0  0  0  0  0  0
   -2.1434    0.7084    0.0000 C   0  0  0  0  0  0  0  0  0  0  0  0
   -2.8579    1.1209    0.0000 C   0  0  0  0  0  0  0  0  0  0  0  0
   -3.5724    0.7084    0.0000 C   0  0  0  0  0  0  0  0  0  0  0  0
   -3.5724   -0.1166    0.0000 C   0  0  0  0  0  0  0  0  0  0  0  0
   -2.8579   -0.5291    0.0000 C   0  0  0  0  0  0  0  0  0  0  0  0
   -2.8579   -1.3541    0.0000 O   0  0  0  0  0  0  0  0  0  0  0  0
   -4.2868   -0.5291    0.0000 N   0  0  0  0  0  0  0  0  0  0  0  0
   -5.0013   -0.1166    0.0000 C   0  0  0  0  0  0  0  0  0  0  0  0
   -5.7158   -0.5291    0.0000 O   0  0  0  0  0  0  0  0  0  0  0  0
   -5.0013    0.7084    0.0000 O   0  0  0  0  0  0  0  0  0  0  0  0
   -6.4302   -0.1166    0.0000 C   0  0  0  0  0  0  0  0  0  0  0  0
   -7.1447   -0.5291    0.0000 C   0  0  0  0  0  0  0  0  0  0  0  0
   -6.4302    0.7084    0.0000 C   0  0  0  0  0  0  0  0  0  0  0  0
   -5.7158    0.2959    0.0000 C   0  0  0  0  0  0  0  0  0  0  0  0
  1  2  1  0      
  2  3  1  0      
  2  4  2  0      
  3  5  1  0      
  5  6  1  0      
  6  7  1  0      
  7  8  1  0      
  8  9  1  0      
  9 10  1  0      
 10 11  1  0      
 11 12  1  0      
 12 13  1  0      
  5 14  1  6      
  8 15  1  1      
 14 16  1  0      
  6 17  2  0      
 15 18  1  0      
 18 19  1  1      
 19 20  1  0      
 20 21  1  0      
 21 22  1  0      
 22 18  1  0      
 22 23  2  0      
 16 24  1  0      
 24 25  1  0      
 25 16  1  0      
 10 26  2  0      
  9 27  2  0      
 13 28  2  0      
 28 29  1  0      
 29 30  2  0      
 30 31  1  0      
 31 32  2  0      
 32 13  1  0      
  1 33  1  0      
 33 34  2  0      
 34 35  1  0      
 35 36  2  0      
 36 37  1  0      
 37  1  1  0      
 37 38  2  0      
 36 39  1  0      
 39 40  1  0      
 40 41  1  0      
 40 42  2  0      
 41 43  1  0      
 43 44  1  0      
 43 45  1  0      
 43 46  1  0      
M  END
