SA44_0028.mol
  ChemDraw05022415292D

 20 21  0  0  0  0  0  0  0  0999 V2000
   -0.5299    0.8847    0.0000 C   0  0  0  0  0  0  0  0  0  0  0  0
   -0.5299    0.0597    0.0000 C   0  0  0  0  0  0  0  0  0  0  0  0
    0.2547   -0.1953    0.0000 C   0  0  0  0  0  0  0  0  0  0  0  0
    0.7396    0.4722    0.0000 C   0  0  0  0  0  0  0  0  0  0  0  0
    0.2547    1.1396    0.0000 O   0  0  0  0  0  0  0  0  0  0  0  0
   -1.1974    1.3696    0.0000 C   0  0  0  0  0  0  0  0  0  0  0  0
   -1.9511    1.0341    0.0000 N   0  0  0  0  0  0  0  0  0  0  0  0
   -2.6185    1.5190    0.0000 N   0  0  0  0  0  0  0  0  0  0  0  0
   -3.3722    1.1834    0.0000 C   0  0  0  0  0  0  0  0  0  0  0  0
   -4.0396    1.6683    0.0000 N   0  0  0  0  0  0  0  0  0  0  0  0
   -3.4584    0.3629    0.0000 S   0  0  0  0  0  0  0  0  0  0  0  0
    1.5646    0.4722    0.0000 C   0  0  0  0  0  0  0  0  0  0  0  0
    1.9771   -0.2423    0.0000 C   0  0  0  0  0  0  0  0  0  0  0  0
    2.8021   -0.2423    0.0000 C   0  0  0  0  0  0  0  0  0  0  0  0
    3.2146    0.4722    0.0000 C   0  0  0  0  0  0  0  0  0  0  0  0
    2.8021    1.1867    0.0000 C   0  0  0  0  0  0  0  0  0  0  0  0
    1.9771    1.1867    0.0000 C   0  0  0  0  0  0  0  0  0  0  0  0
    4.0396    0.4722    0.0000 O   0  0  0  0  0  0  0  0  0  0  0  0
    3.2146   -0.9568    0.0000 C   0  0  0  0  0  0  0  0  0  0  0  0
    3.6254   -1.6683    0.0000 N   0  0  0  0  0  0  0  0  0  0  0  0
 19 20  3  0      
 14 19  1  0      
  1  2  2  0      
  2  3  1  0      
  3  4  2  0      
  4  5  1  0      
  5  1  1  0      
  1  6  1  0      
  6  7  2  0      
  7  8  1  0      
  8  9  1  0      
  9 10  1  0      
  9 11  2  0      
  4 12  1  0      
 12 13  2  0      
 13 14  1  0      
 14 15  2  0      
 15 16  1  0      
 16 17  2  0      
 17 12  1  0      
 15 18  1  0      
M  STY  1   1 SUP
M  SLB  1   1   1
M  SAL   1  2  19  20
M  SBL   1  1   2
M  SMT   1 CN
M  SBV   1   2   -0.4125    0.7145
M  END
