SA44_0004.mol
  ChemDraw05022413342D

 33 36  0  0  1  0  0  0  0  0999 V2000
   -4.4251    1.2876    0.0000 C   0  0  0  0  0  0  0  0  0  0  0  0
   -4.0126    0.5731    0.0000 C   0  0  0  0  0  0  0  0  0  0  0  0
   -3.1876    0.5731    0.0000 C   0  0  0  0  0  0  0  0  0  0  0  0
   -2.7751    1.2876    0.0000 C   0  0  0  0  0  0  0  0  0  0  0  0
   -3.1876    2.0020    0.0000 C   0  0  0  0  0  0  0  0  0  0  0  0
   -4.0126    2.0020    0.0000 C   0  0  0  0  0  0  0  0  0  0  0  0
   -2.6356   -0.0400    0.0000 N   0  0  0  0  0  0  0  0  0  0  0  0
   -1.8819    0.2956    0.0000 C   0  0  0  0  0  0  0  0  0  0  0  0
   -1.9681    1.1160    0.0000 C   0  0  0  0  0  0  0  0  0  0  0  0
   -1.1674   -0.1169    0.0000 C   0  0  0  0  0  0  0  0  0  0  0  0
   -0.4530    0.2956    0.0000 N   0  0  0  0  0  0  0  0  0  0  0  0
   -1.1674   -0.9419    0.0000 O   0  0  0  0  0  0  0  0  0  0  0  0
    0.2615   -0.1169    0.0000 C   0  0  0  0  0  0  0  0  0  0  0  0
    0.9760    0.2956    0.0000 C   0  0  0  0  0  0  0  0  0  0  0  0
    1.6905   -0.1169    0.0000 N   0  0  0  0  0  0  0  0  0  0  0  0
    0.9760    1.1206    0.0000 O   0  0  0  0  0  0  0  0  0  0  0  0
    2.4049    0.2956    0.0000 C   0  0  0  0  0  0  0  0  0  0  0  0
    3.1194   -0.1169    0.0000 C   0  0  0  0  0  0  0  0  0  0  0  0
    2.4049    1.1206    0.0000 C   0  0  0  0  0  0  0  0  0  0  0  0
    3.1194    1.5331    0.0000 C   0  0  0  0  0  0  0  0  0  0  0  0
    3.8731    1.1975    0.0000 C   0  0  0  0  0  0  0  0  0  0  0  0
    4.4251    1.8106    0.0000 C   0  0  0  0  0  0  0  0  0  0  0  0
    4.0126    2.5251    0.0000 N   0  0  0  0  0  0  0  0  0  0  0  0
    3.2056    2.3535    0.0000 C   0  0  0  0  0  0  0  0  0  0  0  0
    0.2615   -0.9419    0.0000 C   0  0  0  0  0  0  0  0  0  0  0  0
    0.8449   -1.5253    0.0000 C   0  0  0  0  0  0  0  0  0  0  0  0
    0.6314   -2.3222    0.0000 C   0  0  0  0  0  0  0  0  0  0  0  0
    1.2147   -2.9056    0.0000 C   0  0  0  0  0  0  0  0  0  0  0  0
    2.0116   -2.6920    0.0000 C   0  0  0  0  0  0  0  0  0  0  0  0
    2.2251   -1.8951    0.0000 C   0  0  0  0  0  0  0  0  0  0  0  0
    1.6418   -1.3118    0.0000 C   0  0  0  0  0  0  0  0  0  0  0  0
    2.5925    2.9056    0.0000 O   0  0  0  0  0  0  0  0  0  0  0  0
    3.1194   -0.9419    0.0000 O   0  0  0  0  0  0  0  0  0  0  0  0
  1  2  2  0      
  2  3  1  0      
  3  4  2  0      
  4  5  1  0      
  5  6  2  0      
  6  1  1  0      
  3  7  1  0      
  7  8  1  0      
  8  9  2  0      
  9  4  1  0      
  8 10  1  0      
 10 11  1  0      
 10 12  2  0      
 11 13  1  0      
 13 14  1  0      
 14 15  1  0      
 14 16  2  0      
 15 17  1  0      
 17 18  1  0      
 17 19  1  1      
 19 20  1  0      
 20 21  1  1      
 21 22  1  0      
 22 23  1  0      
 23 24  1  0      
 24 20  1  0      
 13 25  1  6      
 25 26  1  0      
 26 27  1  0      
 27 28  1  0      
 28 29  1  0      
 29 30  1  0      
 30 31  1  0      
 31 26  1  0      
 24 32  2  0      
 18 33  2  0      
M  END
