3194
     RDKit          2D

 16 18  0  0  0  0  0  0  0  0999 V2000
    4.6783   -1.1824    0.0000 Se  0  0  0  0  0  2  0  0  0  0  0  0
    4.9889    1.3776    0.0000 O   0  0  0  0  0  0  0  0  0  0  0  0
    5.2619   -0.3776    0.0000 N   0  0  0  0  0  0  0  0  0  0  0  0
    3.7320    0.1224    0.0000 C   0  0  0  0  0  0  0  0  0  0  0  0
    3.7320   -0.8776    0.0000 C   0  0  0  0  0  0  0  0  0  0  0  0
    4.6783    0.4271    0.0000 C   0  0  0  0  0  0  0  0  0  0  0  0
    6.2619   -0.3776    0.0000 C   0  0  0  0  0  0  0  0  0  0  0  0
    2.8660    0.6224    0.0000 C   0  0  0  0  0  0  0  0  0  0  0  0
    2.8660   -1.3776    0.0000 C   0  0  0  0  0  0  0  0  0  0  0  0
    6.7619   -1.2436    0.0000 C   0  0  0  0  0  0  0  0  0  0  0  0
    6.7619    0.4884    0.0000 C   0  0  0  0  0  0  0  0  0  0  0  0
    2.0000    0.1224    0.0000 C   0  0  0  0  0  0  0  0  0  0  0  0
    2.0000   -0.8776    0.0000 C   0  0  0  0  0  0  0  0  0  0  0  0
    7.7619   -1.2436    0.0000 C   0  0  0  0  0  0  0  0  0  0  0  0
    7.7619    0.4884    0.0000 C   0  0  0  0  0  0  0  0  0  0  0  0
    8.2619   -0.3776    0.0000 C   0  0  0  0  0  0  0  0  0  0  0  0
  1  3  1  0
  1  5  1  0
  2  6  2  0
  3  6  1  0
  3  7  1  0
  4  5  2  0
  4  6  1  0
  4  8  1  0
  5  9  1  0
  7 10  2  0
  7 11  1  0
  8 12  2  0
  9 13  2  0
 10 14  1  0
 11 15  2  0
 12 13  1  0
 14 16  2  0
 15 16  1  0
M  END
>  <PUBCHEM_COMPOUND_CID>  (1) 
3194

>  <PUBCHEM_COMPOUND_CANONICALIZED>  (1) 
1

>  <PUBCHEM_CACTVS_COMPLEXITY>  (1) 
275

>  <PUBCHEM_CACTVS_HBOND_ACCEPTOR>  (1) 
1

>  <PUBCHEM_CACTVS_HBOND_DONOR>  (1) 
0

>  <PUBCHEM_CACTVS_ROTATABLE_BOND>  (1) 
1

>  <PUBCHEM_CACTVS_SUBSKEYS>  (1) 
AAADccByIAAAAAAAIAAAAAAAAAAAAWAAAAAwYAAAAAAAAFgBQAAAHgCAAAAADAiBmAAwwIIAAACIAiVSUACCAAAlAgAIiAEAZMgIIDLAlZGEIQhghADIyYcYiACOAAAAAAAAAAAAAAAAAAAAAAAAAAAAAA==

>  <PUBCHEM_IUPAC_OPENEYE_NAME>  (1) 
2-phenyl-1,2-benzoselenazol-3-one

>  <PUBCHEM_IUPAC_CAS_NAME>  (1) 
2-phenyl-1,2-benzoselenazol-3-one

>  <PUBCHEM_IUPAC_NAME_MARKUP>  (1) 
2-phenyl-1,2-benzoselenazol-3-one

>  <PUBCHEM_IUPAC_NAME>  (1) 
2-phenyl-1,2-benzoselenazol-3-one

>  <PUBCHEM_IUPAC_SYSTEMATIC_NAME>  (1) 
2-phenyl-1,2-benzoselenazol-3-one

>  <PUBCHEM_IUPAC_TRADITIONAL_NAME>  (1) 
2-phenyl-1,2-benzoselenazol-3-one

>  <PUBCHEM_IUPAC_INCHI>  (1) 
InChI=1S/C13H9NOSe/c15-13-11-8-4-5-9-12(11)16-14(13)10-6-2-1-3-7-10/h1-9H

>  <PUBCHEM_IUPAC_INCHIKEY>  (1) 
DYEFUKCXAQOFHX-UHFFFAOYSA-N

>  <PUBCHEM_EXACT_MASS>  (1) 
274.98494

>  <PUBCHEM_MOLECULAR_FORMULA>  (1) 
C13H9NOSe

>  <PUBCHEM_MOLECULAR_WEIGHT>  (1) 
274.19

>  <PUBCHEM_OPENEYE_CAN_SMILES>  (1) 
C1=CC=C(C=C1)N2C(=O)C3=CC=CC=C3[Se]2

>  <PUBCHEM_OPENEYE_ISO_SMILES>  (1) 
C1=CC=C(C=C1)N2C(=O)C3=CC=CC=C3[Se]2

>  <PUBCHEM_CACTVS_TPSA>  (1) 
20.3

>  <PUBCHEM_MONOISOTOPIC_WEIGHT>  (1) 
274.98494

>  <PUBCHEM_TOTAL_CHARGE>  (1) 
0

>  <PUBCHEM_HEAVY_ATOM_COUNT>  (1) 
16

>  <PUBCHEM_ATOM_DEF_STEREO_COUNT>  (1) 
0

>  <PUBCHEM_ATOM_UDEF_STEREO_COUNT>  (1) 
0

>  <PUBCHEM_BOND_DEF_STEREO_COUNT>  (1) 
0

>  <PUBCHEM_BOND_UDEF_STEREO_COUNT>  (1) 
0

>  <PUBCHEM_ISOTOPIC_ATOM_COUNT>  (1) 
0

>  <PUBCHEM_COMPONENT_COUNT>  (1) 
1

>  <PUBCHEM_CACTVS_TAUTO_COUNT>  (1) 
-1

>  <PUBCHEM_COORDINATE_TYPE>  (1) 
1
5
255

>  <PUBCHEM_BONDANNOTATIONS>  (1) 
1  3  8
1  5  8
10  14  8
11  15  8
12  13  8
14  16  8
15  16  8
3  6  8
4  5  8
4  6  8
4  8  8
5  9  8
7  10  8
7  11  8
8  12  8
9  13  8

$$$$
