SA44_0037.mol
  ChemDraw05022415172D

 21 22  0  0  0  0  0  0  0  0999 V2000
    2.1348   -0.6163    0.0000 C   0  0  0  0  0  0  0  0  0  0  0  0
    2.8464   -0.2054    0.0000 C   0  0  0  0  0  0  0  0  0  0  0  0
    2.8464    0.6163    0.0000 C   0  0  0  0  0  0  0  0  0  0  0  0
    2.1348    1.0271    0.0000 C   0  0  0  0  0  0  0  0  0  0  0  0
    1.4232    0.6163    0.0000 C   0  0  0  0  0  0  0  0  0  0  0  0
    1.4232   -0.2054    0.0000 C   0  0  0  0  0  0  0  0  0  0  0  0
   -0.7116   -0.6163    0.0000 C   0  0  0  0  0  0  0  0  0  0  0  0
   -1.4232   -0.2054    0.0000 C   0  0  0  0  0  0  0  0  0  0  0  0
   -2.1348   -0.6163    0.0000 N   0  0  0  0  0  0  0  0  0  0  0  0
   -2.8464   -0.2054    0.0000 N   0  0  0  0  0  0  0  0  0  0  0  0
   -3.5579   -0.6163    0.0000 C   0  0  0  0  0  0  0  0  0  0  0  0
   -4.2695   -0.2054    0.0000 N   0  0  0  0  0  0  0  0  0  0  0  0
   -3.5579   -1.4379    0.0000 S   0  0  0  0  0  0  0  0  0  0  0  0
    3.5579    1.0271    0.0000 C   0  0  0  0  0  0  0  0  0  0  0  0
    3.5579    1.8488    0.0000 O   0  0  0  0  0  0  0  0  0  0  0  0
    4.2695    0.6163    0.0000 O   0  0  0  0  0  0  0  0  0  0  0  0
   -0.7116   -1.4379    0.0000 C   0  0  0  0  0  0  0  0  0  0  0  0
    0.0000   -1.8488    0.0000 C   0  0  0  0  0  0  0  0  0  0  0  0
    0.7116   -1.4379    0.0000 C   0  0  0  0  0  0  0  0  0  0  0  0
    0.7116   -0.6163    0.0000 C   0  0  0  0  0  0  0  0  0  0  0  0
    0.0000   -0.2054    0.0000 C   0  0  0  0  0  0  0  0  0  0  0  0
  1  2  2  0      
  2  3  1  0      
  3  4  2  0      
  4  5  1  0      
  5  6  2  0      
  6  1  1  0      
  7  8  1  0      
  8  9  2  0      
  9 10  1  0      
 10 11  1  0      
 11 12  1  0      
 11 13  2  0      
  3 14  1  0      
 14 15  1  0      
 14 16  2  0      
  7 17  2  0      
 17 18  1  0      
 18 19  2  0      
 19 20  1  0      
 20 21  2  0      
 21  7  1  0      
 20  6  1  0      
M  END
