SA44_0007
  -OEChem-07172407082D

 64 67  0     1  0  0  0  0  0999 V2000
    3.0000   -5.5408    0.0000 F   0  0  0  0  0  0  0  0  0  0  0  0
    2.0000   -4.5408    0.0000 F   0  0  0  0  0  0  0  0  0  0  0  0
    3.0000   -3.5408    0.0000 F   0  0  0  0  0  0  0  0  0  0  0  0
    9.4479    2.2926    0.0000 O   0  0  0  0  0  0  0  0  0  0  0  0
    7.0000    0.6554    0.0000 O   0  0  0  0  0  0  0  0  0  0  0  0
    6.0000   -1.0767    0.0000 O   0  0  0  0  0  0  0  0  0  0  0  0
    7.8517    4.4026    0.0000 O   0  0  0  0  0  0  0  0  0  0  0  0
    4.4444    3.5886    0.0000 O   0  0  0  0  0  0  0  0  0  0  0  0
    4.0000   -4.5408    0.0000 O   0  0  0  0  0  0  0  0  0  0  0  0
    8.5000   -0.2107    0.0000 N   0  0  0  0  0  0  0  0  0  0  0  0
    7.8006    1.7573    0.0000 N   0  0  0  0  0  0  0  0  0  0  0  0
    5.2534    5.1764    0.0000 N   0  0  0  0  0  0  0  0  0  0  0  0
   10.0388    0.2893    0.0000 C   0  0  1  0  0  0  0  0  0  0  0  0
   10.9054   -0.2107    0.0000 C   0  0  0  0  0  0  0  0  0  0  0  0
   10.0388   -0.7107    0.0000 C   0  0  1  0  0  0  0  0  0  0  0  0
    9.0878    0.5984    0.0000 C   0  0  2  0  0  0  0  0  0  0  0  0
    9.0878   -1.0197    0.0000 C   0  0  0  0  0  0  0  0  0  0  0  0
   11.4054   -1.0767    0.0000 C   0  0  0  0  0  0  0  0  0  0  0  0
   11.4054    0.6554    0.0000 C   0  0  0  0  0  0  0  0  0  0  0  0
    8.7788    1.5494    0.0000 C   0  0  0  0  0  0  0  0  0  0  0  0
    7.5000   -0.2107    0.0000 C   0  0  0  0  0  0  0  0  0  0  0  0
    7.0000   -1.0767    0.0000 C   0  0  0  0  0  0  0  0  0  0  0  0
    7.4916    2.7084    0.0000 C   0  0  1  0  0  0  0  0  0  0  0  0
    6.5135    2.9163    0.0000 C   0  0  0  0  0  0  0  0  0  0  0  0
    6.2044    3.8674    0.0000 C   0  0  2  0  0  0  0  0  0  0  0  0
    8.1607    3.4515    0.0000 C   0  0  0  0  0  0  0  0  0  0  0  0
    6.7922    4.6764    0.0000 C   0  0  0  0  0  0  0  0  0  0  0  0
    5.5000   -1.9427    0.0000 C   0  0  0  0  0  0  0  0  0  0  0  0
    5.2534    4.1764    0.0000 C   0  0  0  0  0  0  0  0  0  0  0  0
    6.2044    5.4854    0.0000 C   0  0  0  0  0  0  0  0  0  0  0  0
    6.0000   -2.8087    0.0000 C   0  0  0  0  0  0  0  0  0  0  0  0
    4.5000   -1.9427    0.0000 C   0  0  0  0  0  0  0  0  0  0  0  0
    5.5000   -3.6748    0.0000 C   0  0  0  0  0  0  0  0  0  0  0  0
    4.0000   -2.8087    0.0000 C   0  0  0  0  0  0  0  0  0  0  0  0
    4.5000   -3.6748    0.0000 C   0  0  0  0  0  0  0  0  0  0  0  0
    3.0000   -4.5408    0.0000 C   0  0  0  0  0  0  0  0  0  0  0  0
   10.3845    1.0659    0.0000 H   0  0  0  0  0  0  0  0  0  0  0  0
   10.3845   -1.4872    0.0000 H   0  0  0  0  0  0  0  0  0  0  0  0
    8.4754    0.6953    0.0000 H   0  0  0  0  0  0  0  0  0  0  0  0
    8.5508   -1.3297    0.0000 H   0  0  0  0  0  0  0  0  0  0  0  0
    9.3400   -1.5861    0.0000 H   0  0  0  0  0  0  0  0  0  0  0  0
   10.8684   -1.3867    0.0000 H   0  0  0  0  0  0  0  0  0  0  0  0
   11.7154   -1.6136    0.0000 H   0  0  0  0  0  0  0  0  0  0  0  0
   11.9423   -0.7667    0.0000 H   0  0  0  0  0  0  0  0  0  0  0  0
   11.9423    0.3454    0.0000 H   0  0  0  0  0  0  0  0  0  0  0  0
   11.7154    1.1923    0.0000 H   0  0  0  0  0  0  0  0  0  0  0  0
   10.8684    0.9654    0.0000 H   0  0  0  0  0  0  0  0  0  0  0  0
    7.3858    1.2966    0.0000 H   0  0  0  0  0  0  0  0  0  0  0  0
    6.8923   -1.6873    0.0000 H   0  0  0  0  0  0  0  0  0  0  0  0
    7.5826   -1.2887    0.0000 H   0  0  0  0  0  0  0  0  0  0  0  0
    8.0980    2.5795    0.0000 H   0  0  0  0  0  0  0  0  0  0  0  0
    5.8995    2.8300    0.0000 H   0  0  0  0  0  0  0  0  0  0  0  0
    6.4918    2.2967    0.0000 H   0  0  0  0  0  0  0  0  0  0  0  0
    6.8168    3.7704    0.0000 H   0  0  0  0  0  0  0  0  0  0  0  0
    8.7672    3.3226    0.0000 H   0  0  0  0  0  0  0  0  0  0  0  0
    7.2530    4.2615    0.0000 H   0  0  0  0  0  0  0  0  0  0  0  0
    7.2530    5.0912    0.0000 H   0  0  0  0  0  0  0  0  0  0  0  0
    6.7414    5.7954    0.0000 H   0  0  0  0  0  0  0  0  0  0  0  0
    5.9523    6.0518    0.0000 H   0  0  0  0  0  0  0  0  0  0  0  0
    4.7518    5.5408    0.0000 H   0  0  0  0  0  0  0  0  0  0  0  0
    6.6200   -2.8087    0.0000 H   0  0  0  0  0  0  0  0  0  0  0  0
    4.1900   -1.4058    0.0000 H   0  0  0  0  0  0  0  0  0  0  0  0
    5.8100   -4.2117    0.0000 H   0  0  0  0  0  0  0  0  0  0  0  0
    3.3800   -2.8087    0.0000 H   0  0  0  0  0  0  0  0  0  0  0  0
  1 36  1  0  0  0  0
  2 36  1  0  0  0  0
  3 36  1  0  0  0  0
  4 20  2  0  0  0  0
  5 21  2  0  0  0  0
  6 22  1  0  0  0  0
  6 28  1  0  0  0  0
  7 26  2  0  0  0  0
  8 29  2  0  0  0  0
  9 35  1  0  0  0  0
  9 36  1  0  0  0  0
 10 16  1  0  0  0  0
 10 17  1  0  0  0  0
 10 21  1  0  0  0  0
 11 20  1  0  0  0  0
 23 11  1  1  0  0  0
 11 48  1  0  0  0  0
 12 29  1  0  0  0  0
 12 30  1  0  0  0  0
 12 60  1  0  0  0  0
 13 14  1  0  0  0  0
 13 15  1  0  0  0  0
 13 16  1  0  0  0  0
 13 37  1  6  0  0  0
 14 15  1  0  0  0  0
 14 18  1  0  0  0  0
 14 19  1  0  0  0  0
 15 17  1  0  0  0  0
 15 38  1  6  0  0  0
 16 20  1  1  0  0  0
 16 39  1  0  0  0  0
 17 40  1  0  0  0  0
 17 41  1  0  0  0  0
 18 42  1  0  0  0  0
 18 43  1  0  0  0  0
 18 44  1  0  0  0  0
 19 45  1  0  0  0  0
 19 46  1  0  0  0  0
 19 47  1  0  0  0  0
 21 22  1  0  0  0  0
 22 49  1  0  0  0  0
 22 50  1  0  0  0  0
 23 24  1  0  0  0  0
 23 26  1  0  0  0  0
 23 51  1  0  0  0  0
 25 24  1  1  0  0  0
 24 52  1  0  0  0  0
 24 53  1  0  0  0  0
 25 27  1  0  0  0  0
 25 29  1  0  0  0  0
 25 54  1  0  0  0  0
 26 55  1  0  0  0  0
 27 30  1  0  0  0  0
 27 56  1  0  0  0  0
 27 57  1  0  0  0  0
 28 31  2  0  0  0  0
 28 32  1  0  0  0  0
 30 58  1  0  0  0  0
 30 59  1  0  0  0  0
 31 33  1  0  0  0  0
 31 61  1  0  0  0  0
 32 34  2  0  0  0  0
 32 62  1  0  0  0  0
 33 35  2  0  0  0  0
 33 63  1  0  0  0  0
 34 35  1  0  0  0  0
 34 64  1  0  0  0  0
M  END
> <PUBCHEM_COMPOUND_CID>
155803069

> <PUBCHEM_COMPOUND_CANONICALIZED>
1

> <PUBCHEM_CACTVS_COMPLEXITY>
874

> <PUBCHEM_CACTVS_HBOND_ACCEPTOR>
9

> <PUBCHEM_CACTVS_HBOND_DONOR>
2

> <PUBCHEM_CACTVS_ROTATABLE_BOND>
9

> <PUBCHEM_CACTVS_SUBSKEYS>
AAADceB7OYAAAAAAAAAAAAAAGAAAAWLAAAA8QAAAAAAAAAABAAAAHwAQAAAADyzhkBYyBoPABACIAClSkAICCAAgIAAIiIHOCIgOZjKEsT6XOCCk1hGYqAfcSwAPgQAAAAAAAAACAAAAAAAAAAAAAAAAAA==

> <PUBCHEM_IUPAC_OPENEYE_NAME>
(1R,2R,5S)-N-[(1S)-1-formyl-2-[(3S)-2-oxopyrrolidin-3-yl]ethyl]-6,6-dimethyl-3-[2-[4-(trifluoromethoxy)phenoxy]acetyl]-3-azabicyclo[3.1.0]hexane-2-carboxamide

> <PUBCHEM_IUPAC_CAS_NAME>
(1R,2R,5S)-6,6-dimethyl-N-[(2S)-1-oxo-3-[(3S)-2-oxo-3-pyrrolidinyl]propan-2-yl]-3-[1-oxo-2-[4-(trifluoromethoxy)phenoxy]ethyl]-3-azabicyclo[3.1.0]hexane-2-carboxamide

> <PUBCHEM_IUPAC_NAME_MARKUP>
(1<I>R</I>,2<I>R</I>,5<I>S</I>)-6,6-dimethyl-<I>N</I>-[(2<I>S</I>)-1-oxo-3-[(3<I>S</I>)-2-oxopyrrolidin-3-yl]propan-2-yl]-3-[2-[4-(trifluoromethoxy)phenoxy]acetyl]-3-azabicyclo[3.1.0]hexane-2-carboxamide

> <PUBCHEM_IUPAC_NAME>
(1R,2R,5S)-6,6-dimethyl-N-[(2S)-1-oxo-3-[(3S)-2-oxopyrrolidin-3-yl]propan-2-yl]-3-[2-[4-(trifluoromethoxy)phenoxy]acetyl]-3-azabicyclo[3.1.0]hexane-2-carboxamide

> <PUBCHEM_IUPAC_SYSTEMATIC_NAME>
(1R,2R,5S)-6,6-dimethyl-N-[(2S)-1-oxidanylidene-3-[(3S)-2-oxidanylidenepyrrolidin-3-yl]propan-2-yl]-3-[2-[4-(trifluoromethyloxy)phenoxy]ethanoyl]-3-azabicyclo[3.1.0]hexane-2-carboxamide

> <PUBCHEM_IUPAC_TRADITIONAL_NAME>
(1R,2R,5S)-N-[(1S)-1-formyl-2-[(3S)-2-ketopyrrolidin-3-yl]ethyl]-6,6-dimethyl-3-[2-[4-(trifluoromethoxy)phenoxy]acetyl]-3-azabicyclo[3.1.0]hexane-2-carboxamide

> <PUBCHEM_IUPAC_INCHI>
InChI=1S/C24H28F3N3O6/c1-23(2)17-10-30(18(32)12-35-15-3-5-16(6-4-15)36-24(25,26)27)20(19(17)23)22(34)29-14(11-31)9-13-7-8-28-21(13)33/h3-6,11,13-14,17,19-20H,7-10,12H2,1-2H3,(H,28,33)(H,29,34)/t13-,14-,17-,19-,20+/m0/s1

> <PUBCHEM_IUPAC_INCHIKEY>
RBWMYPKAPIYTJQ-DEGWKOFMSA-N

> <PUBCHEM_XLOGP3_AA>
2.6

> <PUBCHEM_EXACT_MASS>
511.19302011

> <PUBCHEM_MOLECULAR_FORMULA>
C24H28F3N3O6

> <PUBCHEM_MOLECULAR_WEIGHT>
511.5

> <PUBCHEM_OPENEYE_CAN_SMILES>
CC1(C2C1C(N(C2)C(=O)COC3=CC=C(C=C3)OC(F)(F)F)C(=O)NC(CC4CCNC4=O)C=O)C

> <PUBCHEM_OPENEYE_ISO_SMILES>
CC1([C@@H]2[C@H]1[C@@H](N(C2)C(=O)COC3=CC=C(C=C3)OC(F)(F)F)C(=O)N[C@@H](C[C@@H]4CCNC4=O)C=O)C

> <PUBCHEM_CACTVS_TPSA>
114

> <PUBCHEM_MONOISOTOPIC_WEIGHT>
511.19302011

> <PUBCHEM_TOTAL_CHARGE>
0

> <PUBCHEM_HEAVY_ATOM_COUNT>
36

> <PUBCHEM_ATOM_DEF_STEREO_COUNT>
5

> <PUBCHEM_ATOM_UDEF_STEREO_COUNT>
0

> <PUBCHEM_BOND_DEF_STEREO_COUNT>
0

> <PUBCHEM_BOND_UDEF_STEREO_COUNT>
0

> <PUBCHEM_ISOTOPIC_ATOM_COUNT>
0

> <PUBCHEM_COMPONENT_COUNT>
1

> <PUBCHEM_CACTVS_TAUTO_COUNT>
-1

> <PUBCHEM_COORDINATE_TYPE>
1
5
255

> <PUBCHEM_BONDANNOTATIONS>
23  11  5
13  37  6
15  38  6
16  20  5
25  24  5
28  31  8
28  32  8
31  33  8
32  34  8
33  35  8
34  35  8

$$$$
