SA51_0017.mol
  ChemDraw05032410072D

 17 19  0  0  0  0  0  0  0  0999 V2000
   -2.5763    0.0986    0.0000 C   0  0  0  0  0  0  0  0  0  0  0  0
   -2.5763   -0.7231    0.0000 C   0  0  0  0  0  0  0  0  0  0  0  0
   -1.8647   -1.1339    0.0000 C   0  0  0  0  0  0  0  0  0  0  0  0
   -1.1531   -0.7231    0.0000 C   0  0  0  0  0  0  0  0  0  0  0  0
   -1.1531    0.0986    0.0000 C   0  0  0  0  0  0  0  0  0  0  0  0
   -1.8647    0.5094    0.0000 C   0  0  0  0  0  0  0  0  0  0  0  0
   -0.3717   -0.9770    0.0000 S   0  0  0  0  0  0  0  0  0  0  0  0
    0.1113   -0.3123    0.0000 N   0  0  0  0  0  0  0  0  0  0  0  0
   -0.3717    0.3525    0.0000 C   0  0  0  0  0  0  0  0  0  0  0  0
   -0.1178    1.1339    0.0000 O   0  0  0  0  0  0  0  0  0  0  0  0
    0.9330   -0.3123    0.0000 C   0  0  0  0  0  0  0  0  0  0  0  0
    1.3438   -1.0239    0.0000 C   0  0  0  0  0  0  0  0  0  0  0  0
    2.1655   -1.0239    0.0000 C   0  0  0  0  0  0  0  0  0  0  0  0
    2.5763   -0.3123    0.0000 C   0  0  0  0  0  0  0  0  0  0  0  0
    2.1655    0.3993    0.0000 C   0  0  0  0  0  0  0  0  0  0  0  0
    1.3438    0.3993    0.0000 C   0  0  0  0  0  0  0  0  0  0  0  0
    0.9313    1.1138    0.0000 N   0  0  0  0  0  0  0  0  0  0  0  0
  1  2  2  0      
  2  3  1  0      
  3  4  2  0      
  4  5  1  0      
  5  6  2  0      
  6  1  1  0      
  4  7  1  0      
  7  8  1  0      
  8  9  1  0      
  9  5  1  0      
  9 10  2  0      
  8 11  1  0      
 11 12  2  0      
 12 13  1  0      
 13 14  2  0      
 14 15  1  0      
 15 16  2  0      
 16 11  1  0      
 16 17  1  0      
M  END
