SA51_0026.mol
  ChemDraw05032410142D

 17 18  0  0  0  0  0  0  0  0999 V2000
   -1.9609    1.4725    0.0000 C   0  0  0  0  0  0  0  0  0  0  0  0
   -1.9609    0.6508    0.0000 C   0  0  0  0  0  0  0  0  0  0  0  0
   -1.2493    0.2400    0.0000 C   0  0  0  0  0  0  0  0  0  0  0  0
   -0.5377    0.6508    0.0000 C   0  0  0  0  0  0  0  0  0  0  0  0
   -0.5377    1.4725    0.0000 C   0  0  0  0  0  0  0  0  0  0  0  0
   -1.2493    1.8833    0.0000 C   0  0  0  0  0  0  0  0  0  0  0  0
    0.2437    0.3969    0.0000 S   0  0  0  0  0  0  0  0  0  0  0  0
    0.7267    1.0616    0.0000 N   0  0  0  0  0  0  0  0  0  0  0  0
    0.2437    1.7264    0.0000 C   0  0  0  0  0  0  0  0  0  0  0  0
    0.4977    2.5078    0.0000 O   0  0  0  0  0  0  0  0  0  0  0  0
    1.5484    1.0616    0.0000 C   0  0  0  0  0  0  0  0  0  0  0  0
    1.9592    0.3500    0.0000 N   0  0  0  0  0  0  0  0  0  0  0  0
    1.9609    1.7761    0.0000 O   0  0  0  0  0  0  0  0  0  0  0  0
    1.5467   -0.3644    0.0000 C   0  0  0  0  0  0  0  0  0  0  0  0
    1.9592   -1.0789    0.0000 C   0  0  0  0  0  0  0  0  0  0  0  0
    1.5467   -1.7934    0.0000 C   0  0  0  0  0  0  0  0  0  0  0  0
    1.9592   -2.5078    0.0000 C   0  0  0  0  0  0  0  0  0  0  0  0
  1  2  2  0      
  2  3  1  0      
  3  4  2  0      
  4  5  1  0      
  5  6  2  0      
  6  1  1  0      
  4  7  1  0      
  7  8  1  0      
  8  9  1  0      
  9  5  1  0      
  9 10  2  0      
  8 11  1  0      
 11 12  1  0      
 11 13  2  0      
 12 14  1  0      
 14 15  1  0      
 15 16  1  0      
 16 17  1  0      
M  END
