SA51_0025.mol
  ChemDraw05032410122D

 16 17  0  0  0  0  0  0  0  0999 V2000
   -1.9609    1.1152    0.0000 C   0  0  0  0  0  0  0  0  0  0  0  0
   -1.9609    0.2936    0.0000 C   0  0  0  0  0  0  0  0  0  0  0  0
   -1.2493   -0.1173    0.0000 C   0  0  0  0  0  0  0  0  0  0  0  0
   -0.5377    0.2936    0.0000 C   0  0  0  0  0  0  0  0  0  0  0  0
   -0.5377    1.1152    0.0000 C   0  0  0  0  0  0  0  0  0  0  0  0
   -1.2493    1.5261    0.0000 C   0  0  0  0  0  0  0  0  0  0  0  0
    0.2437    0.0397    0.0000 S   0  0  0  0  0  0  0  0  0  0  0  0
    0.7267    0.7044    0.0000 N   0  0  0  0  0  0  0  0  0  0  0  0
    0.2437    1.3691    0.0000 C   0  0  0  0  0  0  0  0  0  0  0  0
    0.4977    2.1506    0.0000 O   0  0  0  0  0  0  0  0  0  0  0  0
    1.5484    0.7044    0.0000 C   0  0  0  0  0  0  0  0  0  0  0  0
    1.9592   -0.0072    0.0000 N   0  0  0  0  0  0  0  0  0  0  0  0
    1.9609    1.4189    0.0000 O   0  0  0  0  0  0  0  0  0  0  0  0
    1.5467   -0.7217    0.0000 C   0  0  0  0  0  0  0  0  0  0  0  0
    1.9592   -1.4361    0.0000 C   0  0  0  0  0  0  0  0  0  0  0  0
    1.5467   -2.1506    0.0000 C   0  0  0  0  0  0  0  0  0  0  0  0
  1  2  2  0      
  2  3  1  0      
  3  4  2  0      
  4  5  1  0      
  5  6  2  0      
  6  1  1  0      
  4  7  1  0      
  7  8  1  0      
  8  9  1  0      
  9  5  1  0      
  9 10  2  0      
  8 11  1  0      
 11 12  1  0      
 11 13  2  0      
 12 14  1  0      
 14 15  1  0      
 15 16  1  0      
M  END
