9222
     RDKit          2D

  9 10  0  0  0  0  0  0  0  0999 V2000
    4.6783   -0.6077    0.0000 N   0  0  0  0  0  0  0  0  0  0  0  0
    2.8660   -0.8030    0.0000 N   0  0  0  0  0  0  0  0  0  0  0  0
    3.7320    0.6970    0.0000 C   0  0  0  0  0  0  0  0  0  0  0  0
    3.7320   -0.3030    0.0000 C   0  0  0  0  0  0  0  0  0  0  0  0
    4.6783    1.0018    0.0000 C   0  0  0  0  0  0  0  0  0  0  0  0
    2.8660    1.1970    0.0000 C   0  0  0  0  0  0  0  0  0  0  0  0
    5.2619    0.1970    0.0000 C   0  0  0  0  0  0  0  0  0  0  0  0
    2.0000    0.6970    0.0000 C   0  0  0  0  0  0  0  0  0  0  0  0
    2.0000   -0.3030    0.0000 C   0  0  0  0  0  0  0  0  0  0  0  0
  1  4  1  0
  1  7  1  0
  2  4  2  0
  2  9  1  0
  3  4  1  0
  3  5  1  0
  3  6  2  0
  5  7  2  0
  6  8  1  0
  8  9  2  0
M  END
>  <PUBCHEM_COMPOUND_CID>  (1) 
9222

>  <PUBCHEM_COMPOUND_CANONICALIZED>  (1) 
1

>  <PUBCHEM_CACTVS_COMPLEXITY>  (1) 
103

>  <PUBCHEM_CACTVS_HBOND_ACCEPTOR>  (1) 
1

>  <PUBCHEM_CACTVS_HBOND_DONOR>  (1) 
1

>  <PUBCHEM_CACTVS_ROTATABLE_BOND>  (1) 
0

>  <PUBCHEM_CACTVS_SUBSKEYS>  (1) 
AAADcYBjAAAAAAAAAAAAAAAAAAAAAWAAAAAsAAAAAAAAAFgB+AAAHAAQAAAADADBGwQ9sN7JkACgAjJnZACCgCmxAqAJ2aA4ZJiIKOLAmZGEIAhokALIyCcQAAAOAAAAAAAAAAAAAAAAAAAAAAAAAAAAAA==

>  <PUBCHEM_IUPAC_OPENEYE_NAME>  (1) 
1H-pyrrolo[2,3-b]pyridine

>  <PUBCHEM_IUPAC_CAS_NAME>  (1) 
1H-pyrrolo[2,3-b]pyridine

>  <PUBCHEM_IUPAC_NAME_MARKUP>  (1) 
1<I>H</I>-pyrrolo[2,3-b]pyridine

>  <PUBCHEM_IUPAC_NAME>  (1) 
1H-pyrrolo[2,3-b]pyridine

>  <PUBCHEM_IUPAC_SYSTEMATIC_NAME>  (1) 
1H-pyrrolo[2,3-b]pyridine

>  <PUBCHEM_IUPAC_TRADITIONAL_NAME>  (1) 
1H-pyrrolo[2,3-b]pyridine

>  <PUBCHEM_IUPAC_INCHI>  (1) 
InChI=1S/C7H6N2/c1-2-6-3-5-9-7(6)8-4-1/h1-5H,(H,8,9)

>  <PUBCHEM_IUPAC_INCHIKEY>  (1) 
MVXVYAKCVDQRLW-UHFFFAOYSA-N

>  <PUBCHEM_XLOGP3>  (1) 
1.8

>  <PUBCHEM_EXACT_MASS>  (1) 
118.053098200

>  <PUBCHEM_MOLECULAR_FORMULA>  (1) 
C7H6N2

>  <PUBCHEM_MOLECULAR_WEIGHT>  (1) 
118.14

>  <PUBCHEM_OPENEYE_CAN_SMILES>  (1) 
C1=CC2=C(NC=C2)N=C1

>  <PUBCHEM_OPENEYE_ISO_SMILES>  (1) 
C1=CC2=C(NC=C2)N=C1

>  <PUBCHEM_CACTVS_TPSA>  (1) 
28.7

>  <PUBCHEM_MONOISOTOPIC_WEIGHT>  (1) 
118.053098200

>  <PUBCHEM_TOTAL_CHARGE>  (1) 
0

>  <PUBCHEM_HEAVY_ATOM_COUNT>  (1) 
9

>  <PUBCHEM_ATOM_DEF_STEREO_COUNT>  (1) 
0

>  <PUBCHEM_ATOM_UDEF_STEREO_COUNT>  (1) 
0

>  <PUBCHEM_BOND_DEF_STEREO_COUNT>  (1) 
0

>  <PUBCHEM_BOND_UDEF_STEREO_COUNT>  (1) 
0

>  <PUBCHEM_ISOTOPIC_ATOM_COUNT>  (1) 
0

>  <PUBCHEM_COMPONENT_COUNT>  (1) 
1

>  <PUBCHEM_CACTVS_TAUTO_COUNT>  (1) 
-1

>  <PUBCHEM_COORDINATE_TYPE>  (1) 
1
5
255

>  <PUBCHEM_BONDANNOTATIONS>  (1) 
1  4  8
1  7  8
2  4  8
2  9  8
3  4  8
3  5  8
3  6  8
5  7  8
6  8  8
8  9  8

$$$$
