441351
     RDKit          2D

 39 43  0  0  1  0  0  0  0  0999 V2000
    5.8703    0.0000    0.0000 Br  0  0  0  0  0  0  0  0  0  0  0  0
    8.9751    7.4630    0.0000 O   0  0  0  0  0  0  0  0  0  0  0  0
    2.3251    3.1554    0.0000 O   0  0  0  0  0  0  0  0  0  0  0  0
    0.6209    6.2670    0.0000 O   0  0  0  0  0  0  0  0  0  0  0  0
    7.3287    8.0011    0.0000 O   0  0  0  0  0  0  0  0  0  0  0  0
   10.2480    5.7078    0.0000 N   0  0  0  0  0  0  0  0  0  0  0  0
    2.3412    5.2470    0.0000 N   0  0  0  0  0  0  0  0  0  0  0  0
    7.7182    5.2078    0.0000 C   0  0  0  0  0  0  0  0  0  0  0  0
    7.7182    6.2078    0.0000 C   0  0  0  0  0  0  0  0  0  0  0  0
    6.8522    4.7078    0.0000 C   0  0  0  0  0  0  0  0  0  0  0  0
    5.9861    5.2078    0.0000 C   0  0  0  0  0  0  0  0  0  0  0  0
    5.0761    4.7009    0.0000 C   0  0  0  0  0  0  0  0  0  0  0  0
    9.2480    5.7078    0.0000 C   0  0  0  0  0  0  0  0  0  0  0  0
    8.6644    6.5125    0.0000 C   0  0  0  0  0  0  0  0  0  0  0  0
    8.6644    4.9030    0.0000 C   0  0  0  0  0  0  0  0  0  0  0  0
    6.8522    6.7078    0.0000 C   0  0  0  0  0  0  0  0  0  0  0  0
    5.0681    3.6593    0.0000 C   0  0  0  0  0  0  0  0  0  0  0  0
    5.9861    6.2078    0.0000 C   0  0  0  0  0  0  0  0  0  0  0  0
    6.8682    3.6662    0.0000 C   0  0  0  0  0  0  0  0  0  0  0  0
    5.9702    3.1385    0.0000 C   0  0  0  0  0  0  0  0  0  0  0  0
    4.1493    5.2650    0.0000 C   0  0  0  0  0  0  0  0  0  0  0  0
    7.7182    7.2078    0.0000 C   0  0  0  0  0  0  0  0  0  0  0  0
    4.1327    3.1096    0.0000 C   0  0  0  0  0  0  0  0  0  0  0  0
    3.2014    4.7370    0.0000 C   0  0  0  0  0  0  0  0  0  0  0  0
    5.0838    5.7009    0.0000 C   0  0  0  0  0  0  0  0  0  0  0  0
   11.1991    5.3987    0.0000 C   0  0  0  0  0  0  0  0  0  0  0  0
   10.2480    6.7078    0.0000 C   0  0  0  0  0  0  0  0  0  0  0  0
    3.1930    3.6521    0.0000 C   0  0  0  0  0  0  0  0  0  0  0  0
    9.9390    4.7567    0.0000 C   0  0  0  0  0  0  0  0  0  0  0  0
   11.7869    6.2078    0.0000 C   0  0  0  0  0  0  0  0  0  0  0  0
   11.1991    7.0168    0.0000 C   0  0  0  0  0  0  0  0  0  0  0  0
   10.6081    4.0136    0.0000 C   0  0  0  0  0  0  0  0  0  0  0  0
    8.3072    8.2073    0.0000 C   0  0  0  0  0  0  0  0  0  0  0  0
    1.4695    4.7571    0.0000 C   0  0  0  0  0  0  0  0  0  0  0  0
    2.3528    6.2470    0.0000 C   0  0  0  0  0  0  0  0  0  0  0  0
    0.6093    5.2671    0.0000 C   0  0  0  0  0  0  0  0  0  0  0  0
    1.4926    6.7569    0.0000 C   0  0  0  0  0  0  0  0  0  0  0  0
    8.6179    9.1578    0.0000 C   0  0  0  0  0  0  0  0  0  0  0  0
   10.2991    3.0625    0.0000 C   0  0  0  0  0  0  0  0  0  0  0  0
 14  2  1  1
  2 33  1  0
 28  3  1  6
  4 36  1  0
  4 37  1  0
  5 33  2  0
 13  6  1  1
  6 26  1  0
  6 27  1  0
  6 29  1  0
 24  7  1  1
  7 34  1  0
  7 35  1  0
  8  9  1  0
  8 10  1  0
  8 15  1  1
  9 14  1  0
  9 16  1  0
  9 22  1  1
 10 11  1  0
 10 19  1  6
 11 12  1  0
 11 18  1  1
 12 17  1  0
 12 21  1  0
 12 25  1  1
 13 14  1  0
 13 15  1  0
 16 18  1  0
 17 20  1  1
 17 23  1  0
 19 20  1  0
 21 24  1  0
 23 28  1  0
 24 28  1  0
 26 30  1  0
 27 31  1  0
 29 32  1  0
 30 31  1  0
 32 39  2  0
 33 38  1  0
 34 36  1  0
 35 37  1  0
M  CHG  2   1  -1   6   1
M  END
>  <PUBCHEM_COMPOUND_CID>  (1) 
441351

>  <PUBCHEM_COMPOUND_CANONICALIZED>  (1) 
1

>  <PUBCHEM_CACTVS_COMPLEXITY>  (1) 
898

>  <PUBCHEM_CACTVS_HBOND_ACCEPTOR>  (1) 
6

>  <PUBCHEM_CACTVS_HBOND_DONOR>  (1) 
1

>  <PUBCHEM_CACTVS_ROTATABLE_BOND>  (1) 
6

>  <PUBCHEM_CACTVS_SUBSKEYS>  (1) 
AAADcfB/OAAAEAAAAAAAAAAAAAAAAeIAAAA8YMEAAAAAAGDAAAAAHgAACAAADzzhgAYCCAMABgCIACDSCACAAAAAAAAIAAAIAAACEAIAgQAHQAAEAACQAAGQ0PIPgAAAAAAAAADQAAaAACAgAKAADAgAAA==

>  <PUBCHEM_IUPAC_OPENEYE_NAME>  (1) 
[(2S,3S,5S,8R,9S,10S,13S,14S,16S,17R)-16-(1-allylpyrrolidin-1-ium-1-yl)-3-hydroxy-10,13-dimethyl-2-morpholino-2,3,4,5,6,7,8,9,11,12,14,15,16,17-tetradecahydro-1H-cyclopenta[a]phenanthren-17-yl] acetate;bromide

>  <PUBCHEM_IUPAC_CAS_NAME>  (1) 
acetic acid [(2S,3S,5S,8R,9S,10S,13S,14S,16S,17R)-3-hydroxy-10,13-dimethyl-2-(4-morpholinyl)-16-(1-prop-2-enyl-1-pyrrolidin-1-iumyl)-2,3,4,5,6,7,8,9,11,12,14,15,16,17-tetradecahydro-1H-cyclopenta[a]phenanthren-17-yl] ester;bromide

>  <PUBCHEM_IUPAC_NAME_MARKUP>  (1) 
[(2<I>S</I>,3<I>S</I>,5<I>S</I>,8<I>R</I>,9<I>S</I>,10<I>S</I>,13<I>S</I>,14<I>S</I>,16<I>S</I>,17<I>R</I>)-3-hydroxy-10,13-dimethyl-2-morpholin-4-yl-16-(1-prop-2-enylpyrrolidin-1-ium-1-yl)-2,3,4,5,6,7,8,9,11,12,14,15,16,17-tetradecahydro-1<I>H</I>-cyclopenta[a]phenanthren-17-yl] acetate;bromide

>  <PUBCHEM_IUPAC_NAME>  (1) 
[(2S,3S,5S,8R,9S,10S,13S,14S,16S,17R)-3-hydroxy-10,13-dimethyl-2-morpholin-4-yl-16-(1-prop-2-enylpyrrolidin-1-ium-1-yl)-2,3,4,5,6,7,8,9,11,12,14,15,16,17-tetradecahydro-1H-cyclopenta[a]phenanthren-17-yl] acetate;bromide

>  <PUBCHEM_IUPAC_SYSTEMATIC_NAME>  (1) 
[(2S,3S,5S,8R,9S,10S,13S,14S,16S,17R)-10,13-dimethyl-2-morpholin-4-yl-3-oxidanyl-16-(1-prop-2-enylpyrrolidin-1-ium-1-yl)-2,3,4,5,6,7,8,9,11,12,14,15,16,17-tetradecahydro-1H-cyclopenta[a]phenanthren-17-yl] ethanoate;bromide

>  <PUBCHEM_IUPAC_TRADITIONAL_NAME>  (1) 
acetic acid [(2S,3S,5S,8R,9S,10S,13S,14S,16S,17R)-16-(1-allylpyrrolidin-1-ium-1-yl)-3-hydroxy-10,13-dimethyl-2-morpholino-2,3,4,5,6,7,8,9,11,12,14,15,16,17-tetradecahydro-1H-cyclopenta[a]phenanthren-17-yl] ester;bromide

>  <PUBCHEM_IUPAC_INCHI>  (1) 
InChI=1S/C32H53N2O4.BrH/c1-5-14-34(15-6-7-16-34)28-20-26-24-9-8-23-19-29(36)27(33-12-17-37-18-13-33)21-32(23,4)25(24)10-11-31(26,3)30(28)38-22(2)35;/h5,23-30,36H,1,6-21H2,2-4H3;1H/q+1;/p-1/t23-,24+,25-,26-,27-,28-,29-,30-,31-,32-;/m0./s1

>  <PUBCHEM_IUPAC_INCHIKEY>  (1) 
OYTJKRAYGYRUJK-FMCCZJBLSA-M

>  <PUBCHEM_EXACT_MASS>  (1) 
608.31887

>  <PUBCHEM_MOLECULAR_FORMULA>  (1) 
C32H53BrN2O4

>  <PUBCHEM_MOLECULAR_WEIGHT>  (1) 
609.7

>  <PUBCHEM_OPENEYE_CAN_SMILES>  (1) 
CC(=O)OC1C(CC2C1(CCC3C2CCC4C3(CC(C(C4)O)N5CCOCC5)C)C)[N+]6(CCCC6)CC=C.[Br-]

>  <PUBCHEM_OPENEYE_ISO_SMILES>  (1) 
CC(=O)O[C@H]1[C@H](C[C@@H]2[C@@]1(CC[C@H]3[C@H]2CC[C@@H]4[C@@]3(C[C@@H]([C@H](C4)O)N5CCOCC5)C)C)[N+]6(CCCC6)CC=C.[Br-]

>  <PUBCHEM_CACTVS_TPSA>  (1) 
59

>  <PUBCHEM_MONOISOTOPIC_WEIGHT>  (1) 
608.31887

>  <PUBCHEM_TOTAL_CHARGE>  (1) 
0

>  <PUBCHEM_HEAVY_ATOM_COUNT>  (1) 
39

>  <PUBCHEM_ATOM_DEF_STEREO_COUNT>  (1) 
10

>  <PUBCHEM_ATOM_UDEF_STEREO_COUNT>  (1) 
0

>  <PUBCHEM_BOND_DEF_STEREO_COUNT>  (1) 
0

>  <PUBCHEM_BOND_UDEF_STEREO_COUNT>  (1) 
0

>  <PUBCHEM_ISOTOPIC_ATOM_COUNT>  (1) 
0

>  <PUBCHEM_COMPONENT_COUNT>  (1) 
2

>  <PUBCHEM_CACTVS_TAUTO_COUNT>  (1) 
-1

>  <PUBCHEM_COORDINATE_TYPE>  (1) 
1
5
255

>  <PUBCHEM_BONDANNOTATIONS>  (1) 
10  41  5
11  42  6
12  25  5
13  43  6
17  49  6
14  2  5
28  3  6
24  7  5
8  40  6
9  22  5

$$$$
