16052011
     RDKit          2D

 95 99  0  0  1  0  0  0  0  0999 V2000
   14.1183    6.8305    0.0000 O   0  0  0  0  0  0  0  0  0  0  0  0
   15.4732    6.9706    0.0000 O   0  0  0  0  0  0  0  0  0  0  0  0
   10.8721    5.2614    0.0000 O   0  0  0  0  0  0  0  0  0  0  0  0
   12.1148    9.0634    0.0000 O   0  0  0  0  0  0  0  0  0  0  0  0
    9.1793    8.4448    0.0000 O   0  0  0  0  0  0  0  0  0  0  0  0
   18.9717    6.0985    0.0000 O   0  0  0  0  0  0  0  0  0  0  0  0
   11.0898   11.5026    0.0000 O   0  0  0  0  0  0  0  0  0  0  0  0
    2.5008   15.8878    0.0000 O   0  0  0  0  0  0  0  0  0  0  0  0
    1.3853   20.0566    0.0000 O   0  0  0  0  0  0  0  0  0  0  0  0
    3.1687   15.1435    0.0000 O   0  0  0  0  0  0  0  0  0  0  0  0
    4.8616   11.9601    0.0000 O   0  0  0  0  0  0  0  0  0  0  0  0
    8.1077   13.5292    0.0000 O   0  0  0  0  0  0  0  0  0  0  0  0
    7.1758   10.6777    0.0000 O   0  0  0  0  0  0  0  0  0  0  0  0
   13.6681   13.8160    0.0000 O   0  0  0  0  0  0  0  0  0  0  0  0
   10.6634   23.5561    0.0000 O   0  0  0  0  0  0  0  0  0  0  0  0
    9.7974   22.0561    0.0000 O   0  0  0  0  0  0  0  0  0  0  0  0
   14.4755    5.1357    0.0000 N   0  0  0  0  0  0  0  0  0  0  0  0
   12.1613    6.4181    0.0000 N   0  0  0  0  0  0  0  0  0  0  0  0
   16.9717    6.1019    0.0000 N   0  0  0  0  0  0  0  0  0  0  0  0
   10.8256    7.9067    0.0000 N   0  0  0  0  0  0  0  0  0  0  0  0
   17.4732    6.9671    0.0000 N   0  0  0  0  0  0  0  0  0  0  0  0
   13.5435    2.2841    0.0000 N   0  0  0  0  0  0  0  0  0  0  0  0
    9.8006   10.3458    0.0000 N   0  0  0  0  0  0  0  0  0  0  0  0
   18.9747    7.8305    0.0000 N   0  0  0  0  0  0  0  0  0  0  0  0
    2.3533   18.5604    0.0000 N   0  0  0  0  0  0  0  0  0  0  0  0
    8.4649   11.8344    0.0000 N   0  0  0  0  0  0  0  0  0  0  0  0
    3.7900   17.0445    0.0000 N   0  0  0  0  0  0  0  0  0  0  0  0
    4.8150   14.6054    0.0000 N   0  0  0  0  0  0  0  0  0  0  0  0
   13.9007    0.5893    0.0000 N   0  0  0  0  0  0  0  0  0  0  0  0
   12.2544    1.1274    0.0000 N   0  0  0  0  0  0  0  0  0  0  0  0
    6.1507   13.1168    0.0000 N   0  0  0  0  0  0  0  0  0  0  0  0
    3.2152   10.8887    0.0000 N   0  0  0  0  0  0  0  0  0  0  0  0
    6.6986   17.7643    0.0000 N   0  0  0  0  0  0  0  0  0  0  0  0
    5.7498   19.0750    0.0000 N   0  0  0  0  0  0  0  0  0  0  0  0
   15.4702    5.2385    0.0000 C   0  0  0  0  0  0  0  0  0  0  0  0
   15.8754    4.3243    0.0000 C   0  0  0  0  0  0  0  0  0  0  0  0
   15.1311    3.6564    0.0000 C   0  0  0  0  0  0  0  0  0  0  0  0
   14.2659    4.1579    0.0000 C   0  0  0  0  0  0  0  0  0  0  0  0
   13.8077    5.8800    0.0000 C   0  0  0  0  0  0  0  0  0  0  0  0
   12.8292    5.6738    0.0000 C   0  0  0  0  0  0  0  0  0  0  0  0
   15.9717    6.1037    0.0000 C   0  0  0  0  0  0  0  0  0  0  0  0
   12.5185    4.7233    0.0000 C   0  0  0  0  0  0  0  0  0  0  0  0
   13.1863    3.9790    0.0000 C   0  0  0  0  0  0  0  0  0  0  0  0
   10.5150    6.9562    0.0000 C   0  0  0  0  0  0  0  0  0  0  0  0
   11.1828    6.2119    0.0000 C   0  0  0  0  0  0  0  0  0  0  0  0
    9.5365    6.7500    0.0000 C   0  0  0  0  0  0  0  0  0  0  0  0
    9.2258    5.7994    0.0000 C   0  0  0  0  0  0  0  0  0  0  0  0
   12.8757    3.0284    0.0000 C   0  0  0  0  0  0  0  0  0  0  0  0
    8.2473    5.5932    0.0000 C   0  0  0  0  0  0  0  0  0  0  0  0
    9.8936    5.0551    0.0000 C   0  0  0  0  0  0  0  0  0  0  0  0
   10.1578    8.6510    0.0000 C   0  0  0  0  0  0  0  0  0  0  0  0
   10.4684    9.6015    0.0000 C   0  0  0  0  0  0  0  0  0  0  0  0
   11.4470    9.8077    0.0000 C   0  0  0  0  0  0  0  0  0  0  0  0
   18.4732    6.9654    0.0000 C   0  0  0  0  0  0  0  0  0  0  0  0
   13.0933    9.2696    0.0000 C   0  0  0  0  0  0  0  0  0  0  0  0
    9.4434   12.0406    0.0000 C   0  0  0  0  0  0  0  0  0  0  0  0
   13.2329    1.3336    0.0000 C   0  0  0  0  0  0  0  0  0  0  0  0
   10.1113   11.2963    0.0000 C   0  0  0  0  0  0  0  0  0  0  0  0
    2.1437   17.5826    0.0000 C   0  0  0  0  0  0  0  0  0  0  0  0
    1.1490   17.4798    0.0000 C   0  0  0  0  0  0  0  0  0  0  0  0
    4.4579   16.3002    0.0000 C   0  0  0  0  0  0  0  0  0  0  0  0
    4.5044   13.6549    0.0000 C   0  0  0  0  0  0  0  0  0  0  0  0
    0.7438   18.3941    0.0000 C   0  0  0  0  0  0  0  0  0  0  0  0
    9.7541   12.9912    0.0000 C   0  0  0  0  0  0  0  0  0  0  0  0
    3.5259   13.4487    0.0000 C   0  0  0  0  0  0  0  0  0  0  0  0
    2.8115   16.8383    0.0000 C   0  0  0  0  0  0  0  0  0  0  0  0
   14.0718    9.4759    0.0000 C   0  0  0  0  0  0  0  0  0  0  0  0
   13.2995    8.2912    0.0000 C   0  0  0  0  0  0  0  0  0  0  0  0
   12.8871   10.2482    0.0000 C   0  0  0  0  0  0  0  0  0  0  0  0
    1.4881   19.0619    0.0000 C   0  0  0  0  0  0  0  0  0  0  0  0
    6.8186   12.3725    0.0000 C   0  0  0  0  0  0  0  0  0  0  0  0
    5.4364   16.5064    0.0000 C   0  0  0  0  0  0  0  0  0  0  0  0
    4.1472   15.3497    0.0000 C   0  0  0  0  0  0  0  0  0  0  0  0
    3.2152   12.4981    0.0000 C   0  0  0  0  0  0  0  0  0  0  0  0
    5.1722   12.9106    0.0000 C   0  0  0  0  0  0  0  0  0  0  0  0
    7.7971   12.5787    0.0000 C   0  0  0  0  0  0  0  0  0  0  0  0
   10.7326   13.1974    0.0000 C   0  0  0  0  0  0  0  0  0  0  0  0
    2.2690   12.1934    0.0000 C   0  0  0  0  0  0  0  0  0  0  0  0
    5.7470   17.4570    0.0000 C   0  0  0  0  0  0  0  0  0  0  0  0
    6.5079   11.4220    0.0000 C   0  0  0  0  0  0  0  0  0  0  0  0
    3.7988   11.6934    0.0000 C   0  0  0  0  0  0  0  0  0  0  0  0
    2.2690   11.1934    0.0000 C   0  0  0  0  0  0  0  0  0  0  0  0
   11.0433   14.1479    0.0000 C   0  0  0  0  0  0  0  0  0  0  0  0
   11.4004   12.4531    0.0000 C   0  0  0  0  0  0  0  0  0  0  0  0
    1.4030   12.6934    0.0000 C   0  0  0  0  0  0  0  0  0  0  0  0
    1.4030   10.6934    0.0000 C   0  0  0  0  0  0  0  0  0  0  0  0
    5.1606   18.2670    0.0000 C   0  0  0  0  0  0  0  0  0  0  0  0
    0.5369   12.1934    0.0000 C   0  0  0  0  0  0  0  0  0  0  0  0
    0.5369   11.1934    0.0000 C   0  0  0  0  0  0  0  0  0  0  0  0
   12.0218   14.3541    0.0000 C   0  0  0  0  0  0  0  0  0  0  0  0
   12.3789   12.6593    0.0000 C   0  0  0  0  0  0  0  0  0  0  0  0
    6.7003   18.7643    0.0000 C   0  0  0  0  0  0  0  0  0  0  0  0
   12.6896   13.6098    0.0000 C   0  0  0  0  0  0  0  0  0  0  0  0
    8.9313   23.5561    0.0000 C   0  0  0  0  0  0  0  0  0  0  0  0
    9.7974   23.0561    0.0000 C   0  0  0  0  0  0  0  0  0  0  0  0
  1 39  2  0
  2 41  2  0
  3 45  2  0
  4 53  1  0
  4 55  1  0
  5 51  2  0
  6 54  2  0
  7 58  2  0
  8 66  2  0
  9 70  2  0
 10 73  2  0
 11 75  2  0
 12 76  2  0
 13 80  1  0
 14 93  1  0
 15 95  1  0
 16 95  2  0
 17 35  1  0
 17 38  1  0
 17 39  1  0
 40 18  1  0
 18 45  1  0
 19 21  1  0
 19 41  1  0
 44 20  1  0
 20 51  1  0
 21 54  1  0
 22 48  1  0
 22 57  2  0
 52 23  1  0
 23 58  1  0
 24 54  1  0
 25 59  1  0
 25 70  1  0
 56 26  1  0
 26 76  1  0
 61 27  1  0
 27 66  1  0
 62 28  1  0
 28 73  1  0
 29 57  1  0
 30 57  1  0
 71 31  1  0
 31 75  1  0
 32 81  1  0
 32 82  1  0
 33 79  1  0
 33 92  1  0
 34 87  1  0
 34 92  2  0
 35 36  1  0
 35 41  1  6
 36 37  1  0
 37 38  1  0
 39 40  1  0
 40 42  1  6
 42 43  1  0
 43 48  1  0
 44 45  1  0
 44 46  1  6
 46 47  1  0
 47 49  1  0
 47 50  1  0
 51 52  1  0
 52 53  1  6
 55 67  1  0
 55 68  1  0
 55 69  1  0
 56 58  1  0
 56 64  1  1
 59 60  1  0
 59 66  1  6
 60 63  1  0
 61 72  1  1
 61 73  1  0
 62 65  1  6
 62 75  1  0
 63 70  1  0
 64 77  1  0
 65 74  1  0
 71 76  1  0
 71 80  1  6
 72 79  1  0
 74 78  1  0
 74 81  2  0
 77 83  2  0
 77 84  1  0
 78 82  2  0
 78 85  1  0
 79 87  2  0
 82 86  1  0
 83 90  1  0
 84 91  2  0
 85 88  2  0
 86 89  2  0
 88 89  1  0
 90 93  2  0
 91 93  1  0
 94 95  1  0
M  END
>  <PUBCHEM_COMPOUND_CID>  (1) 
16052011

>  <PUBCHEM_COMPOUND_CANONICALIZED>  (1) 
1

>  <PUBCHEM_CACTVS_COMPLEXITY>  (1) 
2590

>  <PUBCHEM_CACTVS_HBOND_ACCEPTOR>  (1) 
18

>  <PUBCHEM_CACTVS_HBOND_DONOR>  (1) 
18

>  <PUBCHEM_CACTVS_ROTATABLE_BOND>  (1) 
32

>  <PUBCHEM_CACTVS_SUBSKEYS>  (1) 
AAADcfB//gAAAAAAAAAAAAAAAAAAAWLFiwAwYAAAAAAAAFgB/AAAHgAYCAAADWzhngY/3vfrlgCoAzX3fACCgC2xMqIf+aG+fJiKfvbC2bOXcAh+9hPY2Cecy+COoAAAAAACAABAAAAAAAQAAAAAAAAAAA==

>  <PUBCHEM_IUPAC_OPENEYE_NAME>  (1) 
acetic acid;(2S)-N-[(1S)-2-[[(1S)-2-[[(1S)-2-[[(1S)-2-[[(1R)-1-(tert-butoxymethyl)-2-[[(1S)-1-[[(1S)-4-guanidino-1-[(2S)-2-(ureidocarbamoyl)pyrrolidine-1-carbonyl]butyl]carbamoyl]-3-methyl-butyl]amino]-2-oxo-ethyl]amino]-1-[(4-hydroxyphenyl)methyl]-2-oxo-ethyl]amino]-1-(hydroxymethyl)-2-oxo-ethyl]amino]-1-(1H-indol-3-ylmethyl)-2-oxo-ethyl]amino]-1-(1H-imidazol-5-ylmethyl)-2-oxo-ethyl]-5-oxo-pyrrolidine-2-carboxamide

>  <PUBCHEM_IUPAC_CAS_NAME>  (1) 
acetic acid;(2S)-N-[(2S)-1-[[(2S)-1-[[(2S)-1-[[(2S)-1-[[(2R)-1-[[(2S)-1-[[(2S)-1-[(2S)-2-[(carbamoylhydrazo)-oxomethyl]-1-pyrrolidinyl]-5-(diaminomethylideneamino)-1-oxopentan-2-yl]amino]-4-methyl-1-oxopentan-2-yl]amino]-3-[(2-methylpropan-2-yl)oxy]-1-oxopropan-2-yl]amino]-3-(4-hydroxyphenyl)-1-oxopropan-2-yl]amino]-3-hydroxy-1-oxopropan-2-yl]amino]-3-(1H-indol-3-yl)-1-oxopropan-2-yl]amino]-3-(1H-imidazol-5-yl)-1-oxopropan-2-yl]-5-oxo-2-pyrrolidinecarboxamide

>  <PUBCHEM_IUPAC_NAME_MARKUP>  (1) 
acetic acid;(2<I>S</I>)-<I>N</I>-[(2<I>S</I>)-1-[[(2<I>S</I>)-1-[[(2<I>S</I>)-1-[[(2<I>S</I>)-1-[[(2<I>R</I>)-1-[[(2<I>S</I>)-1-[[(2<I>S</I>)-1-[(2<I>S</I>)-2-[(carbamoylamino)carbamoyl]pyrrolidin-1-yl]-5-(diaminomethylideneamino)-1-oxopentan-2-yl]amino]-4-methyl-1-oxopentan-2-yl]amino]-3-[(2-methylpropan-2-yl)oxy]-1-oxopropan-2-yl]amino]-3-(4-hydroxyphenyl)-1-oxopropan-2-yl]amino]-3-hydroxy-1-oxopropan-2-yl]amino]-3-(1<I>H</I>-indol-3-yl)-1-oxopropan-2-yl]amino]-3-(1<I>H</I>-imidazol-5-yl)-1-oxopropan-2-yl]-5-oxopyrrolidine-2-carboxamide

>  <PUBCHEM_IUPAC_NAME>  (1) 
acetic acid;(2S)-N-[(2S)-1-[[(2S)-1-[[(2S)-1-[[(2S)-1-[[(2R)-1-[[(2S)-1-[[(2S)-1-[(2S)-2-[(carbamoylamino)carbamoyl]pyrrolidin-1-yl]-5-(diaminomethylideneamino)-1-oxopentan-2-yl]amino]-4-methyl-1-oxopentan-2-yl]amino]-3-[(2-methylpropan-2-yl)oxy]-1-oxopropan-2-yl]amino]-3-(4-hydroxyphenyl)-1-oxopropan-2-yl]amino]-3-hydroxy-1-oxopropan-2-yl]amino]-3-(1H-indol-3-yl)-1-oxopropan-2-yl]amino]-3-(1H-imidazol-5-yl)-1-oxopropan-2-yl]-5-oxopyrrolidine-2-carboxamide

>  <PUBCHEM_IUPAC_SYSTEMATIC_NAME>  (1) 
(2S)-N-[(2S)-1-[[(2S)-1-[[(2S)-1-[[(2S)-1-[[(2R)-1-[[(2S)-1-[[(2S)-1-[(2S)-2-[(aminocarbonylamino)carbamoyl]pyrrolidin-1-yl]-5-[bis(azanyl)methylideneamino]-1-oxidanylidene-pentan-2-yl]amino]-4-methyl-1-oxidanylidene-pentan-2-yl]amino]-3-[(2-methylpropan-2-yl)oxy]-1-oxidanylidene-propan-2-yl]amino]-3-(4-hydroxyphenyl)-1-oxidanylidene-propan-2-yl]amino]-3-oxidanyl-1-oxidanylidene-propan-2-yl]amino]-3-(1H-indol-3-yl)-1-oxidanylidene-propan-2-yl]amino]-3-(1H-imidazol-5-yl)-1-oxidanylidene-propan-2-yl]-5-oxidanylidene-pyrrolidine-2-carboxamide;ethanoic acid

>  <PUBCHEM_IUPAC_TRADITIONAL_NAME>  (1) 
acetic acid;(2S)-N-[(1S)-2-[[(1S)-2-[[(1S)-2-[[(1S)-2-[[(1R)-1-(tert-butoxymethyl)-2-[[(1S)-1-[[(1S)-4-guanidino-1-[(2S)-2-(ureidocarbamoyl)pyrrolidine-1-carbonyl]butyl]carbamoyl]-3-methyl-butyl]amino]-2-keto-ethyl]amino]-1-(4-hydroxybenzyl)-2-keto-ethyl]amino]-2-keto-1-methylol-ethyl]amino]-1-(1H-indol-3-ylmethyl)-2-keto-ethyl]amino]-1-(1H-imidazol-5-ylmethyl)-2-keto-ethyl]-5-keto-pyrrolidine-2-carboxamide

>  <PUBCHEM_IUPAC_INCHI>  (1) 
InChI=1S/C59H84N18O14.C2H4O2/c1-31(2)22-40(49(82)68-39(12-8-20-64-57(60)61)56(89)77-21-9-13-46(77)55(88)75-76-58(62)90)69-54(87)45(29-91-59(3,4)5)74-50(83)41(23-32-14-16-35(79)17-15-32)70-53(86)44(28-78)73-51(84)42(24-33-26-65-37-11-7-6-10-36(33)37)71-52(85)43(25-34-27-63-30-66-34)72-48(81)38-18-19-47(80)67-38;1-2(3)4/h6-7,10-11,14-17,26-27,30-31,38-46,65,78-79H,8-9,12-13,18-25,28-29H2,1-5H3,(H,63,66)(H,67,80)(H,68,82)(H,69,87)(H,70,86)(H,71,85)(H,72,81)(H,73,84)(H,74,83)(H,75,88)(H4,60,61,64)(H3,62,76,90);1H3,(H,3,4)/t38-,39-,40-,41-,42-,43-,44-,45+,46-;/m0./s1

>  <PUBCHEM_IUPAC_INCHIKEY>  (1) 
IKDXDQDKCZPQSZ-JHYYTBFNSA-N

>  <PUBCHEM_EXACT_MASS>  (1) 
1328.66256879

>  <PUBCHEM_MOLECULAR_FORMULA>  (1) 
C61H88N18O16

>  <PUBCHEM_MOLECULAR_WEIGHT>  (1) 
1329.5

>  <PUBCHEM_OPENEYE_CAN_SMILES>  (1) 
CC(C)CC(C(=O)NC(CCCN=C(N)N)C(=O)N1CCCC1C(=O)NNC(=O)N)NC(=O)C(COC(C)(C)C)NC(=O)C(CC2=CC=C(C=C2)O)NC(=O)C(CO)NC(=O)C(CC3=CNC4=CC=CC=C43)NC(=O)C(CC5=CN=CN5)NC(=O)C6CCC(=O)N6.CC(=O)O

>  <PUBCHEM_OPENEYE_ISO_SMILES>  (1) 
CC(C)C[C@@H](C(=O)N[C@@H](CCCN=C(N)N)C(=O)N1CCC[C@H]1C(=O)NNC(=O)N)NC(=O)[C@@H](COC(C)(C)C)NC(=O)[C@H](CC2=CC=C(C=C2)O)NC(=O)[C@H](CO)NC(=O)[C@H](CC3=CNC4=CC=CC=C43)NC(=O)[C@H](CC5=CN=CN5)NC(=O)[C@@H]6CCC(=O)N6.CC(=O)O

>  <PUBCHEM_CACTVS_TPSA>  (1) 
533

>  <PUBCHEM_MONOISOTOPIC_WEIGHT>  (1) 
1328.66256879

>  <PUBCHEM_TOTAL_CHARGE>  (1) 
0

>  <PUBCHEM_HEAVY_ATOM_COUNT>  (1) 
95

>  <PUBCHEM_ATOM_DEF_STEREO_COUNT>  (1) 
9

>  <PUBCHEM_ATOM_UDEF_STEREO_COUNT>  (1) 
0

>  <PUBCHEM_BOND_DEF_STEREO_COUNT>  (1) 
0

>  <PUBCHEM_BOND_UDEF_STEREO_COUNT>  (1) 
0

>  <PUBCHEM_ISOTOPIC_ATOM_COUNT>  (1) 
0

>  <PUBCHEM_COMPONENT_COUNT>  (1) 
2

>  <PUBCHEM_CACTVS_TAUTO_COUNT>  (1) 
-1

>  <PUBCHEM_COORDINATE_TYPE>  (1) 
1
5
255

>  <PUBCHEM_BONDANNOTATIONS>  (1) 
40  18  6
44  20  6
52  23  6
56  26  5
61  27  5
62  28  6
71  31  6
32  81  8
32  82  8
33  79  8
33  92  8
34  87  8
34  92  8
35  41  6
59  66  6
74  78  8
74  81  8
77  83  8
77  84  8
78  82  8
78  85  8
79  87  8
82  86  8
83  90  8
84  91  8
85  88  8
86  89  8
88  89  8
90  93  8
91  93  8

$$$$
