SA8_0002
  -OEChem-07172407062D

 71 73  0     1  0  0  0  0  0999 V2000
    5.2619    2.6401    0.0000 P   0  0  0  0  0  0  0  0  0  0  0  0
   11.4255    1.1355    0.0000 O   0  0  0  0  0  0  0  0  0  0  0  0
    8.2619    2.6401    0.0000 O   0  0  0  0  0  0  0  0  0  0  0  0
    9.2619   -0.8240    0.0000 O   0  0  0  0  0  0  0  0  0  0  0  0
    6.2619    2.6401    0.0000 O   0  0  0  0  0  0  0  0  0  0  0  0
    6.7619   -3.4221    0.0000 O   0  0  0  0  0  0  0  0  0  0  0  0
    2.8660   -0.5560    0.0000 O   0  0  0  0  0  0  0  0  0  0  0  0
    4.2619    2.6401    0.0000 O   0  0  0  0  0  0  0  0  0  0  0  0
    5.2619    3.6401    0.0000 O   0  0  0  0  0  0  0  0  0  0  0  0
    5.2619    1.6401    0.0000 O   0  0  0  0  0  0  0  0  0  0  0  0
   10.9643    2.8568    0.0000 N   0  0  0  0  0  0  0  0  0  0  0  0
    7.7619    0.0420    0.0000 N   0  0  0  0  0  0  0  0  0  0  0  0
    6.7619   -1.6900    0.0000 N   0  0  0  0  0  0  0  0  0  0  0  0
    4.6783   -3.3608    0.0000 N   0  0  0  0  0  0  0  0  0  0  0  0
    9.7619    1.7741    0.0000 C   0  0  2  0  0  0  0  0  0  0  0  0
    9.2619    0.9081    0.0000 C   0  0  0  0  0  0  0  0  0  0  0  0
    9.3551    2.6876    0.0000 C   0  0  0  0  0  0  0  0  0  0  0  0
    8.2619    0.9081    0.0000 C   0  0  1  0  0  0  0  0  0  0  0  0
   10.0983    3.3568    0.0000 C   0  0  0  0  0  0  0  0  0  0  0  0
   10.7564    1.8786    0.0000 C   0  0  0  0  0  0  0  0  0  0  0  0
    7.7619   -1.6900    0.0000 C   0  0  1  0  0  0  0  0  0  0  0  0
    8.2619   -2.5560    0.0000 C   0  0  0  0  0  0  0  0  0  0  0  0
    7.7619    1.7741    0.0000 C   0  0  0  0  0  0  0  0  0  0  0  0
    8.2619   -0.8240    0.0000 C   0  0  0  0  0  0  0  0  0  0  0  0
    9.2619   -2.5560    0.0000 C   0  0  0  0  0  0  0  0  0  0  0  0
    6.7619    1.7741    0.0000 C   0  0  0  0  0  0  0  0  0  0  0  0
    9.7619   -3.4221    0.0000 C   0  0  0  0  0  0  0  0  0  0  0  0
    9.7619   -1.6900    0.0000 C   0  0  0  0  0  0  0  0  0  0  0  0
    6.2619   -2.5560    0.0000 C   0  0  0  0  0  0  0  0  0  0  0  0
    5.2619   -2.5560    0.0000 C   0  0  0  0  0  0  0  0  0  0  0  0
    4.6783   -1.7513    0.0000 C   0  0  0  0  0  0  0  0  0  0  0  0
    3.7320   -2.0560    0.0000 C   0  0  0  0  0  0  0  0  0  0  0  0
    3.7320   -3.0560    0.0000 C   0  0  0  0  0  0  0  0  0  0  0  0
    2.8660   -1.5560    0.0000 C   0  0  0  0  0  0  0  0  0  0  0  0
    2.8660   -3.5560    0.0000 C   0  0  0  0  0  0  0  0  0  0  0  0
    2.0000   -2.0560    0.0000 C   0  0  0  0  0  0  0  0  0  0  0  0
    2.0000   -3.0560    0.0000 C   0  0  0  0  0  0  0  0  0  0  0  0
    2.0000   -0.0560    0.0000 C   0  0  0  0  0  0  0  0  0  0  0  0
   10.0996    1.2541    0.0000 H   0  0  0  0  0  0  0  0  0  0  0  0
    9.1542    0.2975    0.0000 H   0  0  0  0  0  0  0  0  0  0  0  0
    9.8445    0.6960    0.0000 H   0  0  0  0  0  0  0  0  0  0  0  0
    8.9907    3.1892    0.0000 H   0  0  0  0  0  0  0  0  0  0  0  0
    8.8182    2.3776    0.0000 H   0  0  0  0  0  0  0  0  0  0  0  0
    8.5719    0.3711    0.0000 H   0  0  0  0  0  0  0  0  0  0  0  0
   10.4627    3.8583    0.0000 H   0  0  0  0  0  0  0  0  0  0  0  0
    9.6375    3.7716    0.0000 H   0  0  0  0  0  0  0  0  0  0  0  0
   11.5307    3.1089    0.0000 H   0  0  0  0  0  0  0  0  0  0  0  0
    7.1419    0.0420    0.0000 H   0  0  0  0  0  0  0  0  0  0  0  0
    7.4519   -2.2270    0.0000 H   0  0  0  0  0  0  0  0  0  0  0  0
    7.6793   -2.7681    0.0000 H   0  0  0  0  0  0  0  0  0  0  0  0
    8.3695   -3.1666    0.0000 H   0  0  0  0  0  0  0  0  0  0  0  0
    8.9519   -2.0191    0.0000 H   0  0  0  0  0  0  0  0  0  0  0  0
    6.4519   -1.1531    0.0000 H   0  0  0  0  0  0  0  0  0  0  0  0
    6.1793    1.5620    0.0000 H   0  0  0  0  0  0  0  0  0  0  0  0
    6.8695    1.1635    0.0000 H   0  0  0  0  0  0  0  0  0  0  0  0
    9.2249   -3.7321    0.0000 H   0  0  0  0  0  0  0  0  0  0  0  0
   10.0719   -3.9590    0.0000 H   0  0  0  0  0  0  0  0  0  0  0  0
   10.2988   -3.1121    0.0000 H   0  0  0  0  0  0  0  0  0  0  0  0
   10.2988   -2.0000    0.0000 H   0  0  0  0  0  0  0  0  0  0  0  0
   10.0719   -1.1531    0.0000 H   0  0  0  0  0  0  0  0  0  0  0  0
    9.2249   -1.3800    0.0000 H   0  0  0  0  0  0  0  0  0  0  0  0
    4.8709   -1.1620    0.0000 H   0  0  0  0  0  0  0  0  0  0  0  0
    4.8709   -3.9501    0.0000 H   0  0  0  0  0  0  0  0  0  0  0  0
    2.8660   -4.1760    0.0000 H   0  0  0  0  0  0  0  0  0  0  0  0
    1.4631   -1.7460    0.0000 H   0  0  0  0  0  0  0  0  0  0  0  0
    1.4631   -3.3660    0.0000 H   0  0  0  0  0  0  0  0  0  0  0  0
    3.9519    3.1770    0.0000 H   0  0  0  0  0  0  0  0  0  0  0  0
    5.7988    3.9501    0.0000 H   0  0  0  0  0  0  0  0  0  0  0  0
    2.3100    0.4809    0.0000 H   0  0  0  0  0  0  0  0  0  0  0  0
    1.4631    0.2540    0.0000 H   0  0  0  0  0  0  0  0  0  0  0  0
    1.6900   -0.5930    0.0000 H   0  0  0  0  0  0  0  0  0  0  0  0
  1  5  1  0  0  0  0
  1  8  1  0  0  0  0
  1  9  1  0  0  0  0
  1 10  2  0  0  0  0
  2 20  2  0  0  0  0
  3 23  2  0  0  0  0
  4 24  2  0  0  0  0
  5 26  1  0  0  0  0
  6 29  2  0  0  0  0
  7 34  1  0  0  0  0
  7 38  1  0  0  0  0
  8 67  1  0  0  0  0
  9 68  1  0  0  0  0
 11 19  1  0  0  0  0
 11 20  1  0  0  0  0
 11 47  1  0  0  0  0
 18 12  1  6  0  0  0
 12 24  1  0  0  0  0
 12 48  1  0  0  0  0
 21 13  1  6  0  0  0
 13 29  1  0  0  0  0
 13 53  1  0  0  0  0
 14 30  1  0  0  0  0
 14 33  1  0  0  0  0
 14 63  1  0  0  0  0
 15 16  1  6  0  0  0
 15 17  1  0  0  0  0
 15 20  1  0  0  0  0
 15 39  1  0  0  0  0
 16 18  1  0  0  0  0
 16 40  1  0  0  0  0
 16 41  1  0  0  0  0
 17 19  1  0  0  0  0
 17 42  1  0  0  0  0
 17 43  1  0  0  0  0
 18 23  1  0  0  0  0
 18 44  1  0  0  0  0
 19 45  1  0  0  0  0
 19 46  1  0  0  0  0
 21 22  1  0  0  0  0
 21 24  1  0  0  0  0
 21 49  1  0  0  0  0
 22 25  1  0  0  0  0
 22 50  1  0  0  0  0
 22 51  1  0  0  0  0
 23 26  1  0  0  0  0
 25 27  1  0  0  0  0
 25 28  1  0  0  0  0
 25 52  1  0  0  0  0
 26 54  1  0  0  0  0
 26 55  1  0  0  0  0
 27 56  1  0  0  0  0
 27 57  1  0  0  0  0
 27 58  1  0  0  0  0
 28 59  1  0  0  0  0
 28 60  1  0  0  0  0
 28 61  1  0  0  0  0
 29 30  1  0  0  0  0
 30 31  2  0  0  0  0
 31 32  1  0  0  0  0
 31 62  1  0  0  0  0
 32 33  2  0  0  0  0
 32 34  1  0  0  0  0
 33 35  1  0  0  0  0
 34 36  2  0  0  0  0
 35 37  2  0  0  0  0
 35 64  1  0  0  0  0
 36 37  1  0  0  0  0
 36 65  1  0  0  0  0
 37 66  1  0  0  0  0
 38 69  1  0  0  0  0
 38 70  1  0  0  0  0
 38 71  1  0  0  0  0
M  END
> <PUBCHEM_COMPOUND_CID>
154699467

> <PUBCHEM_COMPOUND_CANONICALIZED>
1

> <PUBCHEM_CACTVS_COMPLEXITY>
927

> <PUBCHEM_CACTVS_HBOND_ACCEPTOR>
9

> <PUBCHEM_CACTVS_HBOND_DONOR>
6

> <PUBCHEM_CACTVS_ROTATABLE_BOND>
13

> <PUBCHEM_CACTVS_SUBSKEYS>
AAADcfB7vAIAAAAAAAAAAAAAAAAAAWLAAAAwAAAAAAAAAFgB8AAAHgAQCCAADSzhngYyxvLJlRCoQ6VyVIKCiCAnIiAImaH+bNgMZvLEtbuUMShm1hnI6Ye837P+AAAAAgAKAAAAAAAEABQAAAAAAAAAAA==

> <PUBCHEM_IUPAC_OPENEYE_NAME>
[(3S)-3-[[(2S)-2-[(4-methoxy-1H-indole-2-carbonyl)amino]-4-methyl-pentanoyl]amino]-2-oxo-4-[(3S)-2-oxopyrrolidin-3-yl]butyl] dihydrogen phosphate

> <PUBCHEM_IUPAC_CAS_NAME>
[(3S)-3-[[(2S)-2-[[(4-methoxy-1H-indol-2-yl)-oxomethyl]amino]-4-methyl-1-oxopentyl]amino]-2-oxo-4-[(3S)-2-oxo-3-pyrrolidinyl]butyl] dihydrogen phosphate

> <PUBCHEM_IUPAC_NAME_MARKUP>
[(3<I>S</I>)-3-[[(2<I>S</I>)-2-[(4-methoxy-1<I>H</I>-indole-2-carbonyl)amino]-4-methylpentanoyl]amino]-2-oxo-4-[(3<I>S</I>)-2-oxopyrrolidin-3-yl]butyl] dihydrogen phosphate

> <PUBCHEM_IUPAC_NAME>
[(3S)-3-[[(2S)-2-[(4-methoxy-1H-indole-2-carbonyl)amino]-4-methylpentanoyl]amino]-2-oxo-4-[(3S)-2-oxopyrrolidin-3-yl]butyl] dihydrogen phosphate

> <PUBCHEM_IUPAC_SYSTEMATIC_NAME>
[(3S)-3-[[(2S)-2-[(4-methoxy-1H-indol-2-yl)carbonylamino]-4-methyl-pentanoyl]amino]-2-oxidanylidene-4-[(3S)-2-oxidanylidenepyrrolidin-3-yl]butyl] dihydrogen phosphate

> <PUBCHEM_IUPAC_TRADITIONAL_NAME>
[(3S)-2-keto-4-[(3S)-2-ketopyrrolidin-3-yl]-3-[[(2S)-2-[(4-methoxy-1H-indole-2-carbonyl)amino]-4-methyl-pentanoyl]amino]butyl] dihydrogen phosphate

> <PUBCHEM_IUPAC_INCHI>
InChI=1S/C24H33N4O9P/c1-13(2)9-18(28-24(32)19-11-15-16(26-19)5-4-6-21(15)36-3)23(31)27-17(10-14-7-8-25-22(14)30)20(29)12-37-38(33,34)35/h4-6,11,13-14,17-18,26H,7-10,12H2,1-3H3,(H,25,30)(H,27,31)(H,28,32)(H2,33,34,35)/t14-,17-,18-/m0/s1

> <PUBCHEM_IUPAC_INCHIKEY>
FQKALOFOWPDTED-WBAXXEDZSA-N

> <PUBCHEM_XLOGP3_AA>
0.5

> <PUBCHEM_EXACT_MASS>
552.19851564

> <PUBCHEM_MOLECULAR_FORMULA>
C24H33N4O9P

> <PUBCHEM_MOLECULAR_WEIGHT>
552.5

> <PUBCHEM_OPENEYE_CAN_SMILES>
CC(C)CC(C(=O)NC(CC1CCNC1=O)C(=O)COP(=O)(O)O)NC(=O)C2=CC3=C(N2)C=CC=C3OC

> <PUBCHEM_OPENEYE_ISO_SMILES>
CC(C)C[C@@H](C(=O)N[C@@H](C[C@@H]1CCNC1=O)C(=O)COP(=O)(O)O)NC(=O)C2=CC3=C(N2)C=CC=C3OC

> <PUBCHEM_CACTVS_TPSA>
196

> <PUBCHEM_MONOISOTOPIC_WEIGHT>
552.19851564

> <PUBCHEM_TOTAL_CHARGE>
0

> <PUBCHEM_HEAVY_ATOM_COUNT>
38

> <PUBCHEM_ATOM_DEF_STEREO_COUNT>
3

> <PUBCHEM_ATOM_UDEF_STEREO_COUNT>
0

> <PUBCHEM_BOND_DEF_STEREO_COUNT>
0

> <PUBCHEM_BOND_UDEF_STEREO_COUNT>
0

> <PUBCHEM_ISOTOPIC_ATOM_COUNT>
0

> <PUBCHEM_COMPONENT_COUNT>
1

> <PUBCHEM_CACTVS_TAUTO_COUNT>
-1

> <PUBCHEM_COORDINATE_TYPE>
1
5
255

> <PUBCHEM_BONDANNOTATIONS>
18  12  6
21  13  6
14  30  8
14  33  8
15  16  6
30  31  8
31  32  8
32  33  8
32  34  8
33  35  8
34  36  8
35  37  8
36  37  8

$$$$
