6099
     RDKit          2D

 21 22  0  0  0  0  0  0  0  0999 V2000
    4.6815    0.0000    0.0000 Cl  0  0  0  0  0  0  0  0  0  0  0  0
    4.9362    5.2019    0.0000 S   0  0  0  0  0  0  0  0  0  0  0  0
    8.4663    5.2261    0.0000 N   0  0  0  0  0  0  0  0  0  0  0  0
    1.4061    5.2261    0.0000 N   0  0  0  0  0  0  0  0  0  0  0  0
    4.9362    3.2019    0.0000 N   0  0  0  0  0  0  0  0  0  0  0  0
    5.8022    4.7019    0.0000 C   0  0  0  0  0  0  0  0  0  0  0  0
    4.0702    4.7019    0.0000 C   0  0  0  0  0  0  0  0  0  0  0  0
    5.8022    3.7019    0.0000 C   0  0  0  0  0  0  0  0  0  0  0  0
    4.0702    3.7019    0.0000 C   0  0  0  0  0  0  0  0  0  0  0  0
    7.6022    4.7227    0.0000 C   0  0  0  0  0  0  0  0  0  0  0  0
    2.2702    4.7227    0.0000 C   0  0  0  0  0  0  0  0  0  0  0  0
    6.6962    5.2366    0.0000 C   0  0  0  0  0  0  0  0  0  0  0  0
    3.1762    5.2366    0.0000 C   0  0  0  0  0  0  0  0  0  0  0  0
    6.6962    3.1673    0.0000 C   0  0  0  0  0  0  0  0  0  0  0  0
    3.1762    3.1673    0.0000 C   0  0  0  0  0  0  0  0  0  0  0  0
    7.6022    3.6811    0.0000 C   0  0  0  0  0  0  0  0  0  0  0  0
    2.2702    3.6811    0.0000 C   0  0  0  0  0  0  0  0  0  0  0  0
    9.3343    4.7294    0.0000 C   0  0  0  0  0  0  0  0  0  0  0  0
    8.4625    6.2261    0.0000 C   0  0  0  0  0  0  0  0  0  0  0  0
    0.5381    4.7294    0.0000 C   0  0  0  0  0  0  0  0  0  0  0  0
    1.4099    6.2261    0.0000 C   0  0  0  0  0  0  0  0  0  0  0  0
  2  6  1  0
  2  7  1  0
  3 10  2  0
  3 18  1  0
  3 19  1  0
  4 11  1  0
  4 20  1  0
  4 21  1  0
  5  8  2  0
  5  9  1  0
  6  8  1  0
  6 12  2  0
  7  9  2  0
  7 13  1  0
  8 14  1  0
  9 15  1  0
 10 12  1  0
 10 16  1  0
 11 13  2  0
 11 17  1  0
 14 16  2  0
 15 17  2  0
M  CHG  2   1  -1   3   1
M  END
>  <PUBCHEM_COMPOUND_CID>  (1) 
6099

>  <PUBCHEM_COMPOUND_CANONICALIZED>  (1) 
1

>  <PUBCHEM_CACTVS_COMPLEXITY>  (1) 
483

>  <PUBCHEM_CACTVS_HBOND_ACCEPTOR>  (1) 
4

>  <PUBCHEM_CACTVS_HBOND_DONOR>  (1) 
0

>  <PUBCHEM_CACTVS_ROTATABLE_BOND>  (1) 
1

>  <PUBCHEM_CACTVS_SUBSKEYS>  (1) 
AAADceB7AABEAAAAAAAAAAAAAAAAAAAAAAAwQIAAAAAAAACBAAAAHAQAAAAACAiBUAQywYMAAAigASRiRACCAAAhChAIiBwYZJgIICLgkZGEIAxggABoyAcQAAAAAACAACAAAQAAAQAAQAACAAAAAAAAAA==

>  <PUBCHEM_IUPAC_OPENEYE_NAME>  (1) 
[7-(dimethylamino)phenothiazin-3-ylidene]-dimethyl-ammonium;chloride

>  <PUBCHEM_IUPAC_CAS_NAME>  (1) 
[7-(dimethylamino)-3-phenothiazinylidene]-dimethylammonium;chloride

>  <PUBCHEM_IUPAC_NAME_MARKUP>  (1) 
[7-(dimethylamino)phenothiazin-3-ylidene]-dimethylazanium;chloride

>  <PUBCHEM_IUPAC_NAME>  (1) 
[7-(dimethylamino)phenothiazin-3-ylidene]-dimethylazanium;chloride

>  <PUBCHEM_IUPAC_SYSTEMATIC_NAME>  (1) 
[7-(dimethylamino)phenothiazin-3-ylidene]-dimethyl-azanium;chloride

>  <PUBCHEM_IUPAC_TRADITIONAL_NAME>  (1) 
[7-(dimethylamino)phenothiazin-3-ylidene]-dimethyl-ammonium;chloride

>  <PUBCHEM_IUPAC_INCHI>  (1) 
InChI=1S/C16H18N3S.ClH/c1-18(2)11-5-7-13-15(9-11)20-16-10-12(19(3)4)6-8-14(16)17-13;/h5-10H,1-4H3;1H/q+1;/p-1

>  <PUBCHEM_IUPAC_INCHIKEY>  (1) 
CXKWCBBOMKCUKX-UHFFFAOYSA-M

>  <PUBCHEM_EXACT_MASS>  (1) 
319.0909965

>  <PUBCHEM_MOLECULAR_FORMULA>  (1) 
C16H18ClN3S

>  <PUBCHEM_MOLECULAR_WEIGHT>  (1) 
319.9

>  <PUBCHEM_OPENEYE_CAN_SMILES>  (1) 
CN(C)C1=CC2=C(C=C1)N=C3C=CC(=[N+](C)C)C=C3S2.[Cl-]

>  <PUBCHEM_OPENEYE_ISO_SMILES>  (1) 
CN(C)C1=CC2=C(C=C1)N=C3C=CC(=[N+](C)C)C=C3S2.[Cl-]

>  <PUBCHEM_CACTVS_TPSA>  (1) 
43.9

>  <PUBCHEM_MONOISOTOPIC_WEIGHT>  (1) 
319.0909965

>  <PUBCHEM_TOTAL_CHARGE>  (1) 
0

>  <PUBCHEM_HEAVY_ATOM_COUNT>  (1) 
21

>  <PUBCHEM_ATOM_DEF_STEREO_COUNT>  (1) 
0

>  <PUBCHEM_ATOM_UDEF_STEREO_COUNT>  (1) 
0

>  <PUBCHEM_BOND_DEF_STEREO_COUNT>  (1) 
0

>  <PUBCHEM_BOND_UDEF_STEREO_COUNT>  (1) 
0

>  <PUBCHEM_ISOTOPIC_ATOM_COUNT>  (1) 
0

>  <PUBCHEM_COMPONENT_COUNT>  (1) 
2

>  <PUBCHEM_CACTVS_TAUTO_COUNT>  (1) 
-1

>  <PUBCHEM_COORDINATE_TYPE>  (1) 
1
5
255

>  <PUBCHEM_BONDANNOTATIONS>  (1) 
10  12  8
10  16  8
11  13  8
11  17  8
14  16  8
15  17  8
2  6  8
2  7  8
5  8  8
5  9  8
6  12  8
7  13  8
7  9  8
8  14  8
9  15  8

$$$$
