148192
     RDKit          2D

 51 53  0  0  1  0  0  0  0  0999 V2000
    6.3301   -1.5000    0.0000 O   0  0  0  0  0  0  0  0  0  0  0  0
    5.4641   -2.0000    0.0000 O   0  0  0  0  0  0  0  0  0  0  0  0
    9.7942   -1.5000    0.0000 O   0  0  0  0  0  0  0  0  0  0  0  0
    2.8660   -4.5000    0.0000 O   0  0  0  0  0  0  0  0  0  0  0  0
    7.1962   -5.0000    0.0000 O   0  0  0  0  0  0  0  0  0  0  0  0
    2.0000   -3.0000    0.0000 O   0  0  0  0  0  0  0  0  0  0  0  0
    8.9282   -5.0000    0.0000 O   0  0  0  0  0  0  0  0  0  0  0  0
    4.5981   -0.5000    0.0000 N   0  0  0  0  0  0  0  0  0  0  0  0
    8.0622   -0.5000    0.0000 N   0  0  0  0  0  0  0  0  0  0  0  0
    3.7320   -3.0000    0.0000 N   0  0  0  0  0  0  0  0  0  0  0  0
    8.0622   -1.5000    0.0000 N   0  0  0  0  0  0  0  0  0  0  0  0
    8.0622   -3.5000    0.0000 N   0  0  0  0  0  0  0  0  0  0  0  0
    8.0622    4.5000    0.0000 N   0  0  0  0  0  0  0  0  0  0  0  0
    2.8660   -1.5000    0.0000 C   0  0  0  0  0  0  0  0  0  0  0  0
    5.4641    0.0000    0.0000 C   0  0  0  0  0  0  0  0  0  0  0  0
    3.7320   -2.0000    0.0000 C   0  0  0  0  0  0  0  0  0  0  0  0
    6.3301   -0.5000    0.0000 C   0  0  0  0  0  0  0  0  0  0  0  0
    9.7942   -3.5000    0.0000 C   0  0  0  0  0  0  0  0  0  0  0  0
    7.1962    0.0000    0.0000 C   0  0  0  0  0  0  0  0  0  0  0  0
    8.9282   -3.0000    0.0000 C   0  0  0  0  0  0  0  0  0  0  0  0
    5.4641    1.0000    0.0000 C   0  0  0  0  0  0  0  0  0  0  0  0
    4.5981   -1.5000    0.0000 C   0  0  0  0  0  0  0  0  0  0  0  0
    2.0000   -1.0000    0.0000 C   0  0  0  0  0  0  0  0  0  0  0  0
    2.3660   -2.3660    0.0000 C   0  0  0  0  0  0  0  0  0  0  0  0
    3.3660   -0.6340    0.0000 C   0  0  0  0  0  0  0  0  0  0  0  0
    8.9282   -2.0000    0.0000 C   0  0  0  0  0  0  0  0  0  0  0  0
   10.6603   -4.0000    0.0000 C   0  0  0  0  0  0  0  0  0  0  0  0
    9.2942   -4.3660    0.0000 C   0  0  0  0  0  0  0  0  0  0  0  0
   10.2942   -2.6340    0.0000 C   0  0  0  0  0  0  0  0  0  0  0  0
    8.9282   -0.0000    0.0000 C   0  0  0  0  0  0  0  0  0  0  0  0
    4.5981    1.5000    0.0000 C   0  0  0  0  0  0  0  0  0  0  0  0
    8.9282    1.0000    0.0000 C   0  0  0  0  0  0  0  0  0  0  0  0
    2.8660   -3.5000    0.0000 C   0  0  0  0  0  0  0  0  0  0  0  0
    3.7320    1.0000    0.0000 C   0  0  0  0  0  0  0  0  0  0  0  0
    4.5981    2.5000    0.0000 C   0  0  0  0  0  0  0  0  0  0  0  0
    8.0622   -4.5000    0.0000 C   0  0  0  0  0  0  0  0  0  0  0  0
    9.7942    1.5000    0.0000 C   0  0  0  0  0  0  0  0  0  0  0  0
    8.0622    1.5000    0.0000 C   0  0  0  0  0  0  0  0  0  0  0  0
    2.8660    1.5000    0.0000 C   0  0  0  0  0  0  0  0  0  0  0  0
    3.7320    3.0000    0.0000 C   0  0  0  0  0  0  0  0  0  0  0  0
    2.8660    2.5000    0.0000 C   0  0  0  0  0  0  0  0  0  0  0  0
    9.7942    2.5000    0.0000 C   0  0  0  0  0  0  0  0  0  0  0  0
    8.0622    2.5000    0.0000 C   0  0  0  0  0  0  0  0  0  0  0  0
    8.9282    3.0000    0.0000 C   0  0  0  0  0  0  0  0  0  0  0  0
    2.0000   -5.0000    0.0000 C   0  0  0  0  0  0  0  0  0  0  0  0
    8.9282    4.0000    0.0000 C   0  0  0  0  0  0  0  0  0  0  0  0
    7.1962   -6.0000    0.0000 C   0  0  0  0  0  0  0  0  0  0  0  0
    9.7942    4.5000    0.0000 C   0  0  0  0  0  0  0  0  0  0  0  0
    9.7942    5.5000    0.0000 C   0  0  0  0  0  0  0  0  0  0  0  0
    8.0622    5.5000    0.0000 C   0  0  0  0  0  0  0  0  0  0  0  0
    8.9282    6.0000    0.0000 C   0  0  0  0  0  0  0  0  0  0  0  0
 17  1  1  6
  2 22  2  0
  3 26  2  0
  4 33  1  0
  4 45  1  0
  5 36  1  0
  5 47  1  0
  6 33  2  0
  7 36  2  0
 15  8  1  0
  8 22  1  0
  9 11  1  0
  9 19  1  0
  9 30  1  0
 16 10  1  1
 10 33  1  0
 11 26  1  0
 20 12  1  6
 12 36  1  0
 13 46  2  0
 13 50  1  0
 14 16  1  0
 14 23  1  0
 14 24  1  0
 14 25  1  0
 15 17  1  0
 15 21  1  1
 16 22  1  0
 17 19  1  0
 18 20  1  0
 18 27  1  0
 18 28  1  0
 18 29  1  0
 20 26  1  0
 21 31  1  0
 30 32  1  0
 31 34  2  0
 31 35  1  0
 32 37  2  0
 32 38  1  0
 34 39  1  0
 35 40  2  0
 37 42  1  0
 38 43  2  0
 39 41  2  0
 40 41  1  0
 42 44  2  0
 43 44  1  0
 44 46  1  0
 46 48  1  0
 48 49  2  0
 49 51  1  0
 50 51  2  0
M  END
>  <PUBCHEM_COMPOUND_CID>  (1) 
148192

>  <PUBCHEM_COMPOUND_CANONICALIZED>  (1) 
1

>  <PUBCHEM_CACTVS_COMPLEXITY>  (1) 
1110

>  <PUBCHEM_CACTVS_HBOND_ACCEPTOR>  (1) 
9

>  <PUBCHEM_CACTVS_HBOND_DONOR>  (1) 
5

>  <PUBCHEM_CACTVS_ROTATABLE_BOND>  (1) 
18

>  <PUBCHEM_CACTVS_SUBSKEYS>  (1) 
AAADcfB/uAAAAAAAAAAAAAAAAAAAAAAAAAA8YIAAAAAAAAAB0AAAHgAYCAAADjzhngY+iJLqFgCoAzV3XACCgCAxAiAa+KG4ZJkKcPLA0bGUYAhklgDYyAeQwOAPQAAAAAAAAACAAAAAAAAAAAAAAAAAAA==

>  <PUBCHEM_IUPAC_OPENEYE_NAME>  (1) 
methyl N-[(1S)-1-[[(1S,2S)-1-benzyl-2-hydroxy-3-[[[(2S)-2-(methoxycarbonylamino)-3,3-dimethyl-butanoyl]amino]-[[4-(2-pyridyl)phenyl]methyl]amino]propyl]carbamoyl]-2,2-dimethyl-propyl]carbamate

>  <PUBCHEM_IUPAC_CAS_NAME>  (1) 
N-[(2S)-1-[2-[(2S,3S)-2-hydroxy-3-[[(2S)-2-(methoxycarbonylamino)-3,3-dimethyl-1-oxobutyl]amino]-4-phenylbutyl]-2-[[4-(2-pyridinyl)phenyl]methyl]hydrazinyl]-3,3-dimethyl-1-oxobutan-2-yl]carbamic acid methyl ester

>  <PUBCHEM_IUPAC_NAME_MARKUP>  (1) 
methyl <I>N</I>-[(2<I>S</I>)-1-[2-[(2<I>S</I>,3<I>S</I>)-2-hydroxy-3-[[(2<I>S</I>)-2-(methoxycarbonylamino)-3,3-dimethylbutanoyl]amino]-4-phenylbutyl]-2-[(4-pyridin-2-ylphenyl)methyl]hydrazinyl]-3,3-dimethyl-1-oxobutan-2-yl]carbamate

>  <PUBCHEM_IUPAC_NAME>  (1) 
methyl N-[(2S)-1-[2-[(2S,3S)-2-hydroxy-3-[[(2S)-2-(methoxycarbonylamino)-3,3-dimethylbutanoyl]amino]-4-phenylbutyl]-2-[(4-pyridin-2-ylphenyl)methyl]hydrazinyl]-3,3-dimethyl-1-oxobutan-2-yl]carbamate

>  <PUBCHEM_IUPAC_SYSTEMATIC_NAME>  (1) 
methyl N-[(2S)-1-[2-[(2S,3S)-3-[[(2S)-2-(methoxycarbonylamino)-3,3-dimethyl-butanoyl]amino]-2-oxidanyl-4-phenyl-butyl]-2-[(4-pyridin-2-ylphenyl)methyl]hydrazinyl]-3,3-dimethyl-1-oxidanylidene-butan-2-yl]carbamate

>  <PUBCHEM_IUPAC_TRADITIONAL_NAME>  (1) 
N-[(1S)-1-[[(1S,2S)-1-benzyl-3-[[[(2S)-2-(carbomethoxyamino)-3,3-dimethyl-butanoyl]amino]-[4-(2-pyridyl)benzyl]amino]-2-hydroxy-propyl]carbamoyl]-2,2-dimethyl-propyl]carbamic acid methyl ester

>  <PUBCHEM_IUPAC_INCHI>  (1) 
InChI=1S/C38H52N6O7/c1-37(2,3)31(41-35(48)50-7)33(46)40-29(22-25-14-10-9-11-15-25)30(45)24-44(43-34(47)32(38(4,5)6)42-36(49)51-8)23-26-17-19-27(20-18-26)28-16-12-13-21-39-28/h9-21,29-32,45H,22-24H2,1-8H3,(H,40,46)(H,41,48)(H,42,49)(H,43,47)/t29-,30-,31+,32+/m0/s1

>  <PUBCHEM_IUPAC_INCHIKEY>  (1) 
AXRYRYVKAWYZBR-GASGPIRDSA-N

>  <PUBCHEM_XLOGP3_AA>  (1) 
5.6

>  <PUBCHEM_EXACT_MASS>  (1) 
704.38974802

>  <PUBCHEM_MOLECULAR_FORMULA>  (1) 
C38H52N6O7

>  <PUBCHEM_MOLECULAR_WEIGHT>  (1) 
704.9

>  <PUBCHEM_OPENEYE_CAN_SMILES>  (1) 
CC(C)(C)C(C(=O)NC(CC1=CC=CC=C1)C(CN(CC2=CC=C(C=C2)C3=CC=CC=N3)NC(=O)C(C(C)(C)C)NC(=O)OC)O)NC(=O)OC

>  <PUBCHEM_OPENEYE_ISO_SMILES>  (1) 
CC(C)(C)[C@@H](C(=O)N[C@@H](CC1=CC=CC=C1)[C@H](CN(CC2=CC=C(C=C2)C3=CC=CC=N3)NC(=O)[C@H](C(C)(C)C)NC(=O)OC)O)NC(=O)OC

>  <PUBCHEM_CACTVS_TPSA>  (1) 
171

>  <PUBCHEM_MONOISOTOPIC_WEIGHT>  (1) 
704.38974802

>  <PUBCHEM_TOTAL_CHARGE>  (1) 
0

>  <PUBCHEM_HEAVY_ATOM_COUNT>  (1) 
51

>  <PUBCHEM_ATOM_DEF_STEREO_COUNT>  (1) 
4

>  <PUBCHEM_ATOM_UDEF_STEREO_COUNT>  (1) 
0

>  <PUBCHEM_BOND_DEF_STEREO_COUNT>  (1) 
0

>  <PUBCHEM_BOND_UDEF_STEREO_COUNT>  (1) 
0

>  <PUBCHEM_ISOTOPIC_ATOM_COUNT>  (1) 
0

>  <PUBCHEM_COMPONENT_COUNT>  (1) 
1

>  <PUBCHEM_CACTVS_TAUTO_COUNT>  (1) 
-1

>  <PUBCHEM_COORDINATE_TYPE>  (1) 
1
5
255

>  <PUBCHEM_BONDANNOTATIONS>  (1) 
17  1  6
16  10  5
20  12  6
13  46  8
13  50  8
31  34  8
31  35  8
32  37  8
32  38  8
34  39  8
35  40  8
37  42  8
38  43  8
39  41  8
40  41  8
42  44  8
43  44  8
46  48  8
48  49  8
49  51  8
50  51  8
15  8  5

$$$$
