40692
     RDKit          2D

 26 28  0  0  1  0  0  0  0  0999 V2000
    5.9804   -2.3488    0.0000 F   0  0  0  0  0  0  0  0  0  0  0  0
    7.3464   -1.9827    0.0000 F   0  0  0  0  0  0  0  0  0  0  0  0
    6.9804   -0.6167    0.0000 F   0  0  0  0  0  0  0  0  0  0  0  0
    3.0115   -3.5173    0.0000 F   0  0  0  0  0  0  0  0  0  0  0  0
    2.0000   -2.5289    0.0000 F   0  0  0  0  0  0  0  0  0  0  0  0
    3.9999   -2.5058    0.0000 F   0  0  0  0  0  0  0  0  0  0  0  0
    3.8823    2.0173    0.0000 O   0  0  0  0  0  0  0  0  0  0  0  0
    5.6144    3.0173    0.0000 N   0  0  0  0  0  0  0  0  0  0  0  0
    4.7483   -1.4827    0.0000 N   0  0  0  0  0  0  0  0  0  0  0  0
    5.6144    2.0173    0.0000 C   0  0  0  0  0  0  0  0  0  0  0  0
    6.4804    1.5173    0.0000 C   0  0  0  0  0  0  0  0  0  0  0  0
    4.7483    1.5173    0.0000 C   0  0  0  0  0  0  0  0  0  0  0  0
    7.3464    2.0173    0.0000 C   0  0  0  0  0  0  0  0  0  0  0  0
    7.3464    3.0173    0.0000 C   0  0  0  0  0  0  0  0  0  0  0  0
    6.4804    3.5173    0.0000 C   0  0  0  0  0  0  0  0  0  0  0  0
    4.7483    0.5173    0.0000 C   0  0  0  0  0  0  0  0  0  0  0  0
    3.8823    0.0173    0.0000 C   0  0  0  0  0  0  0  0  0  0  0  0
    5.6144    0.0173    0.0000 C   0  0  0  0  0  0  0  0  0  0  0  0
    3.8823   -0.9827    0.0000 C   0  0  0  0  0  0  0  0  0  0  0  0
    5.6144   -0.9827    0.0000 C   0  0  0  0  0  0  0  0  0  0  0  0
    2.9884    0.5519    0.0000 C   0  0  0  0  0  0  0  0  0  0  0  0
    2.9884   -1.5174    0.0000 C   0  0  0  0  0  0  0  0  0  0  0  0
    2.0823    0.0381    0.0000 C   0  0  0  0  0  0  0  0  0  0  0  0
    2.0823   -1.0036    0.0000 C   0  0  0  0  0  0  0  0  0  0  0  0
    6.4804   -1.4827    0.0000 C   0  0  0  0  0  0  0  0  0  0  0  0
    2.9999   -2.5173    0.0000 C   0  0  0  0  0  0  0  0  0  0  0  0
  1 25  1  0
  2 25  1  0
  3 25  1  0
  4 26  1  0
  5 26  1  0
  6 26  1  0
 12  7  1  6
  8 10  1  0
  8 15  1  0
  9 19  2  0
  9 20  1  0
 10 11  1  6
 10 12  1  0
 11 13  1  0
 12 16  1  0
 13 14  1  0
 14 15  1  0
 16 17  2  0
 16 18  1  0
 17 19  1  0
 17 21  1  0
 18 20  2  0
 19 22  1  0
 20 25  1  0
 21 23  2  0
 22 24  2  0
 22 26  1  0
 23 24  1  0
M  END
>  <PUBCHEM_COMPOUND_CID>  (1) 
40692

>  <PUBCHEM_COMPOUND_CANONICALIZED>  (1) 
1

>  <PUBCHEM_CACTVS_COMPLEXITY>  (1) 
483

>  <PUBCHEM_CACTVS_HBOND_ACCEPTOR>  (1) 
9

>  <PUBCHEM_CACTVS_HBOND_DONOR>  (1) 
2

>  <PUBCHEM_CACTVS_ROTATABLE_BOND>  (1) 
2

>  <PUBCHEM_CACTVS_SUBSKEYS>  (1) 
AAADceB7IcAAAAAAAAAAAAAAAAAAAAAAAAA8WIAAAAAAAACx8AAAHwAQCAAADDzhnhYwwPLIEgCgAyRiRACCgCAhAiAImKA4bJgKNuLAkZGEcAhk0AHY2AewwPAOgAACAAACAAAAAAQAAAQAAAAAAAAAAA==

>  <PUBCHEM_IUPAC_OPENEYE_NAME>  (1) 
(S)-[2,8-bis(trifluoromethyl)-4-quinolyl]-[(2R)-2-piperidyl]methanol

>  <PUBCHEM_IUPAC_CAS_NAME>  (1) 
(S)-[2,8-bis(trifluoromethyl)-4-quinolinyl]-[(2R)-2-piperidinyl]methanol

>  <PUBCHEM_IUPAC_NAME_MARKUP>  (1) 
(<I>S</I>)-[2,8-bis(trifluoromethyl)quinolin-4-yl]-[(2<I>R</I>)-piperidin-2-yl]methanol

>  <PUBCHEM_IUPAC_NAME>  (1) 
(S)-[2,8-bis(trifluoromethyl)quinolin-4-yl]-[(2R)-piperidin-2-yl]methanol

>  <PUBCHEM_IUPAC_SYSTEMATIC_NAME>  (1) 
(S)-[2,8-bis(trifluoromethyl)quinolin-4-yl]-[(2R)-piperidin-2-yl]methanol

>  <PUBCHEM_IUPAC_TRADITIONAL_NAME>  (1) 
(S)-[2,8-bis(trifluoromethyl)-4-quinolyl]-[(2R)-2-piperidyl]methanol

>  <PUBCHEM_IUPAC_INCHI>  (1) 
InChI=1S/C17H16F6N2O/c18-16(19,20)11-5-3-4-9-10(15(26)12-6-1-2-7-24-12)8-13(17(21,22)23)25-14(9)11/h3-5,8,12,15,24,26H,1-2,6-7H2/t12-,15+/m1/s1

>  <PUBCHEM_IUPAC_INCHIKEY>  (1) 
XEEQGYMUWCZPDN-DOMZBBRYSA-N

>  <PUBCHEM_XLOGP3_AA>  (1) 
3.6

>  <PUBCHEM_EXACT_MASS>  (1) 
378.11668211

>  <PUBCHEM_MOLECULAR_FORMULA>  (1) 
C17H16F6N2O

>  <PUBCHEM_MOLECULAR_WEIGHT>  (1) 
378.31

>  <PUBCHEM_OPENEYE_CAN_SMILES>  (1) 
C1CCNC(C1)C(C2=CC(=NC3=C2C=CC=C3C(F)(F)F)C(F)(F)F)O

>  <PUBCHEM_OPENEYE_ISO_SMILES>  (1) 
C1CCN[C@H](C1)[C@H](C2=CC(=NC3=C2C=CC=C3C(F)(F)F)C(F)(F)F)O

>  <PUBCHEM_CACTVS_TPSA>  (1) 
45.2

>  <PUBCHEM_MONOISOTOPIC_WEIGHT>  (1) 
378.11668211

>  <PUBCHEM_TOTAL_CHARGE>  (1) 
0

>  <PUBCHEM_HEAVY_ATOM_COUNT>  (1) 
26

>  <PUBCHEM_ATOM_DEF_STEREO_COUNT>  (1) 
2

>  <PUBCHEM_ATOM_UDEF_STEREO_COUNT>  (1) 
0

>  <PUBCHEM_BOND_DEF_STEREO_COUNT>  (1) 
0

>  <PUBCHEM_BOND_UDEF_STEREO_COUNT>  (1) 
0

>  <PUBCHEM_ISOTOPIC_ATOM_COUNT>  (1) 
0

>  <PUBCHEM_COMPONENT_COUNT>  (1) 
1

>  <PUBCHEM_CACTVS_TAUTO_COUNT>  (1) 
1

>  <PUBCHEM_COORDINATE_TYPE>  (1) 
1
5
255

>  <PUBCHEM_BONDANNOTATIONS>  (1) 
10  27  5
16  17  8
16  18  8
17  19  8
17  21  8
18  20  8
19  22  8
21  23  8
22  24  8
23  24  8
12  7  6
9  19  8
9  20  8

$$$$
