SV_J13_0006.mol
  ChemDraw04112415342D

 41 45  0  0  0  0  0  0  0  0999 V2000
   -5.5703    0.8706    0.0000 C   0  0  0  0  0  0  0  0  0  0  0  0
   -5.1307    0.1724    0.0000 C   0  0  0  0  0  0  0  0  0  0  0  0
   -4.3063    0.2041    0.0000 C   0  0  0  0  0  0  0  0  0  0  0  0
   -3.9215    0.9339    0.0000 C   0  0  0  0  0  0  0  0  0  0  0  0
   -4.3612    1.6320    0.0000 C   0  0  0  0  0  0  0  0  0  0  0  0
   -5.1856    1.6003    0.0000 C   0  0  0  0  0  0  0  0  0  0  0  0
   -3.0972    0.9655    0.0000 C   0  0  0  0  0  0  0  0  0  0  0  0
   -2.6575    0.2674    0.0000 O   0  0  0  0  0  0  0  0  0  0  0  0
   -2.7124    1.6953    0.0000 N   0  0  0  0  0  0  0  0  0  0  0  0
   -1.8874    1.6953    0.0000 C   0  0  0  0  0  0  0  0  0  0  0  0
   -1.4749    0.9808    0.0000 C   0  0  0  0  0  0  0  0  0  0  0  0
   -0.6499    0.9808    0.0000 C   0  0  0  0  0  0  0  0  0  0  0  0
   -0.2374    1.6953    0.0000 C   0  0  0  0  0  0  0  0  0  0  0  0
   -0.6499    2.4098    0.0000 C   0  0  0  0  0  0  0  0  0  0  0  0
   -1.4749    2.4098    0.0000 C   0  0  0  0  0  0  0  0  0  0  0  0
    0.5876    1.6953    0.0000 C   0  0  0  0  0  0  0  0  0  0  0  0
    1.0001    0.9808    0.0000 C   0  0  0  0  0  0  0  0  0  0  0  0
    1.8251    0.9808    0.0000 C   0  0  0  0  0  0  0  0  0  0  0  0
    2.2376    1.6953    0.0000 C   0  0  0  0  0  0  0  0  0  0  0  0
    1.8251    2.4098    0.0000 C   0  0  0  0  0  0  0  0  0  0  0  0
    1.0001    2.4098    0.0000 C   0  0  0  0  0  0  0  0  0  0  0  0
    3.0626    1.6953    0.0000 C   0  0  0  0  0  0  0  0  0  0  0  0
    3.6460    1.1120    0.0000 N   0  0  0  0  0  0  0  0  0  0  0  0
    3.3783    2.4575    0.0000 O   0  0  0  0  0  0  0  0  0  0  0  0
    4.4710    1.1120    0.0000 C   0  0  0  0  0  0  0  0  0  0  0  0
    4.8835    0.3975    0.0000 C   0  0  0  0  0  0  0  0  0  0  0  0
    5.7085    0.3975    0.0000 C   0  0  0  0  0  0  0  0  0  0  0  0
    6.1210    1.1120    0.0000 C   0  0  0  0  0  0  0  0  0  0  0  0
    5.7085    1.8264    0.0000 C   0  0  0  0  0  0  0  0  0  0  0  0
    4.8835    1.8264    0.0000 C   0  0  0  0  0  0  0  0  0  0  0  0
    4.4710   -0.3170    0.0000 C   0  0  0  0  0  0  0  0  0  0  0  0
    4.8835   -1.0315    0.0000 C   0  0  0  0  0  0  0  0  0  0  0  0
    5.7085   -1.0315    0.0000 C   0  0  0  0  0  0  0  0  0  0  0  0
    6.1210   -0.3170    0.0000 C   0  0  0  0  0  0  0  0  0  0  0  0
   -6.3947    0.8389    0.0000 N   0  3  0  0  0  0  0  0  0  0  0  0
   -6.8326    1.5342    0.0000 O   0  0  0  0  0  0  0  0  0  0  0  0
   -6.7779    0.1121    0.0000 O   0  5  0  0  0  0  0  0  0  0  0  0
    6.1210   -1.7459    0.0000 S   0  0  0  0  0  0  0  0  0  0  0  0
    6.8326   -1.3351    0.0000 O   0  0  0  0  0  0  0  0  0  0  0  0
    5.4094   -2.1568    0.0000 O   0  0  0  0  0  0  0  0  0  0  0  0
    6.5318   -2.4575    0.0000 O   0  0  0  0  0  0  0  0  0  0  0  0
 35 36  2  0      
 35 37  1  0      
  1 35  1  0      
 38 39  2  0      
 38 40  2  0      
 38 41  1  0      
 33 38  1  0      
  1  2  2  0      
  2  3  1  0      
  3  4  2  0      
  4  5  1  0      
  5  6  2  0      
  6  1  1  0      
  4  7  1  0      
  7  8  2  0      
  7  9  1  0      
  9 10  1  0      
 10 11  2  0      
 11 12  1  0      
 12 13  2  0      
 13 14  1  0      
 14 15  2  0      
 15 10  1  0      
 13 16  1  0      
 16 17  2  0      
 17 18  1  0      
 18 19  2  0      
 19 20  1  0      
 20 21  2  0      
 21 16  1  0      
 19 22  1  0      
 22 23  1  0      
 22 24  2  0      
 23 25  1  0      
 25 26  2  0      
 26 27  1  0      
 27 28  2  0      
 28 29  1  0      
 29 30  2  0      
 30 25  1  0      
 26 31  1  0      
 31 32  2  0      
 32 33  1  0      
 33 34  2  0      
 34 27  1  0      
M  CHG  2  35   1  37  -1
M  STY  1   1 SUP
M  SLB  1   1   1
M  SAL   1  3  35  36  37
M  SBL   1  1   3
M  SMT   1 NO2
M  SBV   1   3    0.8244    0.0317
M  STY  1   2 SUP
M  SLB  1   2   2
M  SAL   2  4  38  39  40  41
M  SBL   2  1   7
M  SMT   2 SO3H
M  SBV   2   7   -0.4125    0.7145
M  END
