SV_J22_0010.mol
  ChemDraw04112414322D

 43 45  0  0  1  0  0  0  0  0999 V2000
    2.8642    0.4125    0.0000 C   0  0  0  0  0  0  0  0  0  0  0  0
    2.1498    0.8250    0.0000 C   0  0  0  0  0  0  0  0  0  0  0  0
    1.4353    0.4125    0.0000 C   0  0  0  0  0  0  0  0  0  0  0  0
    0.7208    0.8250    0.0000 C   0  0  0  0  0  0  0  0  0  0  0  0
    0.7208    1.6500    0.0000 C   0  0  0  0  0  0  0  0  0  0  0  0
    0.0064    2.0625    0.0000 O   0  0  0  0  0  0  0  0  0  0  0  0
    1.4353    2.0625    0.0000 O   0  0  0  0  0  0  0  0  0  0  0  0
    0.0064    0.4125    0.0000 N   0  0  0  0  0  0  0  0  0  0  0  0
   -0.7081    0.8250    0.0000 C   0  0  0  0  0  0  0  0  0  0  0  0
   -0.7081    1.6500    0.0000 O   0  0  0  0  0  0  0  0  0  0  0  0
   -1.4226    0.4125    0.0000 C   0  0  0  0  0  0  0  0  0  0  0  0
   -2.1371    0.8250    0.0000 C   0  0  0  0  0  0  0  0  0  0  0  0
   -2.8515    0.4125    0.0000 C   0  0  0  0  0  0  0  0  0  0  0  0
   -1.4226   -0.4125    0.0000 C   0  0  0  0  0  0  0  0  0  0  0  0
   -2.1371   -0.8250    0.0000 C   0  0  0  0  0  0  0  0  0  0  0  0
   -2.8515   -0.4125    0.0000 C   0  0  0  0  0  0  0  0  0  0  0  0
   -3.5660   -0.8250    0.0000 N   0  0  0  0  0  0  0  0  0  0  0  0
   -4.2805   -0.4125    0.0000 C   0  0  0  0  0  0  0  0  0  0  0  0
   -4.9949   -0.8250    0.0000 C   0  0  0  0  0  0  0  0  0  0  0  0
   -5.7094   -0.4125    0.0000 N   0  0  0  0  0  0  0  0  0  0  0  0
   -6.4239   -0.8250    0.0000 C   0  0  0  0  0  0  0  0  0  0  0  0
   -7.1384   -0.4125    0.0000 C   0  0  0  0  0  0  0  0  0  0  0  0
   -7.1384    0.4125    0.0000 O   0  0  0  0  0  0  0  0  0  0  0  0
   -7.8528   -0.8250    0.0000 N   0  0  0  0  0  0  0  0  0  0  0  0
   -7.8528   -1.6500    0.0000 C   0  0  0  0  0  0  0  0  0  0  0  0
   -8.5673   -2.0625    0.0000 N   0  0  0  0  0  0  0  0  0  0  0  0
   -7.1384   -2.0625    0.0000 N   0  0  0  0  0  0  0  0  0  0  0  0
   -6.4239   -1.6500    0.0000 C   0  0  0  0  0  0  0  0  0  0  0  0
   -5.7094   -2.0625    0.0000 N   0  0  0  0  0  0  0  0  0  0  0  0
   -4.9949   -1.6500    0.0000 C   0  0  0  0  0  0  0  0  0  0  0  0
    2.8642   -0.4125    0.0000 O   0  0  0  0  0  0  0  0  0  0  0  0
    3.5787    0.8250    0.0000 O   0  0  0  0  0  0  0  0  0  0  0  0
    7.8528    0.2898    0.0000 C   0  0  0  0  0  0  0  0  0  0  0  0
    7.1384   -0.9477    0.0000 N   0  0  0  0  0  0  0  0  0  0  0  0
    7.1384   -0.1227    0.0000 C   0  0  0  0  0  0  0  0  0  0  0  0
    6.4239    0.2898    0.0000 C   0  0  0  0  0  0  0  0  0  0  0  0
    5.7094   -0.1227    0.0000 C   0  0  0  0  0  0  0  0  0  0  0  0
    5.6232   -0.9432    0.0000 C   0  0  0  0  0  0  0  0  0  0  0  0
    4.8162   -1.1148    0.0000 N   0  0  0  0  0  0  0  0  0  0  0  0
    4.4037   -0.4003    0.0000 C   0  0  0  0  0  0  0  0  0  0  0  0
    4.9557    0.2128    0.0000 N   0  0  0  0  0  0  0  0  0  0  0  0
    7.8528    1.1148    0.0000 O   0  0  0  0  0  0  0  0  0  0  0  0
    8.5673   -0.1227    0.0000 O   0  0  0  0  0  0  0  0  0  0  0  0
  1  2  1  0      
  2  3  1  0      
  3  4  1  0      
  4  5  1  0      
  5  6  2  0      
  5  7  1  0      
  4  8  1  0      
  8  9  1  0      
  9 10  2  0      
  9 11  1  0      
 11 12  1  0      
 12 13  2  0      
 11 14  2  0      
 14 15  1  0      
 15 16  2  0      
 13 16  1  0      
 16 17  1  0      
 17 18  1  0      
 18 19  1  0      
 19 20  2  0      
 20 21  1  0      
 21 22  1  0      
 22 23  2  0      
 22 24  1  0      
 24 25  1  0      
 25 26  1  0      
 25 27  2  0      
 27 28  1  0      
 21 28  2  0      
 28 29  1  0      
 29 30  2  0      
 19 30  1  0      
  1 31  2  0      
  1 32  1  0      
 35 34  1  1      
 33 35  1  0      
 35 36  1  0      
 36 37  1  0      
 37 38  2  0      
 38 39  1  0      
 39 40  1  0      
 40 41  2  0      
 37 41  1  0      
 33 42  2  0      
 33 43  1  0      
M  END
