11285588
     RDKit          2D

 51 56  0  0  1  0  0  0  0  0999 V2000
    3.3660    0.6036    0.0000 S   0  0  0  0  0  0  0  0  0  0  0  0
   10.6279    5.2533    0.0000 F   0  0  0  0  0  0  0  0  0  0  0  0
    5.3660    0.6036    0.0000 O   0  0  0  0  0  0  0  0  0  0  0  0
    2.5000    0.1036    0.0000 O   0  0  0  0  0  0  0  0  0  0  0  0
    4.2320    1.1036    0.0000 O   0  0  0  0  0  0  0  0  0  0  0  0
    7.5982   -1.9944    0.0000 O   0  0  0  0  0  0  0  0  0  0  0  0
    9.6620    1.3124    0.0000 O   0  0  0  0  0  0  0  0  0  0  0  0
    9.7355   -1.7038    0.0000 O   0  0  0  0  0  0  0  0  0  0  0  0
   11.1620    0.4464    0.0000 O   0  0  0  0  0  0  0  0  0  0  0  0
   10.9201   -4.4569    0.0000 O   0  0  0  0  0  0  0  0  0  0  0  0
   10.5060   -2.7751    0.0000 O   0  0  0  0  0  0  0  0  0  0  0  0
    6.2320   -0.6285    0.0000 N   0  0  0  0  0  0  0  0  0  0  0  0
    3.8660   -0.2624    0.0000 N   0  0  0  0  0  0  0  0  0  0  0  0
    8.8301   -1.1285    0.0000 N   0  0  0  0  0  0  0  0  0  0  0  0
    9.2566   -3.9747    0.0000 N   0  0  0  0  0  0  0  0  0  0  0  0
   11.1620    2.1785    0.0000 N   0  0  0  0  0  0  0  0  0  0  0  0
    5.3660   -1.1285    0.0000 C   0  0  0  0  0  0  0  0  0  0  0  0
    5.3660   -2.1285    0.0000 C   0  0  0  0  0  0  0  0  0  0  0  0
    4.4995   -1.6285    0.0000 C   0  0  0  0  0  0  0  0  0  0  0  0
    4.8660   -0.2624    0.0000 C   0  0  0  0  0  0  0  0  0  0  0  0
    6.2320   -2.6285    0.0000 C   0  0  0  0  0  0  0  0  0  0  0  0
    2.8660    1.4696    0.0000 C   0  0  0  0  0  0  0  0  0  0  0  0
    2.8660    2.4696    0.0000 C   0  0  0  0  0  0  0  0  0  0  0  0
    2.0000    1.9696    0.0000 C   0  0  0  0  0  0  0  0  0  0  0  0
    7.0981   -1.1285    0.0000 C   0  0  0  0  0  0  0  0  0  0  0  0
    7.9641   -0.6285    0.0000 C   0  0  0  0  0  0  0  0  0  0  0  0
    8.1733    0.3433    0.0000 C   0  0  0  0  0  0  0  0  0  0  0  0
    6.2320   -3.6285    0.0000 C   0  0  0  0  0  0  0  0  0  0  0  0
    9.1620    0.4464    0.0000 C   0  0  0  0  0  0  0  0  0  0  0  0
    9.5671   -0.4614    0.0000 C   0  0  0  0  0  0  0  0  0  0  0  0
    5.3660   -4.1285    0.0000 C   0  0  0  0  0  0  0  0  0  0  0  0
    8.8301   -2.1285    0.0000 C   0  0  0  0  0  0  0  0  0  0  0  0
    5.8660   -4.9945    0.0000 C   0  0  0  0  0  0  0  0  0  0  0  0
    8.5640   -3.2533    0.0000 C   0  0  0  0  0  0  0  0  0  0  0  0
    6.8320   -5.2533    0.0000 C   0  0  0  0  0  0  0  0  0  0  0  0
    7.6980   -3.7533    0.0000 C   0  0  0  0  0  0  0  0  0  0  0  0
    7.6980   -4.7533    0.0000 C   0  0  0  0  0  0  0  0  0  0  0  0
   10.6620    1.3124    0.0000 C   0  0  0  0  0  0  0  0  0  0  0  0
   10.7569    3.0862    0.0000 C   0  0  0  0  0  0  0  0  0  0  0  0
   12.1508    2.2815    0.0000 C   0  0  0  0  0  0  0  0  0  0  0  0
   10.2276   -3.7356    0.0000 C   0  0  0  0  0  0  0  0  0  0  0  0
   11.4939    3.7533    0.0000 C   0  0  0  0  0  0  0  0  0  0  0  0
   12.3600    3.2533    0.0000 C   0  0  0  0  0  0  0  0  0  0  0  0
   11.4939    4.7533    0.0000 C   0  0  0  0  0  0  0  0  0  0  0  0
   13.2260    3.7533    0.0000 C   0  0  0  0  0  0  0  0  0  0  0  0
   11.8911   -4.2178    0.0000 C   0  0  0  0  0  0  0  0  0  0  0  0
   12.3600    5.2533    0.0000 C   0  0  0  0  0  0  0  0  0  0  0  0
   13.2260    4.7533    0.0000 C   0  0  0  0  0  0  0  0  0  0  0  0
   12.8621   -3.9788    0.0000 C   0  0  0  0  0  0  0  0  0  0  0  0
   12.1302   -5.1888    0.0000 C   0  0  0  0  0  0  0  0  0  0  0  0
   11.6520   -3.2468    0.0000 C   0  0  0  0  0  0  0  0  0  0  0  0
  1  4  2  0
  1  5  2  0
  1 13  1  0
  1 22  1  0
  2 44  1  0
  3 20  2  0
  6 25  2  0
 29  7  1  1
  7 38  1  0
  8 32  2  0
  9 38  2  0
 10 41  1  0
 10 46  1  0
 11 41  2  0
 12 17  1  0
 12 25  1  0
 13 20  1  0
 14 26  1  0
 14 30  1  0
 14 32  1  0
 34 15  1  1
 15 41  1  0
 16 38  1  0
 16 39  1  0
 16 40  1  0
 17 18  1  0
 17 19  1  0
 17 20  1  6
 18 19  1  6
 18 21  1  0
 21 28  2  0
 22 23  1  0
 22 24  1  0
 23 24  1  0
 25 26  1  0
 26 27  1  6
 27 29  1  0
 28 31  1  0
 29 30  1  0
 31 33  1  0
 32 34  1  0
 33 35  1  0
 34 36  1  0
 35 37  1  0
 36 37  1  0
 39 42  1  0
 40 43  1  0
 42 43  2  0
 42 44  1  0
 43 45  1  0
 44 47  2  0
 45 48  2  0
 46 49  1  0
 46 50  1  0
 46 51  1  0
 47 48  1  0
M  END
>  <PUBCHEM_COMPOUND_CID>  (1) 
11285588

>  <PUBCHEM_COMPOUND_CANONICALIZED>  (1) 
1

>  <PUBCHEM_CACTVS_COMPLEXITY>  (1) 
1530

>  <PUBCHEM_CACTVS_HBOND_ACCEPTOR>  (1) 
10

>  <PUBCHEM_CACTVS_HBOND_DONOR>  (1) 
3

>  <PUBCHEM_CACTVS_ROTATABLE_BOND>  (1) 
8

>  <PUBCHEM_CACTVS_SUBSKEYS>  (1) 
AAADcfB/vQBAAAAAAAAAAAAAGDAAAWLAAAAwAAAAAAAAAFgBAAAAHwQQQAAADfzl2A6yCIPABAKIAiFSGHDCAAAgAAAIiIGIBIkKYDKAkTGdIAhmlgCYiAc6iYCOgAAAAAAQAAAAAAAAACAAAAAAAAAAAA==

>  <PUBCHEM_IUPAC_OPENEYE_NAME>  (1) 
[(1S,4R,6S,7Z,14S,18R)-14-(tert-butoxycarbonylamino)-4-(cyclopropylsulfonylcarbamoyl)-2,15-dioxo-3,16-diazatricyclo[14.3.0.04,6]nonadec-7-en-18-yl] 4-fluoroisoindoline-2-carboxylate

>  <PUBCHEM_IUPAC_CAS_NAME>  (1) 
4-fluoro-1,3-dihydroisoindole-2-carboxylic acid [(1S,4R,6S,7Z,14S,18R)-4-[(cyclopropylsulfonylamino)-oxomethyl]-14-[[(2-methylpropan-2-yl)oxy-oxomethyl]amino]-2,15-dioxo-3,16-diazatricyclo[14.3.0.04,6]nonadec-7-en-18-yl] ester

>  <PUBCHEM_IUPAC_NAME_MARKUP>  (1) 
[(1<I>S</I>,4<I>R</I>,6<I>S</I>,7<I>Z</I>,14<I>S</I>,18<I>R</I>)-4-(cyclopropylsulfonylcarbamoyl)-14-[(2-methylpropan-2-yl)oxycarbonylamino]-2,15-dioxo-3,16-diazatricyclo[14.3.0.0<SUP>4,6</SUP>]nonadec-7-en-18-yl] 4-fluoro-1,3-dihydroisoindole-2-carboxylate

>  <PUBCHEM_IUPAC_NAME>  (1) 
[(1S,4R,6S,7Z,14S,18R)-4-(cyclopropylsulfonylcarbamoyl)-14-[(2-methylpropan-2-yl)oxycarbonylamino]-2,15-dioxo-3,16-diazatricyclo[14.3.0.04,6]nonadec-7-en-18-yl] 4-fluoro-1,3-dihydroisoindole-2-carboxylate

>  <PUBCHEM_IUPAC_SYSTEMATIC_NAME>  (1) 
[(1S,4R,6S,7Z,14S,18R)-4-(cyclopropylsulfonylcarbamoyl)-14-[(2-methylpropan-2-yl)oxycarbonylamino]-2,15-bis(oxidanylidene)-3,16-diazatricyclo[14.3.0.04,6]nonadec-7-en-18-yl] 4-fluoranyl-1,3-dihydroisoindole-2-carboxylate

>  <PUBCHEM_IUPAC_TRADITIONAL_NAME>  (1) 
4-fluoroisoindoline-2-carboxylic acid [(1S,4R,6S,7Z,14S,18R)-14-(tert-butoxycarbonylamino)-4-(cyclopropylsulfonylcarbamoyl)-2,15-diketo-3,16-diazatricyclo[14.3.0.04,6]nonadec-7-en-18-yl] ester

>  <PUBCHEM_IUPAC_INCHI>  (1) 
InChI=1S/C35H46FN5O9S/c1-34(2,3)50-32(45)37-27-13-8-6-4-5-7-11-22-17-35(22,31(44)39-51(47,48)24-14-15-24)38-29(42)28-16-23(19-41(28)30(27)43)49-33(46)40-18-21-10-9-12-26(36)25(21)20-40/h7,9-12,22-24,27-28H,4-6,8,13-20H2,1-3H3,(H,37,45)(H,38,42)(H,39,44)/b11-7-/t22-,23-,27+,28+,35-/m1/s1

>  <PUBCHEM_IUPAC_INCHIKEY>  (1) 
ZVTDLPBHTSMEJZ-JSZLBQEHSA-N

>  <PUBCHEM_XLOGP3_AA>  (1) 
3.3

>  <PUBCHEM_EXACT_MASS>  (1) 
731.30002740

>  <PUBCHEM_MOLECULAR_FORMULA>  (1) 
C35H46FN5O9S

>  <PUBCHEM_MOLECULAR_WEIGHT>  (1) 
731.8

>  <PUBCHEM_OPENEYE_CAN_SMILES>  (1) 
CC(C)(C)OC(=O)NC1CCCCCC=CC2CC2(NC(=O)C3CC(CN3C1=O)OC(=O)N4CC5=C(C4)C(=CC=C5)F)C(=O)NS(=O)(=O)C6CC6

>  <PUBCHEM_OPENEYE_ISO_SMILES>  (1) 
CC(C)(C)OC(=O)N[C@H]1CCCCC/C=C\[C@@H]2C[C@]2(NC(=O)[C@@H]3C[C@H](CN3C1=O)OC(=O)N4CC5=C(C4)C(=CC=C5)F)C(=O)NS(=O)(=O)C6CC6

>  <PUBCHEM_CACTVS_TPSA>  (1) 
189

>  <PUBCHEM_MONOISOTOPIC_WEIGHT>  (1) 
731.30002740

>  <PUBCHEM_TOTAL_CHARGE>  (1) 
0

>  <PUBCHEM_HEAVY_ATOM_COUNT>  (1) 
51

>  <PUBCHEM_ATOM_DEF_STEREO_COUNT>  (1) 
5

>  <PUBCHEM_ATOM_UDEF_STEREO_COUNT>  (1) 
0

>  <PUBCHEM_BOND_DEF_STEREO_COUNT>  (1) 
1

>  <PUBCHEM_BOND_UDEF_STEREO_COUNT>  (1) 
0

>  <PUBCHEM_ISOTOPIC_ATOM_COUNT>  (1) 
0

>  <PUBCHEM_COMPONENT_COUNT>  (1) 
1

>  <PUBCHEM_CACTVS_TAUTO_COUNT>  (1) 
-1

>  <PUBCHEM_COORDINATE_TYPE>  (1) 
1
5
255

>  <PUBCHEM_BONDANNOTATIONS>  (1) 
34  15  5
17  20  6
18  52  5
26  63  5
42  43  8
42  44  8
43  45  8
44  47  8
45  48  8
47  48  8
29  7  5

$$$$
