2577
     RDKit          2D

 18 18  0  0  0  0  0  0  0  0999 V2000
    3.7320    3.5000    0.0000 F   0  0  0  0  0  0  0  0  0  0  0  0
    6.3301   -0.0000    0.0000 O   0  0  0  0  0  0  0  0  0  0  0  0
    7.1962    1.5000    0.0000 O   0  0  0  0  0  0  0  0  0  0  0  0
    5.4641    4.5000    0.0000 O   0  0  0  0  0  0  0  0  0  0  0  0
    4.5981   -0.0000    0.0000 N   0  0  0  0  0  0  0  0  0  0  0  0
    5.4641    1.5000    0.0000 N   0  0  0  0  0  0  0  0  0  0  0  0
    6.3301    3.0000    0.0000 N   0  0  0  0  0  0  0  0  0  0  0  0
    3.7320   -2.5000    0.0000 C   0  0  0  0  0  0  0  0  0  0  0  0
    3.7320   -1.5000    0.0000 C   0  0  0  0  0  0  0  0  0  0  0  0
    2.8660   -3.0000    0.0000 C   0  0  0  0  0  0  0  0  0  0  0  0
    4.5981   -1.0000    0.0000 C   0  0  0  0  0  0  0  0  0  0  0  0
    2.8660   -4.0000    0.0000 C   0  0  0  0  0  0  0  0  0  0  0  0
    2.0000   -4.5000    0.0000 C   0  0  0  0  0  0  0  0  0  0  0  0
    5.4641    0.5000    0.0000 C   0  0  0  0  0  0  0  0  0  0  0  0
    6.3301    2.0000    0.0000 C   0  0  0  0  0  0  0  0  0  0  0  0
    4.5981    2.0000    0.0000 C   0  0  0  0  0  0  0  0  0  0  0  0
    4.5981    3.0000    0.0000 C   0  0  0  0  0  0  0  0  0  0  0  0
    5.4641    3.5000    0.0000 C   0  0  0  0  0  0  0  0  0  0  0  0
  1 17  1  0
  2 14  2  0
  3 15  2  0
  4 18  2  0
  5 11  1  0
  5 14  1  0
  6 14  1  0
  6 15  1  0
  6 16  1  0
  7 15  1  0
  7 18  1  0
  8  9  1  0
  8 10  1  0
  9 11  1  0
 10 12  1  0
 12 13  1  0
 16 17  2  0
 17 18  1  0
M  END
>  <PUBCHEM_COMPOUND_CID>  (1) 
2577

>  <PUBCHEM_COMPOUND_CANONICALIZED>  (1) 
1

>  <PUBCHEM_CACTVS_COMPLEXITY>  (1) 
382

>  <PUBCHEM_CACTVS_HBOND_ACCEPTOR>  (1) 
4

>  <PUBCHEM_CACTVS_HBOND_DONOR>  (1) 
2

>  <PUBCHEM_CACTVS_ROTATABLE_BOND>  (1) 
5

>  <PUBCHEM_CACTVS_SUBSKEYS>  (1) 
AAADceBzMQAAAAAAAAAAAAAAAAAAAAAAAAAgAAAAAAAAAAAAAAAAHwAQAAAACADBgAQDAAPAAACIAAFWUACAAAAAAAAAAIAIAECAAAIAgAAEAAAIFyIAAMEQAAAAAAAAAAAAAAAAAAAAAAAAAAAAAAAAAA==

>  <PUBCHEM_IUPAC_OPENEYE_NAME>  (1) 
5-fluoro-N-hexyl-2,4-dioxo-pyrimidine-1-carboxamide

>  <PUBCHEM_IUPAC_CAS_NAME>  (1) 
5-fluoro-N-hexyl-2,4-dioxo-1-pyrimidinecarboxamide

>  <PUBCHEM_IUPAC_NAME_MARKUP>  (1) 
5-fluoro-<I>N</I>-hexyl-2,4-dioxopyrimidine-1-carboxamide

>  <PUBCHEM_IUPAC_NAME>  (1) 
5-fluoro-N-hexyl-2,4-dioxopyrimidine-1-carboxamide

>  <PUBCHEM_IUPAC_SYSTEMATIC_NAME>  (1) 
5-fluoranyl-N-hexyl-2,4-bis(oxidanylidene)pyrimidine-1-carboxamide

>  <PUBCHEM_IUPAC_TRADITIONAL_NAME>  (1) 
5-fluoro-N-hexyl-2,4-diketo-pyrimidine-1-carboxamide

>  <PUBCHEM_IUPAC_INCHI>  (1) 
InChI=1S/C11H16FN3O3/c1-2-3-4-5-6-13-10(17)15-7-8(12)9(16)14-11(15)18/h7H,2-6H2,1H3,(H,13,17)(H,14,16,18)

>  <PUBCHEM_IUPAC_INCHIKEY>  (1) 
AOCCBINRVIKJHY-UHFFFAOYSA-N

>  <PUBCHEM_XLOGP3>  (1) 
2.6

>  <PUBCHEM_EXACT_MASS>  (1) 
257.11756954

>  <PUBCHEM_MOLECULAR_FORMULA>  (1) 
C11H16FN3O3

>  <PUBCHEM_MOLECULAR_WEIGHT>  (1) 
257.26

>  <PUBCHEM_OPENEYE_CAN_SMILES>  (1) 
CCCCCCNC(=O)N1C=C(C(=O)NC1=O)F

>  <PUBCHEM_OPENEYE_ISO_SMILES>  (1) 
CCCCCCNC(=O)N1C=C(C(=O)NC1=O)F

>  <PUBCHEM_CACTVS_TPSA>  (1) 
78.5

>  <PUBCHEM_MONOISOTOPIC_WEIGHT>  (1) 
257.11756954

>  <PUBCHEM_TOTAL_CHARGE>  (1) 
0

>  <PUBCHEM_HEAVY_ATOM_COUNT>  (1) 
18

>  <PUBCHEM_ATOM_DEF_STEREO_COUNT>  (1) 
0

>  <PUBCHEM_ATOM_UDEF_STEREO_COUNT>  (1) 
0

>  <PUBCHEM_BOND_DEF_STEREO_COUNT>  (1) 
0

>  <PUBCHEM_BOND_UDEF_STEREO_COUNT>  (1) 
0

>  <PUBCHEM_ISOTOPIC_ATOM_COUNT>  (1) 
0

>  <PUBCHEM_COMPONENT_COUNT>  (1) 
1

>  <PUBCHEM_CACTVS_TAUTO_COUNT>  (1) 
6

>  <PUBCHEM_COORDINATE_TYPE>  (1) 
1
5
255

>  <PUBCHEM_BONDANNOTATIONS>  (1) 
16  17  8
17  18  8
6  15  8
6  16  8
7  15  8
7  18  8

$$$$
