139595263
     RDKit          2D

 34 36  0  0  1  0  0  0  0  0999 V2000
    4.5981    1.1374    0.0000 S   0  0  0  0  0  0  0  0  0  0  0  0
   11.4322    0.6418    0.0000 S   0  0  0  0  0  0  0  0  0  0  0  0
    7.1780    3.3501    0.0000 O   0  0  0  0  0  0  0  0  0  0  0  0
    3.7320    4.6374    0.0000 O   0  0  0  0  0  0  0  0  0  0  0  0
    5.4641    4.6374    0.0000 O   0  0  0  0  0  0  0  0  0  0  0  0
    8.4053    2.1469    0.0000 O   0  0  0  0  0  0  0  0  0  0  0  0
    9.7398   -2.8749    0.0000 O   0  0  0  0  0  0  0  0  0  0  0  0
    9.2950   -1.2010    0.0000 O   0  0  0  0  0  0  0  0  0  0  0  0
    8.5126   -4.0971    0.0000 O   0  0  0  0  0  0  0  0  0  0  0  0
    5.4641    2.6374    0.0000 N   0  0  0  0  0  0  0  0  0  0  0  0
    7.1780    0.9247    0.0000 N   0  0  0  0  0  0  0  0  0  0  0  0
    8.5893   -0.4924    0.0000 N   0  0  0  0  0  0  0  0  0  0  0  0
   10.1769    1.6627    0.0000 N   0  0  0  0  0  0  0  0  0  0  0  0
   11.8063    2.3841    0.0000 N   0  0  0  0  0  0  0  0  0  0  0  0
    5.4641    1.6374    0.0000 C   0  0  0  0  0  0  0  0  0  0  0  0
    6.4724    1.6333    0.0000 C   0  0  0  0  0  0  0  0  0  0  0  0
    6.4724    2.6416    0.0000 C   0  0  0  0  0  0  0  0  0  0  0  0
    4.5981    3.1374    0.0000 C   0  0  0  0  0  0  0  0  0  0  0  0
    3.7320    1.6374    0.0000 C   0  0  0  0  0  0  0  0  0  0  0  0
    3.7320    2.6374    0.0000 C   0  0  0  0  0  0  0  0  0  0  0  0
    4.5981    4.1374    0.0000 C   0  0  0  0  0  0  0  0  0  0  0  0
    8.1445    1.1816    0.0000 C   0  0  0  0  0  0  0  0  0  0  0  0
    2.8660    3.1374    0.0000 C   0  0  0  0  0  0  0  0  0  0  0  0
    8.8501    0.4730    0.0000 C   0  0  0  0  0  0  0  0  0  0  0  0
   10.1847   -4.5489    0.0000 C   0  0  0  0  0  0  0  0  0  0  0  0
    2.0000    2.6374    0.0000 C   0  0  0  0  0  0  0  0  0  0  0  0
    9.8166    0.7298    0.0000 C   0  0  0  0  0  0  0  0  0  0  0  0
   10.8903   -5.2574    0.0000 C   0  0  0  0  0  0  0  0  0  0  0  0
    9.4761   -5.2545    0.0000 C   0  0  0  0  0  0  0  0  0  0  0  0
   10.8932   -3.8432    0.0000 C   0  0  0  0  0  0  0  0  0  0  0  0
    9.4790   -3.8403    0.0000 C   0  0  0  0  0  0  0  0  0  0  0  0
   10.5924    0.0989    0.0000 C   0  0  0  0  0  0  0  0  0  0  0  0
    9.0342   -2.1664    0.0000 C   0  0  0  0  0  0  0  0  0  0  0  0
   11.1754    1.6083    0.0000 C   0  0  0  0  0  0  0  0  0  0  0  0
  1 15  1  0
  1 19  1  0
  2 32  1  0
  2 34  1  0
  3 17  2  0
  4 21  1  0
  5 21  2  0
  6 22  2  0
  7 31  1  0
  7 33  1  0
  8 12  1  0
  8 33  1  0
  9 31  2  0
 10 15  1  0
 10 17  1  0
 10 18  1  0
 11 16  1  0
 11 22  1  0
 12 24  2  3
 13 27  1  0
 13 34  2  0
 14 34  1  0
 15 16  1  0
 16 17  1  0
 18 20  2  0
 18 21  1  0
 19 20  1  0
 20 23  1  0
 22 24  1  0
 23 26  2  0
 24 27  1  0
 25 28  1  0
 25 29  1  0
 25 30  1  0
 25 31  1  0
 27 32  2  0
M  END
>  <PUBCHEM_COMPOUND_CID>  (1) 
139595263

>  <PUBCHEM_COMPOUND_CANONICALIZED>  (1) 
1

>  <PUBCHEM_CACTVS_COMPLEXITY>  (1) 
961

>  <PUBCHEM_CACTVS_HBOND_ACCEPTOR>  (1) 
12

>  <PUBCHEM_CACTVS_HBOND_DONOR>  (1) 
3

>  <PUBCHEM_CACTVS_ROTATABLE_BOND>  (1) 
10

>  <PUBCHEM_CACTVS_SUBSKEYS>  (1) 
AAADceB7uABgAAAAAAAAAAAAAABYAWAAAAAgAAAAAAAQAAABgAAAHgQUCAAADijF1gejmRPYFgisAyXyfAAA8KlhCjkICJW4IFiaZJggxCEUEAAAFgK0kSAAAAAAAAAAAAAAAAAAAAAAAAAAAAAAAAAAAA==

>  <PUBCHEM_IUPAC_OPENEYE_NAME>  (1) 
7-[[2-(2-aminothiazol-4-yl)-2-(2,2-dimethylpropanoyloxymethoxyimino)acetyl]amino]-8-oxo-3-vinyl-5-thia-1-azabicyclo[4.2.0]oct-2-ene-2-carboxylic acid

>  <PUBCHEM_IUPAC_CAS_NAME>  (1) 
7-[[2-(2-amino-4-thiazolyl)-2-[(2,2-dimethyl-1-oxopropoxy)methoxyimino]-1-oxoethyl]amino]-3-ethenyl-8-oxo-5-thia-1-azabicyclo[4.2.0]oct-2-ene-2-carboxylic acid

>  <PUBCHEM_IUPAC_NAME_MARKUP>  (1) 
7-[[2-(2-amino-1,3-thiazol-4-yl)-2-(2,2-dimethylpropanoyloxymethoxyimino)acetyl]amino]-3-ethenyl-8-oxo-5-thia-1-azabicyclo[4.2.0]oct-2-ene-2-carboxylic acid

>  <PUBCHEM_IUPAC_NAME>  (1) 
7-[[2-(2-amino-1,3-thiazol-4-yl)-2-(2,2-dimethylpropanoyloxymethoxyimino)acetyl]amino]-3-ethenyl-8-oxo-5-thia-1-azabicyclo[4.2.0]oct-2-ene-2-carboxylic acid

>  <PUBCHEM_IUPAC_SYSTEMATIC_NAME>  (1) 
7-[[2-(2-azanyl-1,3-thiazol-4-yl)-2-(2,2-dimethylpropanoyloxymethoxyimino)ethanoyl]amino]-3-ethenyl-8-oxidanylidene-5-thia-1-azabicyclo[4.2.0]oct-2-ene-2-carboxylic acid

>  <PUBCHEM_IUPAC_TRADITIONAL_NAME>  (1) 
7-[[2-(2-aminothiazol-4-yl)-2-(pivaloyloxymethyloximino)acetyl]amino]-8-keto-3-vinyl-5-thia-1-azabicyclo[4.2.0]oct-2-ene-2-carboxylic acid

>  <PUBCHEM_IUPAC_INCHI>  (1) 
InChI=1S/C20H23N5O7S2/c1-5-9-6-33-16-12(15(27)25(16)13(9)17(28)29)23-14(26)11(10-7-34-19(21)22-10)24-32-8-31-18(30)20(2,3)4/h5,7,12,16H,1,6,8H2,2-4H3,(H2,21,22)(H,23,26)(H,28,29)

>  <PUBCHEM_IUPAC_INCHIKEY>  (1) 
HMLGSIZOMSVISS-UHFFFAOYSA-N

>  <PUBCHEM_XLOGP3>  (1) 
1.1

>  <PUBCHEM_EXACT_MASS>  (1) 
509.10389044

>  <PUBCHEM_MOLECULAR_FORMULA>  (1) 
C20H23N5O7S2

>  <PUBCHEM_MOLECULAR_WEIGHT>  (1) 
509.6

>  <PUBCHEM_OPENEYE_CAN_SMILES>  (1) 
CC(C)(C)C(=O)OCON=C(C1=CSC(=N1)N)C(=O)NC2C3N(C2=O)C(=C(CS3)C=C)C(=O)O

>  <PUBCHEM_OPENEYE_ISO_SMILES>  (1) 
CC(C)(C)C(=O)OCON=C(C1=CSC(=N1)N)C(=O)NC2C3N(C2=O)C(=C(CS3)C=C)C(=O)O

>  <PUBCHEM_CACTVS_TPSA>  (1) 
227

>  <PUBCHEM_MONOISOTOPIC_WEIGHT>  (1) 
509.10389044

>  <PUBCHEM_TOTAL_CHARGE>  (1) 
0

>  <PUBCHEM_HEAVY_ATOM_COUNT>  (1) 
34

>  <PUBCHEM_ATOM_DEF_STEREO_COUNT>  (1) 
0

>  <PUBCHEM_ATOM_UDEF_STEREO_COUNT>  (1) 
2

>  <PUBCHEM_BOND_DEF_STEREO_COUNT>  (1) 
0

>  <PUBCHEM_BOND_UDEF_STEREO_COUNT>  (1) 
1

>  <PUBCHEM_ISOTOPIC_ATOM_COUNT>  (1) 
0

>  <PUBCHEM_COMPONENT_COUNT>  (1) 
1

>  <PUBCHEM_CACTVS_TAUTO_COUNT>  (1) 
-1

>  <PUBCHEM_COORDINATE_TYPE>  (1) 
1
5
255

>  <PUBCHEM_BONDANNOTATIONS>  (1) 
15  1  3
16  11  3
12  24  1
13  27  8
13  34  8
2  32  8
2  34  8
27  32  8

$$$$
