5324346
     RDKit          2D

 22 22  0  0  0  0  0  0  0  0999 V2000
    6.1350    3.7500    0.0000 F   0  0  0  0  0  0  0  0  0  0  0  0
    5.1350    4.7500    0.0000 F   0  0  0  0  0  0  0  0  0  0  0  0
    4.1350    3.7500    0.0000 F   0  0  0  0  0  0  0  0  0  0  0  0
    7.7331   -3.7500    0.0000 O   0  0  0  0  0  0  0  0  0  0  0  0
    4.2690   -1.7500    0.0000 O   0  0  0  0  0  0  0  0  0  0  0  0
    4.2690   -0.7500    0.0000 N   0  0  0  0  0  0  0  0  0  0  0  0
    2.5369   -3.7500    0.0000 N   0  0  0  0  0  0  0  0  0  0  0  0
    6.0010   -1.7500    0.0000 C   0  0  0  0  0  0  0  0  0  0  0  0
    6.0010   -0.7500    0.0000 C   0  0  0  0  0  0  0  0  0  0  0  0
    6.8671   -2.2500    0.0000 C   0  0  0  0  0  0  0  0  0  0  0  0
    5.1350   -0.2500    0.0000 C   0  0  0  0  0  0  0  0  0  0  0  0
    5.1350    0.7500    0.0000 C   0  0  0  0  0  0  0  0  0  0  0  0
    6.8671   -3.2500    0.0000 C   0  0  0  0  0  0  0  0  0  0  0  0
    6.0010    1.2500    0.0000 C   0  0  0  0  0  0  0  0  0  0  0  0
    4.2690    1.2500    0.0000 C   0  0  0  0  0  0  0  0  0  0  0  0
    5.1350    2.7500    0.0000 C   0  0  0  0  0  0  0  0  0  0  0  0
    6.0010    2.2500    0.0000 C   0  0  0  0  0  0  0  0  0  0  0  0
    4.2690    2.2500    0.0000 C   0  0  0  0  0  0  0  0  0  0  0  0
    5.1350    3.7500    0.0000 C   0  0  0  0  0  0  0  0  0  0  0  0
    3.4030   -2.2500    0.0000 C   0  0  0  0  0  0  0  0  0  0  0  0
    7.7331   -4.7500    0.0000 C   0  0  0  0  0  0  0  0  0  0  0  0
    3.4030   -3.2500    0.0000 C   0  0  0  0  0  0  0  0  0  0  0  0
  1 19  1  0
  2 19  1  0
  3 19  1  0
  4 13  1  0
  4 21  1  0
  5  6  1  0
  5 20  1  0
  6 11  2  0
  7 22  1  0
  8  9  1  0
  8 10  1  0
  9 11  1  0
 10 13  1  0
 11 12  1  0
 12 14  2  0
 12 15  1  0
 14 17  1  0
 15 18  2  0
 16 17  2  0
 16 18  1  0
 16 19  1  0
 20 22  1  0
M  END
>  <PUBCHEM_COMPOUND_CID>  (1) 
5324346

>  <PUBCHEM_COMPOUND_CANONICALIZED>  (1) 
1

>  <PUBCHEM_CACTVS_COMPLEXITY>  (1) 
327

>  <PUBCHEM_CACTVS_HBOND_ACCEPTOR>  (1) 
7

>  <PUBCHEM_CACTVS_HBOND_DONOR>  (1) 
1

>  <PUBCHEM_CACTVS_ROTATABLE_BOND>  (1) 
9

>  <PUBCHEM_CACTVS_SUBSKEYS>  (1) 
AAADceBzMYAAAAAAAAAAAAAAAAAAAAAAAAAwAAAAAAAAAAABAAAAHwAUAAAADAjhmBYyAIBQBACgAyBiAAACAAAgAAAIiIAwAJgKIKKAERCAIAAkkAAIiAeAwOAOQAAAAAAAAACAAAAAAAAAAAAAAAAAAA==

>  <PUBCHEM_IUPAC_OPENEYE_NAME>  (1) 
2-[(E)-[5-methoxy-1-[4-(trifluoromethyl)phenyl]pentylidene]amino]oxyethanamine

>  <PUBCHEM_IUPAC_CAS_NAME>  (1) 
2-[(E)-[5-methoxy-1-[4-(trifluoromethyl)phenyl]pentylidene]amino]oxyethanamine

>  <PUBCHEM_IUPAC_NAME_MARKUP>  (1) 
2-[(<I>E</I>)-[5-methoxy-1-[4-(trifluoromethyl)phenyl]pentylidene]amino]oxyethanamine

>  <PUBCHEM_IUPAC_NAME>  (1) 
2-[(E)-[5-methoxy-1-[4-(trifluoromethyl)phenyl]pentylidene]amino]oxyethanamine

>  <PUBCHEM_IUPAC_SYSTEMATIC_NAME>  (1) 
2-[(E)-[5-methoxy-1-[4-(trifluoromethyl)phenyl]pentylidene]amino]oxyethanamine

>  <PUBCHEM_IUPAC_TRADITIONAL_NAME>  (1) 
2-[(E)-[5-methoxy-1-[4-(trifluoromethyl)phenyl]pentylidene]amino]oxyethylamine

>  <PUBCHEM_IUPAC_INCHI>  (1) 
InChI=1S/C15H21F3N2O2/c1-21-10-3-2-4-14(20-22-11-9-19)12-5-7-13(8-6-12)15(16,17)18/h5-8H,2-4,9-11,19H2,1H3/b20-14+

>  <PUBCHEM_IUPAC_INCHIKEY>  (1) 
CJOFXWAVKWHTFT-XSFVSMFZSA-N

>  <PUBCHEM_XLOGP3_AA>  (1) 
2.6

>  <PUBCHEM_EXACT_MASS>  (1) 
318.15551240

>  <PUBCHEM_MOLECULAR_FORMULA>  (1) 
C15H21F3N2O2

>  <PUBCHEM_MOLECULAR_WEIGHT>  (1) 
318.33

>  <PUBCHEM_OPENEYE_CAN_SMILES>  (1) 
COCCCCC(=NOCCN)C1=CC=C(C=C1)C(F)(F)F

>  <PUBCHEM_OPENEYE_ISO_SMILES>  (1) 
COCCCC/C(=N\OCCN)/C1=CC=C(C=C1)C(F)(F)F

>  <PUBCHEM_CACTVS_TPSA>  (1) 
56.8

>  <PUBCHEM_MONOISOTOPIC_WEIGHT>  (1) 
318.15551240

>  <PUBCHEM_TOTAL_CHARGE>  (1) 
0

>  <PUBCHEM_HEAVY_ATOM_COUNT>  (1) 
22

>  <PUBCHEM_ATOM_DEF_STEREO_COUNT>  (1) 
0

>  <PUBCHEM_ATOM_UDEF_STEREO_COUNT>  (1) 
0

>  <PUBCHEM_BOND_DEF_STEREO_COUNT>  (1) 
1

>  <PUBCHEM_BOND_UDEF_STEREO_COUNT>  (1) 
0

>  <PUBCHEM_ISOTOPIC_ATOM_COUNT>  (1) 
0

>  <PUBCHEM_COMPONENT_COUNT>  (1) 
1

>  <PUBCHEM_CACTVS_TAUTO_COUNT>  (1) 
-1

>  <PUBCHEM_COORDINATE_TYPE>  (1) 
1
5
255

>  <PUBCHEM_BONDANNOTATIONS>  (1) 
12  14  8
12  15  8
14  17  8
15  18  8
16  17  8
16  18  8

$$$$
