5388906
     RDKit          2D

 37 41  0  0  1  0  0  0  0  0999 V2000
    2.0000    0.5588    0.0000 Br  0  0  0  0  0  0  0  0  0  0  0  0
    7.6282   -0.8314    0.0000 O   0  0  0  0  0  0  0  0  0  0  0  0
    7.2622   -1.4654    0.0000 O   0  0  0  0  0  0  0  0  0  0  0  0
   10.1282    1.7667    0.0000 N   0  0  0  0  0  0  0  0  0  0  0  0
    5.5301   -1.4654    0.0000 N   0  0  0  0  0  0  0  0  0  0  0  0
    8.1282    0.0346    0.0000 C   0  0  0  0  0  0  0  0  0  0  0  0
    7.2622    0.5346    0.0000 C   0  0  0  0  0  0  0  0  0  0  0  0
    8.6282    0.9007    0.0000 C   0  0  0  0  0  0  0  0  0  0  0  0
    8.9942   -0.4654    0.0000 C   0  0  0  0  0  0  0  0  0  0  0  0
    6.3961    0.0346    0.0000 C   0  0  0  0  0  0  0  0  0  0  0  0
    9.6282    0.9007    0.0000 C   0  0  0  0  0  0  0  0  0  0  0  0
    7.2622    1.5346    0.0000 C   0  0  0  0  0  0  0  0  0  0  0  0
    8.9942   -1.4654    0.0000 C   0  0  0  0  0  0  0  0  0  0  0  0
    9.8602    0.0346    0.0000 C   0  0  0  0  0  0  0  0  0  0  0  0
    5.5301    0.5346    0.0000 C   0  0  0  0  0  0  0  0  0  0  0  0
    9.8602   -1.9654    0.0000 C   0  0  0  0  0  0  0  0  0  0  0  0
    6.3961   -0.9654    0.0000 C   0  0  0  0  0  0  0  0  0  0  0  0
    6.3961    2.0346    0.0000 C   0  0  0  0  0  0  0  0  0  0  0  0
    8.1282    2.0346    0.0000 C   0  0  0  0  0  0  0  0  0  0  0  0
   10.7263   -0.4654    0.0000 C   0  0  0  0  0  0  0  0  0  0  0  0
    8.0842   -1.9722    0.0000 C   0  0  0  0  0  0  0  0  0  0  0  0
    4.6641    0.0346    0.0000 C   0  0  0  0  0  0  0  0  0  0  0  0
   10.7263   -1.4654    0.0000 C   0  0  0  0  0  0  0  0  0  0  0  0
    4.6641   -0.9654    0.0000 C   0  0  0  0  0  0  0  0  0  0  0  0
    9.6282    2.6327    0.0000 C   0  0  0  0  0  0  0  0  0  0  0  0
   11.1282    1.7667    0.0000 C   0  0  0  0  0  0  0  0  0  0  0  0
    9.8763   -3.0069    0.0000 C   0  0  0  0  0  0  0  0  0  0  0  0
    6.3961    3.0346    0.0000 C   0  0  0  0  0  0  0  0  0  0  0  0
    8.1282    3.0346    0.0000 C   0  0  0  0  0  0  0  0  0  0  0  0
    8.0762   -3.0138    0.0000 C   0  0  0  0  0  0  0  0  0  0  0  0
    7.2622    3.5346    0.0000 C   0  0  0  0  0  0  0  0  0  0  0  0
    8.9783   -3.5346    0.0000 C   0  0  0  0  0  0  0  0  0  0  0  0
    3.7702    0.5693    0.0000 C   0  0  0  0  0  0  0  0  0  0  0  0
    3.7702   -1.5000    0.0000 C   0  0  0  0  0  0  0  0  0  0  0  0
    2.8641    0.0554    0.0000 C   0  0  0  0  0  0  0  0  0  0  0  0
    2.8641   -0.9862    0.0000 C   0  0  0  0  0  0  0  0  0  0  0  0
    7.2622   -2.4654    0.0000 C   0  0  0  0  0  0  0  0  0  0  0  0
  1 35  1  0
  6  2  1  6
  3 17  1  0
  3 37  1  0
  4 11  1  0
  4 25  1  0
  4 26  1  0
  5 17  2  0
  5 24  1  0
  6  7  1  0
  6  8  1  0
  6  9  1  0
  7 10  1  1
  7 12  1  0
  8 11  1  0
  9 13  1  0
  9 14  2  0
 10 15  2  0
 10 17  1  0
 12 18  2  0
 12 19  1  0
 13 16  2  0
 13 21  1  0
 14 20  1  0
 15 22  1  0
 16 23  1  0
 16 27  1  0
 18 28  1  0
 19 29  2  0
 20 23  2  0
 21 30  2  0
 22 24  2  0
 22 33  1  0
 24 34  1  0
 27 32  2  0
 28 31  2  0
 29 31  1  0
 30 32  1  0
 33 35  2  0
 34 36  2  0
 35 36  1  0
M  END
>  <PUBCHEM_COMPOUND_CID>  (1) 
5388906

>  <PUBCHEM_COMPOUND_CANONICALIZED>  (1) 
1

>  <PUBCHEM_CACTVS_COMPLEXITY>  (1) 
715

>  <PUBCHEM_CACTVS_HBOND_ACCEPTOR>  (1) 
4

>  <PUBCHEM_CACTVS_HBOND_DONOR>  (1) 
1

>  <PUBCHEM_CACTVS_ROTATABLE_BOND>  (1) 
8

>  <PUBCHEM_CACTVS_SUBSKEYS>  (1) 
AAADceB/MAAAEAAAAAAAAAAAAAAAAAAAAAA8YMGCAAAAAADx9AAAHgBACAABrUzBngYyxPMIFgCgAyRiRACCiCAhIiQImCA8bLgMJuLEsZuEcChmwBHI+hfw0PEOgAAiEAASAAAAAEQgACQAAAAAAAAAAA==

>  <PUBCHEM_IUPAC_OPENEYE_NAME>  (1) 
(1R,2S)-1-(6-bromo-2-methoxy-3-quinolyl)-4-(dimethylamino)-2-(1-naphthyl)-1-phenyl-butan-2-ol

>  <PUBCHEM_IUPAC_CAS_NAME>  (1) 
(1R,2S)-1-(6-bromo-2-methoxy-3-quinolinyl)-4-(dimethylamino)-2-(1-naphthalenyl)-1-phenyl-2-butanol

>  <PUBCHEM_IUPAC_NAME_MARKUP>  (1) 
(1<I>R</I>,2<I>S</I>)-1-(6-bromo-2-methoxyquinolin-3-yl)-4-(dimethylamino)-2-naphthalen-1-yl-1-phenylbutan-2-ol

>  <PUBCHEM_IUPAC_NAME>  (1) 
(1R,2S)-1-(6-bromo-2-methoxyquinolin-3-yl)-4-(dimethylamino)-2-naphthalen-1-yl-1-phenylbutan-2-ol

>  <PUBCHEM_IUPAC_SYSTEMATIC_NAME>  (1) 
(1R,2S)-1-(6-bromanyl-2-methoxy-quinolin-3-yl)-4-(dimethylamino)-2-naphthalen-1-yl-1-phenyl-butan-2-ol

>  <PUBCHEM_IUPAC_TRADITIONAL_NAME>  (1) 
(1R,2S)-1-(6-bromo-2-methoxy-3-quinolyl)-4-(dimethylamino)-2-(1-naphthyl)-1-phenyl-butan-2-ol

>  <PUBCHEM_IUPAC_INCHI>  (1) 
InChI=1S/C32H31BrN2O2/c1-35(2)19-18-32(36,28-15-9-13-22-10-7-8-14-26(22)28)30(23-11-5-4-6-12-23)27-21-24-20-25(33)16-17-29(24)34-31(27)37-3/h4-17,20-21,30,36H,18-19H2,1-3H3/t30-,32-/m1/s1

>  <PUBCHEM_IUPAC_INCHIKEY>  (1) 
QUIJNHUBAXPXFS-XLJNKUFUSA-N

>  <PUBCHEM_XLOGP3_AA>  (1) 
7.2

>  <PUBCHEM_EXACT_MASS>  (1) 
554.15689

>  <PUBCHEM_MOLECULAR_FORMULA>  (1) 
C32H31BrN2O2

>  <PUBCHEM_MOLECULAR_WEIGHT>  (1) 
555.5

>  <PUBCHEM_OPENEYE_CAN_SMILES>  (1) 
CN(C)CCC(C1=CC=CC2=CC=CC=C21)(C(C3=CC=CC=C3)C4=C(N=C5C=CC(=CC5=C4)Br)OC)O

>  <PUBCHEM_OPENEYE_ISO_SMILES>  (1) 
CN(C)CC[C@@](C1=CC=CC2=CC=CC=C21)([C@H](C3=CC=CC=C3)C4=C(N=C5C=CC(=CC5=C4)Br)OC)O

>  <PUBCHEM_CACTVS_TPSA>  (1) 
45.6

>  <PUBCHEM_MONOISOTOPIC_WEIGHT>  (1) 
554.15689

>  <PUBCHEM_TOTAL_CHARGE>  (1) 
0

>  <PUBCHEM_HEAVY_ATOM_COUNT>  (1) 
37

>  <PUBCHEM_ATOM_DEF_STEREO_COUNT>  (1) 
2

>  <PUBCHEM_ATOM_UDEF_STEREO_COUNT>  (1) 
0

>  <PUBCHEM_BOND_DEF_STEREO_COUNT>  (1) 
0

>  <PUBCHEM_BOND_UDEF_STEREO_COUNT>  (1) 
0

>  <PUBCHEM_ISOTOPIC_ATOM_COUNT>  (1) 
0

>  <PUBCHEM_COMPONENT_COUNT>  (1) 
1

>  <PUBCHEM_CACTVS_TAUTO_COUNT>  (1) 
-1

>  <PUBCHEM_COORDINATE_TYPE>  (1) 
1
5
255

>  <PUBCHEM_BONDANNOTATIONS>  (1) 
10  15  8
10  17  8
12  18  8
12  19  8
13  16  8
13  21  8
14  20  8
15  22  8
16  23  8
16  27  8
18  28  8
19  29  8
6  2  6
20  23  8
21  30  8
22  24  8
22  33  8
24  34  8
27  32  8
28  31  8
29  31  8
30  32  8
33  35  8
34  36  8
35  36  8
5  17  8
5  24  8
7  12  5
9  13  8
9  14  8

$$$$
