4911
     RDKit          2D

 19 19  0  0  0  0  0  0  0  0999 V2000
    3.7320    1.0600    0.0000 S   0  0  0  0  0  0  0  0  0  0  0  0
    4.7320    1.0600    0.0000 O   0  0  0  0  0  0  0  0  0  0  0  0
    2.7320    1.0600    0.0000 O   0  0  0  0  0  0  0  0  0  0  0  0
    2.8660   -3.4400    0.0000 O   0  0  0  0  0  0  0  0  0  0  0  0
    4.5981   -3.4400    0.0000 O   0  0  0  0  0  0  0  0  0  0  0  0
    3.7320    2.0600    0.0000 N   0  0  0  0  0  0  0  0  0  0  0  0
    4.5981    2.5600    0.0000 C   0  0  0  0  0  0  0  0  0  0  0  0
    2.8660    2.5600    0.0000 C   0  0  0  0  0  0  0  0  0  0  0  0
    4.5981    3.5600    0.0000 C   0  0  0  0  0  0  0  0  0  0  0  0
    2.8660    3.5600    0.0000 C   0  0  0  0  0  0  0  0  0  0  0  0
    3.7320    0.0600    0.0000 C   0  0  0  0  0  0  0  0  0  0  0  0
    5.4641    4.0600    0.0000 C   0  0  0  0  0  0  0  0  0  0  0  0
    2.0000    4.0600    0.0000 C   0  0  0  0  0  0  0  0  0  0  0  0
    2.8660   -0.4400    0.0000 C   0  0  0  0  0  0  0  0  0  0  0  0
    4.5981   -0.4400    0.0000 C   0  0  0  0  0  0  0  0  0  0  0  0
    2.8660   -1.4400    0.0000 C   0  0  0  0  0  0  0  0  0  0  0  0
    4.5981   -1.4400    0.0000 C   0  0  0  0  0  0  0  0  0  0  0  0
    3.7320   -1.9400    0.0000 C   0  0  0  0  0  0  0  0  0  0  0  0
    3.7320   -2.9400    0.0000 C   0  0  0  0  0  0  0  0  0  0  0  0
  1  2  2  0
  1  3  2  0
  1  6  1  0
  1 11  1  0
  4 19  1  0
  5 19  2  0
  6  7  1  0
  6  8  1  0
  7  9  1  0
  8 10  1  0
  9 12  1  0
 10 13  1  0
 11 14  2  0
 11 15  1  0
 14 16  1  0
 15 17  2  0
 16 18  2  0
 17 18  1  0
 18 19  1  0
M  END
>  <PUBCHEM_COMPOUND_CID>  (1) 
4911

>  <PUBCHEM_COMPOUND_CANONICALIZED>  (1) 
1

>  <PUBCHEM_CACTVS_COMPLEXITY>  (1) 
374

>  <PUBCHEM_CACTVS_HBOND_ACCEPTOR>  (1) 
5

>  <PUBCHEM_CACTVS_HBOND_DONOR>  (1) 
1

>  <PUBCHEM_CACTVS_ROTATABLE_BOND>  (1) 
7

>  <PUBCHEM_CACTVS_SUBSKEYS>  (1) 
AAADceByOABAAAAAAAAAAAAAAAAAAAAAAAAwAAAAAAAAAAABAAAAHgQASAAADADB2AQyCYIAAgKIAiDSCHBCABAkAAAIiBkICMgIJjKAFRCEcQAkwAGImYeIyCCOEAAAAAAAAAAgAAAAAAAAAAAAAAAAAA==

>  <PUBCHEM_IUPAC_OPENEYE_NAME>  (1) 
4-(dipropylsulfamoyl)benzoic acid

>  <PUBCHEM_IUPAC_CAS_NAME>  (1) 
4-(dipropylsulfamoyl)benzoic acid

>  <PUBCHEM_IUPAC_NAME_MARKUP>  (1) 
4-(dipropylsulfamoyl)benzoic acid

>  <PUBCHEM_IUPAC_NAME>  (1) 
4-(dipropylsulfamoyl)benzoic acid

>  <PUBCHEM_IUPAC_SYSTEMATIC_NAME>  (1) 
4-(dipropylsulfamoyl)benzoic acid

>  <PUBCHEM_IUPAC_TRADITIONAL_NAME>  (1) 
4-(dipropylsulfamoyl)benzoic acid

>  <PUBCHEM_IUPAC_INCHI>  (1) 
InChI=1S/C13H19NO4S/c1-3-9-14(10-4-2)19(17,18)12-7-5-11(6-8-12)13(15)16/h5-8H,3-4,9-10H2,1-2H3,(H,15,16)

>  <PUBCHEM_IUPAC_INCHIKEY>  (1) 
DBABZHXKTCFAPX-UHFFFAOYSA-N

>  <PUBCHEM_XLOGP3>  (1) 
3.2

>  <PUBCHEM_EXACT_MASS>  (1) 
285.10347926

>  <PUBCHEM_MOLECULAR_FORMULA>  (1) 
C13H19NO4S

>  <PUBCHEM_MOLECULAR_WEIGHT>  (1) 
285.36

>  <PUBCHEM_OPENEYE_CAN_SMILES>  (1) 
CCCN(CCC)S(=O)(=O)C1=CC=C(C=C1)C(=O)O

>  <PUBCHEM_OPENEYE_ISO_SMILES>  (1) 
CCCN(CCC)S(=O)(=O)C1=CC=C(C=C1)C(=O)O

>  <PUBCHEM_CACTVS_TPSA>  (1) 
83.1

>  <PUBCHEM_MONOISOTOPIC_WEIGHT>  (1) 
285.10347926

>  <PUBCHEM_TOTAL_CHARGE>  (1) 
0

>  <PUBCHEM_HEAVY_ATOM_COUNT>  (1) 
19

>  <PUBCHEM_ATOM_DEF_STEREO_COUNT>  (1) 
0

>  <PUBCHEM_ATOM_UDEF_STEREO_COUNT>  (1) 
0

>  <PUBCHEM_BOND_DEF_STEREO_COUNT>  (1) 
0

>  <PUBCHEM_BOND_UDEF_STEREO_COUNT>  (1) 
0

>  <PUBCHEM_ISOTOPIC_ATOM_COUNT>  (1) 
0

>  <PUBCHEM_COMPONENT_COUNT>  (1) 
1

>  <PUBCHEM_CACTVS_TAUTO_COUNT>  (1) 
-1

>  <PUBCHEM_COORDINATE_TYPE>  (1) 
1
5
255

>  <PUBCHEM_BONDANNOTATIONS>  (1) 
11  14  8
11  15  8
14  16  8
15  17  8
16  18  8
17  18  8

$$$$
