5362420
     RDKit          2D

 53 58  0  0  1  0  0  0  0  0999 V2000
    6.7895    4.4228    0.0000 O   0  0  0  0  0  0  0  0  0  0  0  0
    6.8096    2.6909    0.0000 O   0  0  0  0  0  0  0  0  0  0  0  0
    8.8072    6.2134    0.0000 O   0  0  0  0  0  0  0  0  0  0  0  0
    7.3106    5.3416    0.0000 O   0  0  0  0  0  0  0  0  0  0  0  0
    2.8660   -0.7932    0.0000 O   0  0  0  0  0  0  0  0  0  0  0  0
    3.7321   -2.2931    0.0000 O   0  0  0  0  0  0  0  0  0  0  0  0
    8.1407   -6.6176    0.0000 O   0  0  0  0  0  0  0  0  0  0  0  0
    6.8560   -5.4559    0.0000 O   0  0  0  0  0  0  0  0  0  0  0  0
    9.3353    1.0770    0.0000 N   0  0  0  0  0  0  0  0  0  0  0  0
    7.8654   -0.2925    0.0000 N   0  0  0  0  0  0  0  0  0  0  0  0
   10.8705   -0.2925    0.0000 N   0  0  0  0  0  0  0  0  0  0  0  0
    9.3688   -1.6620    0.0000 N   0  0  0  0  0  0  0  0  0  0  0  0
    8.8347    2.6792    0.0000 C   0  0  0  0  0  0  0  0  0  0  0  0
    8.2994    3.5742    0.0000 C   0  0  0  0  0  0  0  0  0  0  0  0
    9.8359    2.6792    0.0000 C   0  0  0  0  0  0  0  0  0  0  0  0
    8.5334    1.7115    0.0000 C   0  0  0  0  0  0  0  0  0  0  0  0
    7.8347    2.6792    0.0000 C   0  0  0  0  0  0  0  0  0  0  0  0
    8.8139    4.4813    0.0000 C   0  0  0  0  0  0  0  0  0  0  0  0
   10.1707    1.7450    0.0000 C   0  0  0  0  0  0  0  0  0  0  0  0
   10.3712    3.5742    0.0000 C   0  0  0  0  0  0  0  0  0  0  0  0
    9.8567    4.4813    0.0000 C   0  0  0  0  0  0  0  0  0  0  0  0
    7.2995    3.5626    0.0000 C   0  0  0  0  0  0  0  0  0  0  0  0
    7.5657    1.4436    0.0000 C   0  0  0  0  0  0  0  0  0  0  0  0
   11.1384    1.4436    0.0000 C   0  0  0  0  0  0  0  0  0  0  0  0
    7.2978    0.4760    0.0000 C   0  0  0  0  0  0  0  0  0  0  0  0
    8.3105    5.3454    0.0000 C   0  0  0  0  0  0  0  0  0  0  0  0
    6.3301    0.2081    0.0000 C   0  0  0  0  0  0  0  0  0  0  0  0
   11.4381    0.5094    0.0000 C   0  0  0  0  0  0  0  0  0  0  0  0
    6.3301   -0.7931    0.0000 C   0  0  0  0  0  0  0  0  0  0  0  0
    7.2978   -1.0610    0.0000 C   0  0  0  0  0  0  0  0  0  0  0  0
   12.4075    0.2416    0.0000 C   0  0  0  0  0  0  0  0  0  0  0  0
    5.4641   -1.2931    0.0000 C   0  0  0  0  0  0  0  0  0  0  0  0
    5.5342    0.8136    0.0000 C   0  0  0  0  0  0  0  0  0  0  0  0
   11.4716   -1.0275    0.0000 C   0  0  0  0  0  0  0  0  0  0  0  0
   12.4075   -0.7596    0.0000 C   0  0  0  0  0  0  0  0  0  0  0  0
    7.5992   -1.9952    0.0000 C   0  0  0  0  0  0  0  0  0  0  0  0
    8.5668   -2.2965    0.0000 C   0  0  0  0  0  0  0  0  0  0  0  0
    5.7896    4.4112    0.0000 C   0  0  0  0  0  0  0  0  0  0  0  0
    8.8682   -3.2307    0.0000 C   0  0  0  0  0  0  0  0  0  0  0  0
    4.5981   -0.7931    0.0000 C   0  0  0  0  0  0  0  0  0  0  0  0
   11.1719   -1.9952    0.0000 C   0  0  0  0  0  0  0  0  0  0  0  0
   10.1707   -2.2630    0.0000 C   0  0  0  0  0  0  0  0  0  0  0  0
   13.2032    0.8472    0.0000 C   0  0  0  0  0  0  0  0  0  0  0  0
    9.8694   -3.2307    0.0000 C   0  0  0  0  0  0  0  0  0  0  0  0
    8.1975   -3.9724    0.0000 C   0  0  0  0  0  0  0  0  0  0  0  0
    8.3039    7.0774    0.0000 C   0  0  0  0  0  0  0  0  0  0  0  0
   13.2060   -1.3616    0.0000 C   0  0  0  0  0  0  0  0  0  0  0  0
   10.4621   -4.0361    0.0000 C   0  0  0  0  0  0  0  0  0  0  0  0
    3.7320   -1.2931    0.0000 C   0  0  0  0  0  0  0  0  0  0  0  0
    8.5045   -4.9242    0.0000 C   0  0  0  0  0  0  0  0  0  0  0  0
   14.1266   -0.9711    0.0000 C   0  0  0  0  0  0  0  0  0  0  0  0
    7.8338   -5.6659    0.0000 C   0  0  0  0  0  0  0  0  0  0  0  0
    2.0000   -1.2932    0.0000 C   0  0  0  0  0  0  0  0  0  0  0  0
  1 22  1  0
  1 38  1  0
  2 22  2  0
  3 26  1  0
  3 46  1  0
  4 26  2  0
  5 49  1  0
  5 53  1  0
  6 49  2  0
  7 52  1  0
  8 52  2  0
  9 16  2  0
  9 19  1  0
 10 25  1  0
 10 30  1  0
 11 28  1  0
 11 34  1  0
 12 37  2  0
 12 42  1  0
 13 14  1  0
 13 15  1  0
 13 16  1  0
 13 17  1  1
 14 18  1  0
 14 22  1  6
 15 19  1  0
 15 20  2  0
 16 23  1  0
 18 21  2  0
 18 26  1  0
 19 24  2  3
 20 21  1  0
 23 25  2  3
 24 28  1  0
 25 27  1  0
 27 29  2  0
 27 33  1  0
 28 31  2  0
 29 30  1  0
 29 32  1  0
 30 36  2  3
 31 35  1  0
 31 43  1  0
 32 40  1  0
 34 35  2  0
 34 41  1  0
 35 47  1  0
 36 37  1  0
 37 39  1  0
 39 44  2  0
 39 45  1  0
 40 49  1  0
 41 42  2  3
 42 44  1  0
 44 48  1  0
 45 50  1  0
 47 51  2  0
 50 52  1  0
M  END
>  <PUBCHEM_COMPOUND_CID>  (1) 
5362420

>  <PUBCHEM_COMPOUND_CANONICALIZED>  (1) 
1

>  <PUBCHEM_CACTVS_COMPLEXITY>  (1) 
1500

>  <PUBCHEM_CACTVS_HBOND_ACCEPTOR>  (1) 
10

>  <PUBCHEM_CACTVS_HBOND_DONOR>  (1) 
3

>  <PUBCHEM_CACTVS_ROTATABLE_BOND>  (1) 
12

>  <PUBCHEM_CACTVS_SUBSKEYS>  (1) 
AAADcfB/vAAAAAAAAAAAAAAAAAAAAWLFiwAgAAAAAAAAAEAB/gAAHgAQCAAADwiBngIyyLLJlgCoAyTyTACCgCAhAiAImSEwZNgIJHLA8dGEdAhk0ADI6Yf/2fOfgAAAAAAAAAAAAAAAAAAAAAAAAAAAAA==

>  <PUBCHEM_IUPAC_OPENEYE_NAME>  (1) 
3-[(23S,24R)-22,23-bis(methoxycarbonyl)-5-(3-methoxy-3-oxo-propyl)-4,10,15,24-tetramethyl-14-vinyl-25,26,27,28-tetrazahexacyclo[16.6.1.13,6.18,11.113,16.019,24]octacosa-1,3,5,7,9,11(27),12,14,16,18(25),19,21-dodecaen-9-yl]propanoic acid

>  <PUBCHEM_IUPAC_CAS_NAME>  (1) 
3-[(23S,24R)-14-ethenyl-22,23-bis(methoxycarbonyl)-5-(3-methoxy-3-oxopropyl)-4,10,15,24-tetramethyl-25,26,27,28-tetrazahexacyclo[16.6.1.13,6.18,11.113,16.019,24]octacosa-1,3,5,7,9,11(27),12,14,16,18(25),19,21-dodecaen-9-yl]propanoic acid

>  <PUBCHEM_IUPAC_NAME_MARKUP>  (1) 
3-[(23<I>S</I>,24<I>R</I>)-14-ethenyl-22,23-bis(methoxycarbonyl)-5-(3-methoxy-3-oxopropyl)-4,10,15,24-tetramethyl-25,26,27,28-tetrazahexacyclo[16.6.1.1<SUP>3,6</SUP>.1<SUP>8,11</SUP>.1<SUP>13,16</SUP>.0<SUP>19,24</SUP>]octacosa-1,3,5,7,9,11(27),12,14,16,18(25),19,21-dodecaen-9-yl]propanoic acid

>  <PUBCHEM_IUPAC_NAME>  (1) 
3-[(23S,24R)-14-ethenyl-22,23-bis(methoxycarbonyl)-5-(3-methoxy-3-oxopropyl)-4,10,15,24-tetramethyl-25,26,27,28-tetrazahexacyclo[16.6.1.13,6.18,11.113,16.019,24]octacosa-1,3,5,7,9,11(27),12,14,16,18(25),19,21-dodecaen-9-yl]propanoic acid

>  <PUBCHEM_IUPAC_SYSTEMATIC_NAME>  (1) 
3-[(23S,24R)-14-ethenyl-22,23-bis(methoxycarbonyl)-5-(3-methoxy-3-oxidanylidene-propyl)-4,10,15,24-tetramethyl-25,26,27,28-tetrazahexacyclo[16.6.1.13,6.18,11.113,16.019,24]octacosa-1,3,5,7,9,11(27),12,14,16,18(25),19,21-dodecaen-9-yl]propanoic acid

>  <PUBCHEM_IUPAC_TRADITIONAL_NAME>  (1) 
3-[(23S,24R)-22,23-dicarbomethoxy-5-(3-keto-3-methoxy-propyl)-4,10,15,24-tetramethyl-14-vinyl-25,26,27,28-tetrazahexacyclo[16.6.1.13,6.18,11.113,16.019,24]octacosa-1,3,5,7,9,11(27),12,14,16,18(25),19,21-dodecaen-9-yl]propionic acid

>  <PUBCHEM_IUPAC_INCHI>  (1) 
InChI=1S/C41H42N4O8/c1-9-23-20(2)29-17-34-27-13-10-26(39(49)52-7)38(40(50)53-8)41(27,5)35(45-34)19-30-22(4)25(12-15-37(48)51-6)33(44-30)18-32-24(11-14-36(46)47)21(3)28(43-32)16-31(23)42-29/h9-10,13,16-19,38,42,44H,1,11-12,14-15H2,2-8H3,(H,46,47)/t38-,41+/m0/s1

>  <PUBCHEM_IUPAC_INCHIKEY>  (1) 
YTZALCGQUPRCGW-ZSFNYQMMSA-N

>  <PUBCHEM_XLOGP3_AA>  (1) 
4.9

>  <PUBCHEM_EXACT_MASS>  (1) 
718.30026431

>  <PUBCHEM_MOLECULAR_FORMULA>  (1) 
C41H42N4O8

>  <PUBCHEM_MOLECULAR_WEIGHT>  (1) 
718.8

>  <PUBCHEM_OPENEYE_CAN_SMILES>  (1) 
CC1=C(C2=CC3=NC(=CC4=C(C(=C(N4)C=C5C6(C(C(=CC=C6C(=N5)C=C1N2)C(=O)OC)C(=O)OC)C)C)CCC(=O)OC)C(=C3C)CCC(=O)O)C=C

>  <PUBCHEM_OPENEYE_ISO_SMILES>  (1) 
CC1=C(C2=CC3=NC(=CC4=C(C(=C(N4)C=C5[C@@]6([C@@H](C(=CC=C6C(=N5)C=C1N2)C(=O)OC)C(=O)OC)C)C)CCC(=O)OC)C(=C3C)CCC(=O)O)C=C

>  <PUBCHEM_CACTVS_TPSA>  (1) 
174

>  <PUBCHEM_MONOISOTOPIC_WEIGHT>  (1) 
718.30026431

>  <PUBCHEM_TOTAL_CHARGE>  (1) 
0

>  <PUBCHEM_HEAVY_ATOM_COUNT>  (1) 
53

>  <PUBCHEM_ATOM_DEF_STEREO_COUNT>  (1) 
2

>  <PUBCHEM_ATOM_UDEF_STEREO_COUNT>  (1) 
0

>  <PUBCHEM_BOND_DEF_STEREO_COUNT>  (1) 
0

>  <PUBCHEM_BOND_UDEF_STEREO_COUNT>  (1) 
0

>  <PUBCHEM_ISOTOPIC_ATOM_COUNT>  (1) 
0

>  <PUBCHEM_COMPONENT_COUNT>  (1) 
1

>  <PUBCHEM_CACTVS_TAUTO_COUNT>  (1) 
-1

>  <PUBCHEM_COORDINATE_TYPE>  (1) 
1
5
255

>  <PUBCHEM_BONDANNOTATIONS>  (1) 
10  25  8
10  30  8
11  28  8
11  34  8
12  37  8
12  42  8
13  17  5
14  22  6
16  23  8
19  24  8
23  25  8
24  28  8
25  27  8
27  29  8
28  31  8
29  30  8
30  36  8
31  35  8
34  35  8
34  41  8
36  37  8
41  42  8
9  16  8
9  19  8

$$$$
