155882931
     RDKit          2D

 22 24  0  0  0  0  0  0  0  0999 V2000
    2.8954   -1.6894    0.0000 S   0  0  0  0  0  0  0  0  0  0  0  0
    4.6749    2.3929    0.0000 S   0  0  0  0  0  0  0  0  0  0  0  0
    6.4840   -0.1949    0.0000 S   0  0  0  0  0  0  0  0  0  0  0  0
    2.7044   -0.1017    0.0000 O   0  0  0  0  0  0  0  0  0  0  0  0
    4.5134   -1.6894    0.0000 N   0  0  0  0  0  0  0  0  0  0  0  0
    5.4840    0.9916    0.0000 N   0  0  0  0  0  0  0  0  0  0  0  0
    5.6749   -1.5962    0.0000 N   0  0  0  0  0  0  0  0  0  0  0  0
    4.2044   -2.6405    0.0000 N   0  0  0  0  0  0  0  0  0  0  0  0
    6.1531    1.7348    0.0000 N   0  0  0  0  0  0  0  0  0  0  0  0
    6.6531   -1.8041    0.0000 N   0  0  0  0  0  0  0  0  0  0  0  0
    2.6166   -3.4495    0.0000 N   0  0  0  0  0  0  0  0  0  0  0  0
    6.0598    3.5143    0.0000 N   0  0  0  0  0  0  0  0  0  0  0  0
    8.1476   -0.8335    0.0000 N   0  0  0  0  0  0  0  0  0  0  0  0
    3.7044   -0.1017    0.0000 C   0  0  0  0  0  0  0  0  0  0  0  0
    3.7044    0.8983    0.0000 C   0  0  0  0  0  0  0  0  0  0  0  0
    4.7044   -0.1017    0.0000 C   0  0  0  0  0  0  0  0  0  0  0  0
    3.7044   -1.1017    0.0000 C   0  0  0  0  0  0  0  0  0  0  0  0
    4.5704    1.3983    0.0000 C   0  0  0  0  0  0  0  0  0  0  0  0
    5.5704   -0.6017    0.0000 C   0  0  0  0  0  0  0  0  0  0  0  0
    3.2044   -2.6405    0.0000 C   0  0  0  0  0  0  0  0  0  0  0  0
    5.6531    2.6008    0.0000 C   0  0  0  0  0  0  0  0  0  0  0  0
    7.1531   -0.9381    0.0000 C   0  0  0  0  0  0  0  0  0  0  0  0
  1 17  1  0
  1 20  1  0
  2 18  1  0
  2 21  1  0
  3 19  1  0
  3 22  1  0
  4 14  1  0
  5  8  1  0
  5 17  2  0
  6  9  1  0
  6 18  2  0
  7 10  1  0
  7 19  2  0
  8 20  2  0
  9 21  2  0
 10 22  2  0
 11 20  1  0
 12 21  1  0
 13 22  1  0
 14 15  1  0
 14 16  1  0
 14 17  1  0
 15 18  1  0
 16 19  1  0
M  END
>  <PUBCHEM_COMPOUND_CID>  (1) 
155882931

>  <PUBCHEM_COMPOUND_CANONICALIZED>  (1) 
1

>  <PUBCHEM_CACTVS_COMPLEXITY>  (1) 
371

>  <PUBCHEM_CACTVS_HBOND_ACCEPTOR>  (1) 
13

>  <PUBCHEM_CACTVS_HBOND_DONOR>  (1) 
4

>  <PUBCHEM_CACTVS_ROTATABLE_BOND>  (1) 
5

>  <PUBCHEM_CACTVS_SUBSKEYS>  (1) 
AAADccBz4ABgAAAAAAAAAAAAAAAAAWLFgAAAAAAAAAAAAAAB+AAAHgQYCAAADESBwgABEABAAggmAAAgIAQQAIJAABEUAAAwAAACAAIggAAAQAASCAAAAAAQAAAKAAAAAAAAAAAAAAAAAAAAAAAAAAAAAA==

>  <PUBCHEM_IUPAC_OPENEYE_NAME>  (1) 
1,2,3-tris(5-amino-1,3,4-thiadiazol-2-yl)propan-2-ol

>  <PUBCHEM_IUPAC_CAS_NAME>  (1) 
1,2,3-tris(5-amino-1,3,4-thiadiazol-2-yl)-2-propanol

>  <PUBCHEM_IUPAC_NAME_MARKUP>  (1) 
1,2,3-tris(5-amino-1,3,4-thiadiazol-2-yl)propan-2-ol

>  <PUBCHEM_IUPAC_NAME>  (1) 
1,2,3-tris(5-amino-1,3,4-thiadiazol-2-yl)propan-2-ol

>  <PUBCHEM_IUPAC_SYSTEMATIC_NAME>  (1) 
1,2,3-tris(5-azanyl-1,3,4-thiadiazol-2-yl)propan-2-ol

>  <PUBCHEM_IUPAC_TRADITIONAL_NAME>  (1) 
1,2,3-tris(5-amino-1,3,4-thiadiazol-2-yl)propan-2-ol

>  <PUBCHEM_IUPAC_INCHI>  (1) 
InChI=1S/C9H11N9OS3/c10-6-16-13-3(20-6)1-9(19,5-15-18-8(12)22-5)2-4-14-17-7(11)21-4/h19H,1-2H2,(H2,10,16)(H2,11,17)(H2,12,18)

>  <PUBCHEM_IUPAC_INCHIKEY>  (1) 
JBIAZRRNUHCNNA-UHFFFAOYSA-N

>  <PUBCHEM_XLOGP3_AA>  (1) 
-0.8

>  <PUBCHEM_EXACT_MASS>  (1) 
357.02486953

>  <PUBCHEM_MOLECULAR_FORMULA>  (1) 
C9H11N9OS3

>  <PUBCHEM_MOLECULAR_WEIGHT>  (1) 
357.4

>  <PUBCHEM_OPENEYE_CAN_SMILES>  (1) 
C(C1=NN=C(S1)N)C(CC2=NN=C(S2)N)(C3=NN=C(S3)N)O

>  <PUBCHEM_OPENEYE_ISO_SMILES>  (1) 
C(C1=NN=C(S1)N)C(CC2=NN=C(S2)N)(C3=NN=C(S3)N)O

>  <PUBCHEM_CACTVS_TPSA>  (1) 
260

>  <PUBCHEM_MONOISOTOPIC_WEIGHT>  (1) 
357.02486953

>  <PUBCHEM_TOTAL_CHARGE>  (1) 
0

>  <PUBCHEM_HEAVY_ATOM_COUNT>  (1) 
22

>  <PUBCHEM_ATOM_DEF_STEREO_COUNT>  (1) 
0

>  <PUBCHEM_ATOM_UDEF_STEREO_COUNT>  (1) 
0

>  <PUBCHEM_BOND_DEF_STEREO_COUNT>  (1) 
0

>  <PUBCHEM_BOND_UDEF_STEREO_COUNT>  (1) 
0

>  <PUBCHEM_ISOTOPIC_ATOM_COUNT>  (1) 
0

>  <PUBCHEM_COMPONENT_COUNT>  (1) 
1

>  <PUBCHEM_CACTVS_TAUTO_COUNT>  (1) 
-1

>  <PUBCHEM_COORDINATE_TYPE>  (1) 
1
5
255

>  <PUBCHEM_BONDANNOTATIONS>  (1) 
1  17  8
1  20  8
10  22  8
2  18  8
2  21  8
3  19  8
3  22  8
5  17  8
5  8  8
6  18  8
6  9  8
7  10  8
7  19  8
8  20  8
9  21  8

$$$$
