2794
     RDKit          2D

 33 37  0  0  0  0  0  0  0  0999 V2000
    4.6660    5.0121    0.0000 Cl  0  0  0  0  0  0  0  0  0  0  0  0
    8.1807   -5.0121    0.0000 Cl  0  0  0  0  0  0  0  0  0  0  0  0
    4.6660    1.0121    0.0000 N   0  0  0  0  0  0  0  0  0  0  0  0
    4.6660   -0.9879    0.0000 N   0  0  0  0  0  0  0  0  0  0  0  0
    8.1962   -1.0121    0.0000 N   0  0  0  0  0  0  0  0  0  0  0  0
    8.1962    1.0362    0.0000 N   0  0  0  0  0  0  0  0  0  0  0  0
    5.5321    0.5121    0.0000 C   0  0  0  0  0  0  0  0  0  0  0  0
    5.5321   -0.4879    0.0000 C   0  0  0  0  0  0  0  0  0  0  0  0
    3.8000    0.5121    0.0000 C   0  0  0  0  0  0  0  0  0  0  0  0
    6.4260    1.0467    0.0000 C   0  0  0  0  0  0  0  0  0  0  0  0
    7.3321    0.5329    0.0000 C   0  0  0  0  0  0  0  0  0  0  0  0
    3.8000   -0.4879    0.0000 C   0  0  0  0  0  0  0  0  0  0  0  0
    7.3321   -0.5088    0.0000 C   0  0  0  0  0  0  0  0  0  0  0  0
    6.4260   -1.0226    0.0000 C   0  0  0  0  0  0  0  0  0  0  0  0
    4.6660    2.0121    0.0000 C   0  0  0  0  0  0  0  0  0  0  0  0
    2.9061    1.0467    0.0000 C   0  0  0  0  0  0  0  0  0  0  0  0
    8.1923    2.0362    0.0000 C   0  0  0  0  0  0  0  0  0  0  0  0
    2.9061   -1.0226    0.0000 C   0  0  0  0  0  0  0  0  0  0  0  0
    3.8000    2.5121    0.0000 C   0  0  0  0  0  0  0  0  0  0  0  0
    5.5321    2.5121    0.0000 C   0  0  0  0  0  0  0  0  0  0  0  0
    2.0000    0.5329    0.0000 C   0  0  0  0  0  0  0  0  0  0  0  0
    2.0000   -0.5088    0.0000 C   0  0  0  0  0  0  0  0  0  0  0  0
    8.1923   -2.0121    0.0000 C   0  0  0  0  0  0  0  0  0  0  0  0
    9.0564    2.5395    0.0000 C   0  0  0  0  0  0  0  0  0  0  0  0
    7.3244    2.5329    0.0000 C   0  0  0  0  0  0  0  0  0  0  0  0
    3.8000    3.5121    0.0000 C   0  0  0  0  0  0  0  0  0  0  0  0
    5.5321    3.5121    0.0000 C   0  0  0  0  0  0  0  0  0  0  0  0
    4.6660    4.0121    0.0000 C   0  0  0  0  0  0  0  0  0  0  0  0
    9.0564   -2.5154    0.0000 C   0  0  0  0  0  0  0  0  0  0  0  0
    7.3244   -2.5087    0.0000 C   0  0  0  0  0  0  0  0  0  0  0  0
    9.0525   -3.5154    0.0000 C   0  0  0  0  0  0  0  0  0  0  0  0
    7.3205   -3.5087    0.0000 C   0  0  0  0  0  0  0  0  0  0  0  0
    8.1846   -4.0121    0.0000 C   0  0  0  0  0  0  0  0  0  0  0  0
  1 28  1  0
  2 33  1  0
  3  7  1  0
  3  9  1  0
  3 15  1  0
  4  8  2  0
  4 12  1  0
  5 13  1  0
  5 23  1  0
  6 11  2  0
  6 17  1  0
  7  8  1  0
  7 10  2  0
  8 14  1  0
  9 12  2  0
  9 16  1  0
 10 11  1  0
 11 13  1  0
 12 18  1  0
 13 14  2  0
 15 19  2  0
 15 20  1  0
 16 21  2  0
 17 24  1  0
 17 25  1  0
 18 22  2  0
 19 26  1  0
 20 27  2  0
 21 22  1  0
 23 29  2  0
 23 30  1  0
 26 28  2  0
 27 28  1  0
 29 31  1  0
 30 32  2  0
 31 33  2  0
 32 33  1  0
M  END
>  <PUBCHEM_COMPOUND_CID>  (1) 
2794

>  <PUBCHEM_COMPOUND_CANONICALIZED>  (1) 
1

>  <PUBCHEM_CACTVS_COMPLEXITY>  (1) 
829

>  <PUBCHEM_CACTVS_HBOND_ACCEPTOR>  (1) 
4

>  <PUBCHEM_CACTVS_HBOND_DONOR>  (1) 
1

>  <PUBCHEM_CACTVS_ROTATABLE_BOND>  (1) 
4

>  <PUBCHEM_CACTVS_SUBSKEYS>  (1) 
AAADceB7gAAGAAAAAAAAAAAAAAAAAAAAAAAwYMECAAAAAACBUAAAHAIQAAAACCrBECQywIPAAACgASRiRACCAAAhBwAIiAAQdpgIYGLBk5GUIAhgkADIyAcQAAAAAABAAAAAACAAAIAAAAAAQAAAAAAAAA==

>  <PUBCHEM_IUPAC_OPENEYE_NAME>  (1) 
N,5-bis(4-chlorophenyl)-3-isopropylimino-phenazin-2-amine

>  <PUBCHEM_IUPAC_CAS_NAME>  (1) 
N,5-bis(4-chlorophenyl)-3-propan-2-ylimino-2-phenazinamine

>  <PUBCHEM_IUPAC_NAME_MARKUP>  (1) 
<I>N</I>,5-bis(4-chlorophenyl)-3-propan-2-yliminophenazin-2-amine

>  <PUBCHEM_IUPAC_NAME>  (1) 
N,5-bis(4-chlorophenyl)-3-propan-2-yliminophenazin-2-amine

>  <PUBCHEM_IUPAC_SYSTEMATIC_NAME>  (1) 
N,5-bis(4-chlorophenyl)-3-propan-2-ylimino-phenazin-2-amine

>  <PUBCHEM_IUPAC_TRADITIONAL_NAME>  (1) 
(4-chlorophenyl)-[5-(4-chlorophenyl)-3-isopropylimino-phenazin-2-yl]amine

>  <PUBCHEM_IUPAC_INCHI>  (1) 
InChI=1S/C27H22Cl2N4/c1-17(2)30-24-16-27-25(15-23(24)31-20-11-7-18(28)8-12-20)32-22-5-3-4-6-26(22)33(27)21-13-9-19(29)10-14-21/h3-17,31H,1-2H3

>  <PUBCHEM_IUPAC_INCHIKEY>  (1) 
WDQPAMHFFCXSNU-UHFFFAOYSA-N

>  <PUBCHEM_XLOGP3_AA>  (1) 
7.1

>  <PUBCHEM_EXACT_MASS>  (1) 
472.1221521

>  <PUBCHEM_MOLECULAR_FORMULA>  (1) 
C27H22Cl2N4

>  <PUBCHEM_MOLECULAR_WEIGHT>  (1) 
473.4

>  <PUBCHEM_OPENEYE_CAN_SMILES>  (1) 
CC(C)N=C1C=C2C(=NC3=CC=CC=C3N2C4=CC=C(C=C4)Cl)C=C1NC5=CC=C(C=C5)Cl

>  <PUBCHEM_OPENEYE_ISO_SMILES>  (1) 
CC(C)N=C1C=C2C(=NC3=CC=CC=C3N2C4=CC=C(C=C4)Cl)C=C1NC5=CC=C(C=C5)Cl

>  <PUBCHEM_CACTVS_TPSA>  (1) 
40

>  <PUBCHEM_MONOISOTOPIC_WEIGHT>  (1) 
472.1221521

>  <PUBCHEM_TOTAL_CHARGE>  (1) 
0

>  <PUBCHEM_HEAVY_ATOM_COUNT>  (1) 
33

>  <PUBCHEM_ATOM_DEF_STEREO_COUNT>  (1) 
0

>  <PUBCHEM_ATOM_UDEF_STEREO_COUNT>  (1) 
0

>  <PUBCHEM_BOND_DEF_STEREO_COUNT>  (1) 
0

>  <PUBCHEM_BOND_UDEF_STEREO_COUNT>  (1) 
0

>  <PUBCHEM_ISOTOPIC_ATOM_COUNT>  (1) 
0

>  <PUBCHEM_COMPONENT_COUNT>  (1) 
1

>  <PUBCHEM_CACTVS_TAUTO_COUNT>  (1) 
-1

>  <PUBCHEM_COORDINATE_TYPE>  (1) 
1
5
255

>  <PUBCHEM_BONDANNOTATIONS>  (1) 
10  11  8
11  13  8
12  18  8
13  14  8
15  19  8
15  20  8
16  21  8
18  22  8
19  26  8
20  27  8
21  22  8
23  29  8
23  30  8
26  28  8
27  28  8
29  31  8
3  7  8
3  9  8
30  32  8
31  33  8
32  33  8
4  12  8
4  8  8
7  10  8
8  14  8
9  12  8
9  16  8

$$$$
