4669250
     RDKit          2D

 14 15  0  0  0  0  0  0  0  0999 V2000
    6.7210    1.4523    0.0000 O   0  0  0  0  0  0  0  0  0  0  0  0
    7.9939   -0.3030    0.0000 O   0  0  0  0  0  0  0  0  0  0  0  0
    2.0000    0.1970    0.0000 O   0  0  0  0  0  0  0  0  0  0  0  0
    2.8660    1.6970    0.0000 O   0  0  0  0  0  0  0  0  0  0  0  0
    6.4103   -1.1077    0.0000 N   0  0  0  0  0  0  0  0  0  0  0  0
    2.8660    0.6970    0.0000 N   0  0  0  0  0  0  0  0  0  0  0  0
    5.4641    0.1970    0.0000 C   0  0  0  0  0  0  0  0  0  0  0  0
    5.4641   -0.8030    0.0000 C   0  0  0  0  0  0  0  0  0  0  0  0
    4.5981    0.6970    0.0000 C   0  0  0  0  0  0  0  0  0  0  0  0
    6.4103    0.5018    0.0000 C   0  0  0  0  0  0  0  0  0  0  0  0
    4.5981   -1.3030    0.0000 C   0  0  0  0  0  0  0  0  0  0  0  0
    3.7320    0.1970    0.0000 C   0  0  0  0  0  0  0  0  0  0  0  0
    6.9939   -0.3030    0.0000 C   0  0  0  0  0  0  0  0  0  0  0  0
    3.7320   -0.8030    0.0000 C   0  0  0  0  0  0  0  0  0  0  0  0
  1 10  2  0
  2 13  2  0
  3  6  1  0
  4  6  2  0
  5  8  1  0
  5 13  1  0
  6 12  1  0
  7  8  2  0
  7  9  1  0
  7 10  1  0
  8 11  1  0
  9 12  2  0
 10 13  1  0
 11 14  2  0
 12 14  1  0
M  CHG  2   3  -1   6   1
M  END
>  <PUBCHEM_COMPOUND_CID>  (1) 
4669250

>  <PUBCHEM_COMPOUND_CANONICALIZED>  (1) 
1

>  <PUBCHEM_CACTVS_COMPLEXITY>  (1) 
309

>  <PUBCHEM_CACTVS_HBOND_ACCEPTOR>  (1) 
4

>  <PUBCHEM_CACTVS_HBOND_DONOR>  (1) 
1

>  <PUBCHEM_CACTVS_ROTATABLE_BOND>  (1) 
0

>  <PUBCHEM_CACTVS_SUBSKEYS>  (1) 
AAADcYBzOAAAAAAAAAAAAAAAAAAAAWAAAAAwAAAAAAAAAFgBAAAAHgAUAAAADAyBmAAwwILQQACJAqVSUwCCAAAlAgAoiAGAZMoIIDrAlbGEIYhglADIyccciYCeAACAQAACAAAAAQCAAAQAAAAAAAAAAA==

>  <PUBCHEM_IUPAC_OPENEYE_NAME>  (1) 
5-nitroindoline-2,3-dione

>  <PUBCHEM_IUPAC_CAS_NAME>  (1) 
5-nitro-1H-indole-2,3-dione

>  <PUBCHEM_IUPAC_NAME_MARKUP>  (1) 
5-nitro-1<I>H</I>-indole-2,3-dione

>  <PUBCHEM_IUPAC_NAME>  (1) 
5-nitro-1H-indole-2,3-dione

>  <PUBCHEM_IUPAC_SYSTEMATIC_NAME>  (1) 
5-nitro-1H-indole-2,3-dione

>  <PUBCHEM_IUPAC_TRADITIONAL_NAME>  (1) 
5-nitroisatin

>  <PUBCHEM_IUPAC_INCHI>  (1) 
InChI=1S/C8H4N2O4/c11-7-5-3-4(10(13)14)1-2-6(5)9-8(7)12/h1-3H,(H,9,11,12)

>  <PUBCHEM_IUPAC_INCHIKEY>  (1) 
UNMYHYODJHKLOC-UHFFFAOYSA-N

>  <PUBCHEM_XLOGP3>  (1) 
0.5

>  <PUBCHEM_EXACT_MASS>  (1) 
192.01710661

>  <PUBCHEM_MOLECULAR_FORMULA>  (1) 
C8H4N2O4

>  <PUBCHEM_MOLECULAR_WEIGHT>  (1) 
192.13

>  <PUBCHEM_OPENEYE_CAN_SMILES>  (1) 
C1=CC2=C(C=C1[N+](=O)[O-])C(=O)C(=O)N2

>  <PUBCHEM_OPENEYE_ISO_SMILES>  (1) 
C1=CC2=C(C=C1[N+](=O)[O-])C(=O)C(=O)N2

>  <PUBCHEM_CACTVS_TPSA>  (1) 
92

>  <PUBCHEM_MONOISOTOPIC_WEIGHT>  (1) 
192.01710661

>  <PUBCHEM_TOTAL_CHARGE>  (1) 
0

>  <PUBCHEM_HEAVY_ATOM_COUNT>  (1) 
14

>  <PUBCHEM_ATOM_DEF_STEREO_COUNT>  (1) 
0

>  <PUBCHEM_ATOM_UDEF_STEREO_COUNT>  (1) 
0

>  <PUBCHEM_BOND_DEF_STEREO_COUNT>  (1) 
0

>  <PUBCHEM_BOND_UDEF_STEREO_COUNT>  (1) 
0

>  <PUBCHEM_ISOTOPIC_ATOM_COUNT>  (1) 
0

>  <PUBCHEM_COMPONENT_COUNT>  (1) 
1

>  <PUBCHEM_CACTVS_TAUTO_COUNT>  (1) 
-1

>  <PUBCHEM_COORDINATE_TYPE>  (1) 
1
5
255

>  <PUBCHEM_BONDANNOTATIONS>  (1) 
11  14  8
12  14  8
7  8  8
7  9  8
8  11  8
9  12  8

$$$$
