11857239
     RDKit          2D

 49 52  0  0  1  0  0  0  0  0999 V2000
    4.0000   -3.3434    0.0000 S   0  0  0  0  0  0  0  0  0  0  0  0
    9.3006    0.3566    0.0000 O   0  0  0  0  0  0  0  0  0  0  0  0
    8.5000   -0.7453    0.0000 O   0  0  0  0  0  0  0  0  0  0  0  0
   12.2862    2.3781    0.0000 O   0  0  0  0  0  0  0  0  0  0  0  0
    7.5000   -4.2094    0.0000 O   0  0  0  0  0  0  0  0  0  0  0  0
   10.0208    3.7450    0.0000 O   0  0  0  0  0  0  0  0  0  0  0  0
    4.0000   -2.3434    0.0000 O   0  0  0  0  0  0  0  0  0  0  0  0
    4.0000   -4.3434    0.0000 O   0  0  0  0  0  0  0  0  0  0  0  0
   10.0000   -1.6114    0.0000 N   0  0  0  0  0  0  0  0  0  0  0  0
   10.9479    0.8918    0.0000 N   0  0  0  0  0  0  0  0  0  0  0  0
    7.5000   -2.4774    0.0000 N   0  0  0  0  0  0  0  0  0  0  0  0
    6.0000   -3.3434    0.0000 N   0  0  0  0  0  0  0  0  0  0  0  0
   11.6681    4.2802    0.0000 N   0  0  0  0  0  0  0  0  0  0  0  0
   11.5388   -1.1114    0.0000 C   0  0  0  0  0  0  0  0  0  0  0  0
   12.4054   -1.6114    0.0000 C   0  0  0  0  0  0  0  0  0  0  0  0
   11.5388   -2.1114    0.0000 C   0  0  0  0  0  0  0  0  0  0  0  0
   10.5878   -0.8024    0.0000 C   0  0  0  0  0  0  0  0  0  0  0  0
   10.5878   -2.4204    0.0000 C   0  0  0  0  0  0  0  0  0  0  0  0
   12.9054   -2.4774    0.0000 C   0  0  0  0  0  0  0  0  0  0  0  0
   12.9054   -0.7453    0.0000 C   0  0  0  0  0  0  0  0  0  0  0  0
   10.2788    0.1487    0.0000 C   0  0  0  0  0  0  0  0  0  0  0  0
    9.0000   -1.6114    0.0000 C   0  0  0  0  0  0  0  0  0  0  0  0
    8.5000   -2.4774    0.0000 C   0  0  0  0  0  0  0  0  0  0  0  0
    9.0000   -3.3434    0.0000 C   0  0  0  0  0  0  0  0  0  0  0  0
   10.6389    1.8429    0.0000 C   0  0  0  0  0  0  0  0  0  0  0  0
    9.5000   -4.2094    0.0000 C   0  0  0  0  0  0  0  0  0  0  0  0
    8.1340   -3.8434    0.0000 C   0  0  0  0  0  0  0  0  0  0  0  0
    9.8660   -2.8434    0.0000 C   0  0  0  0  0  0  0  0  0  0  0  0
    9.6607    2.0508    0.0000 C   0  0  0  0  0  0  0  0  0  0  0  0
   11.3080    2.5860    0.0000 C   0  0  0  0  0  0  0  0  0  0  0  0
    7.0000   -3.3434    0.0000 C   0  0  0  0  0  0  0  0  0  0  0  0
    9.3517    3.0019    0.0000 C   0  0  0  0  0  0  0  0  0  0  0  0
    5.5000   -4.2094    0.0000 C   0  0  0  0  0  0  0  0  0  0  0  0
   10.9990    3.5371    0.0000 C   0  0  0  0  0  0  0  0  0  0  0  0
    4.6340   -4.7094    0.0000 C   0  0  0  0  0  0  0  0  0  0  0  0
    6.3660   -4.7094    0.0000 C   0  0  0  0  0  0  0  0  0  0  0  0
    8.3736    3.2098    0.0000 C   0  0  0  0  0  0  0  0  0  0  0  0
    5.0000   -3.3434    0.0000 C   0  0  0  0  0  0  0  0  0  0  0  0
    4.6340   -5.7094    0.0000 C   0  0  0  0  0  0  0  0  0  0  0  0
    6.3660   -5.7094    0.0000 C   0  0  0  0  0  0  0  0  0  0  0  0
   11.3591    5.2313    0.0000 C   0  0  0  0  0  0  0  0  0  0  0  0
    5.5000   -6.2094    0.0000 C   0  0  0  0  0  0  0  0  0  0  0  0
   11.5670    6.2094    0.0000 C   0  0  0  0  0  0  0  0  0  0  0  0
   10.6160    5.9004    0.0000 C   0  0  0  0  0  0  0  0  0  0  0  0
    3.0000   -3.3434    0.0000 C   0  0  0  0  0  0  0  0  0  0  0  0
    8.0646    4.1608    0.0000 C   0  0  0  0  0  0  0  0  0  0  0  0
    2.0000   -3.3434    0.0000 C   0  0  0  0  0  0  0  0  0  0  0  0
    3.0000   -2.3434    0.0000 C   0  0  0  0  0  0  0  0  0  0  0  0
    3.0000   -4.3434    0.0000 C   0  0  0  0  0  0  0  0  0  0  0  0
  1  7  2  0
  1  8  2  0
  1 38  1  0
  1 45  1  0
  2 21  2  0
  3 22  2  0
  4 30  2  0
  5 31  2  0
  6 34  2  0
  9 17  1  0
  9 18  1  0
  9 22  1  0
 10 21  1  0
 25 10  1  0
 23 11  1  6
 11 31  1  0
 12 31  1  0
 12 33  1  0
 13 34  1  0
 13 41  1  0
 14 15  1  1
 14 16  1  0
 14 17  1  0
 15 16  1  0
 15 19  1  0
 15 20  1  0
 16 18  1  1
 17 21  1  6
 22 23  1  0
 23 24  1  0
 24 26  1  0
 24 27  1  0
 24 28  1  0
 25 29  1  1
 25 30  1  0
 29 32  1  0
 30 34  1  0
 32 37  1  0
 33 35  1  0
 33 36  1  0
 33 38  1  0
 35 39  1  0
 36 40  1  0
 37 46  1  0
 39 42  1  0
 40 42  1  0
 41 43  1  0
 41 44  1  0
 43 44  1  0
 45 47  1  0
 45 48  1  0
 45 49  1  0
M  END
>  <PUBCHEM_COMPOUND_CID>  (1) 
11857239

>  <PUBCHEM_COMPOUND_CANONICALIZED>  (1) 
1

>  <PUBCHEM_CACTVS_COMPLEXITY>  (1) 
1400

>  <PUBCHEM_CACTVS_HBOND_ACCEPTOR>  (1) 
7

>  <PUBCHEM_CACTVS_HBOND_DONOR>  (1) 
4

>  <PUBCHEM_CACTVS_ROTATABLE_BOND>  (1) 
15

>  <PUBCHEM_CACTVS_SUBSKEYS>  (1) 
AAADcfB/uABAAAAAAAAAAAAAGDAAAWAAAAA8QAAAAAAAAAAAAAAAHgQQAAAAD6zFwASDAAPAAAoIAIEQEHBAAAAAABAAAIGIAACAQBogwCAUAAAIFgKgAAEYiQCPgAAAAAAAAAAAAAAAAAAAAAAAAAAAAA==

>  <PUBCHEM_IUPAC_OPENEYE_NAME>  (1) 
(1R,2S,5S)-3-[(2S)-2-[[1-(tert-butylsulfonylmethyl)cyclohexyl]carbamoylamino]-3,3-dimethyl-butanoyl]-N-[(1S)-1-[2-(cyclopropylamino)-2-oxo-acetyl]pentyl]-6,6-dimethyl-3-azabicyclo[3.1.0]hexane-2-carboxamide

>  <PUBCHEM_IUPAC_CAS_NAME>  (1) 
(1R,2S,5S)-3-[(2S)-2-[[[[1-(tert-butylsulfonylmethyl)cyclohexyl]amino]-oxomethyl]amino]-3,3-dimethyl-1-oxobutyl]-N-[(3S)-1-(cyclopropylamino)-1,2-dioxoheptan-3-yl]-6,6-dimethyl-3-azabicyclo[3.1.0]hexane-2-carboxamide

>  <PUBCHEM_IUPAC_NAME_MARKUP>  (1) 
(1<I>R</I>,2<I>S</I>,5<I>S</I>)-3-[(2<I>S</I>)-2-[[1-(<I>tert</I>-butylsulfonylmethyl)cyclohexyl]carbamoylamino]-3,3-dimethylbutanoyl]-<I>N</I>-[(3<I>S</I>)-1-(cyclopropylamino)-1,2-dioxoheptan-3-yl]-6,6-dimethyl-3-azabicyclo[3.1.0]hexane-2-carboxamide

>  <PUBCHEM_IUPAC_NAME>  (1) 
(1R,2S,5S)-3-[(2S)-2-[[1-(tert-butylsulfonylmethyl)cyclohexyl]carbamoylamino]-3,3-dimethylbutanoyl]-N-[(3S)-1-(cyclopropylamino)-1,2-dioxoheptan-3-yl]-6,6-dimethyl-3-azabicyclo[3.1.0]hexane-2-carboxamide

>  <PUBCHEM_IUPAC_SYSTEMATIC_NAME>  (1) 
(1R,2S,5S)-3-[(2S)-2-[[1-(tert-butylsulfonylmethyl)cyclohexyl]carbamoylamino]-3,3-dimethyl-butanoyl]-N-[(3S)-1-(cyclopropylamino)-1,2-bis(oxidanylidene)heptan-3-yl]-6,6-dimethyl-3-azabicyclo[3.1.0]hexane-2-carboxamide

>  <PUBCHEM_IUPAC_TRADITIONAL_NAME>  (1) 
(1R,2S,5S)-3-[(2S)-2-[[1-(tert-butylsulfonylmethyl)cyclohexyl]carbamoylamino]-3,3-dimethyl-butanoyl]-N-[(1S)-1-[2-(cyclopropylamino)-2-keto-acetyl]pentyl]-6,6-dimethyl-3-azabicyclo[3.1.0]hexane-2-carboxamide

>  <PUBCHEM_IUPAC_INCHI>  (1) 
InChI=1S/C36H61N5O7S/c1-10-11-15-24(27(42)30(44)37-22-16-17-22)38-29(43)26-25-23(35(25,8)9)20-41(26)31(45)28(33(2,3)4)39-32(46)40-36(18-13-12-14-19-36)21-49(47,48)34(5,6)7/h22-26,28H,10-21H2,1-9H3,(H,37,44)(H,38,43)(H2,39,40,46)/t23-,24-,25-,26-,28+/m0/s1

>  <PUBCHEM_IUPAC_INCHIKEY>  (1) 
RICZEKWVNZFTNZ-LFGITCQGSA-N

>  <PUBCHEM_XLOGP3_AA>  (1) 
5.4

>  <PUBCHEM_EXACT_MASS>  (1) 
707.42917048

>  <PUBCHEM_MOLECULAR_FORMULA>  (1) 
C36H61N5O7S

>  <PUBCHEM_MOLECULAR_WEIGHT>  (1) 
708.0

>  <PUBCHEM_OPENEYE_CAN_SMILES>  (1) 
CCCCC(C(=O)C(=O)NC1CC1)NC(=O)C2C3C(C3(C)C)CN2C(=O)C(C(C)(C)C)NC(=O)NC4(CCCCC4)CS(=O)(=O)C(C)(C)C

>  <PUBCHEM_OPENEYE_ISO_SMILES>  (1) 
CCCC[C@@H](C(=O)C(=O)NC1CC1)NC(=O)[C@@H]2[C@@H]3[C@@H](C3(C)C)CN2C(=O)[C@H](C(C)(C)C)NC(=O)NC4(CCCCC4)CS(=O)(=O)C(C)(C)C

>  <PUBCHEM_CACTVS_TPSA>  (1) 
179

>  <PUBCHEM_MONOISOTOPIC_WEIGHT>  (1) 
707.42917048

>  <PUBCHEM_TOTAL_CHARGE>  (1) 
0

>  <PUBCHEM_HEAVY_ATOM_COUNT>  (1) 
49

>  <PUBCHEM_ATOM_DEF_STEREO_COUNT>  (1) 
5

>  <PUBCHEM_ATOM_UDEF_STEREO_COUNT>  (1) 
0

>  <PUBCHEM_BOND_DEF_STEREO_COUNT>  (1) 
0

>  <PUBCHEM_BOND_UDEF_STEREO_COUNT>  (1) 
0

>  <PUBCHEM_ISOTOPIC_ATOM_COUNT>  (1) 
0

>  <PUBCHEM_COMPONENT_COUNT>  (1) 
1

>  <PUBCHEM_CACTVS_TAUTO_COUNT>  (1) 
-1

>  <PUBCHEM_COORDINATE_TYPE>  (1) 
1
5
255

>  <PUBCHEM_BONDANNOTATIONS>  (1) 
25  10  5
23  11  6
14  50  6
16  51  6
17  21  6

$$$$
