162533924
     RDKit          2D

 37 41  0  0  0  0  0  0  0  0999 V2000
    7.1962   -3.8512    0.0000 Cl  0  0  0  0  0  0  0  0  0  0  0  0
    3.7320   -1.8512    0.0000 F   0  0  0  0  0  0  0  0  0  0  0  0
    3.7320    2.1488    0.0000 F   0  0  0  0  0  0  0  0  0  0  0  0
    2.0000    1.1488    0.0000 F   0  0  0  0  0  0  0  0  0  0  0  0
    5.4641    1.1488    0.0000 O   0  0  0  0  0  0  0  0  0  0  0  0
    8.9282    1.1488    0.0000 O   0  0  0  0  0  0  0  0  0  0  0  0
    6.3301   -0.3512    0.0000 N   0  0  0  0  0  0  0  0  0  0  0  0
    7.1962    1.1488    0.0000 N   0  0  0  0  0  0  0  0  0  0  0  0
    7.1962   -1.8512    0.0000 N   0  0  0  0  0  0  0  0  0  0  0  0
    8.0622   -0.3512    0.0000 N   0  0  0  0  0  0  0  0  0  0  0  0
   11.3241   -2.8512    0.0000 N   0  0  0  0  0  0  0  0  0  0  0  0
   10.7404   -3.6560    0.0000 N   0  0  0  0  0  0  0  0  0  0  0  0
    8.9757    2.2420    0.0000 N   0  0  0  0  0  0  0  0  0  0  0  0
    9.6448    2.9852    0.0000 N   0  0  0  0  0  0  0  0  0  0  0  0
    8.1667    3.6433    0.0000 N   0  0  0  0  0  0  0  0  0  0  0  0
    5.4641   -0.8512    0.0000 C   0  0  0  0  0  0  0  0  0  0  0  0
    7.1962   -0.8512    0.0000 C   0  0  0  0  0  0  0  0  0  0  0  0
    6.3301    0.6488    0.0000 C   0  0  0  0  0  0  0  0  0  0  0  0
    7.1962    2.1488    0.0000 C   0  0  0  0  0  0  0  0  0  0  0  0
    4.5981   -0.3512    0.0000 C   0  0  0  0  0  0  0  0  0  0  0  0
    8.0622   -2.3512    0.0000 C   0  0  0  0  0  0  0  0  0  0  0  0
    9.7942   -2.3512    0.0000 C   0  0  0  0  0  0  0  0  0  0  0  0
    8.0622    0.6488    0.0000 C   0  0  0  0  0  0  0  0  0  0  0  0
    8.9282   -1.8512    0.0000 C   0  0  0  0  0  0  0  0  0  0  0  0
    9.7942   -3.3512    0.0000 C   0  0  0  0  0  0  0  0  0  0  0  0
    8.0622   -3.3512    0.0000 C   0  0  0  0  0  0  0  0  0  0  0  0
    8.0622    2.6488    0.0000 C   0  0  0  0  0  0  0  0  0  0  0  0
    8.9282   -3.8512    0.0000 C   0  0  0  0  0  0  0  0  0  0  0  0
   10.7404   -2.0465    0.0000 C   0  0  0  0  0  0  0  0  0  0  0  0
    3.7320   -0.8512    0.0000 C   0  0  0  0  0  0  0  0  0  0  0  0
    4.5981    0.6488    0.0000 C   0  0  0  0  0  0  0  0  0  0  0  0
    3.7320    1.1488    0.0000 C   0  0  0  0  0  0  0  0  0  0  0  0
    2.8660   -0.3512    0.0000 C   0  0  0  0  0  0  0  0  0  0  0  0
    2.8660    0.6488    0.0000 C   0  0  0  0  0  0  0  0  0  0  0  0
   12.3241   -2.8512    0.0000 C   0  0  0  0  0  0  0  0  0  0  0  0
    9.1448    3.8512    0.0000 C   0  0  0  0  0  0  0  0  0  0  0  0
   10.6394    2.8807    0.0000 C   0  0  0  0  0  0  0  0  0  0  0  0
  1 26  1  0
  2 30  1  0
  3 32  1  0
  4 34  1  0
  5 18  2  0
  6 23  2  0
  7 16  1  0
  7 17  1  0
  7 18  1  0
  8 18  1  0
  8 19  1  0
  8 23  1  0
  9 17  1  0
  9 21  1  0
 10 17  2  0
 10 23  1  0
 11 12  1  0
 11 29  1  0
 11 35  1  0
 12 25  2  0
 13 14  1  0
 13 27  2  0
 14 36  1  0
 14 37  1  0
 15 27  1  0
 15 36  2  0
 16 20  1  0
 19 27  1  0
 20 30  2  0
 20 31  1  0
 21 24  2  0
 21 26  1  0
 22 24  1  0
 22 25  1  0
 22 29  2  0
 25 28  1  0
 26 28  2  0
 30 33  1  0
 31 32  2  0
 32 34  1  0
 33 34  2  0
M  END
>  <PUBCHEM_COMPOUND_CID>  (1) 
162533924

>  <PUBCHEM_COMPOUND_CANONICALIZED>  (1) 
1

>  <PUBCHEM_CACTVS_COMPLEXITY>  (1) 
919

>  <PUBCHEM_CACTVS_HBOND_ACCEPTOR>  (1) 
8

>  <PUBCHEM_CACTVS_HBOND_DONOR>  (1) 
1

>  <PUBCHEM_CACTVS_ROTATABLE_BOND>  (1) 
6

>  <PUBCHEM_CACTVS_SUBSKEYS>  (1) 
AAADceB78YAEAAAAAAAAAAAAAAAAAWLAAAAwYIAAAAAAAFgB/AAAHwIYAAAADArBHyw/0PfIEACqAzZndACShAsxh6AV2CA4ZpiIaKLB29HUpAhonyJIyCcQgAAOBACAQAICABAIAQCABAQAIAAAAAAAAA==

>  <PUBCHEM_IUPAC_OPENEYE_NAME>  (1) 
6-[(6-chloro-2-methyl-indazol-5-yl)amino]-3-[(1-methyl-1,2,4-triazol-3-yl)methyl]-1-[(2,4,5-trifluorophenyl)methyl]-1,3,5-triazine-2,4-dione

>  <PUBCHEM_IUPAC_CAS_NAME>  (1) 
6-[(6-chloro-2-methyl-5-indazolyl)amino]-3-[(1-methyl-1,2,4-triazol-3-yl)methyl]-1-[(2,4,5-trifluorophenyl)methyl]-1,3,5-triazine-2,4-dione

>  <PUBCHEM_IUPAC_NAME_MARKUP>  (1) 
6-[(6-chloro-2-methylindazol-5-yl)amino]-3-[(1-methyl-1,2,4-triazol-3-yl)methyl]-1-[(2,4,5-trifluorophenyl)methyl]-1,3,5-triazine-2,4-dione

>  <PUBCHEM_IUPAC_NAME>  (1) 
6-[(6-chloro-2-methylindazol-5-yl)amino]-3-[(1-methyl-1,2,4-triazol-3-yl)methyl]-1-[(2,4,5-trifluorophenyl)methyl]-1,3,5-triazine-2,4-dione

>  <PUBCHEM_IUPAC_SYSTEMATIC_NAME>  (1) 
6-[(6-chloranyl-2-methyl-indazol-5-yl)amino]-3-[(1-methyl-1,2,4-triazol-3-yl)methyl]-1-[[2,4,5-tris(fluoranyl)phenyl]methyl]-1,3,5-triazine-2,4-dione

>  <PUBCHEM_IUPAC_TRADITIONAL_NAME>  (1) 
6-[(6-chloro-2-methyl-indazol-5-yl)amino]-3-[(1-methyl-1,2,4-triazol-3-yl)methyl]-1-(2,4,5-trifluorobenzyl)-s-triazine-2,4-quinone

>  <PUBCHEM_IUPAC_INCHI>  (1) 
InChI=1S/C22H17ClF3N9O2/c1-32-7-12-4-18(13(23)5-17(12)30-32)28-20-29-21(36)35(9-19-27-10-33(2)31-19)22(37)34(20)8-11-3-15(25)16(26)6-14(11)24/h3-7,10H,8-9H2,1-2H3,(H,28,29,36)

>  <PUBCHEM_IUPAC_INCHIKEY>  (1) 
QMPBBNUOBOFBFS-UHFFFAOYSA-N

>  <PUBCHEM_XLOGP3_AA>  (1) 
2.5

>  <PUBCHEM_EXACT_MASS>  (1) 
531.1145830

>  <PUBCHEM_MOLECULAR_FORMULA>  (1) 
C22H17ClF3N9O2

>  <PUBCHEM_MOLECULAR_WEIGHT>  (1) 
531.9

>  <PUBCHEM_OPENEYE_CAN_SMILES>  (1) 
CN1C=C2C=C(C(=CC2=N1)Cl)NC3=NC(=O)N(C(=O)N3CC4=CC(=C(C=C4F)F)F)CC5=NN(C=N5)C

>  <PUBCHEM_OPENEYE_ISO_SMILES>  (1) 
CN1C=C2C=C(C(=CC2=N1)Cl)NC3=NC(=O)N(C(=O)N3CC4=CC(=C(C=C4F)F)F)CC5=NN(C=N5)C

>  <PUBCHEM_CACTVS_TPSA>  (1) 
114

>  <PUBCHEM_MONOISOTOPIC_WEIGHT>  (1) 
531.1145830

>  <PUBCHEM_TOTAL_CHARGE>  (1) 
0

>  <PUBCHEM_HEAVY_ATOM_COUNT>  (1) 
37

>  <PUBCHEM_ATOM_DEF_STEREO_COUNT>  (1) 
0

>  <PUBCHEM_ATOM_UDEF_STEREO_COUNT>  (1) 
0

>  <PUBCHEM_BOND_DEF_STEREO_COUNT>  (1) 
0

>  <PUBCHEM_BOND_UDEF_STEREO_COUNT>  (1) 
0

>  <PUBCHEM_ISOTOPIC_ATOM_COUNT>  (1) 
0

>  <PUBCHEM_COMPONENT_COUNT>  (1) 
1

>  <PUBCHEM_CACTVS_TAUTO_COUNT>  (1) 
-1

>  <PUBCHEM_COORDINATE_TYPE>  (1) 
1
5
255

>  <PUBCHEM_BONDANNOTATIONS>  (1) 
10  17  8
10  23  8
11  12  8
11  29  8
12  25  8
13  14  8
13  27  8
14  36  8
15  27  8
15  36  8
20  30  8
20  31  8
21  24  8
21  26  8
22  24  8
22  25  8
22  29  8
25  28  8
26  28  8
30  33  8
31  32  8
32  34  8
33  34  8
7  17  8
7  18  8
8  18  8
8  23  8

$$$$
