SV_J10_0004
  -OEChem-07172407042D

 21 22  0     0  0  0  0  0  0999 V2000
    2.0000    1.3722    0.0000 Br  0  0  0  0  0  0  0  0  0  0  0  0
    5.8550    2.1274    0.0000 O   0  0  0  0  0  0  0  0  0  0  0  0
    7.1279    0.3722    0.0000 O   0  0  0  0  0  0  0  0  0  0  0  0
    5.1871   -2.1274    0.0000 O   0  0  0  0  0  0  0  0  0  0  0  0
    5.5443   -0.4326    0.0000 N   0  0  0  0  0  0  0  0  0  0  0  0
    4.5981   -0.1278    0.0000 C   0  0  0  0  0  0  0  0  0  0  0  0
    4.5981    0.8722    0.0000 C   0  0  0  0  0  0  0  0  0  0  0  0
    5.5443    1.1769    0.0000 C   0  0  0  0  0  0  0  0  0  0  0  0
    6.1279    0.3722    0.0000 C   0  0  0  0  0  0  0  0  0  0  0  0
    3.7320   -0.6278    0.0000 C   0  0  0  0  0  0  0  0  0  0  0  0
    3.7320    1.3722    0.0000 C   0  0  0  0  0  0  0  0  0  0  0  0
    5.8550   -1.3831    0.0000 C   0  0  0  0  0  0  0  0  0  0  0  0
    2.8660   -0.1278    0.0000 C   0  0  0  0  0  0  0  0  0  0  0  0
    2.8660    0.8722    0.0000 C   0  0  0  0  0  0  0  0  0  0  0  0
    6.8335   -1.5893    0.0000 C   0  0  0  0  0  0  0  0  0  0  0  0
    3.7320   -1.2478    0.0000 H   0  0  0  0  0  0  0  0  0  0  0  0
    3.7320    1.9922    0.0000 H   0  0  0  0  0  0  0  0  0  0  0  0
    2.3291   -0.4378    0.0000 H   0  0  0  0  0  0  0  0  0  0  0  0
    6.7056   -2.1960    0.0000 H   0  0  0  0  0  0  0  0  0  0  0  0
    7.4401   -1.7172    0.0000 H   0  0  0  0  0  0  0  0  0  0  0  0
    6.9613   -0.9826    0.0000 H   0  0  0  0  0  0  0  0  0  0  0  0
  1 14  1  0  0  0  0
  2  8  2  0  0  0  0
  3  9  2  0  0  0  0
  4 12  2  0  0  0  0
  5  6  1  0  0  0  0
  5  9  1  0  0  0  0
  5 12  1  0  0  0  0
  6  7  2  0  0  0  0
  6 10  1  0  0  0  0
  7  8  1  0  0  0  0
  7 11  1  0  0  0  0
  8  9  1  0  0  0  0
 10 13  2  0  0  0  0
 10 16  1  0  0  0  0
 11 14  2  0  0  0  0
 11 17  1  0  0  0  0
 12 15  1  0  0  0  0
 13 14  1  0  0  0  0
 13 18  1  0  0  0  0
 15 19  1  0  0  0  0
 15 20  1  0  0  0  0
 15 21  1  0  0  0  0
M  END
> <PUBCHEM_COMPOUND_CID>
3146159

> <PUBCHEM_COMPOUND_CANONICALIZED>
1

> <PUBCHEM_CACTVS_COMPLEXITY>
342

> <PUBCHEM_CACTVS_HBOND_ACCEPTOR>
3

> <PUBCHEM_CACTVS_HBOND_DONOR>
0

> <PUBCHEM_CACTVS_ROTATABLE_BOND>
0

> <PUBCHEM_CACTVS_SUBSKEYS>
AAADcYByMAAAEAAAAAAAAAAAAAAAAWAAAAAwAAAAAAAAAFgBAAAAHgBAAAABrAyBmAAywIMAAACIAqVSUACCAAAlAgQIiAGAZOgIIDrAlbGEIYhghCDIy9cciICOAAAgEAACAAAAAEAgAAQAAAAAAAAAAA==

> <PUBCHEM_IUPAC_OPENEYE_NAME>
1-acetyl-5-bromo-indoline-2,3-dione

> <PUBCHEM_IUPAC_CAS_NAME>
1-acetyl-5-bromoindole-2,3-dione

> <PUBCHEM_IUPAC_NAME_MARKUP>
1-acetyl-5-bromoindole-2,3-dione

> <PUBCHEM_IUPAC_NAME>
1-acetyl-5-bromoindole-2,3-dione

> <PUBCHEM_IUPAC_SYSTEMATIC_NAME>
5-bromanyl-1-ethanoyl-indole-2,3-dione

> <PUBCHEM_IUPAC_TRADITIONAL_NAME>
1-acetyl-5-bromo-isatin

> <PUBCHEM_IUPAC_INCHI>
InChI=1S/C10H6BrNO3/c1-5(13)12-8-3-2-6(11)4-7(8)9(14)10(12)15/h2-4H,1H3

> <PUBCHEM_IUPAC_INCHIKEY>
RWHNHBSIKDWLFH-UHFFFAOYSA-N

> <PUBCHEM_XLOGP3_AA>
1.4

> <PUBCHEM_EXACT_MASS>
266.95311

> <PUBCHEM_MOLECULAR_FORMULA>
C10H6BrNO3

> <PUBCHEM_MOLECULAR_WEIGHT>
268.06

> <PUBCHEM_OPENEYE_CAN_SMILES>
CC(=O)N1C2=C(C=C(C=C2)Br)C(=O)C1=O

> <PUBCHEM_OPENEYE_ISO_SMILES>
CC(=O)N1C2=C(C=C(C=C2)Br)C(=O)C1=O

> <PUBCHEM_CACTVS_TPSA>
54.4

> <PUBCHEM_MONOISOTOPIC_WEIGHT>
266.95311

> <PUBCHEM_TOTAL_CHARGE>
0

> <PUBCHEM_HEAVY_ATOM_COUNT>
15

> <PUBCHEM_ATOM_DEF_STEREO_COUNT>
0

> <PUBCHEM_ATOM_UDEF_STEREO_COUNT>
0

> <PUBCHEM_BOND_DEF_STEREO_COUNT>
0

> <PUBCHEM_BOND_UDEF_STEREO_COUNT>
0

> <PUBCHEM_ISOTOPIC_ATOM_COUNT>
0

> <PUBCHEM_COMPONENT_COUNT>
1

> <PUBCHEM_CACTVS_TAUTO_COUNT>
-1

> <PUBCHEM_COORDINATE_TYPE>
1
5
255

> <PUBCHEM_BONDANNOTATIONS>
10  13  8
11  14  8
13  14  8
6  10  8
6  7  8
7  11  8

$$$$
