5311054
     RDKit          2D

 81 81  0  0  1  0  0  0  0  0999 V2000
   20.9672    4.0903    0.0000 O   0  0  0  0  0  0  0  0  0  0  0  0
   23.5081    1.3696    0.0000 O   0  0  0  0  0  0  0  0  0  0  0  0
   17.2446    4.0903    0.0000 O   0  0  0  0  0  0  0  0  0  0  0  0
   14.7037    1.3696    0.0000 O   0  0  0  0  0  0  0  0  0  0  0  0
   23.2541   -2.3443    0.0000 O   0  0  0  0  0  0  0  0  0  0  0  0
   14.3266   -1.6041    0.0000 O   0  0  0  0  0  0  0  0  0  0  0  0
   18.5444   -5.4088    0.0000 O   0  0  0  0  0  0  0  0  0  0  0  0
   20.3664   -4.6936    0.0000 O   0  0  0  0  0  0  0  0  0  0  0  0
   10.6575   -3.9573    0.0000 O   0  0  0  0  0  0  0  0  0  0  0  0
   16.6784   -4.1868    0.0000 O   0  0  0  0  0  0  0  0  0  0  0  0
   10.8939   -0.5013    0.0000 O   0  0  0  0  0  0  0  0  0  0  0  0
    9.6598   -3.8890    0.0000 O   0  0  0  0  0  0  0  0  0  0  0  0
    6.2271   -2.7862    0.0000 O   0  0  0  0  0  0  0  0  0  0  0  0
   21.4232    2.6535    0.0000 N   0  0  0  0  0  0  0  0  0  0  0  0
   18.6059    3.4428    0.0000 N   0  0  0  0  0  0  0  0  0  0  0  0
   22.7693    0.0557    0.0000 N   0  0  0  0  0  0  0  0  0  0  0  0
   16.1060    1.9226    0.0000 N   0  0  0  0  0  0  0  0  0  0  0  0
   14.4448    0.1239    0.0000 N   0  0  0  0  0  0  0  0  0  0  0  0
   21.7895   -2.7012    0.0000 N   0  0  0  0  0  0  0  0  0  0  0  0
   16.4223   -2.7012    0.0000 N   0  0  0  0  0  0  0  0  0  0  0  0
   12.3313   -1.4676    0.0000 N   0  0  0  0  0  0  0  0  0  0  0  0
   19.1059   -3.8669    0.0000 N   0  0  0  0  0  0  0  0  0  0  0  0
    9.7780   -2.1610    0.0000 N   0  0  0  0  0  0  0  0  0  0  0  0
    7.6645   -3.7526    0.0000 N   0  0  0  0  0  0  0  0  0  0  0  0
   14.5391    4.0462    0.0000 N   0  0  0  0  0  0  0  0  0  0  0  0
   25.3250   -0.6027    0.0000 N   0  0  0  0  0  0  0  0  0  0  0  0
   23.0527   -5.0184    0.0000 N   0  0  0  0  0  0  0  0  0  0  0  0
   11.0121    1.2268    0.0000 N   0  0  0  0  0  0  0  0  0  0  0  0
    6.3453   -1.0582    0.0000 N   0  0  0  0  0  0  0  0  0  0  0  0
   19.6059    3.4428    0.0000 C   0  0  0  0  0  0  0  0  0  0  0  0
   22.1058    1.9226    0.0000 C   0  0  0  0  0  0  0  0  0  0  0  0
   19.7421    4.4335    0.0000 C   0  0  0  0  0  0  0  0  0  0  0  0
   22.9228    2.4993    0.0000 C   0  0  0  0  0  0  0  0  0  0  0  0
   18.9522    5.0468    0.0000 C   0  0  0  0  0  0  0  0  0  0  0  0
   22.8318    3.4952    0.0000 C   0  0  0  0  0  0  0  0  0  0  0  0
   20.5688    3.1730    0.0000 C   0  0  0  0  0  0  0  0  0  0  0  0
   16.7886    2.6535    0.0000 C   0  0  0  0  0  0  0  0  0  0  0  0
   22.5659    1.0347    0.0000 C   0  0  0  0  0  0  0  0  0  0  0  0
   22.7011   -0.9420    0.0000 C   0  0  0  0  0  0  0  0  0  0  0  0
   17.6430    3.1730    0.0000 C   0  0  0  0  0  0  0  0  0  0  0  0
   15.4425    0.0557    0.0000 C   0  0  0  0  0  0  0  0  0  0  0  0
   19.0884    6.0375    0.0000 C   0  0  0  0  0  0  0  0  0  0  0  0
   18.0261    4.6694    0.0000 C   0  0  0  0  0  0  0  0  0  0  0  0
   16.1575    3.4292    0.0000 C   0  0  0  0  0  0  0  0  0  0  0  0
   23.6488    4.0719    0.0000 C   0  0  0  0  0  0  0  0  0  0  0  0
   21.9239    3.9143    0.0000 C   0  0  0  0  0  0  0  0  0  0  0  0
   15.5107   -0.9420    0.0000 C   0  0  0  0  0  0  0  0  0  0  0  0
   23.6802   -1.1455    0.0000 C   0  0  0  0  0  0  0  0  0  0  0  0
   15.6459    1.0347    0.0000 C   0  0  0  0  0  0  0  0  0  0  0  0
   21.0138   -3.3323    0.0000 C   0  0  0  0  0  0  0  0  0  0  0  0
   12.8892   -0.6377    0.0000 C   0  0  0  0  0  0  0  0  0  0  0  0
   22.3662   -1.8843    0.0000 C   0  0  0  0  0  0  0  0  0  0  0  0
   15.8456   -1.8843    0.0000 C   0  0  0  0  0  0  0  0  0  0  0  0
    3.5556   -5.2076    0.0000 C   0  0  0  0  0  0  0  0  0  0  0  0
    4.5533   -5.2758    0.0000 C   0  0  0  0  0  0  0  0  0  0  0  0
   18.1152   -3.7307    0.0000 C   0  0  0  0  0  0  0  0  0  0  0  0
   15.1701    3.2705    0.0000 C   0  0  0  0  0  0  0  0  0  0  0  0
   13.8869   -0.7060    0.0000 C   0  0  0  0  0  0  0  0  0  0  0  0
    5.1112   -4.4460    0.0000 C   0  0  0  0  0  0  0  0  0  0  0  0
   21.5334   -4.1868    0.0000 C   0  0  0  0  0  0  0  0  0  0  0  0
   10.7757   -2.2293    0.0000 C   0  0  0  0  0  0  0  0  0  0  0  0
   12.4495    0.2604    0.0000 C   0  0  0  0  0  0  0  0  0  0  0  0
   24.3459   -0.3993    0.0000 C   0  0  0  0  0  0  0  0  0  0  0  0
   20.0966   -3.7307    0.0000 C   0  0  0  0  0  0  0  0  0  0  0  0
    2.9977   -6.0375    0.0000 C   0  0  0  0  0  0  0  0  0  0  0  0
   17.8454   -4.6936    0.0000 C   0  0  0  0  0  0  0  0  0  0  0  0
    8.2224   -2.9227    0.0000 C   0  0  0  0  0  0  0  0  0  0  0  0
   17.1980   -3.3323    0.0000 C   0  0  0  0  0  0  0  0  0  0  0  0
    6.1089   -4.5142    0.0000 C   0  0  0  0  0  0  0  0  0  0  0  0
   11.3336   -1.3994    0.0000 C   0  0  0  0  0  0  0  0  0  0  0  0
   11.2154   -3.1274    0.0000 C   0  0  0  0  0  0  0  0  0  0  0  0
    3.1159   -4.3095    0.0000 C   0  0  0  0  0  0  0  0  0  0  0  0
   22.5331   -4.1640    0.0000 C   0  0  0  0  0  0  0  0  0  0  0  0
    7.7827   -2.0245    0.0000 C   0  0  0  0  0  0  0  0  0  0  0  0
    9.2201   -2.9909    0.0000 C   0  0  0  0  0  0  0  0  0  0  0  0
   11.4518    0.3286    0.0000 C   0  0  0  0  0  0  0  0  0  0  0  0
    6.6668   -3.6843    0.0000 C   0  0  0  0  0  0  0  0  0  0  0  0
    2.0000   -5.9692    0.0000 C   0  0  0  0  0  0  0  0  0  0  0  0
   16.8766   -4.9414    0.0000 C   0  0  0  0  0  0  0  0  0  0  0  0
   12.2131   -3.1956    0.0000 C   0  0  0  0  0  0  0  0  0  0  0  0
    6.7850   -1.9563    0.0000 C   0  0  0  0  0  0  0  0  0  0  0  0
  1 36  2  0
  2 38  2  0
  3 40  2  0
  4 49  2  0
  5 52  2  0
  6 58  2  0
 66  7  1  0
  8 64  2  0
 71  9  1  0
 10 68  2  0
 11 70  2  0
 12 75  2  0
 13 77  2  0
 14 31  1  0
 14 36  1  0
 15 30  1  0
 15 40  1  0
 16 38  1  0
 16 39  1  0
 17 37  1  0
 17 49  1  0
 41 18  1  6
 18 58  1  0
 19 50  1  0
 19 52  1  0
 20 53  1  0
 20 68  1  0
 51 21  1  0
 21 70  1  0
 56 22  1  1
 22 64  1  0
 61 23  1  6
 23 75  1  0
 67 24  1  0
 24 77  1  0
 25 57  1  0
 26 63  1  0
 27 73  1  0
 28 76  1  0
 29 81  1  0
 30 32  1  6
 30 36  1  0
 31 33  1  1
 31 38  1  0
 32 34  1  0
 33 35  1  0
 34 42  1  0
 34 43  1  0
 35 45  1  0
 35 46  1  0
 37 40  1  0
 37 44  1  1
 39 48  1  1
 39 52  1  0
 41 47  1  0
 41 49  1  0
 44 57  1  0
 47 53  1  0
 48 63  1  0
 50 60  1  1
 50 64  1  0
 51 58  1  0
 51 62  1  1
 54 55  1  0
 54 65  1  0
 54 72  1  0
 55 59  1  0
 56 66  1  0
 56 68  1  0
 59 69  1  0
 60 73  1  0
 61 70  1  0
 61 71  1  0
 62 76  1  0
 65 78  1  0
 66 79  1  6
 67 74  1  1
 67 75  1  0
 69 77  1  0
 71 80  1  1
 74 81  1  0
M  END
>  <PUBCHEM_COMPOUND_CID>  (1) 
5311054

>  <PUBCHEM_COMPOUND_CANONICALIZED>  (1) 
1

>  <PUBCHEM_CACTVS_COMPLEXITY>  (1) 
2050

>  <PUBCHEM_CACTVS_HBOND_ACCEPTOR>  (1) 
18

>  <PUBCHEM_CACTVS_HBOND_DONOR>  (1) 
18

>  <PUBCHEM_CACTVS_ROTATABLE_BOND>  (1) 
28

>  <PUBCHEM_CACTVS_SUBSKEYS>  (1) 
AAADcfB//AAAAAAAAAAAAAAAAAAAAAAAAAAAAAAAAAAAAAAAAAAAHgAQCAAADTzhgAYCAALAAgAIAAEQEAAAAAAAAAAAAIGIAAACUBYAwCAUQAACNgCQAAEciACOAAAAAAAAAAAAAAAAAAAAAAAAAAAAAA==

>  <PUBCHEM_IUPAC_OPENEYE_NAME>  (1) 
N-[(1S)-3-amino-1-[[(1S,2R)-1-[[(1S)-3-amino-1-[[(3S,6S,9S,12S,15R,18S,21S)-6,9,18-tris(2-aminoethyl)-3-[(1R)-1-hydroxyethyl]-12,15-diisobutyl-2,5,8,11,14,17,20-heptaoxo-1,4,7,10,13,16,19-heptazacyclotricos-21-yl]carbamoyl]propyl]carbamoyl]-2-hydroxy-propyl]carbamoyl]propyl]-5-methyl-heptanamide

>  <PUBCHEM_IUPAC_CAS_NAME>  (1) 
N-[(2S)-4-amino-1-[[(2S,3R)-1-[[(2S)-4-amino-1-oxo-1-[[(3S,6S,9S,12S,15R,18S,21S)-6,9,18-tris(2-aminoethyl)-3-[(1R)-1-hydroxyethyl]-12,15-bis(2-methylpropyl)-2,5,8,11,14,17,20-heptaoxo-1,4,7,10,13,16,19-heptazacyclotricos-21-yl]amino]butan-2-yl]amino]-3-hydroxy-1-oxobutan-2-yl]amino]-1-oxobutan-2-yl]-5-methylheptanamide

>  <PUBCHEM_IUPAC_NAME_MARKUP>  (1) 
<I>N</I>-[(2<I>S</I>)-4-amino-1-[[(2<I>S</I>,3<I>R</I>)-1-[[(2<I>S</I>)-4-amino-1-oxo-1-[[(3<I>S</I>,6<I>S</I>,9<I>S</I>,12<I>S</I>,15<I>R</I>,18<I>S</I>,21<I>S</I>)-6,9,18-tris(2-aminoethyl)-3-[(1<I>R</I>)-1-hydroxyethyl]-12,15-bis(2-methylpropyl)-2,5,8,11,14,17,20-heptaoxo-1,4,7,10,13,16,19-heptazacyclotricos-21-yl]amino]butan-2-yl]amino]-3-hydroxy-1-oxobutan-2-yl]amino]-1-oxobutan-2-yl]-5-methylheptanamide

>  <PUBCHEM_IUPAC_NAME>  (1) 
N-[(2S)-4-amino-1-[[(2S,3R)-1-[[(2S)-4-amino-1-oxo-1-[[(3S,6S,9S,12S,15R,18S,21S)-6,9,18-tris(2-aminoethyl)-3-[(1R)-1-hydroxyethyl]-12,15-bis(2-methylpropyl)-2,5,8,11,14,17,20-heptaoxo-1,4,7,10,13,16,19-heptazacyclotricos-21-yl]amino]butan-2-yl]amino]-3-hydroxy-1-oxobutan-2-yl]amino]-1-oxobutan-2-yl]-5-methylheptanamide

>  <PUBCHEM_IUPAC_SYSTEMATIC_NAME>  (1) 
N-[(2S)-4-azanyl-1-[[(2S,3R)-1-[[(2S)-4-azanyl-1-oxidanylidene-1-[[(3S,6S,9S,12S,15R,18S,21S)-6,9,18-tris(2-azanylethyl)-12,15-bis(2-methylpropyl)-3-[(1R)-1-oxidanylethyl]-2,5,8,11,14,17,20-heptakis(oxidanylidene)-1,4,7,10,13,16,19-heptazacyclotricos-21-yl]amino]butan-2-yl]amino]-3-oxidanyl-1-oxidanylidene-butan-2-yl]amino]-1-oxidanylidene-butan-2-yl]-5-methyl-heptanamide

>  <PUBCHEM_IUPAC_TRADITIONAL_NAME>  (1) 
N-[(1S)-3-amino-1-[[(1S,2R)-1-[[(1S)-3-amino-1-[[(3S,6S,9S,12S,15R,18S,21S)-6,9,18-tris(2-aminoethyl)-3-[(1R)-1-hydroxyethyl]-12,15-diisobutyl-2,5,8,11,14,17,20-heptaketo-1,4,7,10,13,16,19-heptazacyclotricos-21-yl]carbamoyl]propyl]carbamoyl]-2-hydroxy-propyl]carbamoyl]propyl]-5-methyl-enanthamide

>  <PUBCHEM_IUPAC_INCHI>  (1) 
InChI=1S/C52H98N16O13/c1-9-29(6)11-10-12-40(71)59-32(13-19-53)47(76)68-42(31(8)70)52(81)64-35(16-22-56)44(73)63-37-18-24-58-51(80)41(30(7)69)67-48(77)36(17-23-57)61-43(72)33(14-20-54)62-49(78)38(25-27(2)3)66-50(79)39(26-28(4)5)65-45(74)34(15-21-55)60-46(37)75/h27-39,41-42,69-70H,9-26,53-57H2,1-8H3,(H,58,80)(H,59,71)(H,60,75)(H,61,72)(H,62,78)(H,63,73)(H,64,81)(H,65,74)(H,66,79)(H,67,77)(H,68,76)/t29?,30-,31-,32+,33+,34+,35+,36+,37+,38+,39-,41+,42+/m1/s1

>  <PUBCHEM_IUPAC_INCHIKEY>  (1) 
YKQOSKADJPQZHB-QNPLFGSASA-N

>  <PUBCHEM_XLOGP3_AA>  (1) 
-3.3

>  <PUBCHEM_EXACT_MASS>  (1) 
1154.74992724

>  <PUBCHEM_MOLECULAR_FORMULA>  (1) 
C52H98N16O13

>  <PUBCHEM_MOLECULAR_WEIGHT>  (1) 
1155.4

>  <PUBCHEM_OPENEYE_CAN_SMILES>  (1) 
CCC(C)CCCC(=O)NC(CCN)C(=O)NC(C(C)O)C(=O)NC(CCN)C(=O)NC1CCNC(=O)C(NC(=O)C(NC(=O)C(NC(=O)C(NC(=O)C(NC(=O)C(NC1=O)CCN)CC(C)C)CC(C)C)CCN)CCN)C(C)O

>  <PUBCHEM_OPENEYE_ISO_SMILES>  (1) 
CCC(C)CCCC(=O)N[C@@H](CCN)C(=O)N[C@@H]([C@@H](C)O)C(=O)N[C@@H](CCN)C(=O)N[C@H]1CCNC(=O)[C@@H](NC(=O)[C@@H](NC(=O)[C@@H](NC(=O)[C@@H](NC(=O)[C@H](NC(=O)[C@@H](NC1=O)CCN)CC(C)C)CC(C)C)CCN)CCN)[C@@H](C)O

>  <PUBCHEM_CACTVS_TPSA>  (1) 
491

>  <PUBCHEM_MONOISOTOPIC_WEIGHT>  (1) 
1154.74992724

>  <PUBCHEM_TOTAL_CHARGE>  (1) 
0

>  <PUBCHEM_HEAVY_ATOM_COUNT>  (1) 
81

>  <PUBCHEM_ATOM_DEF_STEREO_COUNT>  (1) 
12

>  <PUBCHEM_ATOM_UDEF_STEREO_COUNT>  (1) 
1

>  <PUBCHEM_BOND_DEF_STEREO_COUNT>  (1) 
0

>  <PUBCHEM_BOND_UDEF_STEREO_COUNT>  (1) 
0

>  <PUBCHEM_ISOTOPIC_ATOM_COUNT>  (1) 
0

>  <PUBCHEM_COMPONENT_COUNT>  (1) 
1

>  <PUBCHEM_CACTVS_TAUTO_COUNT>  (1) 
-1

>  <PUBCHEM_COORDINATE_TYPE>  (1) 
1
5
255

>  <PUBCHEM_BONDANNOTATIONS>  (1) 
41  18  6
51  21  5
61  23  6
67  24  5
30  32  6
31  33  5
37  44  5
39  48  5
50  60  5
54  119  3
56  123  6
66  7  6
71  9  5

$$$$
