SV_J8_0003.mol
  ChemDraw02082413072D

 36 40  0  0  1  0  0  0  0  0999 V2000
    1.5252    1.8575    0.0000 C   0  0  0  0  0  0  0  0  0  0  0  0
    1.5252    1.0325    0.0000 C   0  0  0  0  0  0  0  0  0  0  0  0
    2.2397    0.6200    0.0000 C   0  0  0  0  0  0  0  0  0  0  0  0
    2.9542    1.0325    0.0000 C   0  0  0  0  0  0  0  0  0  0  0  0
    2.9542    1.8575    0.0000 C   0  0  0  0  0  0  0  0  0  0  0  0
    2.2397    2.2700    0.0000 C   0  0  0  0  0  0  0  0  0  0  0  0
    3.6686    2.2700    0.0000 C   0  0  0  0  0  0  0  0  0  0  0  0
    3.8822    3.0669    0.0000 C   0  0  0  0  0  0  0  0  0  0  0  0
    4.3231    1.7678    0.0000 O   0  0  0  0  0  0  0  0  0  0  0  0
    2.2397    3.0950    0.0000 O   0  0  0  0  0  0  0  0  0  0  0  0
    3.6686    0.6200    0.0000 O   0  0  0  0  0  0  0  0  0  0  0  0
    0.7406    2.1125    0.0000 C   0  0  0  0  0  0  0  0  0  0  0  0
    0.2557    1.4450    0.0000 C   0  0  0  0  0  0  0  0  0  0  0  0
    0.7406    0.7776    0.0000 O   0  0  0  0  0  0  0  0  0  0  0  0
    0.4050    2.8661    0.0000 C   0  0  0  0  0  0  0  0  0  0  0  0
   -0.4154    2.9524    0.0000 C   0  0  0  0  0  0  0  0  0  0  0  0
   -0.9004    2.2849    0.0000 C   0  0  0  0  0  0  0  0  0  0  0  0
   -0.5648    1.5313    0.0000 C   0  0  0  0  0  0  0  0  0  0  0  0
    0.8900    3.5336    0.0000 O   0  0  0  0  0  0  0  0  0  0  0  0
   -0.7510    3.7061    0.0000 C   0  0  0  0  0  0  0  0  0  0  0  0
   -1.7209    2.3712    0.0000 O   0  0  0  0  0  0  0  0  0  0  0  0
   -1.0497    0.8638    0.0000 C   0  0  0  0  0  0  0  0  0  0  0  0
   -1.8747    0.8638    0.0000 N   0  0  0  0  0  0  0  0  0  0  0  0
   -2.1297    0.0792    0.0000 C   0  0  0  0  0  0  0  0  0  0  0  0
   -1.4622   -0.4057    0.0000 S   0  0  0  0  0  0  0  0  0  0  0  0
   -0.7948    0.0792    0.0000 C   0  0  0  0  0  0  0  0  0  0  0  0
   -2.9143   -0.1757    0.0000 N   0  0  0  0  0  0  0  0  0  0  0  0
   -2.9143   -1.0007    0.0000 N   0  0  0  0  0  0  0  0  0  0  0  0
   -3.1556   -1.5841    0.0000 C   0  0  0  0  0  0  0  0  0  0  0  0
   -2.9421   -2.3810    0.0000 C   0  0  0  0  0  0  0  0  0  0  0  0
   -3.5042   -2.9849    0.0000 C   0  0  0  0  0  0  0  0  0  0  0  0
   -3.1036   -3.7061    0.0000 C   0  0  0  0  0  0  0  0  0  0  0  0
   -2.2939   -3.5479    0.0000 C   0  0  0  0  0  0  0  0  0  0  0  0
   -2.1941   -2.7290    0.0000 S   0  0  0  0  0  0  0  0  0  0  0  0
    1.4390    2.6780    0.0000 C   0  0  0  0  0  0  0  0  0  0  0  0
   -4.3231   -2.8850    0.0000 C   0  0  0  0  0  0  0  0  0  0  0  0
  1  2  1  0      
  2  3  2  0      
  3  4  1  0      
  4  5  2  0      
  5  6  1  0      
  6  1  1  0      
  5  7  1  0      
  7  8  1  0      
  7  9  2  0      
  6 10  2  0      
  4 11  1  0      
  1 12  1  0      
 12 13  2  0      
 13 14  1  0      
 14  2  1  0      
 12 15  1  0      
 15 16  2  0      
 16 17  1  0      
 17 18  2  0      
 18 13  1  0      
 15 19  1  0      
 16 20  1  0      
 17 21  1  0      
 18 22  1  0      
 22 23  1  0      
 23 24  2  0      
 24 25  1  0      
 25 26  1  0      
 26 22  2  0      
 24 27  1  0      
 27 28  1  0      
 28 29  2  0      
 29 30  1  0      
 30 31  2  0      
 31 32  1  0      
 32 33  2  0      
 33 34  1  0      
 34 30  1  0      
  1 35  1  1      
 31 36  1  0      
M  END
