SV_J2_0002.mol
  ChemDraw02072411462D

 28 31  0  0  1  0  0  0  0  0999 V2000
   -4.2782    0.2898    0.0000 C   0  0  0  0  0  0  0  0  0  0  0  0
   -4.2782   -0.5352    0.0000 C   0  0  0  0  0  0  0  0  0  0  0  0
   -3.5637   -0.9477    0.0000 C   0  0  0  0  0  0  0  0  0  0  0  0
   -2.8493   -0.5352    0.0000 C   0  0  0  0  0  0  0  0  0  0  0  0
   -2.8493    0.2898    0.0000 C   0  0  0  0  0  0  0  0  0  0  0  0
   -3.5637    0.7023    0.0000 C   0  0  0  0  0  0  0  0  0  0  0  0
   -3.5637   -1.7727    0.0000 C   0  0  0  0  0  0  0  0  0  0  0  0
   -2.1348   -0.9477    0.0000 C   0  0  0  0  0  0  0  0  0  0  0  0
   -1.4203   -0.5352    0.0000 N   0  0  0  0  0  0  0  0  0  0  0  0
   -2.1348   -1.7727    0.0000 O   0  0  0  0  0  0  0  0  0  0  0  0
   -0.7059   -0.9477    0.0000 C   0  0  0  0  0  0  0  0  0  0  0  0
    0.0086   -0.5352    0.0000 C   0  0  0  0  0  0  0  0  0  0  0  0
    0.7231   -0.9477    0.0000 C   0  0  0  0  0  0  0  0  0  0  0  0
    1.4376   -0.5352    0.0000 C   0  0  0  0  0  0  0  0  0  0  0  0
    1.4376    0.2898    0.0000 N   0  0  0  0  0  0  0  0  0  0  0  0
    0.7231    0.7023    0.0000 C   0  0  0  0  0  0  0  0  0  0  0  0
    0.0086    0.2898    0.0000 C   0  0  0  0  0  0  0  0  0  0  0  0
    0.7231    1.5273    0.0000 C   0  0  0  0  0  0  0  0  0  0  0  0
    0.0086    1.9398    0.0000 C   0  0  0  0  0  0  0  0  0  0  0  0
   -0.7059    1.5273    0.0000 C   0  0  0  0  0  0  0  0  0  0  0  0
   -0.7059    0.7023    0.0000 C   0  0  0  0  0  0  0  0  0  0  0  0
   -0.7059   -1.7727    0.0000 C   0  0  0  0  0  0  0  0  0  0  0  0
    2.1520   -0.9477    0.0000 C   0  0  0  0  0  0  0  0  0  0  0  0
    2.2383   -1.7682    0.0000 C   0  0  0  0  0  0  0  0  0  0  0  0
    3.0452   -1.9398    0.0000 N   0  0  0  0  0  0  0  0  0  0  0  0
    3.4577   -1.2253    0.0000 N   0  0  0  0  0  0  0  0  0  0  0  0
    2.9057   -0.6122    0.0000 C   0  0  0  0  0  0  0  0  0  0  0  0
    4.2782   -1.1390    0.0000 C   0  0  0  0  0  0  0  0  0  0  0  0
  1  2  2  0      
  2  3  1  0      
  3  4  2  0      
  4  5  1  0      
  5  6  2  0      
  6  1  1  0      
  3  7  1  0      
  4  8  1  0      
  8  9  1  0      
  8 10  2  0      
  9 11  1  0      
 11 12  1  0      
 12 13  2  0      
 13 14  1  0      
 14 15  2  0      
 15 16  1  0      
 16 17  2  0      
 17 12  1  0      
 16 18  1  0      
 18 19  2  0      
 19 20  1  0      
 20 21  2  0      
 21 17  1  0      
 11 22  1  1      
 14 23  1  0      
 23 24  1  0      
 24 25  2  0      
 25 26  1  0      
 26 27  1  0      
 27 23  2  0      
 26 28  1  0      
M  END
