SV_J26_0005
  -OEChem-07172407052D

110113  0     1  0  0  0  0  0999 V2000
    4.0000   -3.3434    0.0000 S   0  0  0  0  0  0  0  0  0  0  0  0
    9.3006    0.3566    0.0000 O   0  0  0  0  0  0  0  0  0  0  0  0
    8.5000   -0.7453    0.0000 O   0  0  0  0  0  0  0  0  0  0  0  0
   12.2862    2.3781    0.0000 O   0  0  0  0  0  0  0  0  0  0  0  0
    7.5000   -4.2094    0.0000 O   0  0  0  0  0  0  0  0  0  0  0  0
   10.0208    3.7450    0.0000 O   0  0  0  0  0  0  0  0  0  0  0  0
    4.0000   -2.3434    0.0000 O   0  0  0  0  0  0  0  0  0  0  0  0
    4.0000   -4.3434    0.0000 O   0  0  0  0  0  0  0  0  0  0  0  0
   10.0000   -1.6114    0.0000 N   0  0  0  0  0  0  0  0  0  0  0  0
   10.9479    0.8918    0.0000 N   0  0  0  0  0  0  0  0  0  0  0  0
    7.5000   -2.4774    0.0000 N   0  0  0  0  0  0  0  0  0  0  0  0
    6.0000   -3.3434    0.0000 N   0  0  0  0  0  0  0  0  0  0  0  0
   11.6681    4.2802    0.0000 N   0  0  0  0  0  0  0  0  0  0  0  0
   11.5388   -1.1114    0.0000 C   0  0  1  0  0  0  0  0  0  0  0  0
   12.4054   -1.6114    0.0000 C   0  0  0  0  0  0  0  0  0  0  0  0
   11.5388   -2.1114    0.0000 C   0  0  1  0  0  0  0  0  0  0  0  0
   10.5878   -0.8024    0.0000 C   0  0  1  0  0  0  0  0  0  0  0  0
   10.5878   -2.4204    0.0000 C   0  0  0  0  0  0  0  0  0  0  0  0
   12.9054   -2.4774    0.0000 C   0  0  0  0  0  0  0  0  0  0  0  0
   12.9054   -0.7453    0.0000 C   0  0  0  0  0  0  0  0  0  0  0  0
   10.2788    0.1487    0.0000 C   0  0  0  0  0  0  0  0  0  0  0  0
    9.0000   -1.6114    0.0000 C   0  0  0  0  0  0  0  0  0  0  0  0
    8.5000   -2.4774    0.0000 C   0  0  2  0  0  0  0  0  0  0  0  0
    9.0000   -3.3434    0.0000 C   0  0  0  0  0  0  0  0  0  0  0  0
   10.6389    1.8429    0.0000 C   0  0  1  0  0  0  0  0  0  0  0  0
    9.5000   -4.2094    0.0000 C   0  0  0  0  0  0  0  0  0  0  0  0
    8.1340   -3.8434    0.0000 C   0  0  0  0  0  0  0  0  0  0  0  0
    9.8660   -2.8434    0.0000 C   0  0  0  0  0  0  0  0  0  0  0  0
    9.6607    2.0508    0.0000 C   0  0  0  0  0  0  0  0  0  0  0  0
   11.3080    2.5860    0.0000 C   0  0  0  0  0  0  0  0  0  0  0  0
    7.0000   -3.3434    0.0000 C   0  0  0  0  0  0  0  0  0  0  0  0
    9.3517    3.0019    0.0000 C   0  0  0  0  0  0  0  0  0  0  0  0
    5.5000   -4.2094    0.0000 C   0  0  0  0  0  0  0  0  0  0  0  0
   10.9990    3.5371    0.0000 C   0  0  0  0  0  0  0  0  0  0  0  0
    4.6340   -4.7094    0.0000 C   0  0  0  0  0  0  0  0  0  0  0  0
    6.3660   -4.7094    0.0000 C   0  0  0  0  0  0  0  0  0  0  0  0
    8.3736    3.2098    0.0000 C   0  0  0  0  0  0  0  0  0  0  0  0
    5.0000   -3.3434    0.0000 C   0  0  0  0  0  0  0  0  0  0  0  0
    4.6340   -5.7094    0.0000 C   0  0  0  0  0  0  0  0  0  0  0  0
    6.3660   -5.7094    0.0000 C   0  0  0  0  0  0  0  0  0  0  0  0
   11.3591    5.2313    0.0000 C   0  0  0  0  0  0  0  0  0  0  0  0
    5.5000   -6.2094    0.0000 C   0  0  0  0  0  0  0  0  0  0  0  0
   11.5670    6.2094    0.0000 C   0  0  0  0  0  0  0  0  0  0  0  0
   10.6160    5.9004    0.0000 C   0  0  0  0  0  0  0  0  0  0  0  0
    3.0000   -3.3434    0.0000 C   0  0  0  0  0  0  0  0  0  0  0  0
    8.0646    4.1608    0.0000 C   0  0  0  0  0  0  0  0  0  0  0  0
    2.0000   -3.3434    0.0000 C   0  0  0  0  0  0  0  0  0  0  0  0
    3.0000   -2.3434    0.0000 C   0  0  0  0  0  0  0  0  0  0  0  0
    3.0000   -4.3434    0.0000 C   0  0  0  0  0  0  0  0  0  0  0  0
   11.8845   -0.3348    0.0000 H   0  0  0  0  0  0  0  0  0  0  0  0
   11.8845   -2.8879    0.0000 H   0  0  0  0  0  0  0  0  0  0  0  0
    9.9754   -0.7054    0.0000 H   0  0  0  0  0  0  0  0  0  0  0  0
   10.0508   -2.7304    0.0000 H   0  0  0  0  0  0  0  0  0  0  0  0
   10.8400   -2.9868    0.0000 H   0  0  0  0  0  0  0  0  0  0  0  0
   12.3684   -2.7874    0.0000 H   0  0  0  0  0  0  0  0  0  0  0  0
   13.2154   -3.0143    0.0000 H   0  0  0  0  0  0  0  0  0  0  0  0
   13.4423   -2.1674    0.0000 H   0  0  0  0  0  0  0  0  0  0  0  0
   13.4423   -1.0554    0.0000 H   0  0  0  0  0  0  0  0  0  0  0  0
   13.2154   -0.2084    0.0000 H   0  0  0  0  0  0  0  0  0  0  0  0
   12.3684   -0.4353    0.0000 H   0  0  0  0  0  0  0  0  0  0  0  0
    8.1900   -1.9405    0.0000 H   0  0  0  0  0  0  0  0  0  0  0  0
   11.5544    0.7629    0.0000 H   0  0  0  0  0  0  0  0  0  0  0  0
   10.2240    1.3822    0.0000 H   0  0  0  0  0  0  0  0  0  0  0  0
    7.1900   -1.9405    0.0000 H   0  0  0  0  0  0  0  0  0  0  0  0
    8.9631   -4.5194    0.0000 H   0  0  0  0  0  0  0  0  0  0  0  0
    9.8100   -4.7464    0.0000 H   0  0  0  0  0  0  0  0  0  0  0  0
   10.0369   -3.8994    0.0000 H   0  0  0  0  0  0  0  0  0  0  0  0
    7.8240   -3.3065    0.0000 H   0  0  0  0  0  0  0  0  0  0  0  0
    7.5970   -4.1534    0.0000 H   0  0  0  0  0  0  0  0  0  0  0  0
    8.4440   -4.3804    0.0000 H   0  0  0  0  0  0  0  0  0  0  0  0
   10.1760   -3.3804    0.0000 H   0  0  0  0  0  0  0  0  0  0  0  0
   10.4030   -2.5334    0.0000 H   0  0  0  0  0  0  0  0  0  0  0  0
    9.5560   -2.3065    0.0000 H   0  0  0  0  0  0  0  0  0  0  0  0
    9.0468    1.9645    0.0000 H   0  0  0  0  0  0  0  0  0  0  0  0
    9.6391    1.4312    0.0000 H   0  0  0  0  0  0  0  0  0  0  0  0
    9.9657    3.0882    0.0000 H   0  0  0  0  0  0  0  0  0  0  0  0
    9.3734    3.6215    0.0000 H   0  0  0  0  0  0  0  0  0  0  0  0
    5.6900   -2.8065    0.0000 H   0  0  0  0  0  0  0  0  0  0  0  0
    4.4219   -4.1268    0.0000 H   0  0  0  0  0  0  0  0  0  0  0  0
    4.0234   -4.8171    0.0000 H   0  0  0  0  0  0  0  0  0  0  0  0
    6.9766   -4.8171    0.0000 H   0  0  0  0  0  0  0  0  0  0  0  0
    6.5781   -4.1268    0.0000 H   0  0  0  0  0  0  0  0  0  0  0  0
    5.5826   -3.1314    0.0000 H   0  0  0  0  0  0  0  0  0  0  0  0
    4.8923   -2.7328    0.0000 H   0  0  0  0  0  0  0  0  0  0  0  0
    7.7596    3.1235    0.0000 H   0  0  0  0  0  0  0  0  0  0  0  0
    8.3519    2.5902    0.0000 H   0  0  0  0  0  0  0  0  0  0  0  0
    4.0234   -5.6018    0.0000 H   0  0  0  0  0  0  0  0  0  0  0  0
    4.4219   -6.2921    0.0000 H   0  0  0  0  0  0  0  0  0  0  0  0
    6.5781   -6.2921    0.0000 H   0  0  0  0  0  0  0  0  0  0  0  0
    6.9766   -5.6018    0.0000 H   0  0  0  0  0  0  0  0  0  0  0  0
   12.2746    4.1513    0.0000 H   0  0  0  0  0  0  0  0  0  0  0  0
    5.1015   -6.6844    0.0000 H   0  0  0  0  0  0  0  0  0  0  0  0
    5.8985   -6.6844    0.0000 H   0  0  0  0  0  0  0  0  0  0  0  0
   11.9783    5.2638    0.0000 H   0  0  0  0  0  0  0  0  0  0  0  0
   12.1866    6.1878    0.0000 H   0  0  0  0  0  0  0  0  0  0  0  0
   11.4807    6.8234    0.0000 H   0  0  0  0  0  0  0  0  0  0  0  0
   10.3249    6.4479    0.0000 H   0  0  0  0  0  0  0  0  0  0  0  0
   10.1274    5.5187    0.0000 H   0  0  0  0  0  0  0  0  0  0  0  0
    8.6542    4.3524    0.0000 H   0  0  0  0  0  0  0  0  0  0  0  0
    7.8730    4.7505    0.0000 H   0  0  0  0  0  0  0  0  0  0  0  0
    7.4749    3.9692    0.0000 H   0  0  0  0  0  0  0  0  0  0  0  0
    2.0000   -2.7234    0.0000 H   0  0  0  0  0  0  0  0  0  0  0  0
    1.3800   -3.3434    0.0000 H   0  0  0  0  0  0  0  0  0  0  0  0
    2.0000   -3.9634    0.0000 H   0  0  0  0  0  0  0  0  0  0  0  0
    3.6200   -2.3434    0.0000 H   0  0  0  0  0  0  0  0  0  0  0  0
    3.0000   -1.7234    0.0000 H   0  0  0  0  0  0  0  0  0  0  0  0
    2.3800   -2.3434    0.0000 H   0  0  0  0  0  0  0  0  0  0  0  0
    2.3800   -4.3434    0.0000 H   0  0  0  0  0  0  0  0  0  0  0  0
    3.0000   -4.9634    0.0000 H   0  0  0  0  0  0  0  0  0  0  0  0
    3.6200   -4.3434    0.0000 H   0  0  0  0  0  0  0  0  0  0  0  0
  1  7  2  0  0  0  0
  1  8  2  0  0  0  0
  1 38  1  0  0  0  0
  1 45  1  0  0  0  0
  2 21  2  0  0  0  0
  3 22  2  0  0  0  0
  4 30  2  0  0  0  0
  5 31  2  0  0  0  0
  6 34  2  0  0  0  0
  9 17  1  0  0  0  0
  9 18  1  0  0  0  0
  9 22  1  0  0  0  0
 10 21  1  0  0  0  0
 25 10  1  1  0  0  0
 10 62  1  0  0  0  0
 23 11  1  6  0  0  0
 11 31  1  0  0  0  0
 11 64  1  0  0  0  0
 12 31  1  0  0  0  0
 12 33  1  0  0  0  0
 12 78  1  0  0  0  0
 13 34  1  0  0  0  0
 13 41  1  0  0  0  0
 13 91  1  0  0  0  0
 14 15  1  0  0  0  0
 14 16  1  0  0  0  0
 14 17  1  0  0  0  0
 14 50  1  6  0  0  0
 15 16  1  0  0  0  0
 15 19  1  0  0  0  0
 15 20  1  0  0  0  0
 16 18  1  0  0  0  0
 16 51  1  6  0  0  0
 17 21  1  6  0  0  0
 17 52  1  0  0  0  0
 18 53  1  0  0  0  0
 18 54  1  0  0  0  0
 19 55  1  0  0  0  0
 19 56  1  0  0  0  0
 19 57  1  0  0  0  0
 20 58  1  0  0  0  0
 20 59  1  0  0  0  0
 20 60  1  0  0  0  0
 22 23  1  0  0  0  0
 23 24  1  0  0  0  0
 23 61  1  0  0  0  0
 24 26  1  0  0  0  0
 24 27  1  0  0  0  0
 24 28  1  0  0  0  0
 25 29  1  0  0  0  0
 25 30  1  0  0  0  0
 25 63  1  0  0  0  0
 26 65  1  0  0  0  0
 26 66  1  0  0  0  0
 26 67  1  0  0  0  0
 27 68  1  0  0  0  0
 27 69  1  0  0  0  0
 27 70  1  0  0  0  0
 28 71  1  0  0  0  0
 28 72  1  0  0  0  0
 28 73  1  0  0  0  0
 29 32  1  0  0  0  0
 29 74  1  0  0  0  0
 29 75  1  0  0  0  0
 30 34  1  0  0  0  0
 32 37  1  0  0  0  0
 32 76  1  0  0  0  0
 32 77  1  0  0  0  0
 33 35  1  0  0  0  0
 33 36  1  0  0  0  0
 33 38  1  0  0  0  0
 35 39  1  0  0  0  0
 35 79  1  0  0  0  0
 35 80  1  0  0  0  0
 36 40  1  0  0  0  0
 36 81  1  0  0  0  0
 36 82  1  0  0  0  0
 37 46  1  0  0  0  0
 37 85  1  0  0  0  0
 37 86  1  0  0  0  0
 38 83  1  0  0  0  0
 38 84  1  0  0  0  0
 39 42  1  0  0  0  0
 39 87  1  0  0  0  0
 39 88  1  0  0  0  0
 40 42  1  0  0  0  0
 40 89  1  0  0  0  0
 40 90  1  0  0  0  0
 41 43  1  0  0  0  0
 41 44  1  0  0  0  0
 41 94  1  0  0  0  0
 42 92  1  0  0  0  0
 42 93  1  0  0  0  0
 43 44  1  0  0  0  0
 43 95  1  0  0  0  0
 43 96  1  0  0  0  0
 44 97  1  0  0  0  0
 44 98  1  0  0  0  0
 45 47  1  0  0  0  0
 45 48  1  0  0  0  0
 45 49  1  0  0  0  0
 46 99  1  0  0  0  0
 46100  1  0  0  0  0
 46101  1  0  0  0  0
 47102  1  0  0  0  0
 47103  1  0  0  0  0
 47104  1  0  0  0  0
 48105  1  0  0  0  0
 48106  1  0  0  0  0
 48107  1  0  0  0  0
 49108  1  0  0  0  0
 49109  1  0  0  0  0
 49110  1  0  0  0  0
M  END
> <PUBCHEM_COMPOUND_CID>
11857239

> <PUBCHEM_COMPOUND_CANONICALIZED>
1

> <PUBCHEM_CACTVS_COMPLEXITY>
1400

> <PUBCHEM_CACTVS_HBOND_ACCEPTOR>
7

> <PUBCHEM_CACTVS_HBOND_DONOR>
4

> <PUBCHEM_CACTVS_ROTATABLE_BOND>
15

> <PUBCHEM_CACTVS_SUBSKEYS>
AAADcfB/uABAAAAAAAAAAAAAGDAAAWAAAAA8QAAAAAAAAAAAAAAAHgQQAAAAD6zFwASDAAPAAAoIAIEQEHBAAAAAABAAAIGIAACAQBogwCAUAAAIFgKgAAEYiQCPgAAAAAAAAAAAAAAAAAAAAAAAAAAAAA==

> <PUBCHEM_IUPAC_OPENEYE_NAME>
(1R,2S,5S)-3-[(2S)-2-[[1-(tert-butylsulfonylmethyl)cyclohexyl]carbamoylamino]-3,3-dimethyl-butanoyl]-N-[(1S)-1-[2-(cyclopropylamino)-2-oxo-acetyl]pentyl]-6,6-dimethyl-3-azabicyclo[3.1.0]hexane-2-carboxamide

> <PUBCHEM_IUPAC_CAS_NAME>
(1R,2S,5S)-3-[(2S)-2-[[[[1-(tert-butylsulfonylmethyl)cyclohexyl]amino]-oxomethyl]amino]-3,3-dimethyl-1-oxobutyl]-N-[(3S)-1-(cyclopropylamino)-1,2-dioxoheptan-3-yl]-6,6-dimethyl-3-azabicyclo[3.1.0]hexane-2-carboxamide

> <PUBCHEM_IUPAC_NAME_MARKUP>
(1<I>R</I>,2<I>S</I>,5<I>S</I>)-3-[(2<I>S</I>)-2-[[1-(<I>tert</I>-butylsulfonylmethyl)cyclohexyl]carbamoylamino]-3,3-dimethylbutanoyl]-<I>N</I>-[(3<I>S</I>)-1-(cyclopropylamino)-1,2-dioxoheptan-3-yl]-6,6-dimethyl-3-azabicyclo[3.1.0]hexane-2-carboxamide

> <PUBCHEM_IUPAC_NAME>
(1R,2S,5S)-3-[(2S)-2-[[1-(tert-butylsulfonylmethyl)cyclohexyl]carbamoylamino]-3,3-dimethylbutanoyl]-N-[(3S)-1-(cyclopropylamino)-1,2-dioxoheptan-3-yl]-6,6-dimethyl-3-azabicyclo[3.1.0]hexane-2-carboxamide

> <PUBCHEM_IUPAC_SYSTEMATIC_NAME>
(1R,2S,5S)-3-[(2S)-2-[[1-(tert-butylsulfonylmethyl)cyclohexyl]carbamoylamino]-3,3-dimethyl-butanoyl]-N-[(3S)-1-(cyclopropylamino)-1,2-bis(oxidanylidene)heptan-3-yl]-6,6-dimethyl-3-azabicyclo[3.1.0]hexane-2-carboxamide

> <PUBCHEM_IUPAC_TRADITIONAL_NAME>
(1R,2S,5S)-3-[(2S)-2-[[1-(tert-butylsulfonylmethyl)cyclohexyl]carbamoylamino]-3,3-dimethyl-butanoyl]-N-[(1S)-1-[2-(cyclopropylamino)-2-keto-acetyl]pentyl]-6,6-dimethyl-3-azabicyclo[3.1.0]hexane-2-carboxamide

> <PUBCHEM_IUPAC_INCHI>
InChI=1S/C36H61N5O7S/c1-10-11-15-24(27(42)30(44)37-22-16-17-22)38-29(43)26-25-23(35(25,8)9)20-41(26)31(45)28(33(2,3)4)39-32(46)40-36(18-13-12-14-19-36)21-49(47,48)34(5,6)7/h22-26,28H,10-21H2,1-9H3,(H,37,44)(H,38,43)(H2,39,40,46)/t23-,24-,25-,26-,28+/m0/s1

> <PUBCHEM_IUPAC_INCHIKEY>
RICZEKWVNZFTNZ-LFGITCQGSA-N

> <PUBCHEM_XLOGP3_AA>
5.4

> <PUBCHEM_EXACT_MASS>
707.42917048

> <PUBCHEM_MOLECULAR_FORMULA>
C36H61N5O7S

> <PUBCHEM_MOLECULAR_WEIGHT>
708.0

> <PUBCHEM_OPENEYE_CAN_SMILES>
CCCCC(C(=O)C(=O)NC1CC1)NC(=O)C2C3C(C3(C)C)CN2C(=O)C(C(C)(C)C)NC(=O)NC4(CCCCC4)CS(=O)(=O)C(C)(C)C

> <PUBCHEM_OPENEYE_ISO_SMILES>
CCCC[C@@H](C(=O)C(=O)NC1CC1)NC(=O)[C@@H]2[C@@H]3[C@@H](C3(C)C)CN2C(=O)[C@H](C(C)(C)C)NC(=O)NC4(CCCCC4)CS(=O)(=O)C(C)(C)C

> <PUBCHEM_CACTVS_TPSA>
179

> <PUBCHEM_MONOISOTOPIC_WEIGHT>
707.42917048

> <PUBCHEM_TOTAL_CHARGE>
0

> <PUBCHEM_HEAVY_ATOM_COUNT>
49

> <PUBCHEM_ATOM_DEF_STEREO_COUNT>
5

> <PUBCHEM_ATOM_UDEF_STEREO_COUNT>
0

> <PUBCHEM_BOND_DEF_STEREO_COUNT>
0

> <PUBCHEM_BOND_UDEF_STEREO_COUNT>
0

> <PUBCHEM_ISOTOPIC_ATOM_COUNT>
0

> <PUBCHEM_COMPONENT_COUNT>
1

> <PUBCHEM_CACTVS_TAUTO_COUNT>
-1

> <PUBCHEM_COORDINATE_TYPE>
1
5
255

> <PUBCHEM_BONDANNOTATIONS>
25  10  5
23  11  6
14  50  6
16  51  6
17  21  6

$$$$
