SV_J7_0007
  -OEChem-07172407042D

 46 48  0     1  0  0  0  0  0999 V2000
    4.9538   -0.4432    0.0000 S   0  0  0  0  0  0  0  0  0  0  0  0
   10.8635    1.7799    0.0000 S   0  0  0  0  0  0  0  0  0  0  0  0
    2.3660   -2.9843    0.0000 O   0  0  0  0  0  0  0  0  0  0  0  0
    6.6094    0.8300    0.0000 O   0  0  0  0  0  0  0  0  0  0  0  0
   11.4513    0.9709    0.0000 O   0  0  0  0  0  0  0  0  0  0  0  0
   10.2757    2.5889    0.0000 O   0  0  0  0  0  0  0  0  0  0  0  0
    4.9538   -2.0613    0.0000 N   0  0  0  0  0  0  0  0  0  0  0  0
    5.9049   -1.7523    0.0000 N   0  0  0  0  0  0  0  0  0  0  0  0
    7.6274   -0.5712    0.0000 N   0  0  0  0  0  0  0  0  0  0  0  0
   11.6725    2.3677    0.0000 N   0  0  0  0  0  0  0  0  0  0  0  0
    2.8660   -0.3862    0.0000 C   0  0  0  0  0  0  0  0  0  0  0  0
    3.8660   -0.3862    0.0000 C   0  0  0  0  0  0  0  0  0  0  0  0
    4.3660   -1.2523    0.0000 C   0  0  3  0  0  0  0  0  0  0  0  0
    2.3660   -1.2523    0.0000 C   0  0  0  0  0  0  0  0  0  0  0  0
    3.8660   -2.1183    0.0000 C   0  0  0  0  0  0  0  0  0  0  0  0
    2.8660   -2.1183    0.0000 C   0  0  0  0  0  0  0  0  0  0  0  0
    2.0000    0.1138    0.0000 C   0  0  0  0  0  0  0  0  0  0  0  0
    2.8660    0.6138    0.0000 C   0  0  0  0  0  0  0  0  0  0  0  0
    5.9049   -0.7523    0.0000 C   0  0  0  0  0  0  0  0  0  0  0  0
    6.7139   -0.1645    0.0000 C   0  0  0  0  0  0  0  0  0  0  0  0
    8.4364    0.0166    0.0000 C   0  0  0  0  0  0  0  0  0  0  0  0
    8.3319    1.0111    0.0000 C   0  0  0  0  0  0  0  0  0  0  0  0
    9.3500   -0.3902    0.0000 C   0  0  0  0  0  0  0  0  0  0  0  0
   10.0545    1.1921    0.0000 C   0  0  0  0  0  0  0  0  0  0  0  0
    9.1409    1.5989    0.0000 C   0  0  0  0  0  0  0  0  0  0  0  0
   10.1590    0.1976    0.0000 C   0  0  0  0  0  0  0  0  0  0  0  0
    4.4486   -0.1742    0.0000 H   0  0  0  0  0  0  0  0  0  0  0  0
    3.7584    0.2243    0.0000 H   0  0  0  0  0  0  0  0  0  0  0  0
    1.8911   -0.8537    0.0000 H   0  0  0  0  0  0  0  0  0  0  0  0
    1.8911   -1.6508    0.0000 H   0  0  0  0  0  0  0  0  0  0  0  0
    3.7584   -2.7289    0.0000 H   0  0  0  0  0  0  0  0  0  0  0  0
    4.4486   -2.3303    0.0000 H   0  0  0  0  0  0  0  0  0  0  0  0
    2.3100    0.6507    0.0000 H   0  0  0  0  0  0  0  0  0  0  0  0
    1.4631    0.4238    0.0000 H   0  0  0  0  0  0  0  0  0  0  0  0
    1.6900   -0.4232    0.0000 H   0  0  0  0  0  0  0  0  0  0  0  0
    3.4860    0.6138    0.0000 H   0  0  0  0  0  0  0  0  0  0  0  0
    2.8660    1.2338    0.0000 H   0  0  0  0  0  0  0  0  0  0  0  0
    2.2460    0.6138    0.0000 H   0  0  0  0  0  0  0  0  0  0  0  0
    4.7622   -2.6509    0.0000 H   0  0  0  0  0  0  0  0  0  0  0  0
    7.6922   -1.1878    0.0000 H   0  0  0  0  0  0  0  0  0  0  0  0
    7.7655    1.2633    0.0000 H   0  0  0  0  0  0  0  0  0  0  0  0
    9.4148   -1.0068    0.0000 H   0  0  0  0  0  0  0  0  0  0  0  0
    9.0761    2.2155    0.0000 H   0  0  0  0  0  0  0  0  0  0  0  0
   10.7254   -0.0546    0.0000 H   0  0  0  0  0  0  0  0  0  0  0  0
   12.2389    2.1155    0.0000 H   0  0  0  0  0  0  0  0  0  0  0  0
   11.6077    2.9843    0.0000 H   0  0  0  0  0  0  0  0  0  0  0  0
  1 13  1  0  0  0  0
  1 19  1  0  0  0  0
  2  5  2  0  0  0  0
  2  6  2  0  0  0  0
  2 10  1  0  0  0  0
  2 24  1  0  0  0  0
  3 16  2  0  0  0  0
  4 20  2  0  0  0  0
  7  8  1  0  0  0  0
  7 13  1  0  0  0  0
  7 39  1  0  0  0  0
  8 19  2  0  0  0  0
  9 20  1  0  0  0  0
  9 21  1  0  0  0  0
  9 40  1  0  0  0  0
 10 45  1  0  0  0  0
 10 46  1  0  0  0  0
 11 12  1  0  0  0  0
 11 14  1  0  0  0  0
 11 17  1  0  0  0  0
 11 18  1  0  0  0  0
 12 13  1  0  0  0  0
 12 27  1  0  0  0  0
 12 28  1  0  0  0  0
 13 15  1  0  0  0  0
 14 16  1  0  0  0  0
 14 29  1  0  0  0  0
 14 30  1  0  0  0  0
 15 16  1  0  0  0  0
 15 31  1  0  0  0  0
 15 32  1  0  0  0  0
 17 33  1  0  0  0  0
 17 34  1  0  0  0  0
 17 35  1  0  0  0  0
 18 36  1  0  0  0  0
 18 37  1  0  0  0  0
 18 38  1  0  0  0  0
 19 20  1  0  0  0  0
 21 22  2  0  0  0  0
 21 23  1  0  0  0  0
 22 25  1  0  0  0  0
 22 41  1  0  0  0  0
 23 26  2  0  0  0  0
 23 42  1  0  0  0  0
 24 25  2  0  0  0  0
 24 26  1  0  0  0  0
 25 43  1  0  0  0  0
 26 44  1  0  0  0  0
M  END
> <PUBCHEM_COMPOUND_CID>
169409565

> <PUBCHEM_COMPOUND_CANONICALIZED>
1

> <PUBCHEM_CACTVS_COMPLEXITY>
736

> <PUBCHEM_CACTVS_HBOND_ACCEPTOR>
8

> <PUBCHEM_CACTVS_HBOND_DONOR>
3

> <PUBCHEM_CACTVS_ROTATABLE_BOND>
3

> <PUBCHEM_CACTVS_SUBSKEYS>
AAADceB7uABgAAAAAAAAAAAAAAAAAQAAAAAwYAAAAAAAAAABAAAAHgQYQAAADgyB0AAywYLiAAqoAKVyUHDSABBhAhAYiBkAZIgIIDrgkZGEIAhgnADoyAcYiUAfAAQAAAAAAAAACAGAAAAAAAAAAAAAAA==

> <PUBCHEM_IUPAC_OPENEYE_NAME>
7,7-dimethyl-9-oxo-N-(4-sulfamoylphenyl)-1-thia-3,4-diazaspiro[4.5]dec-2-ene-2-carboxamide

> <PUBCHEM_IUPAC_CAS_NAME>
7,7-dimethyl-9-oxo-N-(4-sulfamoylphenyl)-1-thia-3,4-diazaspiro[4.5]dec-2-ene-2-carboxamide

> <PUBCHEM_IUPAC_NAME_MARKUP>
7,7-dimethyl-9-oxo-<I>N</I>-(4-sulfamoylphenyl)-1-thia-3,4-diazaspiro[4.5]dec-2-ene-2-carboxamide

> <PUBCHEM_IUPAC_NAME>
7,7-dimethyl-9-oxo-N-(4-sulfamoylphenyl)-1-thia-3,4-diazaspiro[4.5]dec-2-ene-2-carboxamide

> <PUBCHEM_IUPAC_SYSTEMATIC_NAME>
7,7-dimethyl-9-oxidanylidene-N-(4-sulfamoylphenyl)-1-thia-3,4-diazaspiro[4.5]dec-2-ene-2-carboxamide

> <PUBCHEM_IUPAC_TRADITIONAL_NAME>
9-keto-7,7-dimethyl-N-(4-sulfamoylphenyl)-1-thia-3,4-diazaspiro[4.5]dec-2-ene-2-carboxamide

> <PUBCHEM_IUPAC_INCHI>
InChI=1S/C16H20N4O4S2/c1-15(2)7-11(21)8-16(9-15)20-19-14(25-16)13(22)18-10-3-5-12(6-4-10)26(17,23)24/h3-6,20H,7-9H2,1-2H3,(H,18,22)(H2,17,23,24)

> <PUBCHEM_IUPAC_INCHIKEY>
PIEOLACXUZYMFL-UHFFFAOYSA-N

> <PUBCHEM_XLOGP3_AA>
1.6

> <PUBCHEM_EXACT_MASS>
396.09259748

> <PUBCHEM_MOLECULAR_FORMULA>
C16H20N4O4S2

> <PUBCHEM_MOLECULAR_WEIGHT>
396.5

> <PUBCHEM_OPENEYE_CAN_SMILES>
CC1(CC(=O)CC2(C1)NN=C(S2)C(=O)NC3=CC=C(C=C3)S(=O)(=O)N)C

> <PUBCHEM_OPENEYE_ISO_SMILES>
CC1(CC(=O)CC2(C1)NN=C(S2)C(=O)NC3=CC=C(C=C3)S(=O)(=O)N)C

> <PUBCHEM_CACTVS_TPSA>
164

> <PUBCHEM_MONOISOTOPIC_WEIGHT>
396.09259748

> <PUBCHEM_TOTAL_CHARGE>
0

> <PUBCHEM_HEAVY_ATOM_COUNT>
26

> <PUBCHEM_ATOM_DEF_STEREO_COUNT>
0

> <PUBCHEM_ATOM_UDEF_STEREO_COUNT>
1

> <PUBCHEM_BOND_DEF_STEREO_COUNT>
0

> <PUBCHEM_BOND_UDEF_STEREO_COUNT>
0

> <PUBCHEM_ISOTOPIC_ATOM_COUNT>
0

> <PUBCHEM_COMPONENT_COUNT>
1

> <PUBCHEM_CACTVS_TAUTO_COUNT>
-1

> <PUBCHEM_COORDINATE_TYPE>
1
5
255

> <PUBCHEM_BONDANNOTATIONS>
13  15  3
21  22  8
21  23  8
22  25  8
23  26  8
24  25  8
24  26  8

$$$$
