SV_J29_0005
  -OEChem-07172407372D

 43 45  0     1  0  0  0  0  0999 V2000
    5.4641   -1.1123    0.0000 O   0  0  0  0  0  0  0  0  0  0  0  0
    4.5981    0.3877    0.0000 N   0  0  0  0  0  0  0  0  0  0  0  0
    2.8660   -3.6123    0.0000 N   0  0  0  0  0  0  0  0  0  0  0  0
    5.4641    0.8877    0.0000 C   0  0  1  0  0  0  0  0  0  0  0  0
    5.4641    1.8877    0.0000 C   0  0  0  0  0  0  0  0  0  0  0  0
    6.3301    2.3877    0.0000 C   0  0  0  0  0  0  0  0  0  0  0  0
    6.3301    3.3877    0.0000 C   0  0  0  0  0  0  0  0  0  0  0  0
    6.3301    0.3877    0.0000 C   0  0  0  0  0  0  0  0  0  0  0  0
    4.5981    2.3877    0.0000 C   0  0  0  0  0  0  0  0  0  0  0  0
    7.2241    1.8530    0.0000 C   0  0  0  0  0  0  0  0  0  0  0  0
    4.5981   -0.6123    0.0000 C   0  0  0  0  0  0  0  0  0  0  0  0
    5.4641    3.8877    0.0000 C   0  0  0  0  0  0  0  0  0  0  0  0
    4.5981    3.3877    0.0000 C   0  0  0  0  0  0  0  0  0  0  0  0
    3.7320   -1.1123    0.0000 C   0  0  0  0  0  0  0  0  0  0  0  0
    7.2241    3.9223    0.0000 C   0  0  0  0  0  0  0  0  0  0  0  0
    2.8660   -0.6123    0.0000 C   0  0  0  0  0  0  0  0  0  0  0  0
    8.1301    2.3668    0.0000 C   0  0  0  0  0  0  0  0  0  0  0  0
    8.1301    3.4085    0.0000 C   0  0  0  0  0  0  0  0  0  0  0  0
    3.7320   -2.1123    0.0000 C   0  0  0  0  0  0  0  0  0  0  0  0
    2.0000   -1.1123    0.0000 C   0  0  0  0  0  0  0  0  0  0  0  0
    2.8660   -2.6123    0.0000 C   0  0  0  0  0  0  0  0  0  0  0  0
    2.8660    0.3877    0.0000 C   0  0  0  0  0  0  0  0  0  0  0  0
    2.0000   -2.1123    0.0000 C   0  0  0  0  0  0  0  0  0  0  0  0
    5.4641    0.2677    0.0000 H   0  0  0  0  0  0  0  0  0  0  0  0
    4.0611    0.6977    0.0000 H   0  0  0  0  0  0  0  0  0  0  0  0
    6.0201   -0.1493    0.0000 H   0  0  0  0  0  0  0  0  0  0  0  0
    6.8671    0.0777    0.0000 H   0  0  0  0  0  0  0  0  0  0  0  0
    6.6401    0.9246    0.0000 H   0  0  0  0  0  0  0  0  0  0  0  0
    4.0611    2.0777    0.0000 H   0  0  0  0  0  0  0  0  0  0  0  0
    7.2169    1.2330    0.0000 H   0  0  0  0  0  0  0  0  0  0  0  0
    5.4641    4.5077    0.0000 H   0  0  0  0  0  0  0  0  0  0  0  0
    4.0611    3.6977    0.0000 H   0  0  0  0  0  0  0  0  0  0  0  0
    7.2169    4.5423    0.0000 H   0  0  0  0  0  0  0  0  0  0  0  0
    8.6659    2.0548    0.0000 H   0  0  0  0  0  0  0  0  0  0  0  0
    8.6659    3.7206    0.0000 H   0  0  0  0  0  0  0  0  0  0  0  0
    4.2690   -2.4223    0.0000 H   0  0  0  0  0  0  0  0  0  0  0  0
    1.4631   -0.8023    0.0000 H   0  0  0  0  0  0  0  0  0  0  0  0
    3.4860    0.3877    0.0000 H   0  0  0  0  0  0  0  0  0  0  0  0
    2.8660    1.0077    0.0000 H   0  0  0  0  0  0  0  0  0  0  0  0
    2.2460    0.3877    0.0000 H   0  0  0  0  0  0  0  0  0  0  0  0
    1.4631   -2.4223    0.0000 H   0  0  0  0  0  0  0  0  0  0  0  0
    2.3291   -3.9223    0.0000 H   0  0  0  0  0  0  0  0  0  0  0  0
    3.4030   -3.9223    0.0000 H   0  0  0  0  0  0  0  0  0  0  0  0
  1 11  2  0  0  0  0
  4  2  1  1  0  0  0
  2 11  1  0  0  0  0
  2 25  1  0  0  0  0
  3 21  1  0  0  0  0
  3 42  1  0  0  0  0
  3 43  1  0  0  0  0
  4  5  1  0  0  0  0
  4  8  1  0  0  0  0
  4 24  1  0  0  0  0
  5  6  1  0  0  0  0
  5  9  2  0  0  0  0
  6  7  1  0  0  0  0
  6 10  2  0  0  0  0
  7 12  1  0  0  0  0
  7 15  2  0  0  0  0
  8 26  1  0  0  0  0
  8 27  1  0  0  0  0
  8 28  1  0  0  0  0
  9 13  1  0  0  0  0
  9 29  1  0  0  0  0
 10 17  1  0  0  0  0
 10 30  1  0  0  0  0
 11 14  1  0  0  0  0
 12 13  2  0  0  0  0
 12 31  1  0  0  0  0
 13 32  1  0  0  0  0
 14 16  2  0  0  0  0
 14 19  1  0  0  0  0
 15 18  1  0  0  0  0
 15 33  1  0  0  0  0
 16 20  1  0  0  0  0
 16 22  1  0  0  0  0
 17 18  2  0  0  0  0
 17 34  1  0  0  0  0
 18 35  1  0  0  0  0
 19 21  2  0  0  0  0
 19 36  1  0  0  0  0
 20 23  2  0  0  0  0
 20 37  1  0  0  0  0
 21 23  1  0  0  0  0
 22 38  1  0  0  0  0
 22 39  1  0  0  0  0
 22 40  1  0  0  0  0
 23 41  1  0  0  0  0
M  END
> <PUBCHEM_COMPOUND_CID>
24941262

> <PUBCHEM_COMPOUND_CANONICALIZED>
1

> <PUBCHEM_CACTVS_COMPLEXITY>
410

> <PUBCHEM_CACTVS_HBOND_ACCEPTOR>
2

> <PUBCHEM_CACTVS_HBOND_DONOR>
2

> <PUBCHEM_CACTVS_ROTATABLE_BOND>
3

> <PUBCHEM_CACTVS_SUBSKEYS>
AAADceB7IAAAAAAAAAAAAAAAAAAAAAAAAAAwYMAAAAAAAADBVAAAHgAQAAAADCjBmAQywMLAAACIAiVSUACCAAAkAgAIiIEIZMgIIDKAlZGEIQhglgCIyYcciMCOiAACQAAQAAAQAASAACAAAAAAAAAAAA==

> <PUBCHEM_IUPAC_OPENEYE_NAME>
5-amino-2-methyl-N-[(1R)-1-(1-naphthyl)ethyl]benzamide

> <PUBCHEM_IUPAC_CAS_NAME>
5-amino-2-methyl-N-[(1R)-1-(1-naphthalenyl)ethyl]benzamide

> <PUBCHEM_IUPAC_NAME_MARKUP>
5-amino-2-methyl-<I>N</I>-[(1<I>R</I>)-1-naphthalen-1-ylethyl]benzamide

> <PUBCHEM_IUPAC_NAME>
5-amino-2-methyl-N-[(1R)-1-naphthalen-1-ylethyl]benzamide

> <PUBCHEM_IUPAC_SYSTEMATIC_NAME>
5-azanyl-2-methyl-N-[(1R)-1-naphthalen-1-ylethyl]benzamide

> <PUBCHEM_IUPAC_TRADITIONAL_NAME>
5-amino-2-methyl-N-[(1R)-1-(1-naphthyl)ethyl]benzamide

> <PUBCHEM_IUPAC_INCHI>
InChI=1S/C20H20N2O/c1-13-10-11-16(21)12-19(13)20(23)22-14(2)17-9-5-7-15-6-3-4-8-18(15)17/h3-12,14H,21H2,1-2H3,(H,22,23)/t14-/m1/s1

> <PUBCHEM_IUPAC_INCHIKEY>
UVERBUNNCOKGNZ-CQSZACIVSA-N

> <PUBCHEM_XLOGP3_AA>
4

> <PUBCHEM_EXACT_MASS>
304.157563266

> <PUBCHEM_MOLECULAR_FORMULA>
C20H20N2O

> <PUBCHEM_MOLECULAR_WEIGHT>
304.4

> <PUBCHEM_OPENEYE_CAN_SMILES>
CC1=C(C=C(C=C1)N)C(=O)NC(C)C2=CC=CC3=CC=CC=C32

> <PUBCHEM_OPENEYE_ISO_SMILES>
CC1=C(C=C(C=C1)N)C(=O)N[C@H](C)C2=CC=CC3=CC=CC=C32

> <PUBCHEM_CACTVS_TPSA>
55.1

> <PUBCHEM_MONOISOTOPIC_WEIGHT>
304.157563266

> <PUBCHEM_TOTAL_CHARGE>
0

> <PUBCHEM_HEAVY_ATOM_COUNT>
23

> <PUBCHEM_ATOM_DEF_STEREO_COUNT>
1

> <PUBCHEM_ATOM_UDEF_STEREO_COUNT>
0

> <PUBCHEM_BOND_DEF_STEREO_COUNT>
0

> <PUBCHEM_BOND_UDEF_STEREO_COUNT>
0

> <PUBCHEM_ISOTOPIC_ATOM_COUNT>
0

> <PUBCHEM_COMPONENT_COUNT>
1

> <PUBCHEM_CACTVS_TAUTO_COUNT>
-1

> <PUBCHEM_COORDINATE_TYPE>
1
5
255

> <PUBCHEM_BONDANNOTATIONS>
10  17  8
12  13  8
14  16  8
14  19  8
15  18  8
16  20  8
17  18  8
19  21  8
4  2  5
20  23  8
21  23  8
5  6  8
5  9  8
6  10  8
6  7  8
7  12  8
7  15  8
9  13  8

$$$$
