3899
     RDKit          2D

 19 20  0  0  0  0  0  0  0  0999 V2000
    4.6261    4.0194    0.0000 F   0  0  0  0  0  0  0  0  0  0  0  0
    5.6261    3.0194    0.0000 F   0  0  0  0  0  0  0  0  0  0  0  0
    3.6261    3.0194    0.0000 F   0  0  0  0  0  0  0  0  0  0  0  0
    3.2601   -4.0194    0.0000 O   0  0  0  0  0  0  0  0  0  0  0  0
    2.8940   -0.9806    0.0000 O   0  0  0  0  0  0  0  0  0  0  0  0
    4.6261   -0.9806    0.0000 N   0  0  0  0  0  0  0  0  0  0  0  0
    4.2601   -4.0194    0.0000 N   0  0  0  0  0  0  0  0  0  0  0  0
    4.6261    0.0194    0.0000 C   0  0  0  0  0  0  0  0  0  0  0  0
    4.6261    2.0194    0.0000 C   0  0  0  0  0  0  0  0  0  0  0  0
    3.7601   -2.4806    0.0000 C   0  0  0  0  0  0  0  0  0  0  0  0
    5.4921    0.5194    0.0000 C   0  0  0  0  0  0  0  0  0  0  0  0
    3.7601    0.5194    0.0000 C   0  0  0  0  0  0  0  0  0  0  0  0
    5.4921    1.5194    0.0000 C   0  0  0  0  0  0  0  0  0  0  0  0
    3.7601    1.5194    0.0000 C   0  0  0  0  0  0  0  0  0  0  0  0
    3.7601   -1.4806    0.0000 C   0  0  0  0  0  0  0  0  0  0  0  0
    2.9511   -3.0684    0.0000 C   0  0  0  0  0  0  0  0  0  0  0  0
    4.6261    3.0194    0.0000 C   0  0  0  0  0  0  0  0  0  0  0  0
    4.5691   -3.0684    0.0000 C   0  0  0  0  0  0  0  0  0  0  0  0
    2.0000   -2.7594    0.0000 C   0  0  0  0  0  0  0  0  0  0  0  0
  1 17  1  0
  2 17  1  0
  3 17  1  0
  4  7  1  0
  4 16  1  0
  5 15  2  0
  6  8  1  0
  6 15  1  0
  7 18  2  0
  8 11  2  0
  8 12  1  0
  9 13  2  0
  9 14  1  0
  9 17  1  0
 10 15  1  0
 10 16  2  0
 10 18  1  0
 11 13  1  0
 12 14  2  0
 16 19  1  0
M  END
>  <PUBCHEM_COMPOUND_CID>  (1) 
3899

>  <PUBCHEM_COMPOUND_CANONICALIZED>  (1) 
1

>  <PUBCHEM_CACTVS_COMPLEXITY>  (1) 
327

>  <PUBCHEM_CACTVS_HBOND_ACCEPTOR>  (1) 
6

>  <PUBCHEM_CACTVS_HBOND_DONOR>  (1) 
1

>  <PUBCHEM_CACTVS_ROTATABLE_BOND>  (1) 
2

>  <PUBCHEM_CACTVS_SUBSKEYS>  (1) 
AAADccBzMYAAAAAAAAAAAAAAAAAAAWAAAAAwAAAAAAAAAAABwAAAHwAUAAAADAzBmhQ+xJLQAACpArV3UgCCAAAlIgAomCEkbNoIJD7I0ZGEIchitAjIyccQgAAOCAAAAAAAAAAQAAAAAAAAAAAAAAAAAA==

>  <PUBCHEM_IUPAC_OPENEYE_NAME>  (1) 
5-methyl-N-[4-(trifluoromethyl)phenyl]isoxazole-4-carboxamide

>  <PUBCHEM_IUPAC_CAS_NAME>  (1) 
5-methyl-N-[4-(trifluoromethyl)phenyl]-4-isoxazolecarboxamide

>  <PUBCHEM_IUPAC_NAME_MARKUP>  (1) 
5-methyl-<I>N</I>-[4-(trifluoromethyl)phenyl]-1,2-oxazole-4-carboxamide

>  <PUBCHEM_IUPAC_NAME>  (1) 
5-methyl-N-[4-(trifluoromethyl)phenyl]-1,2-oxazole-4-carboxamide

>  <PUBCHEM_IUPAC_SYSTEMATIC_NAME>  (1) 
5-methyl-N-[4-(trifluoromethyl)phenyl]-1,2-oxazole-4-carboxamide

>  <PUBCHEM_IUPAC_TRADITIONAL_NAME>  (1) 
5-methyl-N-[4-(trifluoromethyl)phenyl]isoxazole-4-carboxamide

>  <PUBCHEM_IUPAC_INCHI>  (1) 
InChI=1S/C12H9F3N2O2/c1-7-10(6-16-19-7)11(18)17-9-4-2-8(3-5-9)12(13,14)15/h2-6H,1H3,(H,17,18)

>  <PUBCHEM_IUPAC_INCHIKEY>  (1) 
VHOGYURTWQBHIL-UHFFFAOYSA-N

>  <PUBCHEM_XLOGP3_AA>  (1) 
2.5

>  <PUBCHEM_EXACT_MASS>  (1) 
270.06161202

>  <PUBCHEM_MOLECULAR_FORMULA>  (1) 
C12H9F3N2O2

>  <PUBCHEM_MOLECULAR_WEIGHT>  (1) 
270.21

>  <PUBCHEM_OPENEYE_CAN_SMILES>  (1) 
CC1=C(C=NO1)C(=O)NC2=CC=C(C=C2)C(F)(F)F

>  <PUBCHEM_OPENEYE_ISO_SMILES>  (1) 
CC1=C(C=NO1)C(=O)NC2=CC=C(C=C2)C(F)(F)F

>  <PUBCHEM_CACTVS_TPSA>  (1) 
55.1

>  <PUBCHEM_MONOISOTOPIC_WEIGHT>  (1) 
270.06161202

>  <PUBCHEM_TOTAL_CHARGE>  (1) 
0

>  <PUBCHEM_HEAVY_ATOM_COUNT>  (1) 
19

>  <PUBCHEM_ATOM_DEF_STEREO_COUNT>  (1) 
0

>  <PUBCHEM_ATOM_UDEF_STEREO_COUNT>  (1) 
0

>  <PUBCHEM_BOND_DEF_STEREO_COUNT>  (1) 
0

>  <PUBCHEM_BOND_UDEF_STEREO_COUNT>  (1) 
0

>  <PUBCHEM_ISOTOPIC_ATOM_COUNT>  (1) 
0

>  <PUBCHEM_COMPONENT_COUNT>  (1) 
1

>  <PUBCHEM_CACTVS_TAUTO_COUNT>  (1) 
-1

>  <PUBCHEM_COORDINATE_TYPE>  (1) 
1
5
255

>  <PUBCHEM_BONDANNOTATIONS>  (1) 
10  16  8
10  18  8
11  13  8
12  14  8
4  16  8
4  7  8
7  18  8
8  11  8
8  12  8
9  13  8
9  14  8

$$$$
