46897844
     RDKit          2D

 32 34  0  0  1  0  0  0  0  0999 V2000
    7.0468   -0.2500    0.0000 O   0  0  0  0  0  0  0  0  0  0  0  0
    4.4487    2.2500    0.0000 O   0  0  0  0  0  0  0  0  0  0  0  0
    2.6691    1.1567    0.0000 O   0  0  0  0  0  0  0  0  0  0  0  0
    5.3147    0.7500    0.0000 N   0  0  0  0  0  0  0  0  0  0  0  0
    7.9128    1.2500    0.0000 N   0  0  0  0  0  0  0  0  0  0  0  0
    7.0468    3.7500    0.0000 N   0  0  0  0  0  0  0  0  0  0  0  0
    5.3147   -3.2500    0.0000 C   0  0  0  0  0  0  0  0  0  0  0  0
    8.7788    0.7500    0.0000 C   0  0  0  0  0  0  0  0  0  0  0  0
    6.1808    1.2500    0.0000 C   0  0  0  0  0  0  0  0  0  0  0  0
    5.3147   -2.2500    0.0000 C   0  0  0  0  0  0  0  0  0  0  0  0
    5.3147   -0.2500    0.0000 C   0  0  0  0  0  0  0  0  0  0  0  0
    5.3147   -4.2500    0.0000 C   0  0  0  0  0  0  0  0  0  0  0  0
    4.3147   -3.2500    0.0000 C   0  0  0  0  0  0  0  0  0  0  0  0
    6.3147   -3.2500    0.0000 C   0  0  0  0  0  0  0  0  0  0  0  0
    7.0468    0.7500    0.0000 C   0  0  0  0  0  0  0  0  0  0  0  0
    6.1808   -1.7500    0.0000 C   0  0  0  0  0  0  0  0  0  0  0  0
    4.4487   -1.7500    0.0000 C   0  0  0  0  0  0  0  0  0  0  0  0
    6.1808    2.2500    0.0000 C   0  0  0  0  0  0  0  0  0  0  0  0
    6.1808   -0.7500    0.0000 C   0  0  0  0  0  0  0  0  0  0  0  0
    4.4487   -0.7500    0.0000 C   0  0  0  0  0  0  0  0  0  0  0  0
    9.6448    0.2500    0.0000 C   0  0  0  0  0  0  0  0  0  0  0  0
    9.2788    1.6160    0.0000 C   0  0  0  0  0  0  0  0  0  0  0  0
    8.2788   -0.1160    0.0000 C   0  0  0  0  0  0  0  0  0  0  0  0
    4.4487    1.2500    0.0000 C   0  0  0  0  0  0  0  0  0  0  0  0
    5.3147    2.7500    0.0000 C   0  0  0  0  0  0  0  0  0  0  0  0
    7.0468    2.7500    0.0000 C   0  0  0  0  0  0  0  0  0  0  0  0
    3.5827    0.7500    0.0000 C   0  0  0  0  0  0  0  0  0  0  0  0
    5.3147    3.7500    0.0000 C   0  0  0  0  0  0  0  0  0  0  0  0
    3.4782   -0.2445    0.0000 C   0  0  0  0  0  0  0  0  0  0  0  0
    6.1808    4.2500    0.0000 C   0  0  0  0  0  0  0  0  0  0  0  0
    2.5000   -0.4524    0.0000 C   0  0  0  0  0  0  0  0  0  0  0  0
    2.0000    0.4136    0.0000 C   0  0  0  0  0  0  0  0  0  0  0  0
  1 15  2  0
  2 24  2  0
  3 27  1  0
  3 32  1  0
  9  4  1  6
  4 11  1  0
  4 24  1  0
  5  8  1  0
  5 15  1  0
  6 26  2  0
  6 30  1  0
  7 10  1  0
  7 12  1  0
  7 13  1  0
  7 14  1  0
  8 21  1  0
  8 22  1  0
  8 23  1  0
  9 15  1  0
  9 18  1  0
 10 16  2  0
 10 17  1  0
 11 19  2  0
 11 20  1  0
 16 19  1  0
 17 20  2  0
 18 25  2  0
 18 26  1  0
 24 27  1  0
 25 28  1  0
 27 29  2  0
 28 30  2  0
 29 31  1  0
 31 32  2  0
M  END
>  <PUBCHEM_COMPOUND_CID>  (1) 
46897844

>  <PUBCHEM_COMPOUND_CANONICALIZED>  (1) 
1

>  <PUBCHEM_CACTVS_COMPLEXITY>  (1) 
644

>  <PUBCHEM_CACTVS_HBOND_ACCEPTOR>  (1) 
4

>  <PUBCHEM_CACTVS_HBOND_DONOR>  (1) 
1

>  <PUBCHEM_CACTVS_ROTATABLE_BOND>  (1) 
7

>  <PUBCHEM_CACTVS_SUBSKEYS>  (1) 
AAADceB7MAAAAAAAAAAAAAAAAAAAASAAAAA8QAAAAAAAAAAB8AAAHgAQAAAADqzhmgY+xJPIFECoAr131AKCiCA1IiAI2CH+bNgOZvLE9b+XOSjk1hHY6Yecn8IPiAAAAAAAAAAQAAAAAAAAAAAAAAAAAA==

>  <PUBCHEM_IUPAC_OPENEYE_NAME>  (1) 
N-[(1R)-2-(tert-butylamino)-2-oxo-1-(3-pyridyl)ethyl]-N-(4-tert-butylphenyl)furan-2-carboxamide

>  <PUBCHEM_IUPAC_CAS_NAME>  (1) 
N-[(1R)-2-(tert-butylamino)-2-oxo-1-(3-pyridinyl)ethyl]-N-(4-tert-butylphenyl)-2-furancarboxamide

>  <PUBCHEM_IUPAC_NAME_MARKUP>  (1) 
<I>N</I>-[(1<I>R</I>)-2-(<I>tert</I>-butylamino)-2-oxo-1-pyridin-3-ylethyl]-<I>N</I>-(4-<I>tert</I>-butylphenyl)furan-2-carboxamide

>  <PUBCHEM_IUPAC_NAME>  (1) 
N-[(1R)-2-(tert-butylamino)-2-oxo-1-pyridin-3-ylethyl]-N-(4-tert-butylphenyl)furan-2-carboxamide

>  <PUBCHEM_IUPAC_SYSTEMATIC_NAME>  (1) 
N-[(1R)-2-(tert-butylamino)-2-oxidanylidene-1-pyridin-3-yl-ethyl]-N-(4-tert-butylphenyl)furan-2-carboxamide

>  <PUBCHEM_IUPAC_TRADITIONAL_NAME>  (1) 
N-[(1R)-2-(tert-butylamino)-2-keto-1-(3-pyridyl)ethyl]-N-(4-tert-butylphenyl)-2-furamide

>  <PUBCHEM_IUPAC_INCHI>  (1) 
InChI=1S/C26H31N3O3/c1-25(2,3)19-11-13-20(14-12-19)29(24(31)21-10-8-16-32-21)22(18-9-7-15-27-17-18)23(30)28-26(4,5)6/h7-17,22H,1-6H3,(H,28,30)/t22-/m1/s1

>  <PUBCHEM_IUPAC_INCHIKEY>  (1) 
JXGIYKRRPGCLFV-JOCHJYFZSA-N

>  <PUBCHEM_XLOGP3_AA>  (1) 
5

>  <PUBCHEM_EXACT_MASS>  (1) 
433.23654186

>  <PUBCHEM_MOLECULAR_FORMULA>  (1) 
C26H31N3O3

>  <PUBCHEM_MOLECULAR_WEIGHT>  (1) 
433.5

>  <PUBCHEM_OPENEYE_CAN_SMILES>  (1) 
CC(C)(C)C1=CC=C(C=C1)N(C(C2=CN=CC=C2)C(=O)NC(C)(C)C)C(=O)C3=CC=CO3

>  <PUBCHEM_OPENEYE_ISO_SMILES>  (1) 
CC(C)(C)C1=CC=C(C=C1)N([C@H](C2=CN=CC=C2)C(=O)NC(C)(C)C)C(=O)C3=CC=CO3

>  <PUBCHEM_CACTVS_TPSA>  (1) 
75.4

>  <PUBCHEM_MONOISOTOPIC_WEIGHT>  (1) 
433.23654186

>  <PUBCHEM_TOTAL_CHARGE>  (1) 
0

>  <PUBCHEM_HEAVY_ATOM_COUNT>  (1) 
32

>  <PUBCHEM_ATOM_DEF_STEREO_COUNT>  (1) 
1

>  <PUBCHEM_ATOM_UDEF_STEREO_COUNT>  (1) 
0

>  <PUBCHEM_BOND_DEF_STEREO_COUNT>  (1) 
0

>  <PUBCHEM_BOND_UDEF_STEREO_COUNT>  (1) 
0

>  <PUBCHEM_ISOTOPIC_ATOM_COUNT>  (1) 
0

>  <PUBCHEM_COMPONENT_COUNT>  (1) 
1

>  <PUBCHEM_CACTVS_TAUTO_COUNT>  (1) 
-1

>  <PUBCHEM_COORDINATE_TYPE>  (1) 
1
5
255

>  <PUBCHEM_BONDANNOTATIONS>  (1) 
10  16  8
10  17  8
11  19  8
11  20  8
16  19  8
17  20  8
18  25  8
18  26  8
25  28  8
27  29  8
28  30  8
29  31  8
3  27  8
3  32  8
31  32  8
9  4  6
6  26  8
6  30  8

$$$$
