SV_J31_0015
  -OEChem-07172407062D

377375  0     1  0  0  0  0  0999 V2000
   28.2132   13.2781    0.0000 S   0  0  0  0  0  0  0  0  0  0  0  0
   28.2132   17.0102    0.0000 S   0  0  0  0  0  0  0  0  0  0  0  0
   20.0397   11.5827    0.0000 O   0  0  0  0  0  0  0  0  0  0  0  0
   19.8127   27.7269    0.0000 O   0  0  0  0  0  0  0  0  0  0  0  0
    9.7300    3.5352    0.0000 O   0  0  0  0  0  0  0  0  0  0  0  0
   22.5806    8.8621    0.0000 O   0  0  0  0  0  0  0  0  0  0  0  0
   22.3536   25.0062    0.0000 O   0  0  0  0  0  0  0  0  0  0  0  0
    9.5030   19.6793    0.0000 O   0  0  0  0  0  0  0  0  0  0  0  0
   16.3170   11.5827    0.0000 O   0  0  0  0  0  0  0  0  0  0  0  0
   16.0901   27.7269    0.0000 O   0  0  0  0  0  0  0  0  0  0  0  0
   13.3991    5.8883    0.0000 O   0  0  0  0  0  0  0  0  0  0  0  0
   13.7761    8.8621    0.0000 O   0  0  0  0  0  0  0  0  0  0  0  0
   13.5492   25.0062    0.0000 O   0  0  0  0  0  0  0  0  0  0  0  0
   13.1721   22.0325    0.0000 O   0  0  0  0  0  0  0  0  0  0  0  0
    8.7323    3.6034    0.0000 O   0  0  0  0  0  0  0  0  0  0  0  0
   22.3265    5.1481    0.0000 O   0  0  0  0  0  0  0  0  0  0  0  0
   22.0996   21.2923    0.0000 O   0  0  0  0  0  0  0  0  0  0  0  0
    8.5053   19.7476    0.0000 O   0  0  0  0  0  0  0  0  0  0  0  0
   17.6169    2.0837    0.0000 O   0  0  0  0  0  0  0  0  0  0  0  0
   17.3899   18.2279    0.0000 O   0  0  0  0  0  0  0  0  0  0  0  0
   15.7509    3.3057    0.0000 O   0  0  0  0  0  0  0  0  0  0  0  0
   19.4388    2.7988    0.0000 O   0  0  0  0  0  0  0  0  0  0  0  0
   15.5239   19.4499    0.0000 O   0  0  0  0  0  0  0  0  0  0  0  0
    5.2995    4.7063    0.0000 O   0  0  0  0  0  0  0  0  0  0  0  0
   19.2119   18.9430    0.0000 O   0  0  0  0  0  0  0  0  0  0  0  0
    5.0726   20.8504    0.0000 O   0  0  0  0  0  0  0  0  0  0  0  0
   29.0792   13.7781    0.0000 O   0  0  0  0  0  0  0  0  0  0  0  0
   27.3471   12.7781    0.0000 O   0  0  0  0  0  0  0  0  0  0  0  0
   29.0792   17.5102    0.0000 O   0  0  0  0  0  0  0  0  0  0  0  0
   27.3471   16.5102    0.0000 O   0  0  0  0  0  0  0  0  0  0  0  0
   27.7132   14.1442    0.0000 O   0  0  0  0  0  0  0  0  0  0  0  0
   28.7132   12.4121    0.0000 O   0  0  0  0  0  0  0  0  0  0  0  0
   27.7132   17.8762    0.0000 O   0  0  0  0  0  0  0  0  0  0  0  0
   28.7132   16.1442    0.0000 O   0  0  0  0  0  0  0  0  0  0  0  0
   20.4957   10.1459    0.0000 N   0  0  0  0  0  0  0  0  0  0  0  0
   20.2687   26.2901    0.0000 N   0  0  0  0  0  0  0  0  0  0  0  0
   17.6784   10.9353    0.0000 N   0  0  0  0  0  0  0  0  0  0  0  0
   17.4514   27.0795    0.0000 N   0  0  0  0  0  0  0  0  0  0  0  0
   11.4037    6.0248    0.0000 N   0  0  0  0  0  0  0  0  0  0  0  0
   11.1768   22.1690    0.0000 N   0  0  0  0  0  0  0  0  0  0  0  0
   15.1785    9.4151    0.0000 N   0  0  0  0  0  0  0  0  0  0  0  0
   13.5173    7.6164    0.0000 N   0  0  0  0  0  0  0  0  0  0  0  0
   14.9515   25.5592    0.0000 N   0  0  0  0  0  0  0  0  0  0  0  0
   21.8418    7.5481    0.0000 N   0  0  0  0  0  0  0  0  0  0  0  0
   21.6148   23.6923    0.0000 N   0  0  0  0  0  0  0  0  0  0  0  0
   13.2903   23.7605    0.0000 N   0  0  0  0  0  0  0  0  0  0  0  0
    8.8505    5.3314    0.0000 N   0  0  0  0  0  0  0  0  0  0  0  0
    8.6235   21.4756    0.0000 N   0  0  0  0  0  0  0  0  0  0  0  0
   20.8620    4.7912    0.0000 N   0  0  0  0  0  0  0  0  0  0  0  0
   20.6350   20.9354    0.0000 N   0  0  0  0  0  0  0  0  0  0  0  0
    6.7369    3.7399    0.0000 N   0  0  0  0  0  0  0  0  0  0  0  0
   15.4948    4.7912    0.0000 N   0  0  0  0  0  0  0  0  0  0  0  0
   15.2678   20.9354    0.0000 N   0  0  0  0  0  0  0  0  0  0  0  0
   18.1784    3.6256    0.0000 N   0  0  0  0  0  0  0  0  0  0  0  0
   17.9514   19.7697    0.0000 N   0  0  0  0  0  0  0  0  0  0  0  0
    6.5100   19.8841    0.0000 N   0  0  0  0  0  0  0  0  0  0  0  0
   10.0845    8.7192    0.0000 N   0  0  0  0  0  0  0  0  0  0  0  0
   13.6115   11.5387    0.0000 N   0  0  0  0  0  0  0  0  0  0  0  0
   13.3846   27.6828    0.0000 N   0  0  0  0  0  0  0  0  0  0  0  0
    9.8576   24.8634    0.0000 N   0  0  0  0  0  0  0  0  0  0  0  0
   24.3974    6.8897    0.0000 N   0  0  0  0  0  0  0  0  0  0  0  0
   24.1705   23.0339    0.0000 N   0  0  0  0  0  0  0  0  0  0  0  0
    5.4177    6.4343    0.0000 N   0  0  0  0  0  0  0  0  0  0  0  0
   22.1252    2.4740    0.0000 N   0  0  0  0  0  0  0  0  0  0  0  0
   21.8982   18.6182    0.0000 N   0  0  0  0  0  0  0  0  0  0  0  0
    5.1908   22.5784    0.0000 N   0  0  0  0  0  0  0  0  0  0  0  0
   18.6784   10.9353    0.0000 C   0  0  2  0  0  0  0  0  0  0  0  0
   18.4514   27.0795    0.0000 C   0  0  2  0  0  0  0  0  0  0  0  0
   21.1783    9.4151    0.0000 C   0  0  1  0  0  0  0  0  0  0  0  0
   20.9513   25.5592    0.0000 C   0  0  1  0  0  0  0  0  0  0  0  0
   18.8145   11.9260    0.0000 C   0  0  0  0  0  0  0  0  0  0  0  0
   18.5876   28.0701    0.0000 C   0  0  0  0  0  0  0  0  0  0  0  0
   21.9952    9.9918    0.0000 C   0  0  0  0  0  0  0  0  0  0  0  0
   21.7683   26.1359    0.0000 C   0  0  0  0  0  0  0  0  0  0  0  0
   18.0247   12.5392    0.0000 C   0  0  0  0  0  0  0  0  0  0  0  0
   17.7977   28.6834    0.0000 C   0  0  0  0  0  0  0  0  0  0  0  0
   21.9043   10.9876    0.0000 C   0  0  0  0  0  0  0  0  0  0  0  0
   21.6773   27.1318    0.0000 C   0  0  0  0  0  0  0  0  0  0  0  0
    9.8482    5.2632    0.0000 C   0  0  1  0  0  0  0  0  0  0  0  0
   19.6413   10.6655    0.0000 C   0  0  0  0  0  0  0  0  0  0  0  0
   19.4143   26.8097    0.0000 C   0  0  0  0  0  0  0  0  0  0  0  0
   11.9617    6.8547    0.0000 C   0  0  1  0  0  0  0  0  0  0  0  0
   15.8610   10.1459    0.0000 C   0  0  2  0  0  0  0  0  0  0  0  0
   15.6341   26.2901    0.0000 C   0  0  2  0  0  0  0  0  0  0  0  0
   14.5150    7.5481    0.0000 C   0  0  1  0  0  0  0  0  0  0  0  0
   10.4061    6.0931    0.0000 C   0  0  0  0  0  0  0  0  0  0  0  0
    9.6212   21.4073    0.0000 C   0  0  1  0  0  0  0  0  0  0  0  0
   11.7347   22.9989    0.0000 C   0  0  1  0  0  0  0  0  0  0  0  0
   14.2880   23.6923    0.0000 C   0  0  1  0  0  0  0  0  0  0  0  0
   21.6383    8.5272    0.0000 C   0  0  0  0  0  0  0  0  0  0  0  0
   10.1791   22.2372    0.0000 C   0  0  0  0  0  0  0  0  0  0  0  0
   21.4114   24.6714    0.0000 C   0  0  0  0  0  0  0  0  0  0  0  0
   16.7154   10.6655    0.0000 C   0  0  0  0  0  0  0  0  0  0  0  0
   16.4885   26.8097    0.0000 C   0  0  0  0  0  0  0  0  0  0  0  0
   10.2879    4.3650    0.0000 C   0  0  1  0  0  0  0  0  0  0  0  0
   14.5832    6.5504    0.0000 C   0  0  0  0  0  0  0  0  0  0  0  0
   21.7735    6.5504    0.0000 C   0  0  1  0  0  0  0  0  0  0  0  0
   21.5466   22.6946    0.0000 C   0  0  1  0  0  0  0  0  0  0  0  0
   14.3562   22.6946    0.0000 C   0  0  0  0  0  0  0  0  0  0  0  0
   11.5219    7.7528    0.0000 C   0  0  0  0  0  0  0  0  0  0  0  0
   15.2299   10.9216    0.0000 C   0  0  0  0  0  0  0  0  0  0  0  0
   15.0030   27.0658    0.0000 C   0  0  0  0  0  0  0  0  0  0  0  0
   18.1608   13.5299    0.0000 C   0  0  0  0  0  0  0  0  0  0  0  0
   17.0986   12.1618    0.0000 C   0  0  0  0  0  0  0  0  0  0  0  0
   17.9339   29.6741    0.0000 C   0  0  0  0  0  0  0  0  0  0  0  0
   16.8717   28.3060    0.0000 C   0  0  0  0  0  0  0  0  0  0  0  0
   12.9594    6.7865    0.0000 C   0  0  0  0  0  0  0  0  0  0  0  0
   10.0609   20.5092    0.0000 C   0  0  1  0  0  0  0  0  0  0  0  0
   14.7184    8.5272    0.0000 C   0  0  0  0  0  0  0  0  0  0  0  0
   11.2950   23.8970    0.0000 C   0  0  0  0  0  0  0  0  0  0  0  0
   22.7213   11.5643    0.0000 C   0  0  0  0  0  0  0  0  0  0  0  0
   20.9964   11.4068    0.0000 C   0  0  0  0  0  0  0  0  0  0  0  0
   14.4915   24.6714    0.0000 C   0  0  0  0  0  0  0  0  0  0  0  0
   22.4943   27.7085    0.0000 C   0  0  0  0  0  0  0  0  0  0  0  0
   20.7694   27.5510    0.0000 C   0  0  0  0  0  0  0  0  0  0  0  0
   12.7324   22.9306    0.0000 C   0  0  0  0  0  0  0  0  0  0  0  0
    7.2949    4.5698    0.0000 C   0  0  2  0  0  0  0  0  0  0  0  0
   14.9181    5.6082    0.0000 C   0  0  0  0  0  0  0  0  0  0  0  0
    2.0701    1.4550    0.0000 C   0  0  3  0  0  0  0  0  0  0  0  0
   14.6911   21.7523    0.0000 C   0  0  0  0  0  0  0  0  0  0  0  0
    2.6281    2.2848    0.0000 C   0  0  0  0  0  0  0  0  0  0  0  0
   22.7526    6.3470    0.0000 C   0  0  0  0  0  0  0  0  0  0  0  0
   22.5257   22.4911    0.0000 C   0  0  0  0  0  0  0  0  0  0  0  0
    3.6257    2.2166    0.0000 C   0  0  0  0  0  0  0  0  0  0  0  0
    8.2925    4.5015    0.0000 C   0  0  0  0  0  0  0  0  0  0  0  0
   20.0863    4.1601    0.0000 C   0  0  1  0  0  0  0  0  0  0  0  0
   19.8593   20.3043    0.0000 C   0  0  1  0  0  0  0  0  0  0  0  0
   10.5243    7.8211    0.0000 C   0  0  0  0  0  0  0  0  0  0  0  0
   21.4387    5.6082    0.0000 C   0  0  0  0  0  0  0  0  0  0  0  0
   14.2426   10.7629    0.0000 C   0  0  0  0  0  0  0  0  0  0  0  0
   21.2117   21.7523    0.0000 C   0  0  0  0  0  0  0  0  0  0  0  0
    4.1837    3.0465    0.0000 C   0  0  0  0  0  0  0  0  0  0  0  0
    7.0679   20.7139    0.0000 C   0  0  2  0  0  0  0  0  0  0  0  0
   14.0157   26.9071    0.0000 C   0  0  0  0  0  0  0  0  0  0  0  0
   11.2856    4.2968    0.0000 C   0  0  0  0  0  0  0  0  0  0  0  0
    6.8551    5.4679    0.0000 C   0  0  0  0  0  0  0  0  0  0  0  0
   10.2973   23.9652    0.0000 C   0  0  0  0  0  0  0  0  0  0  0  0
   17.1877    3.7617    0.0000 C   0  0  2  0  0  0  0  0  0  0  0  0
   16.9607   19.9059    0.0000 C   0  0  2  0  0  0  0  0  0  0  0  0
    8.0656   20.6457    0.0000 C   0  0  0  0  0  0  0  0  0  0  0  0
    1.0725    1.5232    0.0000 C   0  0  0  0  0  0  0  0  0  0  0  0
    5.1813    2.9782    0.0000 C   0  0  0  0  0  0  0  0  0  0  0  0
   11.0586   20.4410    0.0000 C   0  0  0  0  0  0  0  0  0  0  0  0
   20.6058    3.3057    0.0000 C   0  0  0  0  0  0  0  0  0  0  0  0
   23.4184    7.0932    0.0000 C   0  0  0  0  0  0  0  0  0  0  0  0
   20.3789   19.4499    0.0000 C   0  0  0  0  0  0  0  0  0  0  0  0
   23.1914   23.2373    0.0000 C   0  0  0  0  0  0  0  0  0  0  0  0
    6.6282   21.6121    0.0000 C   0  0  0  0  0  0  0  0  0  0  0  0
   16.2705    4.1601    0.0000 C   0  0  0  0  0  0  0  0  0  0  0  0
   19.1691    3.7617    0.0000 C   0  0  0  0  0  0  0  0  0  0  0  0
    2.5099    0.5568    0.0000 C   0  0  0  0  0  0  0  0  0  0  0  0
   16.0435   20.3043    0.0000 C   0  0  0  0  0  0  0  0  0  0  0  0
    5.7393    3.8081    0.0000 C   0  0  0  0  0  0  0  0  0  0  0  0
   18.9421   19.9059    0.0000 C   0  0  0  0  0  0  0  0  0  0  0  0
   16.9179    2.7988    0.0000 C   0  0  1  0  0  0  0  0  0  0  0  0
   16.6909   18.9430    0.0000 C   0  0  1  0  0  0  0  0  0  0  0  0
    5.8575    5.5362    0.0000 C   0  0  0  0  0  0  0  0  0  0  0  0
    0.5145    0.6933    0.0000 C   0  0  0  0  0  0  0  0  0  0  0  0
   21.6056    3.3285    0.0000 C   0  0  0  0  0  0  0  0  0  0  0  0
   21.3786   19.4726    0.0000 C   0  0  0  0  0  0  0  0  0  0  0  0
    5.6305   21.6803    0.0000 C   0  0  0  0  0  0  0  0  0  0  0  0
    3.9567   19.1907    0.0000 C   0  0  0  0  0  0  0  0  0  0  0  0
    4.9544   19.1224    0.0000 C   0  0  0  0  0  0  0  0  0  0  0  0
    3.3988   18.3608    0.0000 C   0  0  0  0  0  0  0  0  0  0  0  0
    5.5123   19.9523    0.0000 C   0  0  0  0  0  0  0  0  0  0  0  0
    2.4011   18.4290    0.0000 C   0  0  0  0  0  0  0  0  0  0  0  0
   15.9491    2.5510    0.0000 C   0  0  0  0  0  0  0  0  0  0  0  0
   15.7221   18.6952    0.0000 C   0  0  0  0  0  0  0  0  0  0  0  0
    1.8432   17.5991    0.0000 C   0  0  0  0  0  0  0  0  0  0  0  0
    0.8455   17.6674    0.0000 C   0  0  0  0  0  0  0  0  0  0  0  0
    2.2829   16.7010    0.0000 C   0  0  0  0  0  0  0  0  0  0  0  0
   18.2709   11.4026    0.0000 H   0  0  0  0  0  0  0  0  0  0  0  0
   18.0439   27.5468    0.0000 H   0  0  0  0  0  0  0  0  0  0  0  0
   21.2417   10.0318    0.0000 H   0  0  0  0  0  0  0  0  0  0  0  0
   21.0147   26.1760    0.0000 H   0  0  0  0  0  0  0  0  0  0  0  0
   19.4048   11.7362    0.0000 H   0  0  0  0  0  0  0  0  0  0  0  0
   19.1039   12.4743    0.0000 H   0  0  0  0  0  0  0  0  0  0  0  0
   19.1778   27.8803    0.0000 H   0  0  0  0  0  0  0  0  0  0  0  0
   18.8770   28.6185    0.0000 H   0  0  0  0  0  0  0  0  0  0  0  0
   22.2594    9.4308    0.0000 H   0  0  0  0  0  0  0  0  0  0  0  0
   22.5935   10.1545    0.0000 H   0  0  0  0  0  0  0  0  0  0  0  0
   22.0324   25.5750    0.0000 H   0  0  0  0  0  0  0  0  0  0  0  0
   22.3665   26.2987    0.0000 H   0  0  0  0  0  0  0  0  0  0  0  0
   17.9402   11.9250    0.0000 H   0  0  0  0  0  0  0  0  0  0  0  0
   18.3718   28.9174    0.0000 H   0  0  0  0  0  0  0  0  0  0  0  0
   21.8479   11.6050    0.0000 H   0  0  0  0  0  0  0  0  0  0  0  0
   21.1708   26.7742    0.0000 H   0  0  0  0  0  0  0  0  0  0  0  0
    9.5022    4.7486    0.0000 H   0  0  0  0  0  0  0  0  0  0  0  0
   20.8870   10.6269    0.0000 H   0  0  0  0  0  0  0  0  0  0  0  0
   20.6600   26.7710    0.0000 H   0  0  0  0  0  0  0  0  0  0  0  0
   11.3431    6.8970    0.0000 H   0  0  0  0  0  0  0  0  0  0  0  0
   15.2414   10.1671    0.0000 H   0  0  0  0  0  0  0  0  0  0  0  0
   15.0144   26.3112    0.0000 H   0  0  0  0  0  0  0  0  0  0  0  0
   14.1403    8.0421    0.0000 H   0  0  0  0  0  0  0  0  0  0  0  0
   17.5939   11.5495    0.0000 H   0  0  0  0  0  0  0  0  0  0  0  0
   10.5552    6.6949    0.0000 H   0  0  0  0  0  0  0  0  0  0  0  0
    9.8393    6.3444    0.0000 H   0  0  0  0  0  0  0  0  0  0  0  0
   17.3670   27.6937    0.0000 H   0  0  0  0  0  0  0  0  0  0  0  0
    9.3486   21.9642    0.0000 H   0  0  0  0  0  0  0  0  0  0  0  0
   12.0074   22.4420    0.0000 H   0  0  0  0  0  0  0  0  0  0  0  0
   13.8496   23.2539    0.0000 H   0  0  0  0  0  0  0  0  0  0  0  0
   10.3282   22.8390    0.0000 H   0  0  0  0  0  0  0  0  0  0  0  0
    9.6124   22.4885    0.0000 H   0  0  0  0  0  0  0  0  0  0  0  0
   11.6764    5.4680    0.0000 H   0  0  0  0  0  0  0  0  0  0  0  0
   10.5605    3.8082    0.0000 H   0  0  0  0  0  0  0  0  0  0  0  0
   14.0039    6.7713    0.0000 H   0  0  0  0  0  0  0  0  0  0  0  0
   15.1902    6.6766    0.0000 H   0  0  0  0  0  0  0  0  0  0  0  0
   22.2676    6.9251    0.0000 H   0  0  0  0  0  0  0  0  0  0  0  0
   13.7769   22.9155    0.0000 H   0  0  0  0  0  0  0  0  0  0  0  0
   14.9633   22.8207    0.0000 H   0  0  0  0  0  0  0  0  0  0  0  0
   22.0406   23.0692    0.0000 H   0  0  0  0  0  0  0  0  0  0  0  0
   12.1177    7.9246    0.0000 H   0  0  0  0  0  0  0  0  0  0  0  0
   11.4562    8.3693    0.0000 H   0  0  0  0  0  0  0  0  0  0  0  0
   15.7715   11.2234    0.0000 H   0  0  0  0  0  0  0  0  0  0  0  0
   15.0268   11.5074    0.0000 H   0  0  0  0  0  0  0  0  0  0  0  0
   11.4494   21.6121    0.0000 H   0  0  0  0  0  0  0  0  0  0  0  0
   15.5446   27.3676    0.0000 H   0  0  0  0  0  0  0  0  0  0  0  0
   14.7998   27.6515    0.0000 H   0  0  0  0  0  0  0  0  0  0  0  0
   18.7750   13.4455    0.0000 H   0  0  0  0  0  0  0  0  0  0  0  0
   18.2452   14.1442    0.0000 H   0  0  0  0  0  0  0  0  0  0  0  0
   17.5466   13.6144    0.0000 H   0  0  0  0  0  0  0  0  0  0  0  0
   16.8646   12.7360    0.0000 H   0  0  0  0  0  0  0  0  0  0  0  0
   16.5245   11.9278    0.0000 H   0  0  0  0  0  0  0  0  0  0  0  0
   17.3326   11.5877    0.0000 H   0  0  0  0  0  0  0  0  0  0  0  0
   18.5481   29.5897    0.0000 H   0  0  0  0  0  0  0  0  0  0  0  0
   18.0183   30.2883    0.0000 H   0  0  0  0  0  0  0  0  0  0  0  0
   17.3196   29.7585    0.0000 H   0  0  0  0  0  0  0  0  0  0  0  0
   16.6377   28.8801    0.0000 H   0  0  0  0  0  0  0  0  0  0  0  0
   16.2975   28.0720    0.0000 H   0  0  0  0  0  0  0  0  0  0  0  0
   17.1057   27.7318    0.0000 H   0  0  0  0  0  0  0  0  0  0  0  0
   14.6720    9.7726    0.0000 H   0  0  0  0  0  0  0  0  0  0  0  0
    9.4424   20.5515    0.0000 H   0  0  0  0  0  0  0  0  0  0  0  0
   13.2447    8.1732    0.0000 H   0  0  0  0  0  0  0  0  0  0  0  0
   11.8907   24.0688    0.0000 H   0  0  0  0  0  0  0  0  0  0  0  0
   11.2293   24.5135    0.0000 H   0  0  0  0  0  0  0  0  0  0  0  0
   14.4450   25.9168    0.0000 H   0  0  0  0  0  0  0  0  0  0  0  0
   23.0788   11.0578    0.0000 H   0  0  0  0  0  0  0  0  0  0  0  0
   23.2278   11.9218    0.0000 H   0  0  0  0  0  0  0  0  0  0  0  0
   22.3637   12.0708    0.0000 H   0  0  0  0  0  0  0  0  0  0  0  0
   21.2563   11.9697    0.0000 H   0  0  0  0  0  0  0  0  0  0  0  0
   20.4335   11.6667    0.0000 H   0  0  0  0  0  0  0  0  0  0  0  0
   20.7365   10.8439    0.0000 H   0  0  0  0  0  0  0  0  0  0  0  0
   22.4603    7.5904    0.0000 H   0  0  0  0  0  0  0  0  0  0  0  0
   22.8518   27.2019    0.0000 H   0  0  0  0  0  0  0  0  0  0  0  0
   23.0008   28.0660    0.0000 H   0  0  0  0  0  0  0  0  0  0  0  0
   22.1368   28.2150    0.0000 H   0  0  0  0  0  0  0  0  0  0  0  0
   21.0293   28.1139    0.0000 H   0  0  0  0  0  0  0  0  0  0  0  0
   20.2065   27.8108    0.0000 H   0  0  0  0  0  0  0  0  0  0  0  0
   20.5095   26.9881    0.0000 H   0  0  0  0  0  0  0  0  0  0  0  0
   22.2334   23.7346    0.0000 H   0  0  0  0  0  0  0  0  0  0  0  0
   13.0177   24.3174    0.0000 H   0  0  0  0  0  0  0  0  0  0  0  0
    8.5778    5.8883    0.0000 H   0  0  0  0  0  0  0  0  0  0  0  0
    6.6763    4.6121    0.0000 H   0  0  0  0  0  0  0  0  0  0  0  0
   14.3006    5.6646    0.0000 H   0  0  0  0  0  0  0  0  0  0  0  0
   15.4686    5.8934    0.0000 H   0  0  0  0  0  0  0  0  0  0  0  0
    1.7242    0.9404    0.0000 H   0  0  0  0  0  0  0  0  0  0  0  0
   14.0737   21.8087    0.0000 H   0  0  0  0  0  0  0  0  0  0  0  0
   15.2416   22.0376    0.0000 H   0  0  0  0  0  0  0  0  0  0  0  0
    8.3509   22.0324    0.0000 H   0  0  0  0  0  0  0  0  0  0  0  0
    2.7771    2.8867    0.0000 H   0  0  0  0  0  0  0  0  0  0  0  0
    2.0613    2.5362    0.0000 H   0  0  0  0  0  0  0  0  0  0  0  0
   22.5230    5.7711    0.0000 H   0  0  0  0  0  0  0  0  0  0  0  0
   23.2799    6.0208    0.0000 H   0  0  0  0  0  0  0  0  0  0  0  0
   22.2960   21.9152    0.0000 H   0  0  0  0  0  0  0  0  0  0  0  0
   23.0529   22.1650    0.0000 H   0  0  0  0  0  0  0  0  0  0  0  0
    3.4767    1.6148    0.0000 H   0  0  0  0  0  0  0  0  0  0  0  0
    4.1925    1.9653    0.0000 H   0  0  0  0  0  0  0  0  0  0  0  0
   20.6972    4.0548    0.0000 H   0  0  0  0  0  0  0  0  0  0  0  0
   20.4703   20.1989    0.0000 H   0  0  0  0  0  0  0  0  0  0  0  0
    9.9286    7.6493    0.0000 H   0  0  0  0  0  0  0  0  0  0  0  0
   10.5900    7.2046    0.0000 H   0  0  0  0  0  0  0  0  0  0  0  0
   13.7010   10.4611    0.0000 H   0  0  0  0  0  0  0  0  0  0  0  0
   14.4458   10.1772    0.0000 H   0  0  0  0  0  0  0  0  0  0  0  0
    4.3328    3.6483    0.0000 H   0  0  0  0  0  0  0  0  0  0  0  0
    3.6169    3.2978    0.0000 H   0  0  0  0  0  0  0  0  0  0  0  0
    7.3406   20.1571    0.0000 H   0  0  0  0  0  0  0  0  0  0  0  0
   13.4741   26.6053    0.0000 H   0  0  0  0  0  0  0  0  0  0  0  0
   14.2188   26.3213    0.0000 H   0  0  0  0  0  0  0  0  0  0  0  0
   11.2432    3.6783    0.0000 H   0  0  0  0  0  0  0  0  0  0  0  0
   11.9041    4.2545    0.0000 H   0  0  0  0  0  0  0  0  0  0  0  0
   11.3279    4.9154    0.0000 H   0  0  0  0  0  0  0  0  0  0  0  0
    7.4509    5.6397    0.0000 H   0  0  0  0  0  0  0  0  0  0  0  0
    6.7894    6.0844    0.0000 H   0  0  0  0  0  0  0  0  0  0  0  0
    9.7016   23.7934    0.0000 H   0  0  0  0  0  0  0  0  0  0  0  0
   10.3631   23.3487    0.0000 H   0  0  0  0  0  0  0  0  0  0  0  0
   17.6539    3.0510    0.0000 H   0  0  0  0  0  0  0  0  0  0  0  0
   17.4269   19.1951    0.0000 H   0  0  0  0  0  0  0  0  0  0  0  0
    1.2215    2.1250    0.0000 H   0  0  0  0  0  0  0  0  0  0  0  0
    0.5057    1.7745    0.0000 H   0  0  0  0  0  0  0  0  0  0  0  0
    5.0323    2.3764    0.0000 H   0  0  0  0  0  0  0  0  0  0  0  0
    5.7481    2.7269    0.0000 H   0  0  0  0  0  0  0  0  0  0  0  0
   11.0163   19.8224    0.0000 H   0  0  0  0  0  0  0  0  0  0  0  0
   11.6771   20.3987    0.0000 H   0  0  0  0  0  0  0  0  0  0  0  0
   11.1009   21.0595    0.0000 H   0  0  0  0  0  0  0  0  0  0  0  0
   21.3151    4.3680    0.0000 H   0  0  0  0  0  0  0  0  0  0  0  0
   21.0881   20.5122    0.0000 H   0  0  0  0  0  0  0  0  0  0  0  0
    7.0096    3.1831    0.0000 H   0  0  0  0  0  0  0  0  0  0  0  0
   15.0416    4.3680    0.0000 H   0  0  0  0  0  0  0  0  0  0  0  0
   14.8147   20.5122    0.0000 H   0  0  0  0  0  0  0  0  0  0  0  0
   20.0282    3.0804    0.0000 H   0  0  0  0  0  0  0  0  0  0  0  0
   20.7274    2.6977    0.0000 H   0  0  0  0  0  0  0  0  0  0  0  0
   23.6480    7.6691    0.0000 H   0  0  0  0  0  0  0  0  0  0  0  0
   22.8911    7.4193    0.0000 H   0  0  0  0  0  0  0  0  0  0  0  0
   19.8013   19.2246    0.0000 H   0  0  0  0  0  0  0  0  0  0  0  0
   20.5004   18.8419    0.0000 H   0  0  0  0  0  0  0  0  0  0  0  0
   23.4210   23.8132    0.0000 H   0  0  0  0  0  0  0  0  0  0  0  0
   22.6641   23.5635    0.0000 H   0  0  0  0  0  0  0  0  0  0  0  0
    7.2239   21.7839    0.0000 H   0  0  0  0  0  0  0  0  0  0  0  0
    6.5624   22.2286    0.0000 H   0  0  0  0  0  0  0  0  0  0  0  0
    1.9530    0.2842    0.0000 H   0  0  0  0  0  0  0  0  0  0  0  0
    2.7825    0.0000    0.0000 H   0  0  0  0  0  0  0  0  0  0  0  0
    3.0667    0.8295    0.0000 H   0  0  0  0  0  0  0  0  0  0  0  0
   17.5185    2.9524    0.0000 H   0  0  0  0  0  0  0  0  0  0  0  0
   18.1784    3.0056    0.0000 H   0  0  0  0  0  0  0  0  0  0  0  0
   17.2916   19.0966    0.0000 H   0  0  0  0  0  0  0  0  0  0  0  0
   17.9514   19.1497    0.0000 H   0  0  0  0  0  0  0  0  0  0  0  0
   10.0026    2.9783    0.0000 H   0  0  0  0  0  0  0  0  0  0  0  0
    5.2618    5.3644    0.0000 H   0  0  0  0  0  0  0  0  0  0  0  0
    5.9232    4.9196    0.0000 H   0  0  0  0  0  0  0  0  0  0  0  0
    6.7826   19.3272    0.0000 H   0  0  0  0  0  0  0  0  0  0  0  0
    9.7756   19.1225    0.0000 H   0  0  0  0  0  0  0  0  0  0  0  0
    0.0000    1.0392    0.0000 H   0  0  0  0  0  0  0  0  0  0  0  0
    0.1686    0.1788    0.0000 H   0  0  0  0  0  0  0  0  0  0  0  0
    1.0291    0.3474    0.0000 H   0  0  0  0  0  0  0  0  0  0  0  0
   22.1832    3.5537    0.0000 H   0  0  0  0  0  0  0  0  0  0  0  0
   21.4841    3.9364    0.0000 H   0  0  0  0  0  0  0  0  0  0  0  0
   21.9563   19.6979    0.0000 H   0  0  0  0  0  0  0  0  0  0  0  0
   21.2571   20.0806    0.0000 H   0  0  0  0  0  0  0  0  0  0  0  0
    5.0348   21.5085    0.0000 H   0  0  0  0  0  0  0  0  0  0  0  0
    5.6963   21.0638    0.0000 H   0  0  0  0  0  0  0  0  0  0  0  0
    4.1058   19.7925    0.0000 H   0  0  0  0  0  0  0  0  0  0  0  0
    3.3899   19.4420    0.0000 H   0  0  0  0  0  0  0  0  0  0  0  0
    9.4660    8.7615    0.0000 H   0  0  0  0  0  0  0  0  0  0  0  0
   10.4305    9.2337    0.0000 H   0  0  0  0  0  0  0  0  0  0  0  0
    4.8053   18.5206    0.0000 H   0  0  0  0  0  0  0  0  0  0  0  0
    5.5212   18.8711    0.0000 H   0  0  0  0  0  0  0  0  0  0  0  0
   12.9994   11.4403    0.0000 H   0  0  0  0  0  0  0  0  0  0  0  0
   13.8324   12.1180    0.0000 H   0  0  0  0  0  0  0  0  0  0  0  0
    3.2497   17.7590    0.0000 H   0  0  0  0  0  0  0  0  0  0  0  0
    3.9656   18.1095    0.0000 H   0  0  0  0  0  0  0  0  0  0  0  0
   12.7724   27.5844    0.0000 H   0  0  0  0  0  0  0  0  0  0  0  0
   13.6054   28.2621    0.0000 H   0  0  0  0  0  0  0  0  0  0  0  0
    2.5502   19.0308    0.0000 H   0  0  0  0  0  0  0  0  0  0  0  0
    1.8343   18.6803    0.0000 H   0  0  0  0  0  0  0  0  0  0  0  0
    9.2390   24.9057    0.0000 H   0  0  0  0  0  0  0  0  0  0  0  0
   10.2035   25.3779    0.0000 H   0  0  0  0  0  0  0  0  0  0  0  0
   15.7954    3.1517    0.0000 H   0  0  0  0  0  0  0  0  0  0  0  0
   15.3484    2.3974    0.0000 H   0  0  0  0  0  0  0  0  0  0  0  0
   16.1027    1.9503    0.0000 H   0  0  0  0  0  0  0  0  0  0  0  0
    1.4973   17.0846    0.0000 H   0  0  0  0  0  0  0  0  0  0  0  0
   15.5685   19.2958    0.0000 H   0  0  0  0  0  0  0  0  0  0  0  0
   15.1215   18.5415    0.0000 H   0  0  0  0  0  0  0  0  0  0  0  0
   15.8758   18.0945    0.0000 H   0  0  0  0  0  0  0  0  0  0  0  0
   24.8102    7.3524    0.0000 H   0  0  0  0  0  0  0  0  0  0  0  0
   24.5917    6.3009    0.0000 H   0  0  0  0  0  0  0  0  0  0  0  0
   24.5832   23.4965    0.0000 H   0  0  0  0  0  0  0  0  0  0  0  0
   24.3648   22.4451    0.0000 H   0  0  0  0  0  0  0  0  0  0  0  0
    4.7992    6.4766    0.0000 H   0  0  0  0  0  0  0  0  0  0  0  0
    5.7637    6.9488    0.0000 H   0  0  0  0  0  0  0  0  0  0  0  0
   17.4496    1.4867    0.0000 H   0  0  0  0  0  0  0  0  0  0  0  0
   17.2227   17.6308    0.0000 H   0  0  0  0  0  0  0  0  0  0  0  0
    0.8878   18.2859    0.0000 H   0  0  0  0  0  0  0  0  0  0  0  0
    0.2270   17.7097    0.0000 H   0  0  0  0  0  0  0  0  0  0  0  0
    0.8032   17.0488    0.0000 H   0  0  0  0  0  0  0  0  0  0  0  0
    1.7261   16.4284    0.0000 H   0  0  0  0  0  0  0  0  0  0  0  0
    2.5556   16.1442    0.0000 H   0  0  0  0  0  0  0  0  0  0  0  0
    2.8398   16.9736    0.0000 H   0  0  0  0  0  0  0  0  0  0  0  0
   22.7450    2.4882    0.0000 H   0  0  0  0  0  0  0  0  0  0  0  0
   21.8275    1.9302    0.0000 H   0  0  0  0  0  0  0  0  0  0  0  0
   22.5181   18.6323    0.0000 H   0  0  0  0  0  0  0  0  0  0  0  0
   21.6005   18.0744    0.0000 H   0  0  0  0  0  0  0  0  0  0  0  0
    4.5722   22.6207    0.0000 H   0  0  0  0  0  0  0  0  0  0  0  0
    5.5367   23.0930    0.0000 H   0  0  0  0  0  0  0  0  0  0  0  0
   29.6161   13.4681    0.0000 H   0  0  0  0  0  0  0  0  0  0  0  0
   26.8102   13.0881    0.0000 H   0  0  0  0  0  0  0  0  0  0  0  0
   29.6161   17.2002    0.0000 H   0  0  0  0  0  0  0  0  0  0  0  0
   26.8102   16.8202    0.0000 H   0  0  0  0  0  0  0  0  0  0  0  0
  1 27  1  0  0  0  0
  1 28  1  0  0  0  0
  1 31  2  0  0  0  0
  1 32  2  0  0  0  0
  2 29  1  0  0  0  0
  2 30  1  0  0  0  0
  2 33  2  0  0  0  0
  2 34  2  0  0  0  0
  3 80  2  0  0  0  0
  4 81  2  0  0  0  0
 95  5  1  1  0  0  0
  5317  1  0  0  0  0
  6 90  2  0  0  0  0
  7 92  2  0  0  0  0
108  8  1  1  0  0  0
  8321  1  0  0  0  0
  9 93  2  0  0  0  0
 10 94  2  0  0  0  0
 11107  2  0  0  0  0
 12109  2  0  0  0  0
 13113  2  0  0  0  0
 14116  2  0  0  0  0
 15125  2  0  0  0  0
 16129  2  0  0  0  0
 17131  2  0  0  0  0
 18140  2  0  0  0  0
155 19  1  6  0  0  0
 19360  1  0  0  0  0
156 20  1  6  0  0  0
 20361  1  0  0  0  0
 21149  2  0  0  0  0
 22150  2  0  0  0  0
 23152  2  0  0  0  0
 24153  2  0  0  0  0
 25154  2  0  0  0  0
 26165  2  0  0  0  0
 27374  1  0  0  0  0
 28375  1  0  0  0  0
 29376  1  0  0  0  0
 30377  1  0  0  0  0
 35 69  1  0  0  0  0
 35 80  1  0  0  0  0
 35189  1  0  0  0  0
 36 70  1  0  0  0  0
 36 81  1  0  0  0  0
 36190  1  0  0  0  0
 37 67  1  0  0  0  0
 37 93  1  0  0  0  0
 37195  1  0  0  0  0
 38 68  1  0  0  0  0
 38 94  1  0  0  0  0
 38198  1  0  0  0  0
 82 39  1  1  0  0  0
 39 86  1  0  0  0  0
 39204  1  0  0  0  0
 88 40  1  1  0  0  0
 40 91  1  0  0  0  0
 40216  1  0  0  0  0
 41 83  1  0  0  0  0
 41109  1  0  0  0  0
 41231  1  0  0  0  0
 85 42  1  6  0  0  0
 42107  1  0  0  0  0
 42233  1  0  0  0  0
 43 84  1  0  0  0  0
 43113  1  0  0  0  0
 43236  1  0  0  0  0
 44 90  1  0  0  0  0
 44 97  1  0  0  0  0
 44243  1  0  0  0  0
 45 92  1  0  0  0  0
 45 98  1  0  0  0  0
 45250  1  0  0  0  0
 89 46  1  6  0  0  0
 46116  1  0  0  0  0
 46251  1  0  0  0  0
 79 47  1  1  0  0  0
 47125  1  0  0  0  0
 47252  1  0  0  0  0
 87 48  1  1  0  0  0
 48140  1  0  0  0  0
 48259  1  0  0  0  0
 49126  1  0  0  0  0
 49129  1  0  0  0  0
 49295  1  0  0  0  0
 50127  1  0  0  0  0
 50131  1  0  0  0  0
 50296  1  0  0  0  0
117 51  1  1  0  0  0
 51153  1  0  0  0  0
 51297  1  0  0  0  0
 52118  1  0  0  0  0
 52149  1  0  0  0  0
 52298  1  0  0  0  0
 53120  1  0  0  0  0
 53152  1  0  0  0  0
 53299  1  0  0  0  0
 54138  1  0  0  0  0
 54150  1  0  0  0  0
 54314  1  0  0  0  0
 55139  1  0  0  0  0
 55154  1  0  0  0  0
 55316  1  0  0  0  0
133 56  1  1  0  0  0
 56165  1  0  0  0  0
 56320  1  0  0  0  0
 57128  1  0  0  0  0
 57333  1  0  0  0  0
 57334  1  0  0  0  0
 58130  1  0  0  0  0
 58337  1  0  0  0  0
 58338  1  0  0  0  0
 59134  1  0  0  0  0
 59341  1  0  0  0  0
 59342  1  0  0  0  0
 60137  1  0  0  0  0
 60345  1  0  0  0  0
 60346  1  0  0  0  0
 61145  1  0  0  0  0
 61354  1  0  0  0  0
 61355  1  0  0  0  0
 62147  1  0  0  0  0
 62356  1  0  0  0  0
 62357  1  0  0  0  0
 63157  1  0  0  0  0
 63358  1  0  0  0  0
 63359  1  0  0  0  0
 64159  1  0  0  0  0
 64368  1  0  0  0  0
 64369  1  0  0  0  0
 65160  1  0  0  0  0
 65370  1  0  0  0  0
 65371  1  0  0  0  0
 66161  1  0  0  0  0
 66372  1  0  0  0  0
 66373  1  0  0  0  0
 67 71  1  6  0  0  0
 67 80  1  0  0  0  0
 67172  1  0  0  0  0
 68 72  1  6  0  0  0
 68 81  1  0  0  0  0
 68173  1  0  0  0  0
 69 73  1  1  0  0  0
 69 90  1  0  0  0  0
 69174  1  0  0  0  0
 70 74  1  1  0  0  0
 70 92  1  0  0  0  0
 70175  1  0  0  0  0
 71 75  1  0  0  0  0
 71176  1  0  0  0  0
 71177  1  0  0  0  0
 72 76  1  0  0  0  0
 72178  1  0  0  0  0
 72179  1  0  0  0  0
 73 77  1  0  0  0  0
 73180  1  0  0  0  0
 73181  1  0  0  0  0
 74 78  1  0  0  0  0
 74182  1  0  0  0  0
 74183  1  0  0  0  0
 75103  1  0  0  0  0
 75104  1  0  0  0  0
 75184  1  0  0  0  0
 76105  1  0  0  0  0
 76106  1  0  0  0  0
 76185  1  0  0  0  0
 77111  1  0  0  0  0
 77112  1  0  0  0  0
 77186  1  0  0  0  0
 78114  1  0  0  0  0
 78115  1  0  0  0  0
 78187  1  0  0  0  0
 79 86  1  0  0  0  0
 79 95  1  0  0  0  0
 79188  1  0  0  0  0
 82100  1  0  0  0  0
 82107  1  0  0  0  0
 82191  1  0  0  0  0
 83 93  1  0  0  0  0
 83101  1  1  0  0  0
 83192  1  0  0  0  0
 84 94  1  0  0  0  0
 84102  1  1  0  0  0
 84193  1  0  0  0  0
 85 96  1  0  0  0  0
 85109  1  0  0  0  0
 85194  1  0  0  0  0
 86196  1  0  0  0  0
 86197  1  0  0  0  0
 87 91  1  0  0  0  0
 87108  1  0  0  0  0
 87199  1  0  0  0  0
 88110  1  0  0  0  0
 88116  1  0  0  0  0
 88200  1  0  0  0  0
 89 99  1  0  0  0  0
 89113  1  0  0  0  0
 89201  1  0  0  0  0
 91202  1  0  0  0  0
 91203  1  0  0  0  0
 95135  1  0  0  0  0
 95205  1  0  0  0  0
 96118  1  0  0  0  0
 96206  1  0  0  0  0
 96207  1  0  0  0  0
 97122  1  1  0  0  0
 97129  1  0  0  0  0
 97208  1  0  0  0  0
 98123  1  1  0  0  0
 98131  1  0  0  0  0
 98211  1  0  0  0  0
 99120  1  0  0  0  0
 99209  1  0  0  0  0
 99210  1  0  0  0  0
100128  1  0  0  0  0
100212  1  0  0  0  0
100213  1  0  0  0  0
101130  1  0  0  0  0
101214  1  0  0  0  0
101215  1  0  0  0  0
102134  1  0  0  0  0
102217  1  0  0  0  0
102218  1  0  0  0  0
103219  1  0  0  0  0
103220  1  0  0  0  0
103221  1  0  0  0  0
104222  1  0  0  0  0
104223  1  0  0  0  0
104224  1  0  0  0  0
105225  1  0  0  0  0
105226  1  0  0  0  0
105227  1  0  0  0  0
106228  1  0  0  0  0
106229  1  0  0  0  0
106230  1  0  0  0  0
108143  1  0  0  0  0
108232  1  0  0  0  0
110137  1  0  0  0  0
110234  1  0  0  0  0
110235  1  0  0  0  0
111237  1  0  0  0  0
111238  1  0  0  0  0
111239  1  0  0  0  0
112240  1  0  0  0  0
112241  1  0  0  0  0
112242  1  0  0  0  0
114244  1  0  0  0  0
114245  1  0  0  0  0
114246  1  0  0  0  0
115247  1  0  0  0  0
115248  1  0  0  0  0
115249  1  0  0  0  0
117125  1  0  0  0  0
117136  1  0  0  0  0
117253  1  0  0  0  0
118254  1  0  0  0  0
118255  1  0  0  0  0
119121  1  0  0  0  0
119141  1  0  0  0  0
119151  1  0  0  0  0
119256  1  0  0  0  0
120257  1  0  0  0  0
120258  1  0  0  0  0
121124  1  0  0  0  0
121260  1  0  0  0  0
121261  1  0  0  0  0
122145  1  0  0  0  0
122262  1  0  0  0  0
122263  1  0  0  0  0
123147  1  0  0  0  0
123264  1  0  0  0  0
123265  1  0  0  0  0
124132  1  0  0  0  0
124266  1  0  0  0  0
124267  1  0  0  0  0
126144  1  1  0  0  0
126150  1  0  0  0  0
126268  1  0  0  0  0
127146  1  1  0  0  0
127154  1  0  0  0  0
127269  1  0  0  0  0
128270  1  0  0  0  0
128271  1  0  0  0  0
130272  1  0  0  0  0
130273  1  0  0  0  0
132142  1  0  0  0  0
132274  1  0  0  0  0
132275  1  0  0  0  0
133140  1  0  0  0  0
133148  1  0  0  0  0
133276  1  0  0  0  0
134277  1  0  0  0  0
134278  1  0  0  0  0
135279  1  0  0  0  0
135280  1  0  0  0  0
135281  1  0  0  0  0
136157  1  0  0  0  0
136282  1  0  0  0  0
136283  1  0  0  0  0
137284  1  0  0  0  0
137285  1  0  0  0  0
138149  1  0  0  0  0
138155  1  0  0  0  0
138286  1  6  0  0  0
139152  1  0  0  0  0
139156  1  0  0  0  0
139287  1  6  0  0  0
141158  1  0  0  0  0
141288  1  0  0  0  0
141289  1  0  0  0  0
142153  1  0  0  0  0
142290  1  0  0  0  0
142291  1  0  0  0  0
143292  1  0  0  0  0
143293  1  0  0  0  0
143294  1  0  0  0  0
144159  1  0  0  0  0
144300  1  0  0  0  0
144301  1  0  0  0  0
145302  1  0  0  0  0
145303  1  0  0  0  0
146160  1  0  0  0  0
146304  1  0  0  0  0
146305  1  0  0  0  0
147306  1  0  0  0  0
147307  1  0  0  0  0
148161  1  0  0  0  0
148308  1  0  0  0  0
148309  1  0  0  0  0
151310  1  0  0  0  0
151311  1  0  0  0  0
151312  1  0  0  0  0
155167  1  0  0  0  0
155313  1  0  0  0  0
156168  1  0  0  0  0
156315  1  0  0  0  0
157318  1  0  0  0  0
157319  1  0  0  0  0
158322  1  0  0  0  0
158323  1  0  0  0  0
158324  1  0  0  0  0
159325  1  0  0  0  0
159326  1  0  0  0  0
160327  1  0  0  0  0
160328  1  0  0  0  0
161329  1  0  0  0  0
161330  1  0  0  0  0
162163  1  0  0  0  0
162164  1  0  0  0  0
162331  1  0  0  0  0
162332  1  0  0  0  0
163165  1  0  0  0  0
163335  1  0  0  0  0
163336  1  0  0  0  0
164166  1  0  0  0  0
164339  1  0  0  0  0
164340  1  0  0  0  0
166169  1  0  0  0  0
166343  1  0  0  0  0
166344  1  0  0  0  0
167347  1  0  0  0  0
167348  1  0  0  0  0
167349  1  0  0  0  0
168351  1  0  0  0  0
168352  1  0  0  0  0
168353  1  0  0  0  0
169170  1  0  0  0  0
169171  1  0  0  0  0
169350  1  0  0  0  0
170362  1  0  0  0  0
170363  1  0  0  0  0
170364  1  0  0  0  0
171365  1  0  0  0  0
171366  1  0  0  0  0
171367  1  0  0  0  0
M  END
> <PUBCHEM_COMPOUND_CID>
71457944

> <PUBCHEM_COMPOUND_CANONICALIZED>
1

> <PUBCHEM_CACTVS_COMPLEXITY>
4040

> <PUBCHEM_CACTVS_HBOND_ACCEPTOR>
44

> <PUBCHEM_CACTVS_HBOND_DONOR>
40

> <PUBCHEM_CACTVS_ROTATABLE_BOND>
59

> <PUBCHEM_CACTVS_SUBSKEYS>
AAADcfB//gBgAAAAAAAAAAAAAAAAAAAAAAAAAAAAAAAAAAAAAAAAHgAQCAAADTzhgAYCAALAAoAIAAEQEDAAAAAAAAAAAIGIAAACUBYAwCAUQAACNgCQAAEciMCOAAAAAAAAAAAAAAAAAAAAAAAAAAAAAA==

> <PUBCHEM_IUPAC_OPENEYE_NAME>
N-[(1S)-3-amino-1-[[(1S,2R)-1-[[[(1S)-3-amino-1-[[(3S,6S,9S,12S,15R,18S,21S)-6,9,18-tris(2-aminoethyl)-3-[(1R)-1-hydroxyethyl]-12,15-diisobutyl-2,5,8,11,14,17,20-heptaoxo-1,4,7,10,13,16,19-heptazacyclotricos-21-yl]carbamoyl]propyl]amino]methyl]-2-hydroxy-propyl]carbamoyl]propyl]-6-methyl-heptanamide;N-[(1S)-3-amino-1-[[(1S,2R)-1-[[[(1S)-3-amino-1-[[(3S,6S,9S,12S,15R,18S,21S)-6,9,18-tris(2-aminoethyl)-3-[(1R)-1-hydroxyethyl]-12,15-diisobutyl-2,5,8,11,14,17,20-heptaoxo-1,4,7,10,13,16,19-heptazacyclotricos-21-yl]carbamoyl]propyl]amino]methyl]-2-hydroxy-propyl]carbamoyl]propyl]-6-methyl-octanamide;sulfuric acid

> <PUBCHEM_IUPAC_CAS_NAME>
N-[(2S)-4-amino-1-[[(2S,3R)-1-[[(2S)-4-amino-1-oxo-1-[[(3S,6S,9S,12S,15R,18S,21S)-6,9,18-tris(2-aminoethyl)-3-[(1R)-1-hydroxyethyl]-12,15-bis(2-methylpropyl)-2,5,8,11,14,17,20-heptaoxo-1,4,7,10,13,16,19-heptazacyclotricos-21-yl]amino]butan-2-yl]amino]-3-hydroxybutan-2-yl]amino]-1-oxobutan-2-yl]-6-methylheptanamide;N-[(2S)-4-amino-1-[[(2S,3R)-1-[[(2S)-4-amino-1-oxo-1-[[(3S,6S,9S,12S,15R,18S,21S)-6,9,18-tris(2-aminoethyl)-3-[(1R)-1-hydroxyethyl]-12,15-bis(2-methylpropyl)-2,5,8,11,14,17,20-heptaoxo-1,4,7,10,13,16,19-heptazacyclotricos-21-yl]amino]butan-2-yl]amino]-3-hydroxybutan-2-yl]amino]-1-oxobutan-2-yl]-6-methyloctanamide;sulfuric acid

> <PUBCHEM_IUPAC_NAME_MARKUP>
<I>N</I>-[(2<I>S</I>)-4-amino-1-[[(2<I>S</I>,3<I>R</I>)-1-[[(2<I>S</I>)-4-amino-1-oxo-1-[[(3<I>S</I>,6<I>S</I>,9<I>S</I>,12<I>S</I>,15<I>R</I>,18<I>S</I>,21<I>S</I>)-6,9,18-tris(2-aminoethyl)-3-[(1<I>R</I>)-1-hydroxyethyl]-12,15-bis(2-methylpropyl)-2,5,8,11,14,17,20-heptaoxo-1,4,7,10,13,16,19-heptazacyclotricos-21-yl]amino]butan-2-yl]amino]-3-hydroxybutan-2-yl]amino]-1-oxobutan-2-yl]-6-methylheptanamide;<I>N</I>-[(2<I>S</I>)-4-amino-1-[[(2<I>S</I>,3<I>R</I>)-1-[[(2<I>S</I>)-4-amino-1-oxo-1-[[(3<I>S</I>,6<I>S</I>,9<I>S</I>,12<I>S</I>,15<I>R</I>,18<I>S</I>,21<I>S</I>)-6,9,18-tris(2-aminoethyl)-3-[(1<I>R</I>)-1-hydroxyethyl]-12,15-bis(2-methylpropyl)-2,5,8,11,14,17,20-heptaoxo-1,4,7,10,13,16,19-heptazacyclotricos-21-yl]amino]butan-2-yl]amino]-3-hydroxybutan-2-yl]amino]-1-oxobutan-2-yl]-6-methyloctanamide;sulfuric acid

> <PUBCHEM_IUPAC_NAME>
N-[(2S)-4-amino-1-[[(2S,3R)-1-[[(2S)-4-amino-1-oxo-1-[[(3S,6S,9S,12S,15R,18S,21S)-6,9,18-tris(2-aminoethyl)-3-[(1R)-1-hydroxyethyl]-12,15-bis(2-methylpropyl)-2,5,8,11,14,17,20-heptaoxo-1,4,7,10,13,16,19-heptazacyclotricos-21-yl]amino]butan-2-yl]amino]-3-hydroxybutan-2-yl]amino]-1-oxobutan-2-yl]-6-methylheptanamide;N-[(2S)-4-amino-1-[[(2S,3R)-1-[[(2S)-4-amino-1-oxo-1-[[(3S,6S,9S,12S,15R,18S,21S)-6,9,18-tris(2-aminoethyl)-3-[(1R)-1-hydroxyethyl]-12,15-bis(2-methylpropyl)-2,5,8,11,14,17,20-heptaoxo-1,4,7,10,13,16,19-heptazacyclotricos-21-yl]amino]butan-2-yl]amino]-3-hydroxybutan-2-yl]amino]-1-oxobutan-2-yl]-6-methyloctanamide;sulfuric acid

> <PUBCHEM_IUPAC_SYSTEMATIC_NAME>
N-[(2S)-4-azanyl-1-[[(2S,3R)-1-[[(2S)-4-azanyl-1-oxidanylidene-1-[[(3S,6S,9S,12S,15R,18S,21S)-6,9,18-tris(2-azanylethyl)-12,15-bis(2-methylpropyl)-3-[(1R)-1-oxidanylethyl]-2,5,8,11,14,17,20-heptakis(oxidanylidene)-1,4,7,10,13,16,19-heptazacyclotricos-21-yl]amino]butan-2-yl]amino]-3-oxidanyl-butan-2-yl]amino]-1-oxidanylidene-butan-2-yl]-6-methyl-heptanamide;N-[(2S)-4-azanyl-1-[[(2S,3R)-1-[[(2S)-4-azanyl-1-oxidanylidene-1-[[(3S,6S,9S,12S,15R,18S,21S)-6,9,18-tris(2-azanylethyl)-12,15-bis(2-methylpropyl)-3-[(1R)-1-oxidanylethyl]-2,5,8,11,14,17,20-heptakis(oxidanylidene)-1,4,7,10,13,16,19-heptazacyclotricos-21-yl]amino]butan-2-yl]amino]-3-oxidanyl-butan-2-yl]amino]-1-oxidanylidene-butan-2-yl]-6-methyl-octanamide;sulfuric acid

> <PUBCHEM_IUPAC_TRADITIONAL_NAME>
N-[(1S)-3-amino-1-[[(1S,2R)-1-[[[(1S)-3-amino-1-[[(3S,6S,9S,12S,15R,18S,21S)-6,9,18-tris(2-aminoethyl)-3-[(1R)-1-hydroxyethyl]-12,15-diisobutyl-2,5,8,11,14,17,20-heptaketo-1,4,7,10,13,16,19-heptazacyclotricos-21-yl]carbamoyl]propyl]amino]methyl]-2-hydroxy-propyl]carbamoyl]propyl]-6-methyl-caprylamide;N-[(1S)-3-amino-1-[[(1S,2R)-1-[[[(1S)-3-amino-1-[[(3S,6S,9S,12S,15R,18S,21S)-6,9,18-tris(2-aminoethyl)-3-[(1R)-1-hydroxyethyl]-12,15-diisobutyl-2,5,8,11,14,17,20-heptaketo-1,4,7,10,13,16,19-heptazacyclotricos-21-yl]carbamoyl]propyl]amino]methyl]-2-hydroxy-propyl]carbamoyl]propyl]-6-methyl-enanthamide;sulfuric acid

> <PUBCHEM_IUPAC_INCHI>
InChI=1S/C53H102N16O12.C52H100N16O12.2H2O4S/c1-9-31(6)12-10-11-13-43(72)61-35(15-21-55)46(74)68-42(32(7)70)28-60-34(14-20-54)45(73)65-39-19-25-59-53(81)44(33(8)71)69-50(78)38(18-24-58)63-47(75)36(16-22-56)64-51(79)40(26-29(2)3)67-52(80)41(27-30(4)5)66-48(76)37(17-23-57)62-49(39)77;1-28(2)11-9-10-12-42(71)60-34(14-20-54)45(73)67-41(31(7)69)27-59-33(13-19-53)44(72)64-38-18-24-58-52(80)43(32(8)70)68-49(77)37(17-23-57)62-46(74)35(15-21-55)63-50(78)39(25-29(3)4)66-51(79)40(26-30(5)6)65-47(75)36(16-22-56)61-48(38)76;2*1-5(2,3)4/h29-42,44,60,70-71H,9-28,54-58H2,1-8H3,(H,59,81)(H,61,72)(H,62,77)(H,63,75)(H,64,79)(H,65,73)(H,66,76)(H,67,80)(H,68,74)(H,69,78);28-41,43,59,69-70H,9-27,53-57H2,1-8H3,(H,58,80)(H,60,71)(H,61,76)(H,62,74)(H,63,78)(H,64,72)(H,65,75)(H,66,79)(H,67,73)(H,68,77);2*(H2,1,2,3,4)/t31?,32-,33-,34+,35+,36+,37+,38+,39+,40+,41-,42+,44+;31-,32-,33+,34+,35+,36+,37+,38+,39+,40-,41+,43+;;/m11../s1

> <PUBCHEM_IUPAC_INCHIKEY>
ZESIAEVDVPWEKB-ORCFLVBFSA-N

> <PUBCHEM_EXACT_MASS>
2492.4950897

> <PUBCHEM_MOLECULAR_FORMULA>
C105H206N32O32S2

> <PUBCHEM_MOLECULAR_WEIGHT>
2493.1

> <PUBCHEM_OPENEYE_CAN_SMILES>
CCC(C)CCCCC(=O)NC(CCN)C(=O)NC(CNC(CCN)C(=O)NC1CCNC(=O)C(NC(=O)C(NC(=O)C(NC(=O)C(NC(=O)C(NC(=O)C(NC1=O)CCN)CC(C)C)CC(C)C)CCN)CCN)C(C)O)C(C)O.CC(C)CCCCC(=O)NC(CCN)C(=O)NC(CNC(CCN)C(=O)NC1CCNC(=O)C(NC(=O)C(NC(=O)C(NC(=O)C(NC(=O)C(NC(=O)C(NC1=O)CCN)CC(C)C)CC(C)C)CCN)CCN)C(C)O)C(C)O.OS(=O)(=O)O.OS(=O)(=O)O

> <PUBCHEM_OPENEYE_ISO_SMILES>
CCC(C)CCCCC(=O)N[C@@H](CCN)C(=O)N[C@@H](CN[C@@H](CCN)C(=O)N[C@H]1CCNC(=O)[C@@H](NC(=O)[C@@H](NC(=O)[C@@H](NC(=O)[C@@H](NC(=O)[C@H](NC(=O)[C@@H](NC1=O)CCN)CC(C)C)CC(C)C)CCN)CCN)[C@@H](C)O)[C@@H](C)O.C[C@H]([C@H]1C(=O)NCC[C@@H](C(=O)N[C@H](C(=O)N[C@@H](C(=O)N[C@H](C(=O)N[C@H](C(=O)N[C@H](C(=O)N1)CCN)CCN)CC(C)C)CC(C)C)CCN)NC(=O)[C@H](CCN)NC[C@@H]([C@@H](C)O)NC(=O)[C@H](CCN)NC(=O)CCCCC(C)C)O.OS(=O)(=O)O.OS(=O)(=O)O

> <PUBCHEM_CACTVS_TPSA>
1110

> <PUBCHEM_MONOISOTOPIC_WEIGHT>
2491.4917349

> <PUBCHEM_TOTAL_CHARGE>
0

> <PUBCHEM_HEAVY_ATOM_COUNT>
171

> <PUBCHEM_ATOM_DEF_STEREO_COUNT>
24

> <PUBCHEM_ATOM_UDEF_STEREO_COUNT>
1

> <PUBCHEM_BOND_DEF_STEREO_COUNT>
0

> <PUBCHEM_BOND_UDEF_STEREO_COUNT>
0

> <PUBCHEM_ISOTOPIC_ATOM_COUNT>
0

> <PUBCHEM_COMPONENT_COUNT>
4

> <PUBCHEM_CACTVS_TAUTO_COUNT>
-1

> <PUBCHEM_COORDINATE_TYPE>
1
5
255

> <PUBCHEM_BONDANNOTATIONS>
119  151  3
126  144  5
127  146  5
138  286  6
139  287  6
155  19  6
156  20  6
82  39  5
88  40  5
85  42  6
89  46  6
79  47  5
87  48  5
95  5  5
117  51  5
133  56  5
67  71  6
68  72  6
69  73  5
70  74  5
108  8  5
83  101  5
84  102  5
97  122  5
98  123  5

$$$$
