10173277
     RDKit          2D

 31 34  0  0  0  0  0  0  0  0999 V2000
    2.0000   -3.5000    0.0000 O   0  0  0  0  0  0  0  0  0  0  0  0
    7.1962   -2.5000    0.0000 O   0  0  0  0  0  0  0  0  0  0  0  0
    3.7320   -2.5000    0.0000 N   0  0  0  0  0  0  0  0  0  0  0  0
    5.4641   -2.5000    0.0000 N   0  0  0  0  0  0  0  0  0  0  0  0
    6.3301   -1.0000    0.0000 N   0  0  0  0  0  0  0  0  0  0  0  0
    5.4641    0.5000    0.0000 N   0  0  0  0  0  0  0  0  0  0  0  0
    6.3301    1.0000    0.0000 N   0  0  0  0  0  0  0  0  0  0  0  0
    9.7942   -1.0000    0.0000 N   0  0  0  0  0  0  0  0  0  0  0  0
    3.7320   -3.5000    0.0000 C   0  0  0  0  0  0  0  0  0  0  0  0
    2.8660   -2.0000    0.0000 C   0  0  0  0  0  0  0  0  0  0  0  0
    2.8660   -4.0000    0.0000 C   0  0  0  0  0  0  0  0  0  0  0  0
    2.0000   -2.5000    0.0000 C   0  0  0  0  0  0  0  0  0  0  0  0
    4.5981   -2.0000    0.0000 C   0  0  0  0  0  0  0  0  0  0  0  0
    4.5981   -1.0000    0.0000 C   0  0  0  0  0  0  0  0  0  0  0  0
    5.4641   -0.5000    0.0000 C   0  0  0  0  0  0  0  0  0  0  0  0
    6.3301   -2.0000    0.0000 C   0  0  0  0  0  0  0  0  0  0  0  0
    8.0622   -2.0000    0.0000 C   0  0  0  0  0  0  0  0  0  0  0  0
    8.9282   -2.5000    0.0000 C   0  0  0  0  0  0  0  0  0  0  0  0
    9.7942   -2.0000    0.0000 C   0  0  0  0  0  0  0  0  0  0  0  0
   10.6603   -2.5000    0.0000 C   0  0  0  0  0  0  0  0  0  0  0  0
    7.1962    2.5000    0.0000 C   0  0  0  0  0  0  0  0  0  0  0  0
    6.3301    2.0000    0.0000 C   0  0  0  0  0  0  0  0  0  0  0  0
    8.9282    2.5000    0.0000 C   0  0  0  0  0  0  0  0  0  0  0  0
    8.0622    2.0000    0.0000 C   0  0  0  0  0  0  0  0  0  0  0  0
    7.1962    3.5000    0.0000 C   0  0  0  0  0  0  0  0  0  0  0  0
   11.5263   -2.0000    0.0000 C   0  0  0  0  0  0  0  0  0  0  0  0
    8.9282    3.5000    0.0000 C   0  0  0  0  0  0  0  0  0  0  0  0
    8.0622    4.0000    0.0000 C   0  0  0  0  0  0  0  0  0  0  0  0
   10.6603   -0.5000    0.0000 C   0  0  0  0  0  0  0  0  0  0  0  0
   11.5263   -1.0000    0.0000 C   0  0  0  0  0  0  0  0  0  0  0  0
    9.7942    2.0000    0.0000 C   0  0  0  0  0  0  0  0  0  0  0  0
  1 11  1  0
  1 12  1  0
  2 16  1  0
  2 17  1  0
  3  9  1  0
  3 10  1  0
  3 13  1  0
  4 13  2  0
  4 16  1  0
  5 15  1  0
  5 16  2  0
  6  7  1  0
  6 15  1  0
  7 22  2  0
  8 19  2  0
  8 29  1  0
  9 11  1  0
 10 12  1  0
 13 14  1  0
 14 15  2  0
 17 18  1  0
 18 19  1  0
 19 20  1  0
 20 26  2  0
 21 22  1  0
 21 24  1  0
 21 25  2  0
 23 24  2  0
 23 27  1  0
 23 31  1  0
 25 28  1  0
 26 30  1  0
 27 28  2  0
 29 30  2  0
M  END
>  <PUBCHEM_COMPOUND_CID>  (1) 
10173277

>  <PUBCHEM_COMPOUND_CANONICALIZED>  (1) 
1

>  <PUBCHEM_CACTVS_COMPLEXITY>  (1) 
544

>  <PUBCHEM_CACTVS_HBOND_ACCEPTOR>  (1) 
8

>  <PUBCHEM_CACTVS_HBOND_DONOR>  (1) 
1

>  <PUBCHEM_CACTVS_ROTATABLE_BOND>  (1) 
8

>  <PUBCHEM_CACTVS_SUBSKEYS>  (1) 
AAADceB7sAAAAAAAAAAAAAAAAAAAAAAAAAA8WLEAAAAAAAAB8AAAHgAYAAAADAjhngY/sJdqFACgAzZnZACShCkxAqAd2CA4ZJiKKOLA2dGPJAhu2APYyCeQwGAOAAACAAAAAAAAAAQAAAAAAAAAAAAAAA==

>  <PUBCHEM_IUPAC_OPENEYE_NAME>  (1) 
6-morpholino-N-[(E)-m-tolylmethyleneamino]-2-[2-(2-pyridyl)ethoxy]pyrimidin-4-amine

>  <PUBCHEM_IUPAC_CAS_NAME>  (1) 
N-[(E)-(3-methylphenyl)methylideneamino]-6-(4-morpholinyl)-2-[2-(2-pyridinyl)ethoxy]-4-pyrimidinamine

>  <PUBCHEM_IUPAC_NAME_MARKUP>  (1) 
<I>N</I>-[(<I>E</I>)-(3-methylphenyl)methylideneamino]-6-morpholin-4-yl-2-(2-pyridin-2-ylethoxy)pyrimidin-4-amine

>  <PUBCHEM_IUPAC_NAME>  (1) 
N-[(E)-(3-methylphenyl)methylideneamino]-6-morpholin-4-yl-2-(2-pyridin-2-ylethoxy)pyrimidin-4-amine

>  <PUBCHEM_IUPAC_SYSTEMATIC_NAME>  (1) 
N-[(E)-(3-methylphenyl)methylideneamino]-6-morpholin-4-yl-2-(2-pyridin-2-ylethoxy)pyrimidin-4-amine

>  <PUBCHEM_IUPAC_TRADITIONAL_NAME>  (1) 
[(E)-(3-methylbenzylidene)amino]-[6-morpholino-2-[2-(2-pyridyl)ethoxy]pyrimidin-4-yl]amine

>  <PUBCHEM_IUPAC_INCHI>  (1) 
InChI=1S/C23H26N6O2/c1-18-5-4-6-19(15-18)17-25-28-21-16-22(29-10-13-30-14-11-29)27-23(26-21)31-12-8-20-7-2-3-9-24-20/h2-7,9,15-17H,8,10-14H2,1H3,(H,26,27,28)/b25-17+

>  <PUBCHEM_IUPAC_INCHIKEY>  (1) 
HSKAZIJJKRAJAV-KOEQRZSOSA-N

>  <PUBCHEM_XLOGP3_AA>  (1) 
3.8

>  <PUBCHEM_EXACT_MASS>  (1) 
418.21172409

>  <PUBCHEM_MOLECULAR_FORMULA>  (1) 
C23H26N6O2

>  <PUBCHEM_MOLECULAR_WEIGHT>  (1) 
418.5

>  <PUBCHEM_OPENEYE_CAN_SMILES>  (1) 
CC1=CC(=CC=C1)C=NNC2=CC(=NC(=N2)OCCC3=CC=CC=N3)N4CCOCC4

>  <PUBCHEM_OPENEYE_ISO_SMILES>  (1) 
CC1=CC(=CC=C1)/C=N/NC2=CC(=NC(=N2)OCCC3=CC=CC=N3)N4CCOCC4

>  <PUBCHEM_CACTVS_TPSA>  (1) 
84.8

>  <PUBCHEM_MONOISOTOPIC_WEIGHT>  (1) 
418.21172409

>  <PUBCHEM_TOTAL_CHARGE>  (1) 
0

>  <PUBCHEM_HEAVY_ATOM_COUNT>  (1) 
31

>  <PUBCHEM_ATOM_DEF_STEREO_COUNT>  (1) 
0

>  <PUBCHEM_ATOM_UDEF_STEREO_COUNT>  (1) 
0

>  <PUBCHEM_BOND_DEF_STEREO_COUNT>  (1) 
1

>  <PUBCHEM_BOND_UDEF_STEREO_COUNT>  (1) 
0

>  <PUBCHEM_ISOTOPIC_ATOM_COUNT>  (1) 
0

>  <PUBCHEM_COMPONENT_COUNT>  (1) 
1

>  <PUBCHEM_CACTVS_TAUTO_COUNT>  (1) 
-1

>  <PUBCHEM_COORDINATE_TYPE>  (1) 
1
5
255

>  <PUBCHEM_BONDANNOTATIONS>  (1) 
13  14  8
14  15  8
19  20  8
20  26  8
21  24  8
21  25  8
23  24  8
23  27  8
25  28  8
26  30  8
27  28  8
29  30  8
4  13  8
4  16  8
5  15  8
5  16  8
8  19  8
8  29  8

$$$$
