100927767
     RDKit          2D

 26 29  0  0  0  0  0  0  0  0999 V2000
    4.2690    1.7694    0.0000 O   0  0  0  0  0  0  0  0  0  0  0  0
    2.5369    0.7694    0.0000 O   0  0  0  0  0  0  0  0  0  0  0  0
    6.8100   -2.8184    0.0000 N   0  0  0  0  0  0  0  0  0  0  0  0
    8.7036    3.2639    0.0000 N   0  0  0  0  0  0  0  0  0  0  0  0
    5.1920   -2.8184    0.0000 N   0  0  0  0  0  0  0  0  0  0  0  0
    9.5127    1.8627    0.0000 N   0  0  0  0  0  0  0  0  0  0  0  0
    5.1350   -0.7306    0.0000 C   0  0  0  0  0  0  0  0  0  0  0  0
    6.0010   -1.2306    0.0000 C   0  0  0  0  0  0  0  0  0  0  0  0
    6.8671    2.2694    0.0000 C   0  0  0  0  0  0  0  0  0  0  0  0
    7.7331    1.7694    0.0000 C   0  0  0  0  0  0  0  0  0  0  0  0
    4.2690    0.7694    0.0000 C   0  0  0  0  0  0  0  0  0  0  0  0
    5.1350    0.2694    0.0000 C   0  0  0  0  0  0  0  0  0  0  0  0
    5.1350    2.2694    0.0000 C   0  0  0  0  0  0  0  0  0  0  0  0
    6.0010    1.7694    0.0000 C   0  0  0  0  0  0  0  0  0  0  0  0
    6.0010   -2.2306    0.0000 C   0  0  0  0  0  0  0  0  0  0  0  0
    4.2690   -1.2306    0.0000 C   0  0  0  0  0  0  0  0  0  0  0  0
    8.5991    2.2694    0.0000 C   0  0  0  0  0  0  0  0  0  0  0  0
    3.4030    0.2694    0.0000 C   0  0  0  0  0  0  0  0  0  0  0  0
    6.8671    3.2694    0.0000 C   0  0  0  0  0  0  0  0  0  0  0  0
    3.4030   -0.7306    0.0000 C   0  0  0  0  0  0  0  0  0  0  0  0
    5.1350    3.2694    0.0000 C   0  0  0  0  0  0  0  0  0  0  0  0
    6.0010    3.7694    0.0000 C   0  0  0  0  0  0  0  0  0  0  0  0
    6.5010   -3.7694    0.0000 C   0  0  0  0  0  0  0  0  0  0  0  0
    9.6818    3.4718    0.0000 C   0  0  0  0  0  0  0  0  0  0  0  0
    5.5010   -3.7694    0.0000 C   0  0  0  0  0  0  0  0  0  0  0  0
   10.1818    2.6058    0.0000 C   0  0  0  0  0  0  0  0  0  0  0  0
  1 11  1  0
  1 13  1  0
  2 18  1  0
  3 15  1  0
  3 23  1  0
  4 17  1  0
  4 24  1  0
  5 15  2  0
  5 25  1  0
  6 17  2  0
  6 26  1  0
  7  8  1  0
  7 12  2  0
  7 16  1  0
  8 15  1  0
  9 10  1  0
  9 14  2  0
  9 19  1  0
 10 17  1  0
 11 12  1  0
 11 18  2  0
 13 14  1  0
 13 21  2  0
 16 20  2  0
 18 20  1  0
 19 22  2  0
 21 22  1  0
 23 25  2  0
 24 26  2  0
M  END
>  <PUBCHEM_COMPOUND_CID>  (1) 
100927767

>  <PUBCHEM_COMPOUND_CANONICALIZED>  (1) 
1

>  <PUBCHEM_CACTVS_COMPLEXITY>  (1) 
438

>  <PUBCHEM_CACTVS_HBOND_ACCEPTOR>  (1) 
4

>  <PUBCHEM_CACTVS_HBOND_DONOR>  (1) 
3

>  <PUBCHEM_CACTVS_ROTATABLE_BOND>  (1) 
6

>  <PUBCHEM_CACTVS_SUBSKEYS>  (1) 
AAADceB7sAAAAAAAAAAAAAAAAAAAAWLAAAAwYAAAAAAAAAAB9AAAHgAQCAAADATBmwQ9lpbJlgCgAjJnZAACiC2xMqAJyYA+uIiNbiKGuRuWeCOs0BOLuCeQ0LIOIAABAAAAQABAAAIAAACAAAAAAAAAAA==

>  <PUBCHEM_IUPAC_OPENEYE_NAME>  (1) 
4-(1H-imidazol-2-ylmethyl)-2-[3-(1H-imidazol-2-ylmethyl)phenoxy]phenol

>  <PUBCHEM_IUPAC_CAS_NAME>  (1) 
4-(1H-imidazol-2-ylmethyl)-2-[3-(1H-imidazol-2-ylmethyl)phenoxy]phenol

>  <PUBCHEM_IUPAC_NAME_MARKUP>  (1) 
4-(1<I>H</I>-imidazol-2-ylmethyl)-2-[3-(1<I>H</I>-imidazol-2-ylmethyl)phenoxy]phenol

>  <PUBCHEM_IUPAC_NAME>  (1) 
4-(1H-imidazol-2-ylmethyl)-2-[3-(1H-imidazol-2-ylmethyl)phenoxy]phenol

>  <PUBCHEM_IUPAC_SYSTEMATIC_NAME>  (1) 
4-(1H-imidazol-2-ylmethyl)-2-[3-(1H-imidazol-2-ylmethyl)phenoxy]phenol

>  <PUBCHEM_IUPAC_TRADITIONAL_NAME>  (1) 
4-(1H-imidazol-2-ylmethyl)-2-[3-(1H-imidazol-2-ylmethyl)phenoxy]phenol

>  <PUBCHEM_IUPAC_INCHI>  (1) 
InChI=1S/C20H18N4O2/c25-17-5-4-15(13-20-23-8-9-24-20)11-18(17)26-16-3-1-2-14(10-16)12-19-21-6-7-22-19/h1-11,25H,12-13H2,(H,21,22)(H,23,24)

>  <PUBCHEM_IUPAC_INCHIKEY>  (1) 
TYCLBPSZSGTWCX-UHFFFAOYSA-N

>  <PUBCHEM_XLOGP3_AA>  (1) 
3.3

>  <PUBCHEM_EXACT_MASS>  (1) 
346.14297583

>  <PUBCHEM_MOLECULAR_FORMULA>  (1) 
C20H18N4O2

>  <PUBCHEM_MOLECULAR_WEIGHT>  (1) 
346.4

>  <PUBCHEM_OPENEYE_CAN_SMILES>  (1) 
C1=CC(=CC(=C1)OC2=C(C=CC(=C2)CC3=NC=CN3)O)CC4=NC=CN4

>  <PUBCHEM_OPENEYE_ISO_SMILES>  (1) 
C1=CC(=CC(=C1)OC2=C(C=CC(=C2)CC3=NC=CN3)O)CC4=NC=CN4

>  <PUBCHEM_CACTVS_TPSA>  (1) 
86.8

>  <PUBCHEM_MONOISOTOPIC_WEIGHT>  (1) 
346.14297583

>  <PUBCHEM_TOTAL_CHARGE>  (1) 
0

>  <PUBCHEM_HEAVY_ATOM_COUNT>  (1) 
26

>  <PUBCHEM_ATOM_DEF_STEREO_COUNT>  (1) 
0

>  <PUBCHEM_ATOM_UDEF_STEREO_COUNT>  (1) 
0

>  <PUBCHEM_BOND_DEF_STEREO_COUNT>  (1) 
0

>  <PUBCHEM_BOND_UDEF_STEREO_COUNT>  (1) 
0

>  <PUBCHEM_ISOTOPIC_ATOM_COUNT>  (1) 
0

>  <PUBCHEM_COMPONENT_COUNT>  (1) 
1

>  <PUBCHEM_CACTVS_TAUTO_COUNT>  (1) 
-1

>  <PUBCHEM_COORDINATE_TYPE>  (1) 
1
5
255

>  <PUBCHEM_BONDANNOTATIONS>  (1) 
11  12  8
11  18  8
13  14  8
13  21  8
16  20  8
18  20  8
19  22  8
21  22  8
23  25  8
24  26  8
3  15  8
3  23  8
4  17  8
4  24  8
5  15  8
5  25  8
6  17  8
6  26  8
7  12  8
7  16  8
9  14  8
9  19  8

$$$$
