132000148
     RDKit          2D

 59 64  0  0  0  0  0  0  0  0999 V2000
    5.1350   -0.6544    0.0000 O   0  0  0  0  0  0  0  0  0  0  0  0
   11.6485    0.2191    0.0000 O   0  0  0  0  0  0  0  0  0  0  0  0
    8.5309   -4.3864    0.0000 O   0  0  0  0  0  0  0  0  0  0  0  0
    3.4030   -4.6544    0.0000 O   0  0  0  0  0  0  0  0  0  0  0  0
    6.7526    3.0851    0.0000 O   0  0  0  0  0  0  0  0  0  0  0  0
   14.2466    2.7191    0.0000 O   0  0  0  0  0  0  0  0  0  0  0  0
    6.9473   -1.8497    0.0000 N   0  0  0  0  0  0  0  0  0  0  0  0
    9.8363    1.4143    0.0000 N   0  0  0  0  0  0  0  0  0  0  0  0
    6.9473   -3.4591    0.0000 N   0  0  0  0  0  0  0  0  0  0  0  0
    8.5309   -2.6544    0.0000 N   0  0  0  0  0  0  0  0  0  0  0  0
    9.8363    3.0238    0.0000 N   0  0  0  0  0  0  0  0  0  0  0  0
    8.2526    2.2191    0.0000 N   0  0  0  0  0  0  0  0  0  0  0  0
    3.4030    2.3456    0.0000 N   0  0  0  0  0  0  0  0  0  0  0  0
   10.6187   -4.3294    0.0000 N   0  0  0  0  0  0  0  0  0  0  0  0
    7.8459    4.8647    0.0000 N   0  0  0  0  0  0  0  0  0  0  0  0
   11.5697   -4.0204    0.0000 N   0  0  0  0  0  0  0  0  0  0  0  0
    8.5891    5.5338    0.0000 N   0  0  0  0  0  0  0  0  0  0  0  0
    2.5369   -3.1544    0.0000 N   0  0  0  0  0  0  0  0  0  0  0  0
   13.3806    4.2191    0.0000 N   0  0  0  0  0  0  0  0  0  0  0  0
    6.0010   -2.1544    0.0000 C   0  0  0  0  0  0  0  0  0  0  0  0
    7.2579   -0.8991    0.0000 C   0  0  0  0  0  0  0  0  0  0  0  0
    6.0010   -3.1544    0.0000 C   0  0  0  0  0  0  0  0  0  0  0  0
    7.5309   -2.6544    0.0000 C   0  0  0  0  0  0  0  0  0  0  0  0
    5.1350   -1.6544    0.0000 C   0  0  0  0  0  0  0  0  0  0  0  0
   10.7825    1.7191    0.0000 C   0  0  0  0  0  0  0  0  0  0  0  0
    9.5256    0.4638    0.0000 C   0  0  0  0  0  0  0  0  0  0  0  0
    9.2526    2.2191    0.0000 C   0  0  0  0  0  0  0  0  0  0  0  0
   10.7825    2.7191    0.0000 C   0  0  0  0  0  0  0  0  0  0  0  0
    8.2364   -0.6929    0.0000 C   0  0  0  0  0  0  0  0  0  0  0  0
    5.1350   -3.6544    0.0000 C   0  0  0  0  0  0  0  0  0  0  0  0
    8.5471    0.2576    0.0000 C   0  0  0  0  0  0  0  0  0  0  0  0
    4.2690   -2.1544    0.0000 C   0  0  0  0  0  0  0  0  0  0  0  0
    4.2690   -3.1544    0.0000 C   0  0  0  0  0  0  0  0  0  0  0  0
   11.6485    1.2191    0.0000 C   0  0  0  0  0  0  0  0  0  0  0  0
    4.2690   -0.1544    0.0000 C   0  0  0  0  0  0  0  0  0  0  0  0
    4.2690    0.8456    0.0000 C   0  0  0  0  0  0  0  0  0  0  0  0
   11.6485    3.2191    0.0000 C   0  0  0  0  0  0  0  0  0  0  0  0
   12.5145    2.7191    0.0000 C   0  0  0  0  0  0  0  0  0  0  0  0
    3.4030    1.3456    0.0000 C   0  0  0  0  0  0  0  0  0  0  0  0
   12.5145    1.7191    0.0000 C   0  0  0  0  0  0  0  0  0  0  0  0
    9.0309   -3.5204    0.0000 C   0  0  0  0  0  0  0  0  0  0  0  0
   10.0309   -3.5204    0.0000 C   0  0  0  0  0  0  0  0  0  0  0  0
    3.4030   -3.6544    0.0000 C   0  0  0  0  0  0  0  0  0  0  0  0
    7.7526    3.0851    0.0000 C   0  0  0  0  0  0  0  0  0  0  0  0
    8.2526    3.9511    0.0000 C   0  0  0  0  0  0  0  0  0  0  0  0
   10.6187   -2.7114    0.0000 C   0  0  0  0  0  0  0  0  0  0  0  0
   13.3806    3.2191    0.0000 C   0  0  0  0  0  0  0  0  0  0  0  0
   10.3096   -5.2805    0.0000 C   0  0  0  0  0  0  0  0  0  0  0  0
   11.5697   -3.0204    0.0000 C   0  0  0  0  0  0  0  0  0  0  0  0
    9.2472    4.0556    0.0000 C   0  0  0  0  0  0  0  0  0  0  0  0
    6.8678    5.0726    0.0000 C   0  0  0  0  0  0  0  0  0  0  0  0
    2.5369    2.8456    0.0000 C   0  0  0  0  0  0  0  0  0  0  0  0
    4.2690    2.8456    0.0000 C   0  0  0  0  0  0  0  0  0  0  0  0
    9.4551    5.0338    0.0000 C   0  0  0  0  0  0  0  0  0  0  0  0
   12.5145   -0.2809    0.0000 C   0  0  0  0  0  0  0  0  0  0  0  0
   10.9788   -6.0236    0.0000 C   0  0  0  0  0  0  0  0  0  0  0  0
   12.3787   -2.4326    0.0000 C   0  0  0  0  0  0  0  0  0  0  0  0
    6.5588    6.0236    0.0000 C   0  0  0  0  0  0  0  0  0  0  0  0
   10.3686    5.4405    0.0000 C   0  0  0  0  0  0  0  0  0  0  0  0
  1 24  1  0
  1 35  1  0
  2 34  1  0
  2 55  1  0
  3 41  2  0
  4 43  2  0
  5 44  2  0
  6 47  2  0
  7 20  1  0
  7 21  1  0
  7 23  1  0
  8 25  1  0
  8 26  1  0
  8 27  1  0
  9 22  1  0
  9 23  2  0
 10 23  1  0
 10 41  1  0
 11 27  2  0
 11 28  1  0
 12 27  1  0
 12 44  1  0
 13 39  1  0
 13 52  1  0
 13 53  1  0
 14 16  1  0
 14 42  1  0
 14 48  1  0
 15 17  1  0
 15 45  1  0
 15 51  1  0
 16 49  2  0
 17 54  2  0
 18 43  1  0
 19 47  1  0
 20 22  2  0
 20 24  1  0
 21 29  1  0
 22 30  1  0
 24 32  2  0
 25 28  2  0
 25 34  1  0
 26 31  1  0
 28 37  1  0
 29 31  2  0
 30 33  2  0
 32 33  1  0
 33 43  1  0
 34 40  2  0
 35 36  1  0
 36 39  1  0
 37 38  2  0
 38 40  1  0
 38 47  1  0
 41 42  1  0
 42 46  2  0
 44 45  1  0
 45 50  2  0
 46 49  1  0
 48 56  1  0
 49 57  1  0
 50 54  1  0
 51 58  1  0
 54 59  1  0
M  END
>  <PUBCHEM_COMPOUND_CID>  (1) 
132000148

>  <PUBCHEM_COMPOUND_CANONICALIZED>  (1) 
1

>  <PUBCHEM_CACTVS_COMPLEXITY>  (1) 
1490

>  <PUBCHEM_CACTVS_HBOND_ACCEPTOR>  (1) 
11

>  <PUBCHEM_CACTVS_HBOND_DONOR>  (1) 
4

>  <PUBCHEM_CACTVS_ROTATABLE_BOND>  (1) 
18

>  <PUBCHEM_CACTVS_SUBSKEYS>  (1) 
AAADcfB/+AAAAAAAAAAAAAAAAAAAAWLFiwAwYAAAAAAAAFgB/gAAHgAYAAAADAzhngYz1rfMFACqAyVydASSjC0n8qAZ2CG/fNiObrLE/fuXvSjuyRvY6ae+2ROeCAABQgAAECAQAAKEAAAgQAAAAAAAAA==

>  <PUBCHEM_IUPAC_OPENEYE_NAME>  (1) 
1-[(E)-4-[5-carbamoyl-7-[3-(dimethylamino)propoxy]-2-[(2-ethyl-5-methyl-pyrazole-3-carbonyl)amino]benzimidazol-1-yl]but-2-enyl]-2-[(2-ethyl-5-methyl-pyrazole-3-carbonyl)amino]-7-methoxy-benzimidazole-5-carboxamide

>  <PUBCHEM_IUPAC_CAS_NAME>  (1) 
1-[(E)-4-[5-carbamoyl-7-[3-(dimethylamino)propoxy]-2-[[(2-ethyl-5-methyl-3-pyrazolyl)-oxomethyl]amino]-1-benzimidazolyl]but-2-enyl]-2-[[(2-ethyl-5-methyl-3-pyrazolyl)-oxomethyl]amino]-7-methoxy-5-benzimidazolecarboxamide

>  <PUBCHEM_IUPAC_NAME_MARKUP>  (1) 
1-[(<I>E</I>)-4-[5-carbamoyl-7-[3-(dimethylamino)propoxy]-2-[(2-ethyl-5-methylpyrazole-3-carbonyl)amino]benzimidazol-1-yl]but-2-enyl]-2-[(2-ethyl-5-methylpyrazole-3-carbonyl)amino]-7-methoxybenzimidazole-5-carboxamide

>  <PUBCHEM_IUPAC_NAME>  (1) 
1-[(E)-4-[5-carbamoyl-7-[3-(dimethylamino)propoxy]-2-[(2-ethyl-5-methylpyrazole-3-carbonyl)amino]benzimidazol-1-yl]but-2-enyl]-2-[(2-ethyl-5-methylpyrazole-3-carbonyl)amino]-7-methoxybenzimidazole-5-carboxamide

>  <PUBCHEM_IUPAC_SYSTEMATIC_NAME>  (1) 
1-[(E)-4-[5-aminocarbonyl-7-[3-(dimethylamino)propoxy]-2-[(2-ethyl-5-methyl-pyrazol-3-yl)carbonylamino]benzimidazol-1-yl]but-2-enyl]-2-[(2-ethyl-5-methyl-pyrazol-3-yl)carbonylamino]-7-methoxy-benzimidazole-5-carboxamide

>  <PUBCHEM_IUPAC_TRADITIONAL_NAME>  (1) 
1-[(E)-4-[5-carbamoyl-7-[3-(dimethylamino)propoxy]-2-[(2-ethyl-5-methyl-pyrazole-3-carbonyl)amino]benzimidazol-1-yl]but-2-enyl]-2-[(2-ethyl-5-methyl-pyrazole-3-carbonyl)amino]-7-methoxy-benzimidazole-5-carboxamide

>  <PUBCHEM_IUPAC_INCHI>  (1) 
InChI=1S/C40H49N13O6/c1-8-52-29(17-23(3)47-52)37(56)45-39-43-27-19-25(35(41)54)21-31(58-7)33(27)50(39)14-10-11-15-51-34-28(20-26(36(42)55)22-32(34)59-16-12-13-49(5)6)44-40(51)46-38(57)30-18-24(4)48-53(30)9-2/h10-11,17-22H,8-9,12-16H2,1-7H3,(H2,41,54)(H2,42,55)(H,43,45,56)(H,44,46,57)/b11-10+

>  <PUBCHEM_IUPAC_INCHIKEY>  (1) 
MXHZAYVEIKSPIA-ZHACJKMWSA-N

>  <PUBCHEM_XLOGP3_AA>  (1) 
2.3

>  <PUBCHEM_EXACT_MASS>  (1) 
807.39287633

>  <PUBCHEM_MOLECULAR_FORMULA>  (1) 
C40H49N13O6

>  <PUBCHEM_MOLECULAR_WEIGHT>  (1) 
807.9

>  <PUBCHEM_OPENEYE_CAN_SMILES>  (1) 
CCN1C(=CC(=N1)C)C(=O)NC2=NC3=C(N2CC=CCN4C5=C(C=C(C=C5OCCCN(C)C)C(=O)N)N=C4NC(=O)C6=CC(=NN6CC)C)C(=CC(=C3)C(=O)N)OC

>  <PUBCHEM_OPENEYE_ISO_SMILES>  (1) 
CCN1C(=CC(=N1)C)C(=O)NC2=NC3=C(N2C/C=C/CN4C5=C(C=C(C=C5OCCCN(C)C)C(=O)N)N=C4NC(=O)C6=CC(=NN6CC)C)C(=CC(=C3)C(=O)N)OC

>  <PUBCHEM_CACTVS_TPSA>  (1) 
237

>  <PUBCHEM_MONOISOTOPIC_WEIGHT>  (1) 
807.39287633

>  <PUBCHEM_TOTAL_CHARGE>  (1) 
0

>  <PUBCHEM_HEAVY_ATOM_COUNT>  (1) 
59

>  <PUBCHEM_ATOM_DEF_STEREO_COUNT>  (1) 
0

>  <PUBCHEM_ATOM_UDEF_STEREO_COUNT>  (1) 
0

>  <PUBCHEM_BOND_DEF_STEREO_COUNT>  (1) 
1

>  <PUBCHEM_BOND_UDEF_STEREO_COUNT>  (1) 
0

>  <PUBCHEM_ISOTOPIC_ATOM_COUNT>  (1) 
0

>  <PUBCHEM_COMPONENT_COUNT>  (1) 
1

>  <PUBCHEM_CACTVS_TAUTO_COUNT>  (1) 
-1

>  <PUBCHEM_COORDINATE_TYPE>  (1) 
1
5
255

>  <PUBCHEM_BONDANNOTATIONS>  (1) 
11  27  8
11  28  8
14  16  8
14  42  8
15  17  8
15  45  8
16  49  8
17  54  8
20  22  8
20  24  8
22  30  8
24  32  8
25  28  8
25  34  8
28  37  8
30  33  8
32  33  8
34  40  8
37  38  8
38  40  8
42  46  8
45  50  8
46  49  8
50  54  8
7  20  8
7  23  8
8  25  8
8  27  8
9  22  8
9  23  8

$$$$
