Hydroxocobalamin
  -OEChem-07152409272D

181186  0     1  0  0  0  0  0999 V2000
   18.3416    1.9361    0.0000 Co  0  1  0  0  0  0  0  0  0  0  0  0
   17.2622    3.2907    0.0000 P   0  0  3  0  0  0  0  0  0  0  0  0
   11.1123   -5.3954    0.0000 O   0  0  0  0  0  0  0  0  0  0  0  0
   13.7667   -1.4508    0.0000 O   0  0  0  0  0  0  0  0  0  0  0  0
   14.8106   -0.5809    0.0000 O   0  0  0  0  0  0  0  0  0  0  0  0
    5.3997   -6.1381    0.0000 O   0  0  0  0  0  0  0  0  0  0  0  0
    4.9681   -3.7875    0.0000 O   0  0  0  0  0  0  0  0  0  0  0  0
   11.0683    3.7985    0.0000 O   0  0  0  0  0  0  0  0  0  0  0  0
    3.5422    0.7569    0.0000 O   0  0  0  0  0  0  0  0  0  0  0  0
   16.8965    2.3600    0.0000 O   0  0  0  0  0  0  0  0  0  0  0  0
   17.6279    4.2214    0.0000 O   0  0  0  0  0  0  0  0  0  0  0  0
   18.1929    2.9250    0.0000 O   0  5  0  0  0  0  0  0  0  0  0  0
   16.3315    3.6564    0.0000 O   0  0  0  0  0  0  0  0  0  0  0  0
   20.0642    5.0934    0.0000 O   0  0  0  0  0  0  0  0  0  0  0  0
   19.1541    2.6711    0.0000 O   0  0  0  0  0  0  0  0  0  0  0  0
   19.1820    6.9864    0.0000 O   0  0  0  0  0  0  0  0  0  0  0  0
   19.2724    1.5704    0.0000 O   0  5  0  0  0  0  0  0  0  0  0  0
    8.8869   -2.8794    0.0000 N   0  0  0  0  0  0  0  0  0  0  0  0
   10.3483   -1.5466    0.0000 N   0  5  0  0  0  0  0  0  0  0  0  0
    7.4237   -1.5466    0.0000 N   0  0  0  0  0  0  0  0  0  0  0  0
    8.8543   -0.2139    0.0000 N   0  0  0  0  0  0  0  0  0  0  0  0
   10.2555   -6.9007    0.0000 N   0  0  0  0  0  0  0  0  0  0  0  0
   14.2433   -3.1160    0.0000 N   0  0  0  0  0  0  0  0  0  0  0  0
   14.5531    1.1319    0.0000 N   0  0  0  0  0  0  0  0  0  0  0  0
    6.8997   -7.0041    0.0000 N   0  0  0  0  0  0  0  0  0  0  0  0
    3.4494   -2.9547    0.0000 N   0  0  0  0  0  0  0  0  0  0  0  0
    9.6520    4.7955    0.0000 N   0  0  0  0  0  0  0  0  0  0  0  0
    2.4934   -0.6216    0.0000 N   0  0  0  0  0  0  0  0  0  0  0  0
   21.1003    3.6435    0.0000 N   0  0  0  0  0  0  0  0  0  0  0  0
   22.2274    2.4946    0.0000 N   0  0  0  0  0  0  0  0  0  0  0  0
    9.6673   -3.4643    0.0000 C   0  0  2  0  0  0  0  0  0  0  0  0
    9.3740   -4.4061    0.0000 C   0  0  2  0  0  0  0  0  0  0  0  0
   10.9333   -2.2619    0.0000 C   0  0  1  0  0  0  0  0  0  0  0  0
   11.8439   -2.0012    0.0000 C   0  0  1  0  0  0  0  0  0  0  0  0
    8.3997   -4.4061    0.0000 C   0  0  1  0  0  0  0  0  0  0  0  0
   11.8439   -1.0270    0.0000 C   0  0  2  0  0  0  0  0  0  0  0  0
    8.1064   -3.4969    0.0000 C   0  0  0  0  0  0  0  0  0  0  0  0
    9.3802   -5.4060    0.0000 C   0  0  0  0  0  0  0  0  0  0  0  0
   10.9007   -0.7663    0.0000 C   0  0  0  0  0  0  0  0  0  0  0  0
   10.5164   -3.9926    0.0000 C   0  0  0  0  0  0  0  0  0  0  0  0
   10.3270   -4.7092    0.0000 C   0  0  0  0  0  0  0  0  0  0  0  0
    7.8997   -5.2721    0.0000 C   0  0  0  0  0  0  0  0  0  0  0  0
   12.5629   -2.6962    0.0000 C   0  0  0  0  0  0  0  0  0  0  0  0
   12.8328   -0.8783    0.0000 C   0  0  0  0  0  0  0  0  0  0  0  0
   12.0081   -0.0405    0.0000 C   0  0  0  0  0  0  0  0  0  0  0  0
    7.1647   -3.2036    0.0000 C   0  0  0  0  0  0  0  0  0  0  0  0
   10.6090    0.1429    0.0000 C   0  0  0  0  0  0  0  0  0  0  0  0
    6.8997   -5.2721    0.0000 C   0  0  0  0  0  0  0  0  0  0  0  0
   10.2493   -5.9007    0.0000 C   0  0  0  0  0  0  0  0  0  0  0  0
   13.1985    0.0525    0.0000 C   0  0  0  0  0  0  0  0  0  0  0  0
    5.9297   -2.0338    0.0000 C   0  0  2  0  0  0  0  0  0  0  0  0
    6.8715   -2.2945    0.0000 C   0  0  0  0  0  0  0  0  0  0  0  0
    9.6673    0.4362    0.0000 C   0  0  0  0  0  0  0  0  0  0  0  0
   13.5243   -2.4210    0.0000 C   0  0  0  0  0  0  0  0  0  0  0  0
    9.3414    1.3453    0.0000 C   0  0  2  0  0  0  0  0  0  0  0  0
    5.9297   -1.0596    0.0000 C   0  0  1  0  0  0  0  0  0  0  0  0
    8.3671    1.3453    0.0000 C   0  0  0  0  0  0  0  0  0  0  0  0
    6.4940   -3.9454    0.0000 C   0  0  0  0  0  0  0  0  0  0  0  0
   11.3439    0.8211    0.0000 C   0  0  0  0  0  0  0  0  0  0  0  0
    6.8715   -0.7989    0.0000 C   0  0  0  0  0  0  0  0  0  0  0  0
    8.0738    0.4036    0.0000 C   0  0  0  0  0  0  0  0  0  0  0  0
    4.9300   -2.0558    0.0000 C   0  0  0  0  0  0  0  0  0  0  0  0
    5.6418   -2.9914    0.0000 C   0  0  0  0  0  0  0  0  0  0  0  0
    9.9171    2.1630    0.0000 C   0  0  0  0  0  0  0  0  0  0  0  0
    5.1339   -0.4541    0.0000 C   0  0  0  0  0  0  0  0  0  0  0  0
   14.1874    0.2011    0.0000 C   0  0  0  0  0  0  0  0  0  0  0  0
    6.3997   -6.1381    0.0000 C   0  0  0  0  0  0  0  0  0  0  0  0
    7.1322    0.1429    0.0000 C   0  0  0  0  0  0  0  0  0  0  0  0
    8.3610    2.3453    0.0000 C   0  0  0  0  0  0  0  0  0  0  0  0
    7.4142    1.6485    0.0000 C   0  0  0  0  0  0  0  0  0  0  0  0
    9.4967    3.0704    0.0000 C   0  0  0  0  0  0  0  0  0  0  0  0
    4.2116   -0.8406    0.0000 C   0  0  0  0  0  0  0  0  0  0  0  0
    4.4492   -2.9327    0.0000 C   0  0  0  0  0  0  0  0  0  0  0  0
   15.5420    1.2806    0.0000 C   0  0  0  0  0  0  0  0  0  0  0  0
   10.0723    3.8881    0.0000 C   0  0  0  0  0  0  0  0  0  0  0  0
    3.4157   -0.2351    0.0000 C   0  0  0  0  0  0  0  0  0  0  0  0
   15.9076    2.2113    0.0000 C   0  0  1  0  0  0  0  0  0  0  0  0
   15.2844    2.9934    0.0000 C   0  0  0  0  0  0  0  0  0  0  0  0
   18.6168    4.3701    0.0000 C   0  0  1  0  0  0  0  0  0  0  0  0
   19.3183    3.6575    0.0000 C   0  0  2  0  0  0  0  0  0  0  0  0
   19.0777    5.2575    0.0000 C   0  0  1  0  0  0  0  0  0  0  0  0
   20.2129    4.1045    0.0000 C   0  0  2  0  0  0  0  0  0  0  0  0
   18.6308    6.1521    0.0000 C   0  0  0  0  0  0  0  0  0  0  0  0
   21.9891    4.0886    0.0000 C   0  0  0  0  0  0  0  0  0  0  0  0
   21.2472    2.6603    0.0000 C   0  0  0  0  0  0  0  0  0  0  0  0
   22.6894    3.3748    0.0000 C   0  0  0  0  0  0  0  0  0  0  0  0
   22.2572    5.0520    0.0000 C   0  0  0  0  0  0  0  0  0  0  0  0
   23.6578    3.6243    0.0000 C   0  0  0  0  0  0  0  0  0  0  0  0
   23.2256    5.3016    0.0000 C   0  0  0  0  0  0  0  0  0  0  0  0
   23.9259    4.5877    0.0000 C   0  0  0  0  0  0  0  0  0  0  0  0
   23.4936    6.2650    0.0000 C   0  0  0  0  0  0  0  0  0  0  0  0
   24.8942    4.8373    0.0000 C   0  0  0  0  0  0  0  0  0  0  0  0
   11.3550   -2.9999    0.0000 H   0  0  0  0  0  0  0  0  0  0  0  0
   12.4147   -1.7591    0.0000 H   0  0  0  0  0  0  0  0  0  0  0  0
    7.7832   -4.3406    0.0000 H   0  0  0  0  0  0  0  0  0  0  0  0
    8.7690   -5.3022    0.0000 H   0  0  0  0  0  0  0  0  0  0  0  0
    9.1718   -5.9900    0.0000 H   0  0  0  0  0  0  0  0  0  0  0  0
   10.1889   -4.5190    0.0000 H   0  0  0  0  0  0  0  0  0  0  0  0
   11.0428   -4.3200    0.0000 H   0  0  0  0  0  0  0  0  0  0  0  0
   10.8439   -3.4661    0.0000 H   0  0  0  0  0  0  0  0  0  0  0  0
   10.1391   -5.3000    0.0000 H   0  0  0  0  0  0  0  0  0  0  0  0
   10.9178   -4.8972    0.0000 H   0  0  0  0  0  0  0  0  0  0  0  0
   10.5149   -4.1184    0.0000 H   0  0  0  0  0  0  0  0  0  0  0  0
    7.7920   -5.8827    0.0000 H   0  0  0  0  0  0  0  0  0  0  0  0
    8.4823   -5.4842    0.0000 H   0  0  0  0  0  0  0  0  0  0  0  0
   12.0612   -3.0604    0.0000 H   0  0  0  0  0  0  0  0  0  0  0  0
   12.8345   -3.2536    0.0000 H   0  0  0  0  0  0  0  0  0  0  0  0
   12.8171   -1.4981    0.0000 H   0  0  0  0  0  0  0  0  0  0  0  0
   13.4405   -1.0014    0.0000 H   0  0  0  0  0  0  0  0  0  0  0  0
   12.6197   -0.1423    0.0000 H   0  0  0  0  0  0  0  0  0  0  0  0
   12.1099    0.5711    0.0000 H   0  0  0  0  0  0  0  0  0  0  0  0
   11.3965    0.0613    0.0000 H   0  0  0  0  0  0  0  0  0  0  0  0
    7.0074   -4.6615    0.0000 H   0  0  0  0  0  0  0  0  0  0  0  0
    6.3171   -5.0600    0.0000 H   0  0  0  0  0  0  0  0  0  0  0  0
   13.2142    0.6723    0.0000 H   0  0  0  0  0  0  0  0  0  0  0  0
   12.5908    0.1755    0.0000 H   0  0  0  0  0  0  0  0  0  0  0  0
    9.0558    1.8956    0.0000 H   0  0  0  0  0  0  0  0  0  0  0  0
    5.3742   -1.3349    0.0000 H   0  0  0  0  0  0  0  0  0  0  0  0
    6.0341   -3.5295    0.0000 H   0  0  0  0  0  0  0  0  0  0  0  0
    6.0781   -4.4052    0.0000 H   0  0  0  0  0  0  0  0  0  0  0  0
    6.9538   -4.3612    0.0000 H   0  0  0  0  0  0  0  0  0  0  0  0
   11.7644    0.3654    0.0000 H   0  0  0  0  0  0  0  0  0  0  0  0
   11.7995    1.2415    0.0000 H   0  0  0  0  0  0  0  0  0  0  0  0
   10.9234    1.2767    0.0000 H   0  0  0  0  0  0  0  0  0  0  0  0
    5.0242   -1.4430    0.0000 H   0  0  0  0  0  0  0  0  0  0  0  0
    4.3428   -1.8567    0.0000 H   0  0  0  0  0  0  0  0  0  0  0  0
    5.0480   -2.8129    0.0000 H   0  0  0  0  0  0  0  0  0  0  0  0
    5.4632   -3.5852    0.0000 H   0  0  0  0  0  0  0  0  0  0  0  0
    6.2355   -3.1700    0.0000 H   0  0  0  0  0  0  0  0  0  0  0  0
   10.3544    1.7235    0.0000 H   0  0  0  0  0  0  0  0  0  0  0  0
   10.4258    2.5174    0.0000 H   0  0  0  0  0  0  0  0  0  0  0  0
    5.5892   -0.0333    0.0000 H   0  0  0  0  0  0  0  0  0  0  0  0
    4.7986    0.0674    0.0000 H   0  0  0  0  0  0  0  0  0  0  0  0
    6.6974    0.5849    0.0000 H   0  0  0  0  0  0  0  0  0  0  0  0
   10.7944   -7.2074    0.0000 H   0  0  0  0  0  0  0  0  0  0  0  0
    9.7205   -7.2140    0.0000 H   0  0  0  0  0  0  0  0  0  0  0  0
    8.9810    2.3491    0.0000 H   0  0  0  0  0  0  0  0  0  0  0  0
    8.3572    2.9653    0.0000 H   0  0  0  0  0  0  0  0  0  0  0  0
    7.7410    2.3415    0.0000 H   0  0  0  0  0  0  0  0  0  0  0  0
    7.6022    2.2393    0.0000 H   0  0  0  0  0  0  0  0  0  0  0  0
    6.8234    1.8365    0.0000 H   0  0  0  0  0  0  0  0  0  0  0  0
    7.2262    1.0577    0.0000 H   0  0  0  0  0  0  0  0  0  0  0  0
   14.8394   -2.9454    0.0000 H   0  0  0  0  0  0  0  0  0  0  0  0
   14.0931   -3.7175    0.0000 H   0  0  0  0  0  0  0  0  0  0  0  0
    9.0594    3.5099    0.0000 H   0  0  0  0  0  0  0  0  0  0  0  0
    8.9880    2.7160    0.0000 H   0  0  0  0  0  0  0  0  0  0  0  0
    3.7562   -1.2613    0.0000 H   0  0  0  0  0  0  0  0  0  0  0  0
    4.5469   -1.3621    0.0000 H   0  0  0  0  0  0  0  0  0  0  0  0
   14.1667    1.6168    0.0000 H   0  0  0  0  0  0  0  0  0  0  0  0
    6.5897   -7.5411    0.0000 H   0  0  0  0  0  0  0  0  0  0  0  0
    7.5197   -7.0041    0.0000 H   0  0  0  0  0  0  0  0  0  0  0  0
   15.5263    0.6607    0.0000 H   0  0  0  0  0  0  0  0  0  0  0  0
   16.1496    1.1575    0.0000 H   0  0  0  0  0  0  0  0  0  0  0  0
    3.1513   -3.4984    0.0000 H   0  0  0  0  0  0  0  0  0  0  0  0
    3.1277   -2.4247    0.0000 H   0  0  0  0  0  0  0  0  0  0  0  0
   16.1344    2.7884    0.0000 H   0  0  0  0  0  0  0  0  0  0  0  0
   10.0088    5.3024    0.0000 H   0  0  0  0  0  0  0  0  0  0  0  0
    9.0345    4.8510    0.0000 H   0  0  0  0  0  0  0  0  0  0  0  0
    2.0000   -0.2462    0.0000 H   0  0  0  0  0  0  0  0  0  0  0  0
    2.4150   -1.2366    0.0000 H   0  0  0  0  0  0  0  0  0  0  0  0
   15.7693    3.3797    0.0000 H   0  0  0  0  0  0  0  0  0  0  0  0
   14.8981    3.4782    0.0000 H   0  0  0  0  0  0  0  0  0  0  0  0
   14.7996    2.6070    0.0000 H   0  0  0  0  0  0  0  0  0  0  0  0
   18.4206    3.7820    0.0000 H   0  0  0  0  0  0  0  0  0  0  0  0
   19.8170    3.2891    0.0000 H   0  0  0  0  0  0  0  0  0  0  0  0
   19.4461    5.7562    0.0000 H   0  0  0  0  0  0  0  0  0  0  0  0
   20.2080    3.4845    0.0000 H   0  0  0  0  0  0  0  0  0  0  0  0
   18.1807    6.5785    0.0000 H   0  0  0  0  0  0  0  0  0  0  0  0
   18.1327    5.7828    0.0000 H   0  0  0  0  0  0  0  0  0  0  0  0
   19.6329    2.2771    0.0000 H   0  0  0  0  0  0  0  0  0  0  0  0
   20.8046    2.2262    0.0000 H   0  0  0  0  0  0  0  0  0  0  0  0
   18.9048    7.5411    0.0000 H   0  0  0  0  0  0  0  0  0  0  0  0
   21.8230    5.4946    0.0000 H   0  0  0  0  0  0  0  0  0  0  0  0
   24.0920    3.1817    0.0000 H   0  0  0  0  0  0  0  0  0  0  0  0
   24.0909    6.0988    0.0000 H   0  0  0  0  0  0  0  0  0  0  0  0
   23.6598    6.8623    0.0000 H   0  0  0  0  0  0  0  0  0  0  0  0
   22.8963    6.4312    0.0000 H   0  0  0  0  0  0  0  0  0  0  0  0
   25.0489    4.2369    0.0000 H   0  0  0  0  0  0  0  0  0  0  0  0
   25.4946    4.9920    0.0000 H   0  0  0  0  0  0  0  0  0  0  0  0
   24.7395    5.4377    0.0000 H   0  0  0  0  0  0  0  0  0  0  0  0
   19.3645    0.9573    0.0000 H   0  0  0  0  0  0  0  0  0  0  0  0
  2 10  1  0  0  0  0
  2 11  1  0  0  0  0
  2 12  1  0  0  0  0
  2 13  2  0  0  0  0
  3 49  2  0  0  0  0
  4 54  2  0  0  0  0
  5 66  2  0  0  0  0
  6 67  2  0  0  0  0
  7 73  2  0  0  0  0
  8 75  2  0  0  0  0
  9 76  2  0  0  0  0
 77 10  1  1  0  0  0
 79 11  1  6  0  0  0
 14 81  1  0  0  0  0
 14 82  1  0  0  0  0
 80 15  1  6  0  0  0
 15170  1  0  0  0  0
 16 83  1  0  0  0  0
 16172  1  0  0  0  0
 17181  1  0  0  0  0
 18 31  1  0  0  0  0
 18 37  2  0  0  0  0
 19 33  1  0  0  0  0
 19 39  1  0  0  0  0
 20 52  1  0  0  0  0
 20 60  2  0  0  0  0
 21 53  2  0  0  0  0
 21 61  1  0  0  0  0
 22 49  1  0  0  0  0
 22135  1  0  0  0  0
 22136  1  0  0  0  0
 23 54  1  0  0  0  0
 23143  1  0  0  0  0
 23144  1  0  0  0  0
 24 66  1  0  0  0  0
 24 74  1  0  0  0  0
 24149  1  0  0  0  0
 25 67  1  0  0  0  0
 25150  1  0  0  0  0
 25151  1  0  0  0  0
 26 73  1  0  0  0  0
 26154  1  0  0  0  0
 26155  1  0  0  0  0
 27 75  1  0  0  0  0
 27157  1  0  0  0  0
 27158  1  0  0  0  0
 28 76  1  0  0  0  0
 28159  1  0  0  0  0
 28160  1  0  0  0  0
 82 29  1  6  0  0  0
 29 84  1  0  0  0  0
 29 85  1  0  0  0  0
 30 85  2  0  0  0  0
 30 86  1  0  0  0  0
 31 32  1  0  0  0  0
 31 33  1  0  0  0  0
 31 40  1  6  0  0  0
 32 35  1  0  0  0  0
 32 38  1  0  0  0  0
 32 41  1  6  0  0  0
 33 34  1  0  0  0  0
 33 93  1  1  0  0  0
 34 36  1  0  0  0  0
 34 43  1  1  0  0  0
 34 94  1  0  0  0  0
 35 37  1  0  0  0  0
 35 42  1  6  0  0  0
 35 95  1  0  0  0  0
 36 39  1  0  0  0  0
 36 44  1  0  0  0  0
 36 45  1  1  0  0  0
 37 46  1  0  0  0  0
 38 49  1  0  0  0  0
 38 96  1  0  0  0  0
 38 97  1  0  0  0  0
 39 47  2  0  0  0  0
 40 98  1  0  0  0  0
 40 99  1  0  0  0  0
 40100  1  0  0  0  0
 41101  1  0  0  0  0
 41102  1  0  0  0  0
 41103  1  0  0  0  0
 42 48  1  0  0  0  0
 42104  1  0  0  0  0
 42105  1  0  0  0  0
 43 54  1  0  0  0  0
 43106  1  0  0  0  0
 43107  1  0  0  0  0
 44 50  1  0  0  0  0
 44108  1  0  0  0  0
 44109  1  0  0  0  0
 45110  1  0  0  0  0
 45111  1  0  0  0  0
 45112  1  0  0  0  0
 46 52  2  0  0  0  0
 46 58  1  0  0  0  0
 47 53  1  0  0  0  0
 47 59  1  0  0  0  0
 48 67  1  0  0  0  0
 48113  1  0  0  0  0
 48114  1  0  0  0  0
 50 66  1  0  0  0  0
 50115  1  0  0  0  0
 50116  1  0  0  0  0
 51 52  1  0  0  0  0
 51 56  1  0  0  0  0
 51 62  1  0  0  0  0
 51 63  1  6  0  0  0
 53 55  1  0  0  0  0
 55 57  1  0  0  0  0
 55 64  1  6  0  0  0
 55117  1  0  0  0  0
 56 60  1  0  0  0  0
 56 65  1  6  0  0  0
 56118  1  0  0  0  0
 57 61  1  0  0  0  0
 57 69  1  0  0  0  0
 57 70  1  0  0  0  0
 58119  1  0  0  0  0
 58120  1  0  0  0  0
 58121  1  0  0  0  0
 59122  1  0  0  0  0
 59123  1  0  0  0  0
 59124  1  0  0  0  0
 60 68  1  0  0  0  0
 61 68  2  0  0  0  0
 62 73  1  0  0  0  0
 62125  1  0  0  0  0
 62126  1  0  0  0  0
 63127  1  0  0  0  0
 63128  1  0  0  0  0
 63129  1  0  0  0  0
 64 71  1  0  0  0  0
 64130  1  0  0  0  0
 64131  1  0  0  0  0
 65 72  1  0  0  0  0
 65132  1  0  0  0  0
 65133  1  0  0  0  0
 68134  1  0  0  0  0
 69137  1  0  0  0  0
 69138  1  0  0  0  0
 69139  1  0  0  0  0
 70140  1  0  0  0  0
 70141  1  0  0  0  0
 70142  1  0  0  0  0
 71 75  1  0  0  0  0
 71145  1  0  0  0  0
 71146  1  0  0  0  0
 72 76  1  0  0  0  0
 72147  1  0  0  0  0
 72148  1  0  0  0  0
 74 77  1  0  0  0  0
 74152  1  0  0  0  0
 74153  1  0  0  0  0
 77 78  1  0  0  0  0
 77156  1  0  0  0  0
 78161  1  0  0  0  0
 78162  1  0  0  0  0
 78163  1  0  0  0  0
 79 80  1  0  0  0  0
 79 81  1  0  0  0  0
 79164  1  0  0  0  0
 80 82  1  0  0  0  0
 80165  1  0  0  0  0
 81 83  1  1  0  0  0
 81166  1  0  0  0  0
 82167  1  0  0  0  0
 83168  1  0  0  0  0
 83169  1  0  0  0  0
 84 86  2  0  0  0  0
 84 87  1  0  0  0  0
 85171  1  0  0  0  0
 86 88  1  0  0  0  0
 87 89  2  0  0  0  0
 87173  1  0  0  0  0
 88 90  2  0  0  0  0
 88174  1  0  0  0  0
 89 90  1  0  0  0  0
 89 91  1  0  0  0  0
 90 92  1  0  0  0  0
 91175  1  0  0  0  0
 91176  1  0  0  0  0
 91177  1  0  0  0  0
 92178  1  0  0  0  0
 92179  1  0  0  0  0
 92180  1  0  0  0  0
M  CHG  4   1   3  12  -1  17  -1  19  -1
M  END
> <PUBCHEM_COMPOUND_CID>
44475014

> <PUBCHEM_COMPOUND_CANONICALIZED>
1

> <PUBCHEM_CACTVS_COMPLEXITY>
3140

> <PUBCHEM_CACTVS_HBOND_ACCEPTOR>
20

> <PUBCHEM_CACTVS_HBOND_DONOR>
10

> <PUBCHEM_CACTVS_ROTATABLE_BOND>
26

> <PUBCHEM_CACTVS_SUBSKEYS>
AAADcfB//AIAAAAQAAAAAAAAAAAAAWLEiBAwAAAAAAAAAFgB8AAAHgAQCCAAD7zhngY30LfMFxCoQyVzdICCgC0xEqAB2KE4dJiLeLLAmZGeYAhvlgLbyCf8ucKfiAAAQAAQACAQAACAACAAQAAAAAAAAA==

> <PUBCHEM_IUPAC_OPENEYE_NAME>
cobaltic;[(2R,3S,4R,5S)-5-(5,6-dimethylbenzimidazol-1-yl)-4-hydroxy-2-(hydroxymethyl)tetrahydrofuran-3-yl] [(1R)-1-methyl-2-[3-[(1R,2R,3R,4Z,7S,9Z,12S,13S,14Z,17S,18S,19R)-2,13,18-tris(2-amino-2-oxo-ethyl)-7,12,17-tris(3-amino-3-oxo-propyl)-3,5,8,8,13,15,18,19-octamethyl-2,7,12,17-tetrahydro-1H-corrin-21-id-3-yl]propanoylamino]ethyl] phosphate;hydroxide

> <PUBCHEM_IUPAC_CAS_NAME>
cobalt(3+);[(2R,3S,4R,5S)-5-(5,6-dimethyl-1-benzimidazolyl)-4-hydroxy-2-(hydroxymethyl)-3-oxolanyl] [(2R)-1-[[1-oxo-3-[(1R,2R,3R,4Z,7S,9Z,12S,13S,14Z,17S,18S,19R)-2,13,18-tris(2-amino-2-oxoethyl)-7,12,17-tris(3-amino-3-oxopropyl)-3,5,8,8,13,15,18,19-octamethyl-2,7,12,17-tetrahydro-1H-corrin-21-id-3-yl]propyl]amino]propan-2-yl] phosphate;hydroxide

> <PUBCHEM_IUPAC_NAME_MARKUP>
cobalt(3+);[(2<I>R</I>,3<I>S</I>,4<I>R</I>,5<I>S</I>)-5-(5,6-dimethylbenzimidazol-1-yl)-4-hydroxy-2-(hydroxymethyl)oxolan-3-yl] [(2<I>R</I>)-1-[3-[(1<I>R</I>,2<I>R</I>,3<I>R</I>,4<I>Z</I>,7<I>S</I>,9<I>Z</I>,12<I>S</I>,13<I>S</I>,14<I>Z</I>,17<I>S</I>,18<I>S</I>,19<I>R</I>)-2,13,18-tris(2-amino-2-oxoethyl)-7,12,17-tris(3-amino-3-oxopropyl)-3,5,8,8,13,15,18,19-octamethyl-2,7,12,17-tetrahydro-1<I>H</I>-corrin-21-id-3-yl]propanoylamino]propan-2-yl] phosphate;hydroxide

> <PUBCHEM_IUPAC_NAME>
cobalt(3+);[(2R,3S,4R,5S)-5-(5,6-dimethylbenzimidazol-1-yl)-4-hydroxy-2-(hydroxymethyl)oxolan-3-yl] [(2R)-1-[3-[(1R,2R,3R,4Z,7S,9Z,12S,13S,14Z,17S,18S,19R)-2,13,18-tris(2-amino-2-oxoethyl)-7,12,17-tris(3-amino-3-oxopropyl)-3,5,8,8,13,15,18,19-octamethyl-2,7,12,17-tetrahydro-1H-corrin-21-id-3-yl]propanoylamino]propan-2-yl] phosphate;hydroxide

> <PUBCHEM_IUPAC_SYSTEMATIC_NAME>
cobalt(3+);[(2R,3S,4R,5S)-5-(5,6-dimethylbenzimidazol-1-yl)-2-(hydroxymethyl)-4-oxidanyl-oxolan-3-yl] [(2R)-1-[3-[(1R,2R,3R,4Z,7S,9Z,12S,13S,14Z,17S,18S,19R)-2,13,18-tris(2-azanyl-2-oxidanylidene-ethyl)-7,12,17-tris(3-azanyl-3-oxidanylidene-propyl)-3,5,8,8,13,15,18,19-octamethyl-2,7,12,17-tetrahydro-1H-corrin-21-id-3-yl]propanoylamino]propan-2-yl] phosphate;hydroxide

> <PUBCHEM_IUPAC_TRADITIONAL_NAME>
cobaltic;[(2R,3S,4R,5S)-5-(5,6-dimethylbenzimidazol-1-yl)-4-hydroxy-2-methylol-tetrahydrofuran-3-yl] [(1R)-1-methyl-2-[3-[(1R,2R,3R,4Z,7S,9Z,12S,13S,14Z,17S,18S,19R)-2,13,18-tris(2-amino-2-keto-ethyl)-7,12,17-tris(3-amino-3-keto-propyl)-3,5,8,8,13,15,18,19-octamethyl-2,7,12,17-tetrahydro-1H-corrin-21-id-3-yl]propanoylamino]ethyl] phosphate;hydroxide

> <PUBCHEM_IUPAC_INCHI>
InChI=1S/C62H90N13O14P.Co.H2O/c1-29-20-39-40(21-30(29)2)75(28-70-39)57-52(84)53(41(27-76)87-57)89-90(85,86)88-31(3)26-69-49(83)18-19-59(8)37(22-46(66)80)56-62(11)61(10,25-48(68)82)36(14-17-45(65)79)51(74-62)33(5)55-60(9,24-47(67)81)34(12-15-43(63)77)38(71-55)23-42-58(6,7)35(13-16-44(64)78)50(72-42)32(4)54(59)73-56;;/h20-21,23,28,31,34-37,41,52-53,56-57,76,84H,12-19,22,24-27H2,1-11H3,(H15,63,64,65,66,67,68,69,71,72,73,74,77,78,79,80,81,82,83,85,86);;1H2/q;+3;/p-3/t31-,34-,35-,36-,37+,41-,52-,53-,56-,57+,59-,60+,61+,62+;;/m1../s1

> <PUBCHEM_IUPAC_INCHIKEY>
YOZNUFWCRFCGIH-WZHZPDAFSA-K

> <PUBCHEM_EXACT_MASS>
1345.567065

> <PUBCHEM_MOLECULAR_FORMULA>
C62H89CoN13O15P

> <PUBCHEM_MOLECULAR_WEIGHT>
1346.4

> <PUBCHEM_OPENEYE_CAN_SMILES>
CC1=CC2=C(C=C1C)N(C=N2)C3C(C(C(O3)CO)OP(=O)([O-])OC(C)CNC(=O)CCC4(C(C5C6(C(C(C(=N6)C(=C7C(C(C(=N7)C=C8C(C(C(=N8)C(=C4[N-]5)C)CCC(=O)N)(C)C)CCC(=O)N)(C)CC(=O)N)C)CCC(=O)N)(C)CC(=O)N)C)CC(=O)N)C)O.[OH-].[Co+3]

> <PUBCHEM_OPENEYE_ISO_SMILES>
CC1=CC2=C(C=C1C)N(C=N2)[C@@H]3[C@@H]([C@@H]([C@H](O3)CO)OP(=O)([O-])O[C@H](C)CNC(=O)CC[C@@]\4([C@H]([C@@H]5[C@]6([C@@]([C@@H](C(=N6)/C(=C\7/[C@@]([C@@H](C(=N7)/C=C\8/C([C@@H](C(=N8)/C(=C4\[N-]5)/C)CCC(=O)N)(C)C)CCC(=O)N)(C)CC(=O)N)/C)CCC(=O)N)(C)CC(=O)N)C)CC(=O)N)C)O.[OH-].[Co+3]

> <PUBCHEM_CACTVS_TPSA>
453

> <PUBCHEM_MONOISOTOPIC_WEIGHT>
1345.567065

> <PUBCHEM_TOTAL_CHARGE>
0

> <PUBCHEM_HEAVY_ATOM_COUNT>
92

> <PUBCHEM_ATOM_DEF_STEREO_COUNT>
14

> <PUBCHEM_ATOM_UDEF_STEREO_COUNT>
0

> <PUBCHEM_BOND_DEF_STEREO_COUNT>
3

> <PUBCHEM_BOND_UDEF_STEREO_COUNT>
0

> <PUBCHEM_ISOTOPIC_ATOM_COUNT>
0

> <PUBCHEM_COMPONENT_COUNT>
3

> <PUBCHEM_CACTVS_TAUTO_COUNT>
-1

> <PUBCHEM_COORDINATE_TYPE>
1
5
255

> <PUBCHEM_BONDANNOTATIONS>
77  10  5
79  11  6
80  15  6
82  29  6
29  84  8
29  85  8
30  85  8
30  86  8
31  40  6
32  41  6
33  93  5
34  43  5
35  42  6
36  45  5
51  63  6
55  64  6
56  65  6
81  83  5
84  86  8
84  87  8
86  88  8
87  89  8
88  90  8
89  90  8

$$$$
