@<TRIPOS>MOLECULE
J11_32
39 41 1 0 0 
SMALL
USER_CHARGES


@<TRIPOS>ATOM
  1 C       -0.0820    -0.0453     0.0686 C.2   1 <1>  -0.1500 
  2 H        0.5014     0.0721     0.9753 H     1 <1>   0.1500 
  3 C       -0.7560     1.0363    -0.5951 C.2   1 <1>  -0.1810 
  4 C       -0.7236     2.4817    -0.1641 C.3   1 <1>   0.1360 
  5 H3      -1.1715     3.0790    -0.9726 H     1 <1>   0.0000 
  6 C       -1.4354     0.5676    -1.7066 C.2   1 <1>  -0.1100 
  7 H       -2.0366     1.1397    -2.3996 H     1 <1>   0.1500 
  8 S       -1.2504    -1.1162    -1.9450 S.3   1 <1>  -0.0800 
  9 C       -0.2609    -1.2559    -0.5606 C.2   1 <1>  -0.1100 
 10 H        0.1406    -2.2146    -0.2669 H     1 <1>   0.1500 
 11 C       -1.5242     2.8035     1.0944 C.2   1 <1>   0.9060 
 12 O       -1.6600     1.8944     1.9592 O.co2 1 <1>  -0.9000 
 13 O       -1.9963     3.9823     1.1134 O.co2 1 <1>  -0.9000 
 14 C        0.7045     2.9535     0.0349 C.2   1 <1>   0.5690 
 15 N        1.2526     3.5448    -1.0927 N.am  1 <1>  -0.6550 
 16 C        2.6528     4.0395    -1.1203 C.3   1 <1>   0.2780 
 17 H        3.3652     3.2161    -1.2466 H     1 <1>   0.0000 
 18 H2       0.6772     3.6356    -1.9245 H     1 <1>   0.3700 
 19 O        1.3501     2.8033     1.0692 O.2   1 <1>  -0.5700 
 20 C        3.0167     5.1084    -0.0591 C.3   1 <1>   0.4420 
 21 H        2.1739     5.5924     0.4467 H     1 <1>   0.0000 
 22 N        3.5177     5.8909    -1.1684 N.am  1 <1>  -0.5851 
 23 C        2.8890     5.2231    -2.1412 C.2   1 <1>   0.5770 
 24 O        2.6815     5.4371    -3.3103 O.2   1 <1>  -0.5700 
 25 S        4.5361     4.9675     0.9272 S.3   1 <1>  -0.4470 
 26 C        5.0306     6.7334     0.4575 C.3   1 <1>   0.2300 
 27 C        6.5478     6.8560     0.6328 C.3   1 <1>   0.0000 
 28 H1       6.8430     6.7052     1.6784 H     1 <1>   0.0000 
 29 H2       6.8939     7.8554     0.3456 H     1 <1>   0.0000 
 30 H3       7.0997     6.1236     0.0342 H     1 <1>   0.0000 
 31 C        4.3377     7.6848     1.4490 C.3   1 <1>   0.0000 
 32 H1       3.2453     7.6194     1.3948 H     1 <1>   0.0000 
 33 H2       4.6090     8.7247     1.2317 H     1 <1>   0.0000 
 34 H3       4.6354     7.4805     2.4842 H     1 <1>   0.0000 
 35 C        4.4788     6.9640    -0.9841 C.3   1 <1>   0.1941 
 36 H2       3.9118     7.9012    -1.0506 H     1 <1>   0.0000 
 37 C        5.5975     7.0133    -2.0523 C.2   1 <1>   0.9060 
 38 O        6.0627     5.9036    -2.4390 O.co2 1 <1>  -0.9000 
 39 O        5.9390     8.1853    -2.3915 O.co2 1 <1>  -0.9000 
@<TRIPOS>BOND
  1   1   2  1   
  2   1   3  1   
  3   1   9  2   
  4   3   4  1   
  5   3   6  2   
  6   4   5  1   
  7   4  11  1   
  8   4  14  1   
  9   6   7  1   
 10   6   8  1   
 11   8   9  1   
 12   9  10  1   
 13  11  12  ar  
 14  11  13  ar  
 15  14  15  am  
 16  14  19  2   
 17  15  16  1   
 18  15  18  1   
 19  16  17  1   
 20  16  20  1   
 21  16  23  1   
 22  20  21  1   
 23  20  22  1   
 24  20  25  1   
 25  22  23  am  
 26  22  35  1   
 27  23  24  2   
 28  25  26  1   
 29  26  27  1   
 30  26  31  1   
 31  26  35  1   
 32  27  28  1   
 33  27  29  1   
 34  27  30  1   
 35  31  32  1   
 36  31  33  1   
 37  31  34  1   
 38  35  36  1   
 39  35  37  1   
 40  37  38  ar  
 41  37  39  ar  
@<TRIPOS>SUBSTRUCTURE
  1 <1>   0 RESIDUE 1 * * 1
# MOE 2007.09 (io_trps.svl 2007.09)
