@<TRIPOS>MOLECULE
J11_06
56 59 1 0 0 
SMALL
USER_CHARGES


@<TRIPOS>ATOM
  1 C        1.2896    -0.8605     0.4463 C.ar  1 <1>   0.2272 
  2 C        0.0691    -1.3069     0.9797 C.ar  1 <1>  -0.1500 
  3 H        0.0480    -1.8596     1.9125 H     1 <1>   0.1500 
  4 C       -1.1155    -1.0258     0.2858 C.ar  1 <1>  -0.1500 
  5 H       -2.0668    -1.3662     0.6885 H     1 <1>   0.1500 
  6 C       -1.0880    -0.3143    -0.9152 C.ar  1 <1>  -0.1500 
  7 H       -2.0209    -0.1081    -1.4361 H     1 <1>   0.1500 
  8 C        0.1178     0.1393    -1.4633 C.ar  1 <1>  -0.1500 
  9 H        0.1356     0.6917    -2.3965 H     1 <1>   0.1500 
 10 C        1.2896    -0.1519    -0.7551 C.ar  1 <1>  -0.1516 
 11 N        2.6173     0.1248    -0.9811 N.pl3 1 <1>   0.0476 
 12 C        3.1460     0.8494    -2.1094 C.3   1 <1>   0.2556 
 13 H1       2.8824     0.3085    -3.0220 H     1 <1>   0.0000 
 14 H2       4.2326     0.9296    -2.0317 H     1 <1>   0.0000 
 15 H3       2.7044     1.8494    -2.1161 H     1 <1>   0.0000 
 16 C        3.3342    -0.4098     0.0527 C.2   1 <1>   0.2495 
 17 O        4.6579    -0.3200     0.1436 O.3   1 <1>  -0.3430 
 18 C        5.2373    -0.9491     1.2816 C.3   1 <1>   0.3410 
 19 C        6.7604    -0.7426     1.2963 C.2   1 <1>   0.5690 
 20 N        7.4625    -1.2327     2.4048 N.am  1 <1>  -0.6602 
 21 O        7.3279    -0.1544     0.3722 O.2   1 <1>  -0.5700 
 22 H2       5.0411    -2.0272     1.2438 H     1 <1>   0.0000 
 23 H3       4.8258    -0.5063     2.1966 H     1 <1>   0.0000 
 24 N        2.5684    -1.0105     0.9344 N.2   1 <1>  -0.5653 
 25 C        6.8595    -1.9567     3.5254 C.3   1 <1>   0.3001 
 26 H1       5.8114    -2.1954     3.3347 H     1 <1>   0.0000 
 27 H2       6.8762    -1.2825     4.3890 H     1 <1>   0.0000 
 28 C        7.6101    -3.2536     3.8310 C.3   1 <1>   0.0000 
 29 H1       7.4373    -3.9583     3.0070 H     1 <1>   0.0000 
 30 H2       7.1774    -3.6954     4.7371 H     1 <1>   0.0000 
 31 C        9.1282    -3.0437     4.0158 C.3   1 <1>   0.2800 
 32 C        9.8069    -4.4082     4.1915 C.3   1 <1>   0.0000 
 33 H1      10.8696    -4.2969     4.4331 H     1 <1>   0.0000 
 34 H2       9.7153    -5.0255     3.2920 H     1 <1>   0.0000 
 35 H3       9.3628    -4.9562     5.0310 H     1 <1>   0.0000 
 36 O        9.3489    -2.3316     5.2406 O.3   1 <1>  -0.6800 
 37 H        8.8296    -1.5124     5.2536 H     1 <1>   0.4000 
 38 C        9.7024    -2.2787     2.7807 C.3   1 <1>   0.3001 
 39 H1       9.5053    -2.9241     1.9131 H     1 <1>   0.0000 
 40 N       11.1739    -2.0627     2.8351 N.am  1 <1>  -0.4691 
 41 C        8.9082    -0.9835     2.5051 C.3   1 <1>   0.3001 
 42 H1       9.2875    -0.5117     1.5922 H     1 <1>   0.0000 
 43 H2       9.0384    -0.2519     3.3105 H     1 <1>   0.0000 
 44 C       11.7169    -1.1520     3.7251 C.2   1 <1>  -0.0410 
 45 H       11.0224    -0.6207     4.3672 H     1 <1>   0.1500 
 46 C       13.0297    -0.9211     3.8313 C.2   1 <1>  -0.1238 
 47 C       13.6367     0.0491     4.7912 C.3   1 <1>   0.1382 
 48 H1      12.8763     0.5506     5.3993 H     1 <1>   0.0000 
 49 H2      14.1947     0.8228     4.2536 H     1 <1>   0.0000 
 50 H3      14.3220    -0.4638     5.4740 H     1 <1>   0.0000 
 51 C       13.9436    -1.6760     2.9522 C.2   1 <1>   0.6156 
 52 O       15.1588    -1.5188     2.9840 O.2   1 <1>  -0.5700 
 53 N       13.3427    -2.5657     2.0981 N.am  1 <1>  -0.4900 
 54 H       13.9502    -3.0961     1.4910 H     1 <1>   0.3700 
 55 C       11.9932    -2.8110     1.9846 C.2   1 <1>   0.6900 
 56 O       11.5888    -3.6479     1.1792 O.2   1 <1>  -0.5700 
@<TRIPOS>BOND
  1   1   2  ar  
  2   1  10  ar  
  3   1  24  1   
  4   2   3  1   
  5   2   4  ar  
  6   4   5  1   
  7   4   6  ar  
  8   6   7  1   
  9   6   8  ar  
 10   8   9  1   
 11   8  10  ar  
 12  10  11  1   
 13  11  12  1   
 14  11  16  1   
 15  12  13  1   
 16  12  14  1   
 17  12  15  1   
 18  16  17  1   
 19  16  24  2   
 20  17  18  1   
 21  18  19  1   
 22  18  22  1   
 23  18  23  1   
 24  19  20  am  
 25  19  21  2   
 26  20  25  1   
 27  20  41  1   
 28  25  26  1   
 29  25  27  1   
 30  25  28  1   
 31  28  29  1   
 32  28  30  1   
 33  28  31  1   
 34  31  32  1   
 35  31  36  1   
 36  31  38  1   
 37  32  33  1   
 38  32  34  1   
 39  32  35  1   
 40  36  37  1   
 41  38  39  1   
 42  38  40  1   
 43  38  41  1   
 44  40  44  1   
 45  40  55  am  
 46  41  42  1   
 47  41  43  1   
 48  44  45  1   
 49  44  46  2   
 50  46  47  1   
 51  46  51  1   
 52  47  48  1   
 53  47  49  1   
 54  47  50  1   
 55  51  52  2   
 56  51  53  am  
 57  53  54  1   
 58  53  55  am  
 59  55  56  2   
@<TRIPOS>SUBSTRUCTURE
  1 <1>   0 RESIDUE 1 * * 1
# MOE 2007.09 (io_trps.svl 2007.09)
