@<TRIPOS>MOLECULE
J11_10
47 48 1 0 0 
SMALL
USER_CHARGES


@<TRIPOS>ATOM
  1 C        1.5938     0.4782     0.0784 C.3   1 <1>   0.2201 
  2 N        2.6483     1.2015     0.8695 N.am  1 <1>  -0.4691 
  3 H2       1.6832     0.7239    -0.9720 H     1 <1>   0.0800 
  4 C        0.1831     0.9317     0.5205 C.3   1 <1>   0.1401 
  5 H1       0.1235     2.0011     0.3642 H     1 <1>   0.0800 
  6 H2       0.0002     0.6745     1.5524 H     1 <1>   0.0800 
  7 N       -0.7837     0.1930    -0.3338 N.am  1 <1>  -0.6602 
  8 C       -1.6068     0.8754    -1.1665 C.2   1 <1>   0.5690 
  9 O       -1.5796     2.1011    -1.2070 O.2   1 <1>  -0.5700 
 10 C       -2.5911     0.1059    -2.0616 C.3   1 <1>  -0.0990 
 11 C       -3.4552     0.9769    -2.9921 C.3   1 <1>  -0.1600 
 12 C       -4.4012     0.0926    -3.8284 C.3   1 <1>  -0.2660 
 13 C       -5.2623     0.8855    -4.8002 C.2   1 <1>   0.9060 
 14 O       -6.4135     1.1816    -4.4185 O.co2 1 <1>  -0.9000 
 15 O       -4.7525     1.1502    -5.9087 O.co2 1 <1>  -0.9000 
 16 H2      -5.0717    -0.4568    -3.1708 H     1 <1>   0.0800 
 17 H3      -3.8211    -0.6150    -4.4171 H     1 <1>   0.0800 
 18 H2      -2.8125     1.5499    -3.6646 H     1 <1>   0.0800 
 19 H3      -4.0490     1.6783    -2.4018 H     1 <1>   0.0800 
 20 H2      -3.2574    -0.4663    -1.4179 H     1 <1>   0.0800 
 21 H3      -2.0175    -0.5826    -2.6806 H     1 <1>   0.0800 
 22 C       -0.7755    -1.2775    -0.1826 C.3   1 <1>   0.1401 
 23 H1      -1.5145    -1.7594    -0.8064 H     1 <1>   0.0800 
 24 H2      -0.9253    -1.5351     0.8575 H     1 <1>   0.0800 
 25 C        0.6162    -1.7492    -0.6508 C.3   1 <1>  -0.1600 
 26 H1       0.7545    -1.4691    -1.6971 H     1 <1>   0.0800 
 27 H2       0.6779    -2.8340    -0.5685 H     1 <1>   0.0800 
 28 C        1.7111    -1.0845     0.2074 C.3   1 <1>   0.2800 
 29 O        2.9347    -1.5210    -0.3383 O.3   1 <1>  -0.6800 
 30 H        3.0380    -2.4590    -0.1705 H     1 <1>   0.4000 
 31 C        1.7197    -1.6279     1.6489 C.3   1 <1>  -0.2400 
 32 H1       2.6342    -1.3188     2.1561 H     1 <1>   0.0800 
 33 H2       1.6927    -2.7174     1.6375 H     1 <1>   0.0800 
 34 H3       0.8635    -1.2671     2.2145 H     1 <1>   0.0800 
 35 C        2.5569     1.3822     2.2379 C.2   1 <1>  -0.0410 
 36 H        1.6949     1.0249     2.7827 H     1 <1>   0.1500 
 37 C        3.5548     1.9994     2.9218 C.2   1 <1>  -0.1238 
 38 C        3.4460     2.1921     4.4256 C.3   1 <1>  -0.1018 
 39 H1       2.5132     1.7809     4.8116 H     1 <1>   0.0800 
 40 H2       3.4956     3.2573     4.6556 H     1 <1>   0.0800 
 41 H3       4.2894     1.7009     4.9130 H     1 <1>   0.0800 
 42 C        4.7383     2.4779     2.2236 C.2   1 <1>   0.6156 
 43 O        5.6986     3.0469     2.7261 O.2   1 <1>  -0.5700 
 44 N        4.7451     2.2606     0.8760 N.am  1 <1>  -0.4900 
 45 H        5.5312     2.5950     0.3614 H     1 <1>   0.3700 
 46 C        3.7564     1.6605     0.1555 C.2   1 <1>   0.6900 
 47 O        3.8664     1.6146    -1.0605 O.2   1 <1>  -0.5700 
@<TRIPOS>BOND
  1   1   2  1   
  2   1   3  1   
  3   1   4  1   
  4   1  28  1   
  5   2  35  1   
  6   2  46  am  
  7   4   5  1   
  8   4   6  1   
  9   4   7  1   
 10   7   8  am  
 11   7  22  1   
 12   8   9  2   
 13   8  10  1   
 14  10  11  1   
 15  10  20  1   
 16  10  21  1   
 17  11  12  1   
 18  11  18  1   
 19  11  19  1   
 20  12  13  1   
 21  12  16  1   
 22  12  17  1   
 23  13  14  ar  
 24  13  15  ar  
 25  22  23  1   
 26  22  24  1   
 27  22  25  1   
 28  25  26  1   
 29  25  27  1   
 30  25  28  1   
 31  28  29  1   
 32  28  31  1   
 33  29  30  1   
 34  31  32  1   
 35  31  33  1   
 36  31  34  1   
 37  35  36  1   
 38  35  37  2   
 39  37  38  1   
 40  37  42  1   
 41  38  39  1   
 42  38  40  1   
 43  38  41  1   
 44  42  43  2   
 45  42  44  am  
 46  44  45  1   
 47  44  46  am  
 48  46  47  2   
@<TRIPOS>SUBSTRUCTURE
  1 ****   4 GROUP 4 **** **** 0

# MOE 2015.10 (io_trps.svl 2015.10)
