@<TRIPOS>MOLECULE
J11_34
53 56 1 0 0 
SMALL
USER_CHARGES


@<TRIPOS>ATOM
  1 C        1.3642     0.5757    -0.2606 C.ar  1 <1>   0.1170 
  2 N        2.6000     1.1154    -0.6589 N.am  1 <1>  -0.5470 
  3 H2       2.5678     1.8338    -1.3727 H     1 <1>   0.3700 
  4 C        0.2476     1.4151    -0.3285 C.ar  1 <1>  -0.1500 
  5 H        0.3566     2.4447    -0.6673 H     1 <1>   0.1500 
  6 C       -1.0166     0.9803     0.1078 C.ar  1 <1>  -0.1790 
  7 C       -1.1538    -0.3412     0.5550 C.ar  1 <1>  -0.1500 
  8 H       -2.1258    -0.7008     0.8887 H     1 <1>   0.1500 
  9 C       -0.0569    -1.2003     0.5725 C.ar  1 <1>  -0.1500 
 10 H       -0.1806    -2.2282     0.9026 H     1 <1>   0.1500 
 11 C        1.1975    -0.7433     0.1642 C.ar  1 <1>  -0.1500 
 12 H        2.0114    -1.4577     0.1382 H     1 <1>   0.1500 
 13 C       -2.1933     1.9247     0.1149 C.2   1 <1>   0.9790 
 14 O       -3.3143     1.4552     0.4877 O.co2 1 <1>  -0.9000 
 15 O       -1.9748     3.1204    -0.2573 O.co2 1 <1>  -0.9000 
 16 C        3.8776     0.8576    -0.2191 C.2   1 <1>   0.5690 
 17 C        4.0860     0.1436     1.1215 C.3   1 <1>   0.3310 
 18 H        3.7416    -0.8911     1.0650 H     1 <1>   0.0000 
 19 O        4.8296     1.2525    -0.9001 O.2   1 <1>  -0.5700 
 20 N        3.4238     0.8895     2.2065 N.3   1 <1>  -0.9000 
 21 H        2.4110     0.7762     2.1722 H     1 <1>   0.3600 
 22 C        3.9567     0.3181     3.4474 C.3   1 <1>   0.2700 
 23 H1       3.3460    -0.5528     3.7064 H     1 <1>   0.0000 
 24 H2       3.8985     1.0477     4.2598 H     1 <1>   0.0000 
 25 C        5.3873    -0.1255     3.1192 C.3   1 <1>   0.2800 
 26 H1       5.5293    -1.1999     3.2741 H     1 <1>   0.0000 
 27 O        6.3815     0.6288     3.8045 O.3   1 <1>  -0.3567 
 28 C        6.6045     0.4108     5.1287 C.2   1 <1>  -0.0615 
 29 C        5.5240     0.1525     1.6171 C.3   1 <1>   0.0000 
 30 H1       6.1286    -0.6164     1.1233 H     1 <1>   0.0000 
 31 H2       6.0211     1.1147     1.4357 H     1 <1>   0.0000 
 32 C        6.1353    -0.4860     6.0233 C.2   1 <1>  -0.1410 
 33 N        6.7332    -0.2270     7.2053 N.am  1 <1>  -0.3940 
 34 C        7.3497     1.0866     7.2670 C.3   1 <1>   0.2250 
 35 H        6.6279     1.8427     7.6194 H     1 <1>   0.0000 
 36 C        7.6325     1.3259     5.7854 C.3   1 <1>   0.1382 
 37 H1       8.6450     1.0272     5.4969 H     1 <1>   0.0000 
 38 H2       7.4661     2.3730     5.5144 H     1 <1>   0.0000 
 39 C        5.2132    -1.6955     5.8021 C.2   1 <1>   1.0500 
 40 O        3.9827    -1.4685     5.9926 O.co2 1 <1>  -0.9000 
 41 O        5.7909    -2.7490     5.4084 O.co2 1 <1>  -0.9000 
 42 C        7.0585    -0.6794     8.4172 C.2   1 <1>   0.5770 
 43 O        6.7214    -1.6362     9.0689 O.2   1 <1>  -0.5700 
 44 C        8.1445     0.4794     8.4899 C.3   1 <1>   0.0530 
 45 C        9.5767     0.0261     8.2553 C.3   1 <1>   0.2800 
 46 O       10.0088    -0.7013     9.4018 O.3   1 <1>  -0.6800 
 47 H       10.8831    -1.0786     9.2024 H     1 <1>   0.4000 
 48 C       10.4957     1.2274     8.0831 C.3   1 <1>   0.0000 
 49 H1      11.5330     0.9008     7.9523 H     1 <1>   0.0000 
 50 H2      10.4760     1.8661     8.9735 H     1 <1>   0.0000 
 51 H3      10.2124     1.8371     7.2209 H     1 <1>   0.0000 
 52 H3       9.6481    -0.6334     7.3832 H     1 <1>   0.0000 
 53 H2       8.0394     1.0869     9.3988 H     1 <1>   0.0000 
@<TRIPOS>BOND
  1   1   2  1   
  2   1   4  ar  
  3   1  11  ar  
  4   2   3  1   
  5   2  16  am  
  6   4   5  1   
  7   4   6  ar  
  8   6   7  ar  
  9   6  13  1   
 10   7   8  1   
 11   7   9  ar  
 12   9  10  1   
 13   9  11  ar  
 14  11  12  1   
 15  13  14  ar  
 16  13  15  ar  
 17  16  17  1   
 18  16  19  2   
 19  17  18  1   
 20  17  20  1   
 21  17  29  1   
 22  20  21  1   
 23  20  22  1   
 24  22  23  1   
 25  22  24  1   
 26  22  25  1   
 27  25  26  1   
 28  25  27  1   
 29  25  29  1   
 30  27  28  1   
 31  28  32  2   
 32  28  36  1   
 33  29  30  1   
 34  29  31  1   
 35  32  33  1   
 36  32  39  1   
 37  33  34  1   
 38  33  42  am  
 39  34  35  1   
 40  34  36  1   
 41  34  44  1   
 42  36  37  1   
 43  36  38  1   
 44  39  40  ar  
 45  39  41  ar  
 46  42  43  2   
 47  42  44  1   
 48  44  45  1   
 49  44  53  1   
 50  45  46  1   
 51  45  48  1   
 52  45  52  1   
 53  46  47  1   
 54  48  49  1   
 55  48  50  1   
 56  48  51  1   
@<TRIPOS>SUBSTRUCTURE
  1 <1>   0 RESIDUE 1 * * 1
# MOE 2007.09 (io_trps.svl 2007.09)
