@<TRIPOS>MOLECULE
J11_43
55 58 1 0 0 
SMALL
USER_CHARGES


@<TRIPOS>ATOM
  1 C        1.1531     1.3844    -1.1871 C.ar  1 <1>   0.2272 
  2 C       -0.0524     2.0746    -1.2446 C.ar  1 <1>  -0.1516 
  3 C       -1.1895     1.5792    -1.8854 C.ar  1 <1>  -0.1500 
  4 H       -2.1190     2.1366    -1.9188 H     1 <1>   0.1500 
  5 C       -1.0716     0.3212    -2.4887 C.ar  1 <1>  -0.1500 
  6 H       -1.9316    -0.1060    -3.0005 H     1 <1>   0.1500 
  7 C        0.1275    -0.3957    -2.4484 C.ar  1 <1>  -0.1500 
  8 H        0.1891    -1.3698    -2.9278 H     1 <1>   0.1500 
  9 C        1.2536     0.1254    -1.7989 C.ar  1 <1>  -0.1500 
 10 H        2.1886    -0.4222    -1.7675 H     1 <1>   0.1500 
 11 N        2.0983     2.1060    -0.4978 N.2   1 <1>  -0.5653 
 12 C        1.4958     3.2187    -0.1312 C.2   1 <1>   0.0065 
 13 C        2.0949     4.3376     0.6483 C.3   1 <1>   0.1800 
 14 H1       3.0056     3.9782     1.1427 H     1 <1>   0.0000 
 15 H2       1.4026     4.6463     1.4410 H     1 <1>   0.0000 
 16 C        2.4302     5.5268    -0.2509 C.3   1 <1>   0.0000 
 17 C        3.1068     6.6452     0.5378 C.3   1 <1>   0.0610 
 18 H2       4.0315     6.3118     1.0178 H     1 <1>   0.0000 
 19 H3       2.4492     6.9720     1.3535 H     1 <1>   0.0000 
 20 H2       1.5142     5.9131    -0.7174 H     1 <1>   0.0000 
 21 H3       3.0703     5.1998    -1.0791 H     1 <1>   0.0000 
 22 N        0.1932     3.2410    -0.5682 N.pl3 1 <1>   0.0332 
 23 H       -0.4674     3.9902    -0.4179 H     1 <1>   0.2700 
 24 C        3.3625     7.8497    -0.3476 C.2   1 <1>   0.5690 
 25 N        4.5058     7.8637    -1.1389 N.am  1 <1>  -0.6602 
 26 O        2.5374     8.7677    -0.3556 O.2   1 <1>  -0.5700 
 27 C        5.5078     6.8022    -1.2217 C.3   1 <1>   0.3001 
 28 H1       5.2281     5.9241    -0.6388 H     1 <1>   0.0000 
 29 H2       6.4310     7.1890    -0.7776 H     1 <1>   0.0000 
 30 C        5.7219     6.3827    -2.6720 C.3   1 <1>   0.0000 
 31 H1       4.8250     5.8560    -3.0277 H     1 <1>   0.0000 
 32 H2       6.5322     5.6445    -2.7304 H     1 <1>   0.0000 
 33 C        6.0099     7.5723    -3.6211 C.3   1 <1>   0.2800 
 34 O        6.0195     6.9901    -4.9308 O.3   1 <1>  -0.6800 
 35 H        6.3148     7.7058    -5.5450 H     1 <1>   0.4000 
 36 C        7.4161     8.1269    -3.3189 C.3   1 <1>   0.0000 
 37 H1       7.6556     9.0139    -3.9088 H     1 <1>   0.0000 
 38 H2       8.1793     7.3806    -3.5700 H     1 <1>   0.0000 
 39 H3       7.5531     8.4029    -2.2706 H     1 <1>   0.0000 
 40 C        4.8410     8.6230    -3.4885 C.3   1 <1>   0.3001 
 41 H1       3.9163     8.0806    -3.7401 H     1 <1>   0.0000 
 42 N        4.7900     9.8106    -4.4272 N.am  1 <1>  -0.4691 
 43 C        4.7653     9.0315    -1.9878 C.3   1 <1>   0.3001 
 44 H1       3.9980     9.7838    -1.8030 H     1 <1>   0.0000 
 45 H2       5.7018     9.4933    -1.6550 H     1 <1>   0.0000 
 46 C        5.6395     9.9773    -5.5261 C.2   1 <1>   0.6900 
 47 O        6.4485     9.1436    -5.9340 O.2   1 <1>  -0.5700 
 48 N        5.5150    11.1625    -6.2148 N.am  1 <1>  -0.4900 
 49 H        6.1601    11.3094    -6.9774 H     1 <1>   0.3700 
 50 C        4.6002    12.1531    -5.9793 C.2   1 <1>   0.6156 
 51 O        4.5569    13.1978    -6.6146 O.2   1 <1>  -0.5700 
 52 C        3.6442    11.8665    -4.9135 C.2   1 <1>  -0.1356 
 53 H        2.8513    12.5811    -4.7356 H     1 <1>   0.1500 
 54 C        3.7777    10.7440    -4.2089 C.2   1 <1>  -0.0410 
 55 H        3.0447    10.5234    -3.4386 H     1 <1>   0.1500 
@<TRIPOS>BOND
  1   1   2  ar  
  2   1   9  ar  
  3   1  11  1   
  4   2   3  ar  
  5   2  22  1   
  6   3   4  1   
  7   3   5  ar  
  8   5   6  1   
  9   5   7  ar  
 10   7   8  1   
 11   7   9  ar  
 12   9  10  1   
 13  11  12  2   
 14  12  13  1   
 15  12  22  1   
 16  13  14  1   
 17  13  15  1   
 18  13  16  1   
 19  16  17  1   
 20  16  20  1   
 21  16  21  1   
 22  17  18  1   
 23  17  19  1   
 24  17  24  1   
 25  22  23  1   
 26  24  25  am  
 27  24  26  2   
 28  25  27  1   
 29  25  43  1   
 30  27  28  1   
 31  27  29  1   
 32  27  30  1   
 33  30  31  1   
 34  30  32  1   
 35  30  33  1   
 36  33  34  1   
 37  33  36  1   
 38  33  40  1   
 39  34  35  1   
 40  36  37  1   
 41  36  38  1   
 42  36  39  1   
 43  40  41  1   
 44  40  42  1   
 45  40  43  1   
 46  42  46  am  
 47  42  54  1   
 48  43  44  1   
 49  43  45  1   
 50  46  47  2   
 51  46  48  am  
 52  48  49  1   
 53  48  50  am  
 54  50  51  2   
 55  50  52  1   
 56  52  53  1   
 57  52  54  2   
 58  54  55  1   
@<TRIPOS>SUBSTRUCTURE
  1 <1>   0 RESIDUE 1 * * 1
# MOE 2007.09 (io_trps.svl 2007.09)
