JBB19_0012.mol
  ChemDraw04102411052D

 36 38  0  0  0  0  0  0  0  0999 V2000
    2.5867   -0.7971    0.0000 N   0  0  0  0  0  0  0  0  0  0  0  0
    1.8330   -0.4616    0.0000 C   0  0  0  0  0  0  0  0  0  0  0  0
    1.9192    0.3589    0.0000 C   0  0  0  0  0  0  0  0  0  0  0  0
    2.7262    0.5305    0.0000 C   0  0  0  0  0  0  0  0  0  0  0  0
    3.1387    1.2449    0.0000 C   0  0  0  0  0  0  0  0  0  0  0  0
    3.9637    1.2449    0.0000 C   0  0  0  0  0  0  0  0  0  0  0  0
    4.3762    0.5305    0.0000 C   0  0  0  0  0  0  0  0  0  0  0  0
    3.9637   -0.1840    0.0000 C   0  0  0  0  0  0  0  0  0  0  0  0
    3.1387   -0.1840    0.0000 C   0  0  0  0  0  0  0  0  0  0  0  0
    1.1185   -0.8741    0.0000 C   0  0  0  0  0  0  0  0  0  0  0  0
    1.1185   -1.6991    0.0000 O   0  0  0  0  0  0  0  0  0  0  0  0
    0.4040   -0.4616    0.0000 N   0  0  0  0  0  0  0  0  0  0  0  0
    4.3762    1.9594    0.0000 O   0  0  0  0  0  0  0  0  0  0  0  0
    5.2012    1.9594    0.0000 C   0  0  0  0  0  0  0  0  0  0  0  0
    6.0262    1.9594    0.0000 F   0  0  0  0  0  0  0  0  0  0  0  0
    5.6137    1.2449    0.0000 F   0  0  0  0  0  0  0  0  0  0  0  0
    5.6137    2.6739    0.0000 F   0  0  0  0  0  0  0  0  0  0  0  0
    2.7582   -1.6041    0.0000 C   0  0  0  0  0  0  0  0  0  0  0  0
    3.5428   -1.8590    0.0000 C   0  0  0  0  0  0  0  0  0  0  0  0
    4.1840   -1.3398    0.0000 C   0  0  0  0  0  0  0  0  0  0  0  0
    3.6719   -2.6739    0.0000 C   0  0  0  0  0  0  0  0  0  0  0  0
   -0.3104   -0.8741    0.0000 C   0  0  0  0  0  0  0  0  0  0  0  0
   -1.0249   -0.4616    0.0000 C   0  0  0  0  0  0  0  0  0  0  0  0
   -1.7394   -0.8741    0.0000 C   0  0  0  0  0  0  0  0  0  0  0  0
   -3.1683   -0.8741    0.0000 C   0  0  0  0  0  0  0  0  0  0  0  0
   -3.1683   -1.6991    0.0000 O   0  0  0  0  0  0  0  0  0  0  0  0
   -2.4538   -0.4616    0.0000 N   0  0  0  0  0  0  0  0  0  0  0  0
   -3.8828    0.3634    0.0000 C   0  0  0  0  0  0  0  0  0  0  0  0
   -4.5973    0.7759    0.0000 N   0  0  0  0  0  0  0  0  0  0  0  0
   -5.3117    0.3634    0.0000 C   0  0  0  0  0  0  0  0  0  0  0  0
   -5.3117   -0.4616    0.0000 C   0  0  0  0  0  0  0  0  0  0  0  0
   -4.5973   -0.8741    0.0000 C   0  0  0  0  0  0  0  0  0  0  0  0
   -3.8828   -0.4616    0.0000 N   0  0  0  0  0  0  0  0  0  0  0  0
   -6.0262    0.7759    0.0000 O   0  0  0  0  0  0  0  0  0  0  0  0
   -3.1683    0.7759    0.0000 O   0  0  0  0  0  0  0  0  0  0  0  0
   -6.0262   -0.8741    0.0000 F   0  0  0  0  0  0  0  0  0  0  0  0
  1  2  1  0      
  2  3  2  0      
  3  4  1  0      
  4  5  1  0      
  5  6  2  0      
  6  7  1  0      
  7  8  2  0      
  8  9  1  0      
  1  9  1  0      
  4  9  2  0      
 10 11  2  0      
 10 12  1  0      
  2 10  1  0      
 14 15  1  0      
 14 16  1  0      
 14 17  1  0      
 13 14  1  0      
  6 13  1  0      
 18 19  1  0      
 19 20  1  0      
 21 19  1  0      
  1 18  1  0      
 22 23  1  0      
 23 24  1  0      
 25 26  2  0      
 25 27  1  0      
 28 29  1  0      
 29 30  1  0      
 30 31  1  0      
 31 32  2  0      
 32 33  1  0      
 28 33  1  0      
 25 33  1  0      
 30 34  2  0      
 28 35  2  0      
 31 36  1  0      
 24 27  1  0      
 12 22  1  0      
M  END
