JBB1_0006.mol
  ChemDraw02202411152D

 29 32  0  0  0  0  0  0  0  0999 V2000
    0.1622   -0.9647    0.0000 N   0  0  0  0  0  0  0  0  0  0  0  0
    0.6452   -0.2999    0.0000 C   0  0  0  0  0  0  0  0  0  0  0  0
    0.1622    0.3648    0.0000 N   0  0  0  0  0  0  0  0  0  0  0  0
   -0.6193    0.1109    0.0000 C   0  0  0  0  0  0  0  0  0  0  0  0
   -1.3309    0.5218    0.0000 C   0  0  0  0  0  0  0  0  0  0  0  0
   -2.0424    0.1109    0.0000 C   0  0  0  0  0  0  0  0  0  0  0  0
   -2.0424   -0.7108    0.0000 C   0  0  0  0  0  0  0  0  0  0  0  0
   -1.3309   -1.1216    0.0000 C   0  0  0  0  0  0  0  0  0  0  0  0
   -0.6193   -0.7108    0.0000 C   0  0  0  0  0  0  0  0  0  0  0  0
    1.4668   -0.2999    0.0000 S   0  0  0  0  0  0  0  0  0  0  0  0
    1.8777    0.4117    0.0000 C   0  0  0  0  0  0  0  0  0  0  0  0
    2.6993    0.4117    0.0000 C   0  0  0  0  0  0  0  0  0  0  0  0
    3.1102   -0.2999    0.0000 C   0  0  0  0  0  0  0  0  0  0  0  0
    3.9318   -0.2999    0.0000 C   0  0  0  0  0  0  0  0  0  0  0  0
    4.3427    0.4117    0.0000 C   0  0  0  0  0  0  0  0  0  0  0  0
    3.9318    1.1233    0.0000 C   0  0  0  0  0  0  0  0  0  0  0  0
    3.1102    1.1233    0.0000 C   0  0  0  0  0  0  0  0  0  0  0  0
    5.1677    0.4117    0.0000 C   0  0  0  0  0  0  0  0  0  0  0  0
    5.5080   -0.3398    0.0000 O   0  0  0  0  0  0  0  0  0  0  0  0
    5.6148    1.1050    0.0000 O   0  0  0  0  0  0  0  0  0  0  0  0
   -2.7569    0.5234    0.0000 F   0  0  0  0  0  0  0  0  0  0  0  0
   -2.7569   -1.1233    0.0000 O   0  0  0  0  0  0  0  0  0  0  0  0
   -3.4714   -0.7108    0.0000 C   0  0  0  0  0  0  0  0  0  0  0  0
   -3.4714    0.1142    0.0000 C   0  0  0  0  0  0  0  0  0  0  0  0
   -4.1859    0.5267    0.0000 C   0  0  0  0  0  0  0  0  0  0  0  0
   -4.9003    0.1142    0.0000 C   0  0  0  0  0  0  0  0  0  0  0  0
   -4.9003   -0.7108    0.0000 C   0  0  0  0  0  0  0  0  0  0  0  0
   -4.1859   -1.1233    0.0000 C   0  0  0  0  0  0  0  0  0  0  0  0
   -5.6148    0.5267    0.0000 F   0  0  0  0  0  0  0  0  0  0  0  0
  1  2  1  0      
  2  3  2  0      
  3  4  1  0      
  4  5  1  0      
  5  6  2  0      
  6  7  1  0      
  7  8  2  0      
  8  9  1  0      
  1  9  1  0      
  4  9  2  0      
  2 10  1  0      
 10 11  1  0      
 11 12  1  0      
 13 14  1  0      
 15 16  1  0      
 17 12  1  0      
 15 18  1  0      
 17 16  2  0      
 12 13  2  0      
 15 14  2  0      
 18 19  2  0      
 18 20  1  0      
  6 21  1  0      
  7 22  1  0      
 22 23  1  0      
 23 24  2  0      
 24 25  1  0      
 25 26  2  0      
 26 27  1  0      
 27 28  2  0      
 28 23  1  0      
 26 29  1  0      
M  END
