JBB1_0004.mol
  ChemDraw02202410342D

 32 36  0  0  0  0  0  0  0  0999 V2000
   -1.1371    0.2300    0.0000 N   0  0  0  0  0  0  0  0  0  0  0  0
   -1.8516   -0.1825    0.0000 C   0  0  0  0  0  0  0  0  0  0  0  0
   -2.5661    0.2300    0.0000 C   0  0  0  0  0  0  0  0  0  0  0  0
   -3.2806   -0.1825    0.0000 C   0  0  0  0  0  0  0  0  0  0  0  0
   -2.5661    1.0550    0.0000 O   0  0  0  0  0  0  0  0  0  0  0  0
   -3.9950    0.2300    0.0000 C   0  0  0  0  0  0  0  0  0  0  0  0
   -3.9950    1.0550    0.0000 C   0  0  0  0  0  0  0  0  0  0  0  0
   -4.7095    1.4675    0.0000 C   0  0  0  0  0  0  0  0  0  0  0  0
   -5.4240    1.0550    0.0000 C   0  0  0  0  0  0  0  0  0  0  0  0
   -5.4240    0.2300    0.0000 C   0  0  0  0  0  0  0  0  0  0  0  0
   -4.7095   -0.1825    0.0000 C   0  0  0  0  0  0  0  0  0  0  0  0
   -6.1384   -0.1825    0.0000 C   0  0  0  0  0  0  0  0  0  0  0  0
   -4.4752   -0.9579    0.0000 C   0  0  0  0  0  0  0  0  0  0  0  0
   -5.1444   -0.2840    0.0000 C   0  0  0  0  0  0  0  0  0  0  0  0
   -5.1220    0.7530    0.0000 C   0  0  0  0  0  0  0  0  0  0  0  0
   -1.8516   -1.0075    0.0000 O   0  0  0  0  0  0  0  0  0  0  0  0
   -0.2918   -1.0550    0.0000 C   0  0  0  0  0  0  0  0  0  0  0  0
    0.4227   -1.4675    0.0000 C   0  0  0  0  0  0  0  0  0  0  0  0
    1.1371   -1.0550    0.0000 C   0  0  0  0  0  0  0  0  0  0  0  0
    1.1371   -0.2300    0.0000 C   0  0  0  0  0  0  0  0  0  0  0  0
    0.4227    0.1825    0.0000 C   0  0  0  0  0  0  0  0  0  0  0  0
   -0.2918   -0.2300    0.0000 C   0  0  0  0  0  0  0  0  0  0  0  0
    1.8516    0.1825    0.0000 O   0  0  0  0  0  0  0  0  0  0  0  0
    2.5661   -0.2300    0.0000 C   0  0  0  0  0  0  0  0  0  0  0  0
    3.2806    0.1825    0.0000 C   0  0  0  0  0  0  0  0  0  0  0  0
    3.9950   -0.2300    0.0000 C   0  0  0  0  0  0  0  0  0  0  0  0
    4.7095    0.1825    0.0000 N   0  0  0  0  0  0  0  0  0  0  0  0
    5.4240   -0.2300    0.0000 C   0  0  0  0  0  0  0  0  0  0  0  0
    6.1384    0.1825    0.0000 C   0  0  0  0  0  0  0  0  0  0  0  0
    6.1384    1.0075    0.0000 O   0  0  0  0  0  0  0  0  0  0  0  0
    5.4240    1.4200    0.0000 C   0  0  0  0  0  0  0  0  0  0  0  0
    4.7095    1.0075    0.0000 C   0  0  0  0  0  0  0  0  0  0  0  0
  1  2  1  0      
  2  3  1  0      
  3  4  1  0      
  3  5  2  0      
  4  6  1  0      
  6  7  1  0      
  7  8  1  0      
  8  9  1  0      
  9 10  1  0      
  6 11  1  0      
 11 10  1  0      
 10 12  1  0      
  6 13  1  0      
 12 14  1  0      
 14 13  1  0      
  8 15  1  0      
 14 15  1  0      
  2 16  2  0      
 17 18  2  0      
 18 19  1  0      
 19 20  2  0      
 20 21  1  0      
 21 22  2  0      
 22 17  1  0      
 20 23  1  0      
 22  1  1  0      
 23 24  1  0      
 24 25  1  0      
 25 26  1  0      
 26 27  1  0      
 27 28  1  0      
 28 29  1  0      
 29 30  1  0      
 30 31  1  0      
 31 32  1  0      
 32 27  1  0      
M  END
