JBB19_0011.mol
  ChemDraw04102411022D

 35 37  0  0  0  0  0  0  0  0999 V2000
    3.0559   -0.7956    0.0000 N   0  0  0  0  0  0  0  0  0  0  0  0
    2.3022   -0.4601    0.0000 C   0  0  0  0  0  0  0  0  0  0  0  0
    2.3885    0.3604    0.0000 C   0  0  0  0  0  0  0  0  0  0  0  0
    3.1954    0.5319    0.0000 C   0  0  0  0  0  0  0  0  0  0  0  0
    3.6079    1.2464    0.0000 C   0  0  0  0  0  0  0  0  0  0  0  0
    4.4329    1.2464    0.0000 C   0  0  0  0  0  0  0  0  0  0  0  0
    4.8454    0.5319    0.0000 C   0  0  0  0  0  0  0  0  0  0  0  0
    4.4329   -0.1826    0.0000 C   0  0  0  0  0  0  0  0  0  0  0  0
    3.6079   -0.1826    0.0000 C   0  0  0  0  0  0  0  0  0  0  0  0
    1.5877   -0.8726    0.0000 C   0  0  0  0  0  0  0  0  0  0  0  0
    1.5877   -1.6976    0.0000 O   0  0  0  0  0  0  0  0  0  0  0  0
    0.8733   -0.4601    0.0000 N   0  0  0  0  0  0  0  0  0  0  0  0
    3.2274   -1.6026    0.0000 C   0  0  0  0  0  0  0  0  0  0  0  0
    4.0120   -1.8576    0.0000 C   0  0  0  0  0  0  0  0  0  0  0  0
    4.6532   -1.3384    0.0000 C   0  0  0  0  0  0  0  0  0  0  0  0
    4.1411   -2.6724    0.0000 C   0  0  0  0  0  0  0  0  0  0  0  0
    0.1588   -0.8726    0.0000 C   0  0  0  0  0  0  0  0  0  0  0  0
   -0.5557   -0.4601    0.0000 C   0  0  0  0  0  0  0  0  0  0  0  0
   -1.2701   -0.8726    0.0000 C   0  0  0  0  0  0  0  0  0  0  0  0
   -2.6991   -0.8726    0.0000 C   0  0  0  0  0  0  0  0  0  0  0  0
   -2.6991   -1.6976    0.0000 O   0  0  0  0  0  0  0  0  0  0  0  0
   -1.9846   -0.4601    0.0000 N   0  0  0  0  0  0  0  0  0  0  0  0
   -3.4136    0.3649    0.0000 C   0  0  0  0  0  0  0  0  0  0  0  0
   -4.1280    0.7774    0.0000 N   0  0  0  0  0  0  0  0  0  0  0  0
   -4.8425    0.3649    0.0000 C   0  0  0  0  0  0  0  0  0  0  0  0
   -4.8425   -0.4601    0.0000 C   0  0  0  0  0  0  0  0  0  0  0  0
   -4.1280   -0.8726    0.0000 C   0  0  0  0  0  0  0  0  0  0  0  0
   -3.4136   -0.4601    0.0000 N   0  0  0  0  0  0  0  0  0  0  0  0
   -5.5570    0.7774    0.0000 O   0  0  0  0  0  0  0  0  0  0  0  0
   -2.6991    0.7774    0.0000 O   0  0  0  0  0  0  0  0  0  0  0  0
   -5.5570   -0.8726    0.0000 F   0  0  0  0  0  0  0  0  0  0  0  0
    4.8454    1.9609    0.0000 C   0  0  0  0  0  0  0  0  0  0  0  0
    5.5570    1.5500    0.0000 F   0  0  0  0  0  0  0  0  0  0  0  0
    5.2562    2.6724    0.0000 F   0  0  0  0  0  0  0  0  0  0  0  0
    4.1339    2.3717    0.0000 F   0  0  0  0  0  0  0  0  0  0  0  0
 32 33  1  0      
 32 34  1  0      
 32 35  1  0      
  6 32  1  0      
  1  2  1  0      
  2  3  2  0      
  3  4  1  0      
  4  5  1  0      
  5  6  2  0      
  6  7  1  0      
  7  8  2  0      
  8  9  1  0      
  1  9  1  0      
  4  9  2  0      
 10 11  2  0      
 10 12  1  0      
  2 10  1  0      
 13 14  1  0      
 14 15  1  0      
 16 14  1  0      
  1 13  1  0      
 17 18  1  0      
 18 19  1  0      
 20 21  2  0      
 20 22  1  0      
 23 24  1  0      
 24 25  1  0      
 25 26  1  0      
 26 27  2  0      
 27 28  1  0      
 23 28  1  0      
 20 28  1  0      
 25 29  2  0      
 23 30  2  0      
 26 31  1  0      
 19 22  1  0      
 12 17  1  0      
M  STY  1   1 SUP
M  SLB  1   1   1
M  SAL   1  4  32  33  34  35
M  SBL   1  1   4
M  SMT   1 CF3
M  SBV   1   4   -0.4125   -0.7145
M  END
