JBB20_0040.mol
  ChemDraw04102412512D

 33 36  0  0  0  0  0  0  0  0999 V2000
   -2.2982    2.1450    0.0000 N   0  3  0  0  0  0  0  0  0  0  0  0
   -3.0098    1.7342    0.0000 C   0  0  0  0  0  0  0  0  0  0  0  0
   -3.7213    2.1450    0.0000 C   0  0  0  0  0  0  0  0  0  0  0  0
   -4.4329    1.7342    0.0000 C   0  0  0  0  0  0  0  0  0  0  0  0
   -4.4329    0.9126    0.0000 C   0  0  0  0  0  0  0  0  0  0  0  0
   -3.7213    0.5018    0.0000 C   0  0  0  0  0  0  0  0  0  0  0  0
   -3.0098    0.9126    0.0000 C   0  0  0  0  0  0  0  0  0  0  0  0
   -5.1444    2.1450    0.0000 C   0  0  0  0  0  0  0  0  0  0  0  0
   -1.5838    1.7325    0.0000 O   0  0  0  0  0  0  0  0  0  0  0  0
   -2.2982    2.9700    0.0000 O   0  5  0  0  0  0  0  0  0  0  0  0
   -5.1473    0.5001    0.0000 C   0  0  0  0  0  0  0  0  0  0  0  0
   -2.2953    0.5001    0.0000 C   0  0  0  0  0  0  0  0  0  0  0  0
   -2.2091   -0.3204    0.0000 C   0  0  0  0  0  0  0  0  0  0  0  0
   -1.4021   -0.4919    0.0000 C   0  0  0  0  0  0  0  0  0  0  0  0
   -0.9896    0.2225    0.0000 C   0  0  0  0  0  0  0  0  0  0  0  0
   -1.5416    0.8356    0.0000 O   0  0  0  0  0  0  0  0  0  0  0  0
   -0.1691    0.3088    0.0000 C   0  0  0  0  0  0  0  0  0  0  0  0
    0.3158   -0.3587    0.0000 C   0  0  0  0  0  0  0  0  0  0  0  0
    0.0609   -1.1433    0.0000 C   0  0  0  0  0  0  0  0  0  0  0  0
    0.7283   -1.6282    0.0000 N   0  0  0  0  0  0  0  0  0  0  0  0
    1.3957   -1.1433    0.0000 N   0  0  0  0  0  0  0  0  0  0  0  0
    1.1408   -0.3587    0.0000 C   0  0  0  0  0  0  0  0  0  0  0  0
   -0.7238   -1.3982    0.0000 C   0  0  0  0  0  0  0  0  0  0  0  0
    1.6257    0.3088    0.0000 O   0  0  0  0  0  0  0  0  0  0  0  0
    2.1804   -1.3982    0.0000 C   0  0  0  0  0  0  0  0  0  0  0  0
    2.3519   -2.2052    0.0000 C   0  0  0  0  0  0  0  0  0  0  0  0
    3.1365   -2.4601    0.0000 C   0  0  0  0  0  0  0  0  0  0  0  0
    3.7496   -1.9081    0.0000 C   0  0  0  0  0  0  0  0  0  0  0  0
    3.5781   -1.1011    0.0000 C   0  0  0  0  0  0  0  0  0  0  0  0
    2.7935   -0.8462    0.0000 C   0  0  0  0  0  0  0  0  0  0  0  0
    4.5342   -2.1630    0.0000 C   0  0  0  0  0  0  0  0  0  0  0  0
    5.1473   -1.6110    0.0000 O   0  0  0  0  0  0  0  0  0  0  0  0
    4.7058   -2.9700    0.0000 O   0  0  0  0  0  0  0  0  0  0  0  0
  1  2  1  0      
  2  3  2  0      
  3  4  1  0      
  5  6  1  0      
  6  7  2  0      
  7  2  1  0      
  4  8  1  0      
  1  9  2  0      
  1 10  1  0      
  4  5  2  0      
  5 11  1  0      
  7 12  1  0      
 12 13  2  0      
 13 14  1  0      
 14 15  2  0      
 15 16  1  0      
 16 12  1  0      
 15 17  1  0      
 17 18  2  0      
 18 19  1  0      
 19 20  2  0      
 20 21  1  0      
 21 22  1  0      
 22 18  1  0      
 19 23  1  0      
 22 24  2  0      
 21 25  1  0      
 25 26  2  0      
 26 27  1  0      
 27 28  2  0      
 28 29  1  0      
 29 30  2  0      
 30 25  1  0      
 28 31  1  0      
 31 32  1  0      
 31 33  2  0      
M  CHG  2   1   1  10  -1
M  END
