JBB20_0033.mol
  ChemDraw04102412282D

 37 41  0  0  0  0  0  0  0  0999 V2000
   -3.2122   -0.6145    0.0000 N   0  0  0  0  0  0  0  0  0  0  0  0
   -2.5006   -0.2037    0.0000 C   0  0  0  0  0  0  0  0  0  0  0  0
   -1.7891   -0.6145    0.0000 O   0  0  0  0  0  0  0  0  0  0  0  0
   -2.5006    0.6179    0.0000 N   0  0  0  0  0  0  0  0  0  0  0  0
   -3.2122    1.0287    0.0000 C   0  0  0  0  0  0  0  0  0  0  0  0
   -3.2122    1.8503    0.0000 O   0  0  0  0  0  0  0  0  0  0  0  0
   -3.9237    0.6179    0.0000 C   0  0  0  0  0  0  0  0  0  0  0  0
   -3.9237   -0.2037    0.0000 C   0  0  0  0  0  0  0  0  0  0  0  0
   -1.7862    1.0304    0.0000 C   0  0  0  0  0  0  0  0  0  0  0  0
   -1.0717    0.6179    0.0000 C   0  0  0  0  0  0  0  0  0  0  0  0
   -0.3572    1.0304    0.0000 C   0  0  0  0  0  0  0  0  0  0  0  0
    0.3572    0.6179    0.0000 C   0  0  0  0  0  0  0  0  0  0  0  0
    1.0717    1.0304    0.0000 C   0  0  0  0  0  0  0  0  0  0  0  0
    1.7862    0.6179    0.0000 O   0  0  0  0  0  0  0  0  0  0  0  0
   -3.2122   -1.4395    0.0000 C   0  0  0  0  0  0  0  0  0  0  0  0
    2.5006    1.0304    0.0000 C   0  0  0  0  0  0  0  0  0  0  0  0
    3.2151    0.6179    0.0000 C   0  0  0  0  0  0  0  0  0  0  0  0
    3.9296    1.0304    0.0000 C   0  0  0  0  0  0  0  0  0  0  0  0
    3.9296    1.8554    0.0000 C   0  0  0  0  0  0  0  0  0  0  0  0
    3.2151    2.2679    0.0000 C   0  0  0  0  0  0  0  0  0  0  0  0
    2.5006    1.8554    0.0000 C   0  0  0  0  0  0  0  0  0  0  0  0
   -3.9267   -1.8520    0.0000 C   0  0  0  0  0  0  0  0  0  0  0  0
   -3.9267   -2.6770    0.0000 C   0  0  0  0  0  0  0  0  0  0  0  0
   -3.2122   -3.0895    0.0000 C   0  0  0  0  0  0  0  0  0  0  0  0
   -2.4977   -2.6770    0.0000 C   0  0  0  0  0  0  0  0  0  0  0  0
   -2.4977   -1.8520    0.0000 C   0  0  0  0  0  0  0  0  0  0  0  0
   -1.7832   -3.0895    0.0000 C   0  0  0  0  0  0  0  0  0  0  0  0
   -1.0688   -2.6770    0.0000 C   0  0  0  0  0  0  0  0  0  0  0  0
   -1.0688   -1.8520    0.0000 C   0  0  0  0  0  0  0  0  0  0  0  0
   -1.7832   -1.4395    0.0000 C   0  0  0  0  0  0  0  0  0  0  0  0
   -4.6411   -1.4395    0.0000 C   0  0  0  0  0  0  0  0  0  0  0  0
   -5.3556   -1.8520    0.0000 C   0  0  0  0  0  0  0  0  0  0  0  0
   -5.3556   -2.6770    0.0000 C   0  0  0  0  0  0  0  0  0  0  0  0
   -4.6411   -3.0895    0.0000 C   0  0  0  0  0  0  0  0  0  0  0  0
    4.6441    2.2679    0.0000 C   0  0  0  0  0  0  0  0  0  0  0  0
    4.6441    3.0895    0.0000 O   0  0  0  0  0  0  0  0  0  0  0  0
    5.3556    1.8571    0.0000 O   0  0  0  0  0  0  0  0  0  0  0  0
 35 36  2  0      
 35 37  1  0      
 19 35  1  0      
  1  2  1  0      
  2  3  2  0      
  2  4  1  0      
  4  5  1  0      
  5  6  2  0      
  5  7  1  0      
  7  8  2  0      
  1  8  1  0      
  4  9  1  0      
  9 10  1  0      
 10 11  1  0      
 11 12  1  0      
 12 13  1  0      
 13 14  1  0      
  1 15  1  0      
 14 16  1  0      
 16 17  2  0      
 17 18  1  0      
 18 19  2  0      
 19 20  1  0      
 20 21  2  0      
 21 16  1  0      
 15 22  2  0      
 22 23  1  0      
 23 24  2  0      
 24 25  1  0      
 25 26  2  0      
 26 15  1  0      
 25 27  1  0      
 27 28  2  0      
 28 29  1  0      
 29 30  2  0      
 30 26  1  0      
 22 31  1  0      
 31 32  2  0      
 32 33  1  0      
 33 34  2  0      
 34 23  1  0      
M  STY  1   1 SUP
M  SLB  1   1   1
M  SAL   1  3  35  36  37
M  SBL   1  1   3
M  SMT   1 COOH
M  SBV   1   3   -0.7145   -0.4125
M  END
