JBB39_0001.mol
  ChemDraw04112412202D

 49 51  0  0  1  0  0  0  0  0999 V2000
   -2.2092   -0.0709    0.0000 C   0  0  0  0  0  0  0  0  0  0  0  0
   -1.4976   -0.4817    0.0000 C   0  0  0  0  0  0  0  0  0  0  0  0
   -0.7861   -0.0709    0.0000 N   0  0  0  0  0  0  0  0  0  0  0  0
   -1.4976   -1.3033    0.0000 O   0  0  0  0  0  0  0  0  0  0  0  0
   -0.0745   -0.4817    0.0000 C   0  0  0  0  0  0  0  0  0  0  0  0
   -0.0745   -1.3033    0.0000 C   0  0  0  0  0  0  0  0  0  0  0  0
    0.6370   -0.0709    0.0000 C   0  0  0  0  0  0  0  0  0  0  0  0
    0.6370    0.7507    0.0000 O   0  0  0  0  0  0  0  0  0  0  0  0
    1.3485   -0.4817    0.0000 N   0  0  0  0  0  0  0  0  0  0  0  0
   -2.9207   -0.4817    0.0000 N   0  0  0  0  0  0  0  0  0  0  0  0
   -3.6323   -0.0709    0.0000 C   0  0  0  0  0  0  0  0  0  0  0  0
   -1.4976    1.1615    0.0000 C   0  0  0  0  0  0  0  0  0  0  0  0
   -2.2092    0.7507    0.0000 C   0  0  0  0  0  0  0  0  0  0  0  0
   -4.3438   -0.4817    0.0000 C   0  0  0  0  0  0  0  0  0  0  0  0
   -3.6323    0.7507    0.0000 O   0  0  0  0  0  0  0  0  0  0  0  0
   -5.0553   -0.0709    0.0000 N   0  0  0  0  0  0  0  0  0  0  0  0
   -5.7669   -0.4817    0.0000 C   0  0  0  0  0  0  0  0  0  0  0  0
   -2.9207    1.1615    0.0000 C   0  0  0  0  0  0  0  0  0  0  0  0
   -4.3438   -1.3033    0.0000 C   0  0  0  0  0  0  0  0  0  0  0  0
   -6.4784   -0.0709    0.0000 C   0  0  0  0  0  0  0  0  0  0  0  0
   -5.7669   -1.3033    0.0000 O   0  0  0  0  0  0  0  0  0  0  0  0
   -6.5643    0.7462    0.0000 C   0  0  0  0  0  0  0  0  0  0  0  0
   -7.3680    0.9171    0.0000 C   0  0  0  0  0  0  0  0  0  0  0  0
   -7.7788    0.2055    0.0000 O   0  0  0  0  0  0  0  0  0  0  0  0
   -7.2290   -0.4051    0.0000 N   0  0  0  0  0  0  0  0  0  0  0  0
   -7.7022    1.6676    0.0000 C   0  0  0  0  0  0  0  0  0  0  0  0
    0.6399   -1.7158    0.0000 C   0  0  0  0  0  0  0  0  0  0  0  0
    0.6399   -2.5408    0.0000 C   0  0  0  0  0  0  0  0  0  0  0  0
    1.3544   -1.3033    0.0000 C   0  0  0  0  0  0  0  0  0  0  0  0
    2.0630   -0.0692    0.0000 C   0  0  0  0  0  0  0  0  0  0  0  0
    2.7775   -0.4817    0.0000 C   0  0  0  0  0  0  0  0  0  0  0  0
    3.4920   -0.0692    0.0000 C   0  0  0  0  0  0  0  0  0  0  0  0
    4.2064   -0.4817    0.0000 C   0  0  0  0  0  0  0  0  0  0  0  0
    4.9209   -0.0692    0.0000 O   0  0  0  0  0  0  0  0  0  0  0  0
    4.2064   -1.3067    0.0000 O   0  0  0  0  0  0  0  0  0  0  0  0
    5.6354   -0.4817    0.0000 C   0  0  0  0  0  0  0  0  0  0  0  0
    6.3498   -0.0692    0.0000 C   0  0  0  0  0  0  0  0  0  0  0  0
    2.0630    0.7558    0.0000 C   0  0  0  0  0  0  0  0  0  0  0  0
    2.7775    1.1683    0.0000 C   0  0  0  0  0  0  0  0  0  0  0  0
    3.5312    0.8327    0.0000 C   0  0  0  0  0  0  0  0  0  0  0  0
    4.0832    1.4458    0.0000 C   0  0  0  0  0  0  0  0  0  0  0  0
    3.6707    2.1603    0.0000 N   0  0  0  0  0  0  0  0  0  0  0  0
    2.8637    1.9888    0.0000 C   0  0  0  0  0  0  0  0  0  0  0  0
    2.2506    2.5408    0.0000 O   0  0  0  0  0  0  0  0  0  0  0  0
    7.0643   -0.4817    0.0000 C   0  0  0  0  0  0  0  0  0  0  0  0
    7.7788   -0.0692    0.0000 C   0  0  0  0  0  0  0  0  0  0  0  0
    7.7788    0.7558    0.0000 C   0  0  0  0  0  0  0  0  0  0  0  0
    7.0643    1.1683    0.0000 C   0  0  0  0  0  0  0  0  0  0  0  0
    6.3498    0.7558    0.0000 C   0  0  0  0  0  0  0  0  0  0  0  0
  2  3  1  0      
  2  4  2  0      
  5  3  1  1      
  5  6  1  6      
  7  8  2  0      
 10 11  1  0      
 10  1  1  0      
  2  1  1  0      
 12 13  1  0      
 11 14  1  0      
 11 15  2  0      
 14 16  1  0      
 16 17  1  0      
  1 13  1  1      
  5  7  1  0      
  7  9  1  0      
 13 18  1  0      
 14 19  1  6      
 17 20  1  0      
 17 21  2  0      
 20 22  1  0      
 22 23  2  0      
 23 24  1  0      
 24 25  1  0      
 25 20  2  0      
 23 26  1  0      
  6 27  1  0      
 27 28  1  0      
 27 29  1  0      
  9 30  1  0      
 30 31  1  0      
 31 32  2  0      
 32 33  1  0      
 33 34  1  0      
 33 35  2  0      
 34 36  1  0      
 36 37  1  0      
 30 38  1  1      
 38 39  1  0      
 39 40  1  1      
 40 41  1  0      
 41 42  1  0      
 42 43  1  0      
 43 39  1  0      
 43 44  2  0      
 37 45  2  0      
 45 46  1  0      
 46 47  2  0      
 47 48  1  0      
 48 49  2  0      
 49 37  1  0      
M  END
