JBB38_0006.mol
  ChemDraw04112409592D

 33 36  0  0  1  0  0  0  0  0999 V2000
   -2.4321   -0.7553    0.0000 N   0  0  0  0  0  0  0  0  0  0  0  0
   -1.7227   -0.3341    0.0000 C   0  0  0  0  0  0  0  0  0  0  0  0
   -1.9041    0.4707    0.0000 C   0  0  0  0  0  0  0  0  0  0  0  0
   -2.7256    0.5469    0.0000 C   0  0  0  0  0  0  0  0  0  0  0  0
   -3.2186    1.2084    0.0000 C   0  0  0  0  0  0  0  0  0  0  0  0
   -4.0380    1.1121    0.0000 C   0  0  0  0  0  0  0  0  0  0  0  0
   -4.3643    0.3544    0.0000 C   0  0  0  0  0  0  0  0  0  0  0  0
   -3.8713   -0.3070    0.0000 C   0  0  0  0  0  0  0  0  0  0  0  0
   -3.0519   -0.2108    0.0000 C   0  0  0  0  0  0  0  0  0  0  0  0
   -0.9650   -0.6604    0.0000 C   0  0  0  0  0  0  0  0  0  0  0  0
   -0.3036   -0.1674    0.0000 N   0  0  0  0  0  0  0  0  0  0  0  0
   -0.8688   -1.4798    0.0000 O   0  0  0  0  0  0  0  0  0  0  0  0
    0.4542   -0.4937    0.0000 C   0  0  0  0  0  0  0  0  0  0  0  0
    1.1156   -0.0006    0.0000 C   0  0  0  0  0  0  0  0  0  0  0  0
    1.8733   -0.3269    0.0000 N   0  0  0  0  0  0  0  0  0  0  0  0
    1.0194    0.8187    0.0000 O   0  0  0  0  0  0  0  0  0  0  0  0
    2.5348    0.1661    0.0000 C   0  0  0  0  0  0  0  0  0  0  0  0
    0.5504   -1.3130    0.0000 C   0  0  0  0  0  0  0  0  0  0  0  0
    1.3081   -1.6394    0.0000 C   0  0  0  0  0  0  0  0  0  0  0  0
    1.4044   -2.4587    0.0000 C   0  0  0  0  0  0  0  0  0  0  0  0
    2.1621   -2.7850    0.0000 C   0  0  0  0  0  0  0  0  0  0  0  0
    2.8236   -2.2920    0.0000 C   0  0  0  0  0  0  0  0  0  0  0  0
    2.7273   -1.4726    0.0000 C   0  0  0  0  0  0  0  0  0  0  0  0
    1.9696   -1.1463    0.0000 C   0  0  0  0  0  0  0  0  0  0  0  0
    3.2925   -0.1602    0.0000 C   0  0  0  0  0  0  0  0  0  0  0  0
    3.9540    0.3328    0.0000 O   0  0  0  0  0  0  0  0  0  0  0  0
    2.4385    0.9855    0.0000 C   0  0  0  0  0  0  0  0  0  0  0  0
    3.1000    1.4785    0.0000 C   0  0  0  0  0  0  0  0  0  0  0  0
    3.8877    1.2333    0.0000 C   0  0  0  0  0  0  0  0  0  0  0  0
    4.3643    1.9068    0.0000 C   0  0  0  0  0  0  0  0  0  0  0  0
    3.8877    2.5681    0.0000 N   0  0  0  0  0  0  0  0  0  0  0  0
    3.1000    2.3035    0.0000 C   0  0  0  0  0  0  0  0  0  0  0  0
    2.4302    2.7850    0.0000 O   0  0  0  0  0  0  0  0  0  0  0  0
  1  2  1  0      
  2  3  2  0      
  3  4  1  0      
  4  5  1  0      
  5  6  2  0      
  6  7  1  0      
  7  8  2  0      
  8  9  1  0      
  1  9  1  0      
  4  9  2  0      
  2 10  1  0      
 10 11  1  0      
 10 12  2  0      
 11 13  1  0      
 13 14  1  0      
 14 15  1  0      
 14 16  2  0      
 15 17  1  0      
 13 18  1  6      
 18 19  1  0      
 19 20  2  0      
 20 21  1  0      
 21 22  2  0      
 22 23  1  0      
 23 24  2  0      
 24 19  1  0      
 17 25  1  0      
 25 26  2  0      
 17 27  1  1      
 27 28  1  0      
 28 29  1  1      
 29 30  1  0      
 30 31  1  0      
 31 32  1  0      
 32 28  1  0      
 32 33  2  0      
M  END
