JBB39_0011.mol
  ChemDraw04112415172D

 35 36  0  0  1  0  0  0  0  0999 V2000
   -5.6923   -1.9615    0.0000 C   0  0  0  0  0  0  0  0  0  0  0  0
   -4.9808   -1.5507    0.0000 C   0  0  0  0  0  0  0  0  0  0  0  0
   -4.2693   -1.9615    0.0000 N   0  0  0  0  0  0  0  0  0  0  0  0
   -4.9808   -0.7291    0.0000 O   0  0  0  0  0  0  0  0  0  0  0  0
   -3.5577   -1.5507    0.0000 C   0  0  0  0  0  0  0  0  0  0  0  0
   -2.8462   -1.9615    0.0000 C   0  0  0  0  0  0  0  0  0  0  0  0
   -2.1346   -1.5507    0.0000 N   0  0  0  0  0  0  0  0  0  0  0  0
   -2.8462   -2.7831    0.0000 O   0  0  0  0  0  0  0  0  0  0  0  0
   -1.4231   -1.9615    0.0000 C   0  0  0  0  0  0  0  0  0  0  0  0
   -0.7115   -1.5507    0.0000 C   0  0  0  0  0  0  0  0  0  0  0  0
    0.0000   -1.9615    0.0000 N   0  0  0  0  0  0  0  0  0  0  0  0
   -3.5577   -0.7291    0.0000 C   0  0  0  0  0  0  0  0  0  0  0  0
   -2.8462   -0.3183    0.0000 C   0  0  0  0  0  0  0  0  0  0  0  0
   -0.7115   -0.7291    0.0000 O   0  0  0  0  0  0  0  0  0  0  0  0
    0.7115   -1.5507    0.0000 C   0  0  0  0  0  0  0  0  0  0  0  0
    1.4231   -1.9615    0.0000 C   0  0  0  0  0  0  0  0  0  0  0  0
    2.1346   -1.5507    0.0000 N   0  0  0  0  0  0  0  0  0  0  0  0
    1.4231   -2.7831    0.0000 O   0  0  0  0  0  0  0  0  0  0  0  0
    2.8462   -1.9615    0.0000 C   0  0  0  0  0  0  0  0  0  0  0  0
    3.5577   -1.5507    0.0000 C   0  0  0  0  0  0  0  0  0  0  0  0
    4.2693   -1.9615    0.0000 C   0  0  0  0  0  0  0  0  0  0  0  0
    4.9808   -1.5507    0.0000 C   0  0  0  0  0  0  0  0  0  0  0  0
    5.6923   -1.9615    0.0000 O   0  0  0  0  0  0  0  0  0  0  0  0
    4.9808   -0.7291    0.0000 O   0  0  0  0  0  0  0  0  0  0  0  0
   -1.4231   -2.7831    0.0000 C   0  0  0  0  0  0  0  0  0  0  0  0
   -0.7115   -3.1939    0.0000 N   0  0  0  0  0  0  0  0  0  0  0  0
   -3.5147    0.9810    0.0000 S   0  0  0  0  0  0  0  0  0  0  0  0
   -2.8462    0.5033    0.0000 C   0  0  0  0  0  0  0  0  0  0  0  0
   -2.1815    0.9863    0.0000 N   0  0  0  0  0  0  0  0  0  0  0  0
   -2.4454    1.7709    0.0000 C   0  0  0  0  0  0  0  0  0  0  0  0
   -3.2670    1.7644    0.0000 C   0  0  0  0  0  0  0  0  0  0  0  0
   -3.6834    2.4727    0.0000 C   0  0  0  0  0  0  0  0  0  0  0  0
   -3.2782    3.1874    0.0000 C   0  0  0  0  0  0  0  0  0  0  0  0
   -2.4566    3.1939    0.0000 C   0  0  0  0  0  0  0  0  0  0  0  0
   -2.0402    2.4857    0.0000 C   0  0  0  0  0  0  0  0  0  0  0  0
  1  2  1  0      
  2  3  1  0      
  2  4  2  0      
  3  5  1  0      
  5  6  1  0      
  6  7  1  0      
  6  8  2  0      
  7  9  1  0      
  9 10  1  0      
 10 11  1  0      
  5 12  1  1      
 12 13  1  0      
 10 14  2  0      
 11 15  1  0      
 15 16  1  0      
 16 17  1  0      
 16 18  2  0      
 17 19  1  0      
 19 20  1  0      
 20 21  2  0      
 21 22  1  0      
 22 23  1  0      
 22 24  2  0      
  9 25  1  6      
 25 26  1  0      
 27 28  1  0      
 28 29  2  0      
 29 30  1  0      
 30 31  1  0      
 27 31  1  0      
 32 33  1  0      
 33 34  2  0      
 34 35  1  0      
 35 30  2  0      
 32 31  2  0      
 13 28  1  0      
M  END
