JBB38_0017.mol
  ChemDraw04112411522D

 28 29  0  0  0  0  0  0  0  0999 V2000
    0.3602   -0.4108    0.0000 C   0  0  0  0  0  0  0  0  0  0  0  0
    1.0717   -0.8216    0.0000 C   0  0  0  0  0  0  0  0  0  0  0  0
    1.7832   -0.4108    0.0000 N   0  0  0  0  0  0  0  0  0  0  0  0
    1.0717   -1.6432    0.0000 O   0  0  0  0  0  0  0  0  0  0  0  0
    2.4948   -0.8216    0.0000 C   0  0  0  0  0  0  0  0  0  0  0  0
    2.4948   -1.6432    0.0000 C   0  0  0  0  0  0  0  0  0  0  0  0
    3.2063   -0.4108    0.0000 C   0  0  0  0  0  0  0  0  0  0  0  0
    3.2063    0.4108    0.0000 O   0  0  0  0  0  0  0  0  0  0  0  0
    3.9179   -0.8216    0.0000 C   0  0  0  0  0  0  0  0  0  0  0  0
   -0.3514   -0.8216    0.0000 N   0  0  0  0  0  0  0  0  0  0  0  0
   -1.0629   -0.4108    0.0000 C   0  0  0  0  0  0  0  0  0  0  0  0
    1.0717    0.8216    0.0000 C   0  0  0  0  0  0  0  0  0  0  0  0
    0.3602    0.4108    0.0000 C   0  0  0  0  0  0  0  0  0  0  0  0
   -1.7745   -0.8216    0.0000 O   0  0  0  0  0  0  0  0  0  0  0  0
   -1.0629    0.4108    0.0000 O   0  0  0  0  0  0  0  0  0  0  0  0
   -2.4889   -0.4091    0.0000 C   0  0  0  0  0  0  0  0  0  0  0  0
   -3.2034   -0.8216    0.0000 C   0  0  0  0  0  0  0  0  0  0  0  0
   -3.9179   -0.4091    0.0000 C   0  0  0  0  0  0  0  0  0  0  0  0
   -4.6323   -0.8216    0.0000 C   0  0  0  0  0  0  0  0  0  0  0  0
   -4.6323   -1.6466    0.0000 C   0  0  0  0  0  0  0  0  0  0  0  0
   -3.9179   -2.0591    0.0000 C   0  0  0  0  0  0  0  0  0  0  0  0
   -3.2034   -1.6466    0.0000 C   0  0  0  0  0  0  0  0  0  0  0  0
    1.7862    0.4091    0.0000 C   0  0  0  0  0  0  0  0  0  0  0  0
    2.5006    0.8216    0.0000 C   0  0  0  0  0  0  0  0  0  0  0  0
    2.5006    1.6466    0.0000 C   0  0  0  0  0  0  0  0  0  0  0  0
    1.7862    2.0591    0.0000 C   0  0  0  0  0  0  0  0  0  0  0  0
    1.0717    1.6466    0.0000 C   0  0  0  0  0  0  0  0  0  0  0  0
    4.6323   -0.4091    0.0000 F   0  0  0  0  0  0  0  0  0  0  0  0
  2  3  1  0      
  2  4  2  0      
  3  5  1  0      
  5  6  1  0      
  7  8  2  0      
 10 11  1  0      
 10  1  1  0      
  2  1  1  0      
 12 13  1  0      
 11 14  1  0      
 11 15  2  0      
  1 13  1  0      
  5  7  1  0      
  7  9  1  0      
 14 16  1  0      
 16 17  1  0      
 17 18  2  0      
 18 19  1  0      
 19 20  2  0      
 20 21  1  0      
 21 22  2  0      
 22 17  1  0      
 12 23  2  0      
 23 24  1  0      
 24 25  2  0      
 25 26  1  0      
 26 27  2  0      
 27 12  1  0      
  9 28  1  0      
M  END
