JBB38_0008.mol
  ChemDraw04112410102D

 29 30  0  0  1  0  0  0  0  0999 V2000
   -1.5762    0.4972    0.0000 O   0  0  0  0  0  0  0  0  0  0  0  0
   -0.8185    0.8236    0.0000 C   0  0  0  0  0  0  0  0  0  0  0  0
   -0.1570    0.3305    0.0000 N   0  0  0  0  0  0  0  0  0  0  0  0
   -0.7222    1.6429    0.0000 O   0  0  0  0  0  0  0  0  0  0  0  0
    0.6007    0.6568    0.0000 C   0  0  0  0  0  0  0  0  0  0  0  0
    1.2621    0.1638    0.0000 C   0  0  0  0  0  0  0  0  0  0  0  0
    2.0199    0.4901    0.0000 N   0  0  0  0  0  0  0  0  0  0  0  0
    1.1659   -0.6556    0.0000 O   0  0  0  0  0  0  0  0  0  0  0  0
    2.6813   -0.0029    0.0000 C   0  0  0  0  0  0  0  0  0  0  0  0
    0.6969    1.4762    0.0000 C   0  0  0  0  0  0  0  0  0  0  0  0
    1.4547    1.8025    0.0000 C   0  0  0  0  0  0  0  0  0  0  0  0
    2.1161    1.3095    0.0000 C   0  0  0  0  0  0  0  0  0  0  0  0
    3.4390    0.3234    0.0000 C   0  0  0  0  0  0  0  0  0  0  0  0
    2.5851   -0.8223    0.0000 C   0  0  0  0  0  0  0  0  0  0  0  0
    3.2465   -1.3154    0.0000 C   0  0  0  0  0  0  0  0  0  0  0  0
    4.0343   -1.0702    0.0000 C   0  0  0  0  0  0  0  0  0  0  0  0
    4.5108   -1.7436    0.0000 C   0  0  0  0  0  0  0  0  0  0  0  0
    4.0343   -2.4050    0.0000 N   0  0  0  0  0  0  0  0  0  0  0  0
    3.2465   -2.1403    0.0000 C   0  0  0  0  0  0  0  0  0  0  0  0
    2.5767   -2.6219    0.0000 O   0  0  0  0  0  0  0  0  0  0  0  0
   -2.2377    0.9903    0.0000 C   0  0  0  0  0  0  0  0  0  0  0  0
   -2.9954    0.6640    0.0000 C   0  0  0  0  0  0  0  0  0  0  0  0
   -3.6569    1.1570    0.0000 C   0  0  0  0  0  0  0  0  0  0  0  0
   -4.4146    0.8307    0.0000 C   0  0  0  0  0  0  0  0  0  0  0  0
   -4.5108    0.0113    0.0000 C   0  0  0  0  0  0  0  0  0  0  0  0
   -3.8494   -0.4817    0.0000 C   0  0  0  0  0  0  0  0  0  0  0  0
   -3.0917   -0.1554    0.0000 C   0  0  0  0  0  0  0  0  0  0  0  0
    1.5509    2.6219    0.0000 C   0  0  0  0  0  0  0  0  0  0  0  0
    3.5353    1.1427    0.0000 O   0  0  0  0  0  0  0  0  0  0  0  0
  1  2  1  0      
  2  3  1  0      
  2  4  2  0      
  3  5  1  0      
  5  6  1  0      
  6  7  1  0      
  6  8  2  0      
  7  9  1  0      
  5 10  1  6      
 10 11  1  0      
 12 11  1  0      
  9 13  1  0      
  9 14  1  1      
 14 15  1  0      
 15 16  1  1      
 16 17  1  0      
 17 18  1  0      
 18 19  1  0      
 19 15  1  0      
 19 20  2  0      
  1 21  1  0      
 21 22  1  0      
 22 23  2  0      
 23 24  1  0      
 24 25  2  0      
 25 26  1  0      
 26 27  2  0      
 27 22  1  0      
 11 28  1  0      
 13 29  2  0      
M  END
