JBB49_0001.mol
  ChemDraw06102410142D

 30 33  0  0  0  0  0  0  0  0999 V2000
   -0.5624    2.4045    0.0000 C   0  0  0  0  0  0  0  0  0  0  0  0
   -1.3561    2.1918    0.0000 C   0  0  0  0  0  0  0  0  0  0  0  0
   -0.3497    3.1982    0.0000 O   0  0  0  0  0  0  0  0  0  0  0  0
    0.0186    1.8235    0.0000 N   0  0  0  0  0  0  0  0  0  0  0  0
    3.1802    2.6711    0.0000 N   0  0  0  0  0  0  0  0  0  0  0  0
    3.5144    1.9205    0.0000 C   0  0  0  0  0  0  0  0  0  0  0  0
    2.9037    1.3707    0.0000 C   0  0  0  0  0  0  0  0  0  0  0  0
    2.1922    1.7815    0.0000 C   0  0  0  0  0  0  0  0  0  0  0  0
    1.4107    1.5276    0.0000 C   0  0  0  0  0  0  0  0  0  0  0  0
    0.8001    2.0774    0.0000 C   0  0  0  0  0  0  0  0  0  0  0  0
    0.9709    2.8811    0.0000 C   0  0  0  0  0  0  0  0  0  0  0  0
    1.7524    3.1350    0.0000 C   0  0  0  0  0  0  0  0  0  0  0  0
    2.3630    2.5852    0.0000 C   0  0  0  0  0  0  0  0  0  0  0  0
    2.9896    0.5535    0.0000 N   0  0  0  0  0  0  0  0  0  0  0  0
    2.3249    0.0705    0.0000 N   0  0  0  0  0  0  0  0  0  0  0  0
    2.4108   -0.7467    0.0000 C   0  0  0  0  0  0  0  0  0  0  0  0
    3.1614   -1.0809    0.0000 C   0  0  0  0  0  0  0  0  0  0  0  0
    2.5826   -2.3810    0.0000 C   0  0  0  0  0  0  0  0  0  0  0  0
    1.7460   -1.2296    0.0000 C   0  0  0  0  0  0  0  0  0  0  0  0
    3.2473   -1.8980    0.0000 C   0  0  0  0  0  0  0  0  0  0  0  0
    1.8319   -2.0468    0.0000 C   0  0  0  0  0  0  0  0  0  0  0  0
    2.6684   -3.1982    0.0000 C   0  0  0  0  0  0  0  0  0  0  0  0
    4.3181    1.7496    0.0000 O   0  0  0  0  0  0  0  0  0  0  0  0
   -4.3181    2.1348    0.0000 O   0  0  0  0  0  0  0  0  0  0  0  0
   -3.7371    1.5538    0.0000 C   0  0  0  0  0  0  0  0  0  0  0  0
   -2.9434    1.7665    0.0000 C   0  0  0  0  0  0  0  0  0  0  0  0
   -2.7307    2.5602    0.0000 N   0  0  0  0  0  0  0  0  0  0  0  0
   -3.3117    3.1412    0.0000 C   0  0  0  0  0  0  0  0  0  0  0  0
   -4.1054    2.9285    0.0000 C   0  0  0  0  0  0  0  0  0  0  0  0
   -1.9371    2.7728    0.0000 C   0  0  0  0  0  0  0  0  0  0  0  0
  1  2  1  0      
  1  3  2  0      
  1  4  1  0      
  5  6  1  0      
  6  7  1  0      
  7  8  1  0      
  8  9  1  0      
  9 10  2  0      
 10 11  1  0      
 11 12  2  0      
 12 13  1  0      
  5 13  1  0      
  8 13  2  0      
 14 15  1  0      
 16 17  1  0      
 16 19  2  0      
 17 20  2  0      
 18 20  1  0      
 18 21  2  0      
 19 21  1  0      
 18 22  1  0      
 15 16  1  0      
  7 14  2  0      
  6 23  2  0      
  4 10  1  0      
 24 25  1  0      
 25 26  1  0      
 26 27  1  0      
 27 28  1  0      
 28 29  1  0      
 24 29  1  0      
 27 30  1  0      
 30  2  1  0      
M  END
