JBB5_0004.mol
  ChemDraw03062411432D

 26 28  0  0  0  0  0  0  0  0999 V2000
   -1.0032    0.8012    0.0000 C   0  0  0  0  0  0  0  0  0  0  0  0
   -0.2916    0.3903    0.0000 N   0  0  0  0  0  0  0  0  0  0  0  0
   -1.0032    1.6228    0.0000 O   0  0  0  0  0  0  0  0  0  0  0  0
    0.4199    0.8012    0.0000 C   0  0  0  0  0  0  0  0  0  0  0  0
    1.1706    0.4670    0.0000 S   0  0  0  0  0  0  0  0  0  0  0  0
    1.7204    1.0776    0.0000 C   0  0  0  0  0  0  0  0  0  0  0  0
    1.3096    1.7892    0.0000 C   0  0  0  0  0  0  0  0  0  0  0  0
    0.5058    1.6183    0.0000 N   0  0  0  0  0  0  0  0  0  0  0  0
    2.5376    0.9917    0.0000 N   0  3  0  0  0  0  0  0  0  0  0  0
    3.0205    1.6564    0.0000 O   0  5  0  0  0  0  0  0  0  0  0  0
    2.8718    0.2411    0.0000 O   0  0  0  0  0  0  0  0  0  0  0  0
   -1.7148    0.3903    0.0000 C   0  0  0  0  0  0  0  0  0  0  0  0
   -2.4685    0.7259    0.0000 C   0  0  0  0  0  0  0  0  0  0  0  0
   -3.0205    0.1128    0.0000 C   0  0  0  0  0  0  0  0  0  0  0  0
   -2.6080   -0.6017    0.0000 C   0  0  0  0  0  0  0  0  0  0  0  0
   -1.8011   -0.4302    0.0000 N   0  0  0  0  0  0  0  0  0  0  0  0
   -1.1880   -0.9822    0.0000 C   0  0  0  0  0  0  0  0  0  0  0  0
   -0.4033   -0.7273    0.0000 O   0  0  0  0  0  0  0  0  0  0  0  0
   -1.3595   -1.7892    0.0000 O   0  0  0  0  0  0  0  0  0  0  0  0
    0.2098   -1.2793    0.0000 C   0  0  0  0  0  0  0  0  0  0  0  0
    0.9944   -1.0243    0.0000 C   0  0  0  0  0  0  0  0  0  0  0  0
    1.6075   -1.5764    0.0000 C   0  0  0  0  0  0  0  0  0  0  0  0
    2.3921   -1.3214    0.0000 C   0  0  0  0  0  0  0  0  0  0  0  0
    2.5636   -0.5145    0.0000 C   0  0  0  0  0  0  0  0  0  0  0  0
    1.9505    0.0376    0.0000 C   0  0  0  0  0  0  0  0  0  0  0  0
    1.1659   -0.2174    0.0000 C   0  0  0  0  0  0  0  0  0  0  0  0
  1  2  1  0      
  1  3  2  0      
  2  4  1  0      
  5  6  1  0      
  6  7  2  0      
  7  8  1  0      
  8  4  2  0      
  4  5  1  0      
  6  9  1  0      
  9 10  1  0      
  9 11  2  0      
 12  1  1  0      
 12 13  1  0      
 13 14  1  0      
 14 15  1  0      
 15 16  1  0      
 16 12  1  0      
 16 17  1  0      
 17 18  1  0      
 17 19  2  0      
 18 20  1  0      
 20 21  1  0      
 21 22  2  0      
 22 23  1  0      
 23 24  2  0      
 24 25  1  0      
 25 26  2  0      
 26 21  1  0      
M  CHG  2   9   1  10  -1
M  END
