JBB7_0009.mol
  ChemDraw03062414292D

 31 31  0  0  1  0  0  0  0  0999 V2000
    2.8958    0.0034    0.0000 C   0  0  0  0  0  0  0  0  0  0  0  0
    2.1871    0.4125    0.0000 O   0  0  0  0  0  0  0  0  0  0  0  0
    1.4784    0.0034    0.0000 C   0  0  0  0  0  0  0  0  0  0  0  0
    0.7698    0.4125    0.0000 C   0  0  0  0  0  0  0  0  0  0  0  0
    1.4784   -0.8149    0.0000 O   0  0  0  0  0  0  0  0  0  0  0  0
    0.0611    0.0034    0.0000 N   0  0  0  0  0  0  0  0  0  0  0  0
   -0.6475    0.4125    0.0000 C   0  0  0  0  0  0  0  0  0  0  0  0
   -0.6475    1.2308    0.0000 O   0  0  0  0  0  0  0  0  0  0  0  0
    3.6044    0.4125    0.0000 C   0  0  0  0  0  0  0  0  0  0  0  0
   -1.3562    0.0034    0.0000 C   0  0  0  0  0  0  0  0  0  0  0  0
   -2.0649    0.4125    0.0000 N   0  0  0  0  0  0  0  0  0  0  0  0
   -2.7735    0.0034    0.0000 C   0  0  0  0  0  0  0  0  0  0  0  0
   -3.4822    0.4125    0.0000 C   0  0  0  0  0  0  0  0  0  0  0  0
   -2.7735   -0.8149    0.0000 O   0  0  0  0  0  0  0  0  0  0  0  0
   -4.1908    0.0034    0.0000 N   0  0  0  0  0  0  0  0  0  0  0  0
   -4.8995    0.4125    0.0000 C   0  0  0  0  0  0  0  0  0  0  0  0
   -5.6082    0.0034    0.0000 C   0  0  0  0  0  0  0  0  0  0  0  0
   -4.8995    1.2308    0.0000 O   0  0  0  0  0  0  0  0  0  0  0  0
   -3.4822    1.2308    0.0000 C   0  0  0  0  0  0  0  0  0  0  0  0
   -2.7735    1.6399    0.0000 C   0  0  0  0  0  0  0  0  0  0  0  0
   -1.3562   -0.8149    0.0000 C   0  0  0  0  0  0  0  0  0  0  0  0
   -0.6475   -1.2241    0.0000 C   0  0  0  0  0  0  0  0  0  0  0  0
    4.3131    0.0034    0.0000 N   0  0  0  0  0  0  0  0  0  0  0  0
    5.0606    0.3362    0.0000 C   0  0  0  0  0  0  0  0  0  0  0  0
    5.6082   -0.2719    0.0000 C   0  0  0  0  0  0  0  0  0  0  0  0
    5.1990   -0.9806    0.0000 C   0  0  0  0  0  0  0  0  0  0  0  0
    4.3986   -0.8105    0.0000 C   0  0  0  0  0  0  0  0  0  0  0  0
    3.7905   -1.3580    0.0000 O   0  0  0  0  0  0  0  0  0  0  0  0
    5.2308    1.1366    0.0000 O   0  0  0  0  0  0  0  0  0  0  0  0
   -2.0649   -1.2241    0.0000 C   0  0  0  0  0  0  0  0  0  0  0  0
   -1.3562   -1.6399    0.0000 C   0  0  0  0  0  0  0  0  0  0  0  0
  1  2  1  0      
  2  3  1  0      
  3  4  1  0      
  3  5  2  0      
  4  6  1  0      
  6  7  1  0      
  7  8  2  0      
  7 10  1  0      
 10 11  1  0      
 11 12  1  0      
 12 13  1  0      
 12 14  2  0      
 13 15  1  0      
 15 16  1  0      
 16 17  1  0      
 16 18  2  0      
 13 19  1  1      
 19 20  1  0      
 10 21  1  6      
 21 22  1  0      
 24 25  1  0      
 25 26  2  0      
 26 27  1  0      
 27 23  1  0      
 24 23  1  0      
 27 28  2  0      
 24 29  2  0      
  9 23  1  0      
  1  9  1  0      
 21 30  1  0      
 21 31  1  0      
M  END
