JBB7_0012.mol
  ChemDraw03062414482D

 33 34  0  0  1  0  0  0  0  0999 V2000
    2.3264   -0.0670    0.0000 C   0  0  0  0  0  0  0  0  0  0  0  0
    1.6177    0.3422    0.0000 O   0  0  0  0  0  0  0  0  0  0  0  0
    0.9091   -0.0670    0.0000 C   0  0  0  0  0  0  0  0  0  0  0  0
    0.2004    0.3422    0.0000 C   0  0  0  0  0  0  0  0  0  0  0  0
    0.9091   -0.8852    0.0000 O   0  0  0  0  0  0  0  0  0  0  0  0
   -0.5082   -0.0670    0.0000 N   0  0  0  0  0  0  0  0  0  0  0  0
   -1.2169    0.3422    0.0000 C   0  0  0  0  0  0  0  0  0  0  0  0
   -1.2169    1.1605    0.0000 O   0  0  0  0  0  0  0  0  0  0  0  0
    3.0351    0.3422    0.0000 C   0  0  0  0  0  0  0  0  0  0  0  0
   -1.9256   -0.0670    0.0000 C   0  0  0  0  0  0  0  0  0  0  0  0
   -2.6342    0.3422    0.0000 N   0  0  0  0  0  0  0  0  0  0  0  0
   -3.3429   -0.0670    0.0000 C   0  0  0  0  0  0  0  0  0  0  0  0
   -4.0515    0.3422    0.0000 C   0  0  0  0  0  0  0  0  0  0  0  0
   -3.3429   -0.8852    0.0000 O   0  0  0  0  0  0  0  0  0  0  0  0
   -1.9256   -0.8852    0.0000 C   0  0  0  0  0  0  0  0  0  0  0  0
   -1.2169   -1.2944    0.0000 C   0  0  0  0  0  0  0  0  0  0  0  0
   -2.6342   -1.2944    0.0000 C   0  0  0  0  0  0  0  0  0  0  0  0
   -1.9256   -1.7035    0.0000 C   0  0  0  0  0  0  0  0  0  0  0  0
    3.7437   -0.0670    0.0000 C   0  0  0  0  0  0  0  0  0  0  0  0
   -4.1371    1.1560    0.0000 C   0  0  0  0  0  0  0  0  0  0  0  0
   -4.9375    1.3261    0.0000 S   0  0  0  0  0  0  0  0  0  0  0  0
   -5.3466    0.6175    0.0000 C   0  0  0  0  0  0  0  0  0  0  0  0
   -4.7991    0.0094    0.0000 N   0  0  0  0  0  0  0  0  0  0  0  0
   -4.9692   -0.7910    0.0000 C   0  0  0  0  0  0  0  0  0  0  0  0
   -4.3611   -1.3386    0.0000 C   0  0  0  0  0  0  0  0  0  0  0  0
   -5.7475   -1.0439    0.0000 O   0  0  0  0  0  0  0  0  0  0  0  0
    4.4524    0.3422    0.0000 N   0  0  0  0  0  0  0  0  0  0  0  0
    4.5379    1.1560    0.0000 C   0  0  0  0  0  0  0  0  0  0  0  0
    5.3383    1.3261    0.0000 C   0  0  0  0  0  0  0  0  0  0  0  0
    5.7475    0.6175    0.0000 C   0  0  0  0  0  0  0  0  0  0  0  0
    5.1999    0.0094    0.0000 C   0  0  0  0  0  0  0  0  0  0  0  0
    5.3701   -0.7910    0.0000 O   0  0  0  0  0  0  0  0  0  0  0  0
    3.9298    1.7035    0.0000 O   0  0  0  0  0  0  0  0  0  0  0  0
  1  2  1  0      
  2  3  1  0      
  3  4  1  0      
  3  5  2  0      
  4  6  1  0      
  6  7  1  0      
  7  8  2  0      
  7 10  1  0      
 10 11  1  0      
 11 12  1  0      
 12 13  1  0      
 12 14  2  0      
 10 15  1  6      
 15 16  1  0      
  1  9  1  0      
 15 17  1  0      
 15 18  1  0      
  9 19  1  0      
 13 20  1  1      
 20 21  1  0      
 21 22  1  0      
 22 23  1  0      
 23 13  1  0      
 23 24  1  0      
 24 25  1  0      
 24 26  2  0      
 28 29  1  0      
 29 30  2  0      
 30 31  1  0      
 31 27  1  0      
 28 27  1  0      
 31 32  2  0      
 28 33  2  0      
 19 27  1  0      
M  END
