MCSJ20_0004.mol
  ChemDraw04192410252D

 33 36  0  0  0  0  0  0  0  0999 V2000
    1.3233   -0.6215    0.0000 C   0  0  0  0  0  0  0  0  0  0  0  0
    2.1170   -0.4089    0.0000 O   0  0  0  0  0  0  0  0  0  0  0  0
    2.6980   -0.9899    0.0000 C   0  0  0  0  0  0  0  0  0  0  0  0
    1.1107   -1.4152    0.0000 O   0  0  0  0  0  0  0  0  0  0  0  0
    2.4853   -1.7836    0.0000 C   0  0  0  0  0  0  0  0  0  0  0  0
    3.0664   -2.3646    0.0000 N   0  0  0  0  0  0  0  0  0  0  0  0
    3.8600   -2.1519    0.0000 C   0  0  0  0  0  0  0  0  0  0  0  0
    4.0727   -1.3582    0.0000 C   0  0  0  0  0  0  0  0  0  0  0  0
    3.4917   -0.7772    0.0000 C   0  0  0  0  0  0  0  0  0  0  0  0
    4.8664   -1.1456    0.0000 Cl  0  0  0  0  0  0  0  0  0  0  0  0
    0.7423   -0.0405    0.0000 C   0  0  0  0  0  0  0  0  0  0  0  0
    0.9550    0.7531    0.0000 C   0  0  0  0  0  0  0  0  0  0  0  0
   -0.2930   -1.0759    0.0000 C   0  0  0  0  0  0  0  0  0  0  0  0
   -0.0391   -0.2944    0.0000 C   0  0  0  0  0  0  0  0  0  0  0  0
   -0.7039    0.1885    0.0000 C   0  0  0  0  0  0  0  0  0  0  0  0
   -1.3686   -0.2944    0.0000 C   0  0  0  0  0  0  0  0  0  0  0  0
   -1.1147   -1.0759    0.0000 N   0  0  0  0  0  0  0  0  0  0  0  0
   -0.7898    1.0057    0.0000 C   0  0  0  0  0  0  0  0  0  0  0  0
   -1.5404    1.3399    0.0000 C   0  0  0  0  0  0  0  0  0  0  0  0
   -2.2052    0.8569    0.0000 C   0  0  0  0  0  0  0  0  0  0  0  0
   -2.1193    0.0398    0.0000 C   0  0  0  0  0  0  0  0  0  0  0  0
    0.1899   -1.7406    0.0000 C   0  0  0  0  0  0  0  0  0  0  0  0
   -1.6263    2.1571    0.0000 O   0  0  0  0  0  0  0  0  0  0  0  0
   -2.3769    2.4913    0.0000 C   0  0  0  0  0  0  0  0  0  0  0  0
   -1.5977   -1.7406    0.0000 C   0  0  0  0  0  0  0  0  0  0  0  0
   -2.4149   -1.6548    0.0000 C   0  0  0  0  0  0  0  0  0  0  0  0
   -1.2635   -2.4913    0.0000 O   0  0  0  0  0  0  0  0  0  0  0  0
   -2.7491   -0.9041    0.0000 C   0  0  0  0  0  0  0  0  0  0  0  0
   -3.5662   -0.8182    0.0000 C   0  0  0  0  0  0  0  0  0  0  0  0
   -4.0492   -1.4830    0.0000 C   0  0  0  0  0  0  0  0  0  0  0  0
   -3.7150   -2.2336    0.0000 C   0  0  0  0  0  0  0  0  0  0  0  0
   -2.8978   -2.3195    0.0000 C   0  0  0  0  0  0  0  0  0  0  0  0
   -4.8664   -1.3971    0.0000 Cl  0  0  0  0  0  0  0  0  0  0  0  0
  1  2  1  0      
  2  3  1  0      
  1  4  2  0      
  3  5  2  0      
  5  6  1  0      
  6  7  2  0      
  7  8  1  0      
  8  9  2  0      
  9  3  1  0      
  8 10  1  0      
  1 11  1  0      
 11 12  1  0      
 13 14  2  0      
 14 15  1  0      
 15 16  2  0      
 16 17  1  0      
 17 13  1  0      
 15 18  1  0      
 18 19  2  0      
 19 20  1  0      
 20 21  2  0      
 21 16  1  0      
 11 14  1  0      
 13 22  1  0      
 19 23  1  0      
 23 24  1  0      
 17 25  1  0      
 25 26  1  0      
 25 27  2  0      
 26 28  2  0      
 28 29  1  0      
 29 30  2  0      
 30 31  1  0      
 31 32  2  0      
 32 26  1  0      
 30 33  1  0      
M  END
