MCSJ16_0006.mol
  ChemDraw02132412182D

 32 35  0  0  0  0  0  0  0  0999 V2000
   -4.4285    0.9099    0.0000 C   0  0  0  0  0  0  0  0  0  0  0  0
   -4.4285    0.0882    0.0000 C   0  0  0  0  0  0  0  0  0  0  0  0
   -3.7169   -0.3226    0.0000 C   0  0  0  0  0  0  0  0  0  0  0  0
   -3.0054    0.0882    0.0000 C   0  0  0  0  0  0  0  0  0  0  0  0
   -3.0054    0.9099    0.0000 C   0  0  0  0  0  0  0  0  0  0  0  0
   -3.7169    1.3207    0.0000 C   0  0  0  0  0  0  0  0  0  0  0  0
   -2.2239   -0.1657    0.0000 N   0  0  0  0  0  0  0  0  0  0  0  0
   -1.7409    0.4990    0.0000 C   0  0  0  0  0  0  0  0  0  0  0  0
   -2.2128    1.1222    0.0000 C   0  0  0  0  0  0  0  0  0  0  0  0
   -1.9461    1.8995    0.0000 O   0  0  0  0  0  0  0  0  0  0  0  0
   -0.9193    0.4990    0.0000 O   0  0  0  0  0  0  0  0  0  0  0  0
   -1.9700   -0.9472    0.0000 C   0  0  0  0  0  0  0  0  0  0  0  0
   -1.1663   -1.1180    0.0000 C   0  0  0  0  0  0  0  0  0  0  0  0
   -0.9124   -1.8995    0.0000 N   0  0  0  0  0  0  0  0  0  0  0  0
   -0.6165   -0.5074    0.0000 C   0  0  0  0  0  0  0  0  0  0  0  0
    0.1872   -0.6782    0.0000 N   0  0  0  0  0  0  0  0  0  0  0  0
    0.4412   -1.4597    0.0000 N   0  0  0  0  0  0  0  0  0  0  0  0
    0.7371   -0.0676    0.0000 C   0  0  0  0  0  0  0  0  0  0  0  0
    1.5408   -0.2384    0.0000 C   0  0  0  0  0  0  0  0  0  0  0  0
    1.7947   -1.0199    0.0000 O   0  0  0  0  0  0  0  0  0  0  0  0
    2.0906    0.3722    0.0000 N   0  0  0  0  0  0  0  0  0  0  0  0
    2.8943    0.2014    0.0000 C   0  0  0  0  0  0  0  0  0  0  0  0
    3.1482   -0.5801    0.0000 C   0  0  0  0  0  0  0  0  0  0  0  0
    3.9519   -0.7509    0.0000 C   0  0  0  0  0  0  0  0  0  0  0  0
    4.5017   -0.1403    0.0000 C   0  0  0  0  0  0  0  0  0  0  0  0
    4.2478    0.6411    0.0000 C   0  0  0  0  0  0  0  0  0  0  0  0
    3.4441    0.8120    0.0000 C   0  0  0  0  0  0  0  0  0  0  0  0
    5.3054   -0.3111    0.0000 C   0  0  0  0  0  0  0  0  0  0  0  0
    5.5594   -1.0926    0.0000 O   0  0  0  0  0  0  0  0  0  0  0  0
    5.8575    0.3019    0.0000 C   0  0  0  0  0  0  0  0  0  0  0  0
   -5.1430    1.3224    0.0000 O   0  0  0  0  0  0  0  0  0  0  0  0
   -5.8575    0.9099    0.0000 C   0  0  0  0  0  0  0  0  0  0  0  0
  1  2  2  0      
  2  3  1  0      
  3  4  2  0      
  4  5  1  0      
  5  6  2  0      
  6  1  1  0      
  4  7  1  0      
  7  8  1  0      
  8  9  1  0      
  9  5  1  0      
  9 10  2  0      
  8 11  2  0      
  7 12  1  0      
 12 13  1  0      
 13 14  1  0      
 13 15  2  0      
 15 16  1  0      
 16 17  1  0      
 14 17  2  0      
 16 18  1  0      
 18 19  1  0      
 19 20  2  0      
 19 21  1  0      
 21 22  1  0      
 22 23  2  0      
 23 24  1  0      
 24 25  2  0      
 25 26  1  0      
 26 27  2  0      
 27 22  1  0      
 25 28  1  0      
 28 29  2  0      
 28 30  1  0      
  1 31  1  0      
 31 32  1  0      
M  END
