MCSJ25_0020.mol
  ChemDraw04192412382D

 22 24  0  0  0  0  0  0  0  0999 V2000
   -0.0315    0.0368    0.0000 C   0  0  0  0  0  0  0  0  0  0  0  0
   -0.0315   -0.7848    0.0000 C   0  0  0  0  0  0  0  0  0  0  0  0
    0.6801   -1.1957    0.0000 C   0  0  0  0  0  0  0  0  0  0  0  0
    1.3917   -0.7848    0.0000 C   0  0  0  0  0  0  0  0  0  0  0  0
    1.3917    0.0368    0.0000 C   0  0  0  0  0  0  0  0  0  0  0  0
    0.6801    0.4477    0.0000 C   0  0  0  0  0  0  0  0  0  0  0  0
    2.1731   -1.0387    0.0000 N   0  0  0  0  0  0  0  0  0  0  0  0
    2.6561   -0.3740    0.0000 C   0  0  0  0  0  0  0  0  0  0  0  0
    2.1731    0.2908    0.0000 C   0  0  0  0  0  0  0  0  0  0  0  0
    2.4270   -1.8202    0.0000 C   0  0  0  0  0  0  0  0  0  0  0  0
    3.4778   -0.3740    0.0000 O   0  0  0  0  0  0  0  0  0  0  0  0
    2.4270    1.0722    0.0000 O   0  0  0  0  0  0  0  0  0  0  0  0
   -0.7431    0.4477    0.0000 C   0  0  0  0  0  0  0  0  0  0  0  0
   -1.4576    0.0352    0.0000 O   0  0  0  0  0  0  0  0  0  0  0  0
   -0.7431    1.2727    0.0000 O   0  0  0  0  0  0  0  0  0  0  0  0
   -2.1720    0.4477    0.0000 N   0  0  0  0  0  0  0  0  0  0  0  0
   -2.2583    1.2682    0.0000 C   0  0  0  0  0  0  0  0  0  0  0  0
   -3.0653    1.4397    0.0000 C   0  0  0  0  0  0  0  0  0  0  0  0
   -3.4778    0.7252    0.0000 C   0  0  0  0  0  0  0  0  0  0  0  0
   -2.9257    0.1121    0.0000 C   0  0  0  0  0  0  0  0  0  0  0  0
   -1.6452    1.8202    0.0000 O   0  0  0  0  0  0  0  0  0  0  0  0
   -3.0972   -0.6948    0.0000 O   0  0  0  0  0  0  0  0  0  0  0  0
  1  2  2  0      
  2  3  1  0      
  3  4  2  0      
  4  5  1  0      
  5  6  2  0      
  6  1  1  0      
  4  7  1  0      
  7  8  1  0      
  8  9  1  0      
  9  5  1  0      
  7 10  1  0      
  8 11  2  0      
  9 12  2  0      
  1 13  1  0      
 13 14  1  0      
 13 15  2  0      
 14 16  1  0      
 16 17  1  0      
 17 18  1  0      
 18 19  1  0      
 19 20  1  0      
 20 16  1  0      
 17 21  2  0      
 20 22  2  0      
M  END
