MCSJ25_0008.mol
  ChemDraw04192412252D

 19 21  0  0  0  0  0  0  0  0999 V2000
   -1.3988    1.4828    0.0000 C   0  0  0  0  0  0  0  0  0  0  0  0
   -1.3988    0.6612    0.0000 C   0  0  0  0  0  0  0  0  0  0  0  0
   -0.6873    0.2503    0.0000 C   0  0  0  0  0  0  0  0  0  0  0  0
    0.0243    0.6612    0.0000 C   0  0  0  0  0  0  0  0  0  0  0  0
    0.0243    1.4828    0.0000 C   0  0  0  0  0  0  0  0  0  0  0  0
   -0.6873    1.8937    0.0000 C   0  0  0  0  0  0  0  0  0  0  0  0
    0.8058    0.4073    0.0000 N   0  0  0  0  0  0  0  0  0  0  0  0
    1.2888    1.0720    0.0000 C   0  0  0  0  0  0  0  0  0  0  0  0
    0.8058    1.7367    0.0000 C   0  0  0  0  0  0  0  0  0  0  0  0
    1.0597   -0.3742    0.0000 C   0  0  0  0  0  0  0  0  0  0  0  0
    0.4787   -0.9552    0.0000 N   0  0  0  0  0  0  0  0  0  0  0  0
    2.1104    1.0720    0.0000 O   0  0  0  0  0  0  0  0  0  0  0  0
    1.0597    2.5182    0.0000 O   0  0  0  0  0  0  0  0  0  0  0  0
   -0.5485   -0.9448    0.0000 C   0  0  0  0  0  0  0  0  0  0  0  0
   -1.1113   -1.5435    0.0000 C   0  0  0  0  0  0  0  0  0  0  0  0
   -0.8741   -2.3302    0.0000 O   0  0  0  0  0  0  0  0  0  0  0  0
   -0.0743   -2.5182    0.0000 C   0  0  0  0  0  0  0  0  0  0  0  0
    0.4885   -1.9195    0.0000 C   0  0  0  0  0  0  0  0  0  0  0  0
   -2.1104    1.8937    0.0000 F   0  0  0  0  0  0  0  0  0  0  0  0
  1  2  2  0      
  2  3  1  0      
  3  4  2  0      
  4  5  1  0      
  5  6  2  0      
  6  1  1  0      
  4  7  1  0      
  7  8  1  0      
  8  9  1  0      
  9  5  1  0      
  7 10  1  0      
 10 11  1  0      
  8 12  2  0      
  9 13  2  0      
 11 14  1  0      
 14 15  1  0      
 15 16  1  0      
 16 17  1  0      
 17 18  1  0      
 18 11  1  0      
  1 19  1  0      
M  END
