MCSJ25_0012.mol
  ChemDraw04192412442D

 13 14  0  0  0  0  0  0  0  0999 V2000
   -1.3974    0.4108    0.0000 C   0  0  0  0  0  0  0  0  0  0  0  0
   -1.3974   -0.4108    0.0000 C   0  0  0  0  0  0  0  0  0  0  0  0
   -0.6858   -0.8217    0.0000 C   0  0  0  0  0  0  0  0  0  0  0  0
    0.0258   -0.4108    0.0000 C   0  0  0  0  0  0  0  0  0  0  0  0
    0.0258    0.4108    0.0000 C   0  0  0  0  0  0  0  0  0  0  0  0
   -0.6858    0.8217    0.0000 C   0  0  0  0  0  0  0  0  0  0  0  0
    0.8072   -0.6647    0.0000 N   0  0  0  0  0  0  0  0  0  0  0  0
    1.2902   -0.0000    0.0000 C   0  0  0  0  0  0  0  0  0  0  0  0
    0.8072    0.6647    0.0000 C   0  0  0  0  0  0  0  0  0  0  0  0
    1.0611   -1.4462    0.0000 C   0  0  0  0  0  0  0  0  0  0  0  0
    2.1119   -0.0000    0.0000 O   0  0  0  0  0  0  0  0  0  0  0  0
    1.0611    1.4462    0.0000 O   0  0  0  0  0  0  0  0  0  0  0  0
   -2.1119    0.8233    0.0000 I   0  0  0  0  0  0  0  0  0  0  0  0
  1  2  2  0      
  2  3  1  0      
  3  4  2  0      
  4  5  1  0      
  5  6  2  0      
  6  1  1  0      
  4  7  1  0      
  7  8  1  0      
  8  9  1  0      
  9  5  1  0      
  7 10  1  0      
  8 11  2  0      
  9 12  2  0      
  1 13  1  0      
M  END
