MCSJ25_0097.mol
  ChemDraw04192415382D

 41 45  0  0  1  0  0  0  0  0999 V2000
   -4.9123    1.8781    0.0000 C   0  0  0  0  0  0  0  0  0  0  0  0
   -5.3673    1.1900    0.0000 C   0  0  0  0  0  0  0  0  0  0  0  0
   -4.9989    0.4518    0.0000 C   0  0  0  0  0  0  0  0  0  0  0  0
   -4.1755    0.4018    0.0000 C   0  0  0  0  0  0  0  0  0  0  0  0
   -3.7204    1.0899    0.0000 C   0  0  0  0  0  0  0  0  0  0  0  0
   -4.0888    1.8281    0.0000 C   0  0  0  0  0  0  0  0  0  0  0  0
   -3.6616   -0.2437    0.0000 N   0  0  0  0  0  0  0  0  0  0  0  0
   -2.8890    0.0455    0.0000 C   0  0  0  0  0  0  0  0  0  0  0  0
   -2.9253    0.8697    0.0000 C   0  0  0  0  0  0  0  0  0  0  0  0
   -3.6337    2.5162    0.0000 O   0  0  0  0  0  0  0  0  0  0  0  0
   -2.8102    2.4661    0.0000 C   0  0  0  0  0  0  0  0  0  0  0  0
   -2.2009   -0.4096    0.0000 C   0  0  0  0  0  0  0  0  0  0  0  0
   -2.2509   -1.2331    0.0000 O   0  0  0  0  0  0  0  0  0  0  0  0
   -1.4627   -0.0412    0.0000 N   0  0  0  0  0  0  0  0  0  0  0  0
   -0.7482   -0.4537    0.0000 C   0  0  0  0  0  0  0  0  0  0  0  0
   -0.0338   -0.0412    0.0000 C   0  0  0  0  0  0  0  0  0  0  0  0
    0.6807   -0.4537    0.0000 N   0  0  0  0  0  0  0  0  0  0  0  0
   -0.7482   -1.2787    0.0000 C   0  0  0  0  0  0  0  0  0  0  0  0
   -0.0338   -1.6912    0.0000 C   0  0  0  0  0  0  0  0  0  0  0  0
    0.6807   -1.2787    0.0000 C   0  0  0  0  0  0  0  0  0  0  0  0
   -0.0338   -2.5162    0.0000 C   0  0  0  0  0  0  0  0  0  0  0  0
    1.3952   -0.0412    0.0000 C   0  0  0  0  0  0  0  0  0  0  0  0
    2.1097   -0.4537    0.0000 C   0  0  0  0  0  0  0  0  0  0  0  0
    1.3952    0.7838    0.0000 C   0  0  0  0  0  0  0  0  0  0  0  0
    2.8241   -0.0412    0.0000 C   0  0  0  0  0  0  0  0  0  0  0  0
    2.1097   -1.2787    0.0000 O   0  0  0  0  0  0  0  0  0  0  0  0
    3.4305   -0.5472    0.0000 N   0  0  0  0  0  0  0  0  0  0  0  0
    4.1298    0.2363    0.0000 C   0  0  0  0  0  0  0  0  0  0  0  0
    3.7173    0.9508    0.0000 C   0  0  0  0  0  0  0  0  0  0  0  0
    2.9104    0.7793    0.0000 S   0  0  0  0  0  0  0  0  0  0  0  0
    4.9548    0.2363    0.0000 C   0  0  0  0  0  0  0  0  0  0  0  0
    5.3673    0.9508    0.0000 C   0  0  0  0  0  0  0  0  0  0  0  0
    4.9548    1.6653    0.0000 C   0  0  0  0  0  0  0  0  0  0  0  0
    4.1298    1.6653    0.0000 C   0  0  0  0  0  0  0  0  0  0  0  0
    2.6444    2.4453    0.0000 N   0  0  0  0  0  0  0  0  0  0  0  0
    1.9299    2.0328    0.0000 C   0  0  0  0  0  0  0  0  0  0  0  0
    2.1014    1.2259    0.0000 C   0  0  0  0  0  0  0  0  0  0  0  0
    2.9219    1.1396    0.0000 C   0  0  0  0  0  0  0  0  0  0  0  0
    3.2575    1.8933    0.0000 C   0  0  0  0  0  0  0  0  0  0  0  0
    1.1762    2.3684    0.0000 O   0  0  0  0  0  0  0  0  0  0  0  0
   -0.0338    0.7838    0.0000 O   0  0  0  0  0  0  0  0  0  0  0  0
  1  2  2  0      
  2  3  1  0      
  3  4  2  0      
  4  5  1  0      
  5  6  2  0      
  6  1  1  0      
  4  7  1  0      
  7  8  1  0      
  8  9  2  0      
  9  5  1  0      
  6 10  1  0      
 10 11  1  0      
  8 12  1  0      
 12 13  2  0      
 12 14  1  0      
 14 15  1  0      
 15 16  1  0      
 16 17  1  0      
 15 18  1  6      
 18 19  1  0      
 19 20  1  0      
 19 21  1  0      
 17 22  1  0      
 22 23  1  0      
 22 24  1  1      
 23 25  1  0      
 23 26  2  0      
 25 27  2  0      
 27 28  1  0      
 28 29  2  0      
 29 30  1  0      
 30 25  1  0      
 28 31  1  0      
 31 32  2  0      
 32 33  1  0      
 33 34  2  0      
 34 29  1  0      
 35 36  1  0      
 36 37  1  0      
 37 38  1  1      
 38 39  1  0      
 39 35  1  0      
 37 24  1  0      
 36 40  2  0      
 16 41  2  0      
M  END
