MCSJ25_0069.mol
  ChemDraw04192414182D

 31 34  0  0  0  0  0  0  0  0999 V2000
   -2.8420    2.3513    0.0000 C   0  0  0  0  0  0  0  0  0  0  0  0
   -2.1491    1.9035    0.0000 C   0  0  0  0  0  0  0  0  0  0  0  0
   -1.4149    2.2796    0.0000 C   0  0  0  0  0  0  0  0  0  0  0  0
   -1.3735    3.1036    0.0000 C   0  0  0  0  0  0  0  0  0  0  0  0
   -2.0664    3.5514    0.0000 N   0  0  0  0  0  0  0  0  0  0  0  0
   -2.8006    3.1753    0.0000 C   0  0  0  0  0  0  0  0  0  0  0  0
   -3.5763    1.9751    0.0000 Cl  0  0  0  0  0  0  0  0  0  0  0  0
   -0.7220    1.8318    0.0000 O   0  0  0  0  0  0  0  0  0  0  0  0
    0.0123    2.2080    0.0000 C   0  0  0  0  0  0  0  0  0  0  0  0
    0.0536    3.0320    0.0000 O   0  0  0  0  0  0  0  0  0  0  0  0
    0.7052    1.7602    0.0000 C   0  0  0  0  0  0  0  0  0  0  0  0
    0.6638    0.9362    0.0000 C   0  0  0  0  0  0  0  0  0  0  0  0
    1.3567    0.4884    0.0000 C   0  0  0  0  0  0  0  0  0  0  0  0
    2.0909    0.8646    0.0000 C   0  0  0  0  0  0  0  0  0  0  0  0
    2.1323    1.6885    0.0000 C   0  0  0  0  0  0  0  0  0  0  0  0
    1.4394    2.1363    0.0000 C   0  0  0  0  0  0  0  0  0  0  0  0
    2.8618    0.5706    0.0000 N   0  0  0  0  0  0  0  0  0  0  0  0
    3.3796    1.2129    0.0000 C   0  0  0  0  0  0  0  0  0  0  0  0
    2.9287    1.9038    0.0000 C   0  0  0  0  0  0  0  0  0  0  0  0
    2.8618   -0.2544    0.0000 S   0  0  0  0  0  0  0  0  0  0  0  0
    3.5763   -0.6669    0.0000 O   0  0  0  0  0  0  0  0  0  0  0  0
    2.1473   -0.6669    0.0000 O   0  0  0  0  0  0  0  0  0  0  0  0
    2.8618   -1.0794    0.0000 C   0  0  0  0  0  0  0  0  0  0  0  0
    2.1475   -1.4922    0.0000 C   0  0  0  0  0  0  0  0  0  0  0  0
    2.1475   -2.3172    0.0000 C   0  0  0  0  0  0  0  0  0  0  0  0
    2.8618   -2.7294    0.0000 C   0  0  0  0  0  0  0  0  0  0  0  0
    3.5761   -2.3172    0.0000 C   0  0  0  0  0  0  0  0  0  0  0  0
    3.5761   -1.4922    0.0000 C   0  0  0  0  0  0  0  0  0  0  0  0
    1.4331   -2.7297    0.0000 N   0  3  0  0  0  0  0  0  0  0  0  0
    0.7214   -2.3190    0.0000 O   0  0  0  0  0  0  0  0  0  0  0  0
    1.4331   -3.5514    0.0000 O   0  5  0  0  0  0  0  0  0  0  0  0
 29 30  2  0      
 29 31  1  0      
 25 29  1  0      
  1  2  2  0      
  2  3  1  0      
  3  4  2  0      
  4  5  1  0      
  5  6  2  0      
  6  1  1  0      
  1  7  1  0      
  3  8  1  0      
  8  9  1  0      
  9 10  2  0      
  9 11  1  0      
 11 12  2  0      
 12 13  1  0      
 13 14  2  0      
 14 15  1  0      
 15 16  2  0      
 16 11  1  0      
 14 17  1  0      
 17 18  1  0      
 18 19  2  0      
 19 15  1  0      
 17 20  1  0      
 20 21  2  0      
 20 22  2  0      
 20 23  1  0      
 23 24  2  0      
 24 25  1  0      
 25 26  2  0      
 26 27  1  0      
 27 28  2  0      
 28 23  1  0      
M  CHG  2  29   1  31  -1
M  STY  1   1 SUP
M  SLB  1   1   1
M  SAL   1  3  29  30  31
M  SBL   1  1   3
M  SMT   1 ^NO2
M  SBV   1   3    0.7144    0.4126
M  END
