MCSJ23_0005.mol
  ChemDraw04192411442D

 32 37  0  0  0  0  0  0  0  0999 V2000
   -2.5487   -0.7542    0.0000 C   0  0  0  0  0  0  0  0  0  0  0  0
   -2.5487   -1.5792    0.0000 C   0  0  0  0  0  0  0  0  0  0  0  0
   -1.8343   -1.9917    0.0000 N   0  0  0  0  0  0  0  0  0  0  0  0
   -1.1198   -1.5792    0.0000 C   0  0  0  0  0  0  0  0  0  0  0  0
   -1.1198   -0.7542    0.0000 C   0  0  0  0  0  0  0  0  0  0  0  0
   -1.8343   -0.3417    0.0000 C   0  0  0  0  0  0  0  0  0  0  0  0
   -0.4053   -1.9917    0.0000 N   0  0  0  0  0  0  0  0  0  0  0  0
    0.3092   -1.5792    0.0000 C   0  0  0  0  0  0  0  0  0  0  0  0
    0.3092   -0.7542    0.0000 N   0  0  0  0  0  0  0  0  0  0  0  0
   -0.4053   -0.3417    0.0000 C   0  0  0  0  0  0  0  0  0  0  0  0
   -3.3333   -0.4993    0.0000 C   0  0  0  0  0  0  0  0  0  0  0  0
   -3.8183   -1.1667    0.0000 N   0  0  0  0  0  0  0  0  0  0  0  0
   -3.3333   -1.8342    0.0000 N   0  0  0  0  0  0  0  0  0  0  0  0
   -0.4053    0.4833    0.0000 N   0  0  0  0  0  0  0  0  0  0  0  0
    1.4848    0.4833    0.0000 C   0  0  0  0  0  0  0  0  0  0  0  0
    1.4848   -0.3417    0.0000 N   0  0  0  0  0  0  0  0  0  0  0  0
    1.0236   -1.9917    0.0000 N   0  0  0  0  0  0  0  0  0  0  0  0
   -3.5883    0.2853    0.0000 C   0  0  0  0  0  0  0  0  0  0  0  0
    1.0236   -2.8167    0.0000 C   0  0  0  0  0  0  0  0  0  0  0  0
    1.7381   -1.5792    0.0000 C   0  0  0  0  0  0  0  0  0  0  0  0
    2.0682    1.0666    0.0000 C   0  0  0  0  0  0  0  0  0  0  0  0
    2.8651    0.8531    0.0000 C   0  0  0  0  0  0  0  0  0  0  0  0
    3.4484    1.4365    0.0000 C   0  0  0  0  0  0  0  0  0  0  0  0
    3.2349    2.2334    0.0000 C   0  0  0  0  0  0  0  0  0  0  0  0
    2.4380    2.4469    0.0000 C   0  0  0  0  0  0  0  0  0  0  0  0
    1.8547    1.8635    0.0000 C   0  0  0  0  0  0  0  0  0  0  0  0
    3.8183    2.8167    0.0000 Cl  0  0  0  0  0  0  0  0  0  0  0  0
   -1.7836    0.6499    0.0000 C   0  0  0  0  0  0  0  0  0  0  0  0
   -2.4491    1.1375    0.0000 C   0  0  0  0  0  0  0  0  0  0  0  0
   -2.1910    1.9211    0.0000 C   0  0  0  0  0  0  0  0  0  0  0  0
   -1.3660    1.9178    0.0000 C   0  0  0  0  0  0  0  0  0  0  0  0
   -1.1142    1.1321    0.0000 S   0  0  0  0  0  0  0  0  0  0  0  0
  1  2  2  0      
  2  3  1  0      
  3  4  1  0      
  4  5  2  0      
  5  6  1  0      
  6  1  1  0      
  4  7  1  0      
  7  8  2  0      
  8  9  1  0      
  9 10  1  0      
 10  5  1  0      
  1 11  1  0      
 11 12  2  0      
 12 13  1  0      
 13  2  1  0      
 10 14  1  0      
 14 15  1  0      
 15 16  2  0      
  8 17  1  0      
 11 18  1  0      
 17 19  1  0      
 17 20  1  0      
 15 21  1  0      
  9 16  1  0      
 21 22  2  0      
 22 23  1  0      
 23 24  2  0      
 24 25  1  0      
 25 26  2  0      
 26 21  1  0      
 24 27  1  0      
 28 29  2  0      
 29 30  1  0      
 30 31  2  0      
 31 32  1  0      
 28 32  1  0      
 28  6  1  0      
M  END
