MCSJ25_0004.mol
  ChemDraw04192412172D

 64 69  0  0  1  0  0  0  0  0999 V2000
   -9.6875    1.6056    0.0000 C   0  0  0  0  0  0  0  0  0  0  0  0
   -9.4740    0.8087    0.0000 C   0  0  0  0  0  0  0  0  0  0  0  0
   -8.6771    0.5952    0.0000 C   0  0  0  0  0  0  0  0  0  0  0  0
   -8.0938    1.1785    0.0000 C   0  0  0  0  0  0  0  0  0  0  0  0
   -8.3073    1.9754    0.0000 C   0  0  0  0  0  0  0  0  0  0  0  0
   -9.1042    2.1890    0.0000 C   0  0  0  0  0  0  0  0  0  0  0  0
   -8.3026   -0.1399    0.0000 N   0  0  0  0  0  0  0  0  0  0  0  0
   -7.4877   -0.0108    0.0000 C   0  0  0  0  0  0  0  0  0  0  0  0
   -7.3587    0.8040    0.0000 C   0  0  0  0  0  0  0  0  0  0  0  0
   -6.9044   -0.5942    0.0000 C   0  0  0  0  0  0  0  0  0  0  0  0
   -8.6771   -0.8750    0.0000 C   0  0  0  0  0  0  0  0  0  0  0  0
   -8.2278   -1.5669    0.0000 C   0  0  0  0  0  0  0  0  0  0  0  0
   -9.5010   -0.9182    0.0000 O   0  0  0  0  0  0  0  0  0  0  0  0
   -8.5633   -2.3206    0.0000 C   0  0  0  0  0  0  0  0  0  0  0  0
   -8.0784   -2.9880    0.0000 C   0  0  0  0  0  0  0  0  0  0  0  0
   -7.2579   -2.9018    0.0000 C   0  0  0  0  0  0  0  0  0  0  0  0
   -6.9224   -2.1481    0.0000 C   0  0  0  0  0  0  0  0  0  0  0  0
   -7.4073   -1.4807    0.0000 C   0  0  0  0  0  0  0  0  0  0  0  0
   -6.7730   -3.5692    0.0000 Cl  0  0  0  0  0  0  0  0  0  0  0  0
   -6.6236    1.1785    0.0000 C   0  0  0  0  0  0  0  0  0  0  0  0
   -5.9091    0.7660    0.0000 C   0  0  0  0  0  0  0  0  0  0  0  0
   -5.1946    1.1785    0.0000 N   0  0  0  0  0  0  0  0  0  0  0  0
   -5.9091   -0.0590    0.0000 O   0  0  0  0  0  0  0  0  0  0  0  0
   -4.4802    0.7660    0.0000 C   0  0  0  0  0  0  0  0  0  0  0  0
   -3.7657    1.1785    0.0000 C   0  0  0  0  0  0  0  0  0  0  0  0
   -3.0512    0.7660    0.0000 C   0  0  0  0  0  0  0  0  0  0  0  0
   -2.3368    1.1785    0.0000 C   0  0  0  0  0  0  0  0  0  0  0  0
   -1.6223    0.7660    0.0000 C   0  0  0  0  0  0  0  0  0  0  0  0
   -0.9078    1.1785    0.0000 C   0  0  0  0  0  0  0  0  0  0  0  0
   -0.1934    0.7660    0.0000 C   0  0  0  0  0  0  0  0  0  0  0  0
    0.5211    1.1785    0.0000 N   0  0  0  0  0  0  0  0  0  0  0  0
   -0.1934   -0.0590    0.0000 O   0  0  0  0  0  0  0  0  0  0  0  0
    1.2356    0.7660    0.0000 C   0  0  0  0  0  0  0  0  0  0  0  0
    1.9501    1.1785    0.0000 C   0  0  0  0  0  0  0  0  0  0  0  0
    1.2356   -0.0590    0.0000 C   0  0  0  0  0  0  0  0  0  0  0  0
    2.6645    0.7660    0.0000 C   0  0  0  0  0  0  0  0  0  0  0  0
    1.9501    2.0035    0.0000 O   0  0  0  0  0  0  0  0  0  0  0  0
    1.9501   -0.4715    0.0000 C   0  0  0  0  0  0  0  0  0  0  0  0
    0.5211   -0.4715    0.0000 C   0  0  0  0  0  0  0  0  0  0  0  0
    1.9501    0.3535    0.0000 C   0  0  0  0  0  0  0  0  0  0  0  0
    2.7508   -0.0544    0.0000 C   0  0  0  0  0  0  0  0  0  0  0  0
    3.5577   -0.2260    0.0000 C   0  0  0  0  0  0  0  0  0  0  0  0
    3.9702    0.4885    0.0000 C   0  0  0  0  0  0  0  0  0  0  0  0
    3.4182    1.1016    0.0000 N   0  0  0  0  0  0  0  0  0  0  0  0
    2.3383   -0.7689    0.0000 O   0  0  0  0  0  0  0  0  0  0  0  0
    4.7952    0.4885    0.0000 C   0  0  0  0  0  0  0  0  0  0  0  0
    5.2077    1.2030    0.0000 O   0  0  0  0  0  0  0  0  0  0  0  0
    5.3786   -0.0949    0.0000 N   0  0  0  0  0  0  0  0  0  0  0  0
    6.1755    0.1187    0.0000 C   0  0  0  0  0  0  0  0  0  0  0  0
    6.3890    0.9156    0.0000 C   0  0  0  0  0  0  0  0  0  0  0  0
    6.7481   -0.5006    0.0000 C   0  0  0  0  0  0  0  0  0  0  0  0
    6.5345   -1.2975    0.0000 C   0  0  0  0  0  0  0  0  0  0  0  0
    7.1179   -1.8809    0.0000 C   0  0  0  0  0  0  0  0  0  0  0  0
    7.9148   -1.6674    0.0000 C   0  0  0  0  0  0  0  0  0  0  0  0
    8.1283   -0.8705    0.0000 C   0  0  0  0  0  0  0  0  0  0  0  0
    7.5449   -0.2871    0.0000 C   0  0  0  0  0  0  0  0  0  0  0  0
    8.4981   -2.2507    0.0000 C   0  0  0  0  0  0  0  0  0  0  0  0
    8.3691   -3.0656    0.0000 C   0  0  0  0  0  0  0  0  0  0  0  0
    9.1042   -3.4401    0.0000 N   0  0  0  0  0  0  0  0  0  0  0  0
    9.6875   -2.8567    0.0000 C   0  0  0  0  0  0  0  0  0  0  0  0
    9.3130   -2.1217    0.0000 S   0  0  0  0  0  0  0  0  0  0  0  0
    7.6340   -3.4401    0.0000 C   0  0  0  0  0  0  0  0  0  0  0  0
   -9.3177    2.9858    0.0000 O   0  0  0  0  0  0  0  0  0  0  0  0
   -8.7343    3.5692    0.0000 C   0  0  0  0  0  0  0  0  0  0  0  0
  1  2  2  0      
  2  3  1  0      
  3  4  2  0      
  4  5  1  0      
  5  6  2  0      
  6  1  1  0      
  3  7  1  0      
  7  8  1  0      
  8  9  2  0      
  9  4  1  0      
  8 10  1  0      
  7 11  1  0      
 11 12  1  0      
 11 13  2  0      
 12 14  2  0      
 14 15  1  0      
 15 16  2  0      
 16 17  1  0      
 17 18  2  0      
 18 12  1  0      
 16 19  1  0      
  9 20  1  0      
 20 21  1  0      
 21 22  1  0      
 21 23  2  0      
 22 24  1  0      
 24 25  1  0      
 25 26  1  0      
 26 27  1  0      
 27 28  1  0      
 28 29  1  0      
 29 30  1  0      
 30 31  1  0      
 30 32  2  0      
 33 31  1  6      
 33 34  1  0      
 33 35  1  0      
 34 36  1  0      
 34 37  2  0      
 35 38  1  0      
 35 39  1  0      
 35 40  1  0      
 36 41  1  0      
 41 42  1  0      
 42 43  1  0      
 43 44  1  0      
 44 36  1  0      
 41 45  1  1      
 43 46  1  6      
 46 47  2  0      
 46 48  1  0      
 49 48  1  1      
 49 50  1  0      
 51 52  2  0      
 52 53  1  0      
 53 54  2  0      
 54 55  1  0      
 55 56  2  0      
 56 51  1  0      
 54 57  1  0      
 57 58  2  0      
 58 59  1  0      
 59 60  2  0      
 60 61  1  0      
 61 57  1  0      
 58 62  1  0      
 49 51  1  0      
  6 63  1  0      
 63 64  1  0      
M  END
