MCSJ25_0048.mol
  ChemDraw07042413512D

 24 26  0  0  0  0  0  0  0  0999 V2000
   -4.4401    0.1830    0.0000 C   0  0  0  0  0  0  0  0  0  0  0  0
   -4.1305   -0.5781    0.0000 C   0  0  0  0  0  0  0  0  0  0  0  0
   -3.3165   -0.6905    0.0000 C   0  0  0  0  0  0  0  0  0  0  0  0
   -2.8122   -0.0418    0.0000 C   0  0  0  0  0  0  0  0  0  0  0  0
   -3.1218    0.7193    0.0000 C   0  0  0  0  0  0  0  0  0  0  0  0
   -3.9358    0.8317    0.0000 C   0  0  0  0  0  0  0  0  0  0  0  0
   -2.8554   -1.3706    0.0000 N   0  0  0  0  0  0  0  0  0  0  0  0
   -2.0661   -1.1422    0.0000 C   0  0  0  0  0  0  0  0  0  0  0  0
   -2.0394   -0.3210    0.0000 C   0  0  0  0  0  0  0  0  0  0  0  0
   -1.3593    0.1401    0.0000 S   0  0  0  0  0  0  0  0  0  0  0  0
   -0.6199   -0.2184    0.0000 C   0  0  0  0  0  0  0  0  0  0  0  0
    0.0602    0.2427    0.0000 C   0  0  0  0  0  0  0  0  0  0  0  0
    0.7995   -0.1157    0.0000 N   0  0  0  0  0  0  0  0  0  0  0  0
    0.0009    1.0622    0.0000 O   0  0  0  0  0  0  0  0  0  0  0  0
    1.4796    0.3454    0.0000 C   0  0  0  0  0  0  0  0  0  0  0  0
    2.2190   -0.0131    0.0000 C   0  0  0  0  0  0  0  0  0  0  0  0
    2.2783   -0.8326    0.0000 C   0  0  0  0  0  0  0  0  0  0  0  0
    3.0176   -1.1911    0.0000 C   0  0  0  0  0  0  0  0  0  0  0  0
    3.6977   -0.7300    0.0000 C   0  0  0  0  0  0  0  0  0  0  0  0
    3.6385    0.0896    0.0000 C   0  0  0  0  0  0  0  0  0  0  0  0
    2.8991    0.4480    0.0000 C   0  0  0  0  0  0  0  0  0  0  0  0
   -2.6154    1.3706    0.0000 Br  0  0  0  0  0  0  0  0  0  0  0  0
    4.3213    0.5525    0.0000 Cl  0  0  0  0  0  0  0  0  0  0  0  0
    4.4401   -1.0899    0.0000 Cl  0  0  0  0  0  0  0  0  0  0  0  0
  1  2  2  0      
  2  3  1  0      
  3  4  2  0      
  4  5  1  0      
  5  6  2  0      
  6  1  1  0      
  3  7  1  0      
  7  8  1  0      
  8  9  2  0      
  9  4  1  0      
  9 10  1  0      
 10 11  1  0      
 11 12  1  0      
 12 13  1  0      
 12 14  2  0      
 13 15  1  0      
 15 16  1  0      
 16 17  2  0      
 17 18  1  0      
 18 19  2  0      
 19 20  1  0      
 20 21  2  0      
 21 16  1  0      
  5 22  1  0      
 20 23  1  0      
 19 24  1  0      
M  END
