MCSJ25_0030.mol
  ChemDraw04192413112D

 18 19  0  0  0  0  0  0  0  0999 V2000
   -1.0473    1.2722    0.0000 C   0  0  0  0  0  0  0  0  0  0  0  0
   -1.0473    0.4472    0.0000 C   0  0  0  0  0  0  0  0  0  0  0  0
   -0.3328    0.0347    0.0000 C   0  0  0  0  0  0  0  0  0  0  0  0
    0.3817    0.4472    0.0000 C   0  0  0  0  0  0  0  0  0  0  0  0
    0.3817    1.2722    0.0000 C   0  0  0  0  0  0  0  0  0  0  0  0
   -0.3328    1.6847    0.0000 C   0  0  0  0  0  0  0  0  0  0  0  0
    1.1663    0.1923    0.0000 N   0  0  0  0  0  0  0  0  0  0  0  0
    1.6512    0.8597    0.0000 C   0  0  0  0  0  0  0  0  0  0  0  0
    1.1663    1.5272    0.0000 C   0  0  0  0  0  0  0  0  0  0  0  0
    1.3798    2.3241    0.0000 O   0  0  0  0  0  0  0  0  0  0  0  0
    2.4762    0.8597    0.0000 O   0  0  0  0  0  0  0  0  0  0  0  0
   -1.7617    1.6847    0.0000 C   0  0  0  0  0  0  0  0  0  0  0  0
   -2.4762    1.2722    0.0000 N   0  0  0  0  0  0  0  0  0  0  0  0
    1.4212   -0.5923    0.0000 C   0  0  0  0  0  0  0  0  0  0  0  0
    0.8379   -1.1757    0.0000 C   0  0  0  0  0  0  0  0  0  0  0  0
    0.9669   -1.9905    0.0000 C   0  0  0  0  0  0  0  0  0  0  0  0
   -1.7617    2.5097    0.0000 O   0  0  0  0  0  0  0  0  0  0  0  0
    0.3258   -2.5097    0.0000 C   0  0  0  0  0  0  0  0  0  0  0  0
  1  2  2  0      
  2  3  1  0      
  3  4  2  0      
  4  5  1  0      
  5  6  2  0      
  6  1  1  0      
  4  7  1  0      
  7  8  1  0      
  8  9  1  0      
  9  5  1  0      
  9 10  2  0      
  8 11  2  0      
  1 12  1  0      
 12 13  1  0      
  7 14  1  0      
 14 15  1  0      
 16 15  1  0      
 12 17  2  0      
 16 18  1  0      
M  END
