MCSJ12_0004.mol
  ChemDraw02082410522D

 45 48  0  0  1  0  0  0  0  0999 V2000
   -5.7158    1.2227    0.0000 C   0  0  0  0  0  0  0  0  0  0  0  0
   -5.7158    0.3977    0.0000 C   0  0  0  0  0  0  0  0  0  0  0  0
   -5.0013   -0.0148    0.0000 C   0  0  0  0  0  0  0  0  0  0  0  0
   -4.2868    0.3977    0.0000 C   0  0  0  0  0  0  0  0  0  0  0  0
   -4.2868    1.2227    0.0000 C   0  0  0  0  0  0  0  0  0  0  0  0
   -5.0013    1.6352    0.0000 C   0  0  0  0  0  0  0  0  0  0  0  0
   -3.5724    1.6352    0.0000 C   0  0  0  0  0  0  0  0  0  0  0  0
   -2.8579    1.2227    0.0000 C   0  0  0  0  0  0  0  0  0  0  0  0
   -2.1434    1.6352    0.0000 C   0  0  0  0  0  0  0  0  0  0  0  0
   -2.1434    2.4602    0.0000 C   0  0  0  0  0  0  0  0  0  0  0  0
   -2.8579    2.8727    0.0000 C   0  0  0  0  0  0  0  0  0  0  0  0
   -3.5724    2.4602    0.0000 C   0  0  0  0  0  0  0  0  0  0  0  0
   -1.4289    1.2227    0.0000 S   0  0  0  0  0  0  0  0  0  0  0  0
   -0.7145    1.6352    0.0000 N   0  0  0  0  0  0  0  0  0  0  0  0
   -2.0123    0.6393    0.0000 O   0  0  0  0  0  0  0  0  0  0  0  0
   -0.8456    0.6393    0.0000 O   0  0  0  0  0  0  0  0  0  0  0  0
    0.0000    1.2227    0.0000 C   0  0  0  0  0  0  0  0  0  0  0  0
    0.0000    0.3977    0.0000 C   0  0  0  0  0  0  0  0  0  0  0  0
    0.7145    1.6352    0.0000 C   0  0  0  0  0  0  0  0  0  0  0  0
    0.7145    2.4602    0.0000 O   0  0  0  0  0  0  0  0  0  0  0  0
    1.4289    1.2227    0.0000 N   0  0  0  0  0  0  0  0  0  0  0  0
    0.7145   -0.0148    0.0000 C   0  0  0  0  0  0  0  0  0  0  0  0
    1.4289    0.3977    0.0000 C   0  0  0  0  0  0  0  0  0  0  0  0
    2.1434   -0.0148    0.0000 C   0  0  0  0  0  0  0  0  0  0  0  0
    2.8579    0.3977    0.0000 C   0  0  0  0  0  0  0  0  0  0  0  0
    2.8579    1.2227    0.0000 C   0  0  0  0  0  0  0  0  0  0  0  0
    2.1434    1.6352    0.0000 C   0  0  0  0  0  0  0  0  0  0  0  0
    0.3020   -0.7293    0.0000 C   0  0  0  0  0  0  0  0  0  0  0  0
    0.7145   -1.4437    0.0000 C   0  0  0  0  0  0  0  0  0  0  0  0
    1.5395   -1.4437    0.0000 C   0  0  0  0  0  0  0  0  0  0  0  0
    1.9520   -0.7293    0.0000 C   0  0  0  0  0  0  0  0  0  0  0  0
    1.5395   -0.0148    0.0000 C   0  0  0  0  0  0  0  0  0  0  0  0
    0.3020   -2.1582    0.0000 C   0  0  0  0  0  0  0  0  0  0  0  0
    0.7145   -2.8727    0.0000 N   0  0  0  0  0  0  0  0  0  0  0  0
   -0.5230   -2.1582    0.0000 N   0  0  0  0  0  0  0  0  0  0  0  0
    3.5724   -0.0148    0.0000 N   0  0  0  0  0  0  0  0  0  0  0  0
    4.2868    0.3977    0.0000 C   0  0  0  0  0  0  0  0  0  0  0  0
    5.0013   -0.0148    0.0000 N   0  0  0  0  0  0  0  0  0  0  0  0
    5.7158    0.3977    0.0000 C   0  0  0  0  0  0  0  0  0  0  0  0
   -6.4302   -0.0148    0.0000 C   0  0  0  0  0  0  0  0  0  0  0  0
   -5.0013   -0.8398    0.0000 C   0  0  0  0  0  0  0  0  0  0  0  0
    4.2868    1.2227    0.0000 O   0  0  0  0  0  0  0  0  0  0  0  0
    6.4302   -0.0148    0.0000 C   0  0  0  0  0  0  0  0  0  0  0  0
    5.7158    1.2227    0.0000 C   0  0  0  0  0  0  0  0  0  0  0  0
    6.4302    0.8102    0.0000 C   0  0  0  0  0  0  0  0  0  0  0  0
  1  2  2  0      
  2  3  1  0      
  3  4  2  0      
  4  5  1  0      
  5  6  2  0      
  6  1  1  0      
  5  7  1  0      
  7  8  2  0      
  8  9  1  0      
  9 10  2  0      
 10 11  1  0      
 11 12  2  0      
 12  7  1  0      
  9 13  1  0      
 13 14  1  0      
 13 15  2  0      
 13 16  2  0      
 14 17  1  0      
 17 18  1  6      
 17 19  1  0      
 19 20  2  0      
 19 21  1  0      
 18 22  1  0      
 21 23  1  0      
 23 24  1  0      
 24 25  1  0      
 25 26  1  0      
 26 27  1  0      
 27 21  1  0      
 22 28  2  0      
 28 29  1  0      
 29 30  2  0      
 30 31  1  0      
 31 32  2  0      
 32 22  1  0      
 29 33  1  0      
 33 34  1  0      
 33 35  2  0      
 25 36  1  0      
 36 37  1  0      
 37 38  1  0      
 39 38  1  0      
  2 40  1  0      
  3 41  1  0      
 37 42  2  0      
 39 43  1  0      
 39 44  1  0      
 39 45  1  0      
M  END
