MCSJ20_0008.mol
  ChemDraw04192410082D

 28 30  0  0  0  0  0  0  0  0999 V2000
   -2.8579   -0.6188    0.0000 C   0  0  0  0  0  0  0  0  0  0  0  0
   -2.8579   -1.4438    0.0000 C   0  0  0  0  0  0  0  0  0  0  0  0
   -2.1434   -1.8563    0.0000 C   0  0  0  0  0  0  0  0  0  0  0  0
   -1.4289   -1.4438    0.0000 C   0  0  0  0  0  0  0  0  0  0  0  0
   -1.4289   -0.6188    0.0000 C   0  0  0  0  0  0  0  0  0  0  0  0
   -2.1434   -0.2063    0.0000 C   0  0  0  0  0  0  0  0  0  0  0  0
   -0.7145   -1.8563    0.0000 C   0  0  0  0  0  0  0  0  0  0  0  0
   -0.0000   -1.4438    0.0000 O   0  0  0  0  0  0  0  0  0  0  0  0
   -0.7145   -2.6813    0.0000 O   0  0  0  0  0  0  0  0  0  0  0  0
    0.7145   -1.8563    0.0000 C   0  0  0  0  0  0  0  0  0  0  0  0
    0.7145   -2.6813    0.0000 C   0  0  0  0  0  0  0  0  0  0  0  0
    1.4289   -3.0937    0.0000 N   0  0  0  0  0  0  0  0  0  0  0  0
    2.1434   -2.6813    0.0000 C   0  0  0  0  0  0  0  0  0  0  0  0
    2.1434   -1.8563    0.0000 C   0  0  0  0  0  0  0  0  0  0  0  0
    1.4289   -1.4438    0.0000 C   0  0  0  0  0  0  0  0  0  0  0  0
    2.8579   -1.4438    0.0000 Cl  0  0  0  0  0  0  0  0  0  0  0  0
   -0.7145   -0.2063    0.0000 O   0  0  0  0  0  0  0  0  0  0  0  0
   -2.1434    0.6187    0.0000 C   0  0  0  0  0  0  0  0  0  0  0  0
   -0.7145    0.6187    0.0000 C   0  0  0  0  0  0  0  0  0  0  0  0
   -1.4289    1.0312    0.0000 O   0  0  0  0  0  0  0  0  0  0  0  0
   -0.0000    1.0312    0.0000 C   0  0  0  0  0  0  0  0  0  0  0  0
    0.7145    0.6188    0.0000 C   0  0  0  0  0  0  0  0  0  0  0  0
    1.4289    1.0312    0.0000 C   0  0  0  0  0  0  0  0  0  0  0  0
    1.4289    1.8562    0.0000 C   0  0  0  0  0  0  0  0  0  0  0  0
    0.7145    2.2687    0.0000 C   0  0  0  0  0  0  0  0  0  0  0  0
   -0.0000    1.8562    0.0000 C   0  0  0  0  0  0  0  0  0  0  0  0
   -0.7145    2.2687    0.0000 O   0  0  0  0  0  0  0  0  0  0  0  0
    0.7145    3.0937    0.0000 C   0  0  0  0  0  0  0  0  0  0  0  0
  1  2  2  0      
  2  3  1  0      
  3  4  2  0      
  4  5  1  0      
  5  6  2  0      
  6  1  1  0      
  4  7  1  0      
  7  8  1  0      
  7  9  2  0      
  8 10  1  0      
 10 11  2  0      
 11 12  1  0      
 12 13  2  0      
 13 14  1  0      
 14 15  2  0      
 15 10  1  0      
 14 16  1  0      
  5 17  1  0      
  6 18  1  0      
 17 19  1  0      
 19 20  2  0      
 19 21  1  0      
 21 22  2  0      
 22 23  1  0      
 23 24  2  0      
 24 25  1  0      
 25 26  2  0      
 26 21  1  0      
 26 27  1  0      
 25 28  1  0      
M  END
