MCSJ25_0006.mol
  ChemDraw04192412242D

 18 20  0  0  0  0  0  0  0  0999 V2000
   -1.7617    1.2375    0.0000 C   0  0  0  0  0  0  0  0  0  0  0  0
   -1.7617    0.4125    0.0000 C   0  0  0  0  0  0  0  0  0  0  0  0
   -1.0473   -0.0000    0.0000 C   0  0  0  0  0  0  0  0  0  0  0  0
   -0.3328    0.4125    0.0000 C   0  0  0  0  0  0  0  0  0  0  0  0
   -0.3328    1.2375    0.0000 C   0  0  0  0  0  0  0  0  0  0  0  0
   -1.0473    1.6500    0.0000 C   0  0  0  0  0  0  0  0  0  0  0  0
    0.4518    0.1576    0.0000 N   0  0  0  0  0  0  0  0  0  0  0  0
    0.9367    0.8250    0.0000 C   0  0  0  0  0  0  0  0  0  0  0  0
    0.4518    1.4924    0.0000 C   0  0  0  0  0  0  0  0  0  0  0  0
    0.7068   -0.6271    0.0000 C   0  0  0  0  0  0  0  0  0  0  0  0
   -0.0077   -1.0396    0.0000 N   0  0  0  0  0  0  0  0  0  0  0  0
    1.7617    0.8250    0.0000 O   0  0  0  0  0  0  0  0  0  0  0  0
    0.7068    2.2771    0.0000 O   0  0  0  0  0  0  0  0  0  0  0  0
   -0.7222   -0.6271    0.0000 C   0  0  0  0  0  0  0  0  0  0  0  0
   -1.4367   -1.0396    0.0000 C   0  0  0  0  0  0  0  0  0  0  0  0
   -1.4367   -1.8646    0.0000 O   0  0  0  0  0  0  0  0  0  0  0  0
   -0.7222   -2.2771    0.0000 C   0  0  0  0  0  0  0  0  0  0  0  0
   -0.0077   -1.8646    0.0000 C   0  0  0  0  0  0  0  0  0  0  0  0
  1  2  2  0      
  2  3  1  0      
  3  4  2  0      
  4  5  1  0      
  5  6  2  0      
  6  1  1  0      
  4  7  1  0      
  7  8  1  0      
  8  9  1  0      
  9  5  1  0      
  7 10  1  0      
 10 11  1  0      
  8 12  2  0      
  9 13  2  0      
 11 14  1  0      
 14 15  1  0      
 15 16  1  0      
 16 17  1  0      
 17 18  1  0      
 18 11  1  0      
M  END
