MCSJ25_0046.mol
  ChemDraw04192413362D

 22 24  0  0  1  0  0  0  0  0999 V2000
   -4.0689    0.2842    0.0000 C   0  0  0  0  0  0  0  0  0  0  0  0
   -3.7593   -0.4769    0.0000 C   0  0  0  0  0  0  0  0  0  0  0  0
   -2.9454   -0.5893    0.0000 C   0  0  0  0  0  0  0  0  0  0  0  0
   -2.4410    0.0594    0.0000 C   0  0  0  0  0  0  0  0  0  0  0  0
   -2.7506    0.8205    0.0000 C   0  0  0  0  0  0  0  0  0  0  0  0
   -3.5646    0.9329    0.0000 C   0  0  0  0  0  0  0  0  0  0  0  0
   -2.4843   -1.2694    0.0000 N   0  0  0  0  0  0  0  0  0  0  0  0
   -1.6950   -1.0411    0.0000 C   0  0  0  0  0  0  0  0  0  0  0  0
   -1.6682   -0.2198    0.0000 C   0  0  0  0  0  0  0  0  0  0  0  0
   -0.9881    0.2413    0.0000 S   0  0  0  0  0  0  0  0  0  0  0  0
   -0.2488   -0.1172    0.0000 C   0  0  0  0  0  0  0  0  0  0  0  0
    0.4313    0.3439    0.0000 C   0  0  0  0  0  0  0  0  0  0  0  0
    1.1707   -0.0145    0.0000 N   0  0  0  0  0  0  0  0  0  0  0  0
    0.3721    1.1634    0.0000 O   0  0  0  0  0  0  0  0  0  0  0  0
    1.8508    0.4466    0.0000 C   0  0  0  0  0  0  0  0  0  0  0  0
    2.5902    0.0881    0.0000 C   0  0  0  0  0  0  0  0  0  0  0  0
    2.6494   -0.7314    0.0000 C   0  0  0  0  0  0  0  0  0  0  0  0
    3.3888   -1.0899    0.0000 C   0  0  0  0  0  0  0  0  0  0  0  0
    4.0689   -0.6288    0.0000 C   0  0  0  0  0  0  0  0  0  0  0  0
    4.0096    0.1908    0.0000 C   0  0  0  0  0  0  0  0  0  0  0  0
    3.2703    0.5492    0.0000 C   0  0  0  0  0  0  0  0  0  0  0  0
    1.7913    1.2694    0.0000 C   0  0  0  0  0  0  0  0  0  0  0  0
  1  2  2  0      
  2  3  1  0      
  3  4  2  0      
  4  5  1  0      
  5  6  2  0      
  6  1  1  0      
  3  7  1  0      
  7  8  1  0      
  8  9  2  0      
  9  4  1  0      
  9 10  1  0      
 10 11  1  0      
 11 12  1  0      
 12 13  1  0      
 12 14  2  0      
 13 15  1  0      
 15 16  1  0      
 16 17  2  0      
 17 18  1  0      
 18 19  2  0      
 19 20  1  0      
 20 21  2  0      
 21 16  1  0      
 15 22  1  6      
M  END
