MCSJ25_0013.mol
  ChemDraw04192412442D

 15 16  0  0  0  0  0  0  0  0999 V2000
   -1.3974    1.1097    0.0000 C   0  0  0  0  0  0  0  0  0  0  0  0
   -1.3974    0.2880    0.0000 C   0  0  0  0  0  0  0  0  0  0  0  0
   -0.6858   -0.1228    0.0000 C   0  0  0  0  0  0  0  0  0  0  0  0
    0.0258    0.2880    0.0000 C   0  0  0  0  0  0  0  0  0  0  0  0
    0.0258    1.1097    0.0000 C   0  0  0  0  0  0  0  0  0  0  0  0
   -0.6858    1.5205    0.0000 C   0  0  0  0  0  0  0  0  0  0  0  0
    0.8072    0.0341    0.0000 N   0  0  0  0  0  0  0  0  0  0  0  0
    1.2902    0.6989    0.0000 C   0  0  0  0  0  0  0  0  0  0  0  0
    0.8072    1.3636    0.0000 C   0  0  0  0  0  0  0  0  0  0  0  0
    1.0611   -0.7473    0.0000 C   0  0  0  0  0  0  0  0  0  0  0  0
    2.1119    0.6989    0.0000 O   0  0  0  0  0  0  0  0  0  0  0  0
    1.0611    2.1451    0.0000 O   0  0  0  0  0  0  0  0  0  0  0  0
   -2.1119    1.5222    0.0000 I   0  0  0  0  0  0  0  0  0  0  0  0
    0.5091   -1.3604    0.0000 C   0  0  0  0  0  0  0  0  0  0  0  0
    0.7640   -2.1451    0.0000 C   0  0  0  0  0  0  0  0  0  0  0  0
  1  2  2  0      
  2  3  1  0      
  3  4  2  0      
  4  5  1  0      
  5  6  2  0      
  6  1  1  0      
  4  7  1  0      
  7  8  1  0      
  8  9  1  0      
  9  5  1  0      
  7 10  1  0      
  8 11  2  0      
  9 12  2  0      
  1 13  1  0      
 10 14  1  0      
 14 15  1  0      
M  END
