MCSJ58_0001.mol
  ChemDraw04192416022D

 56 60  0  0  1  0  0  0  0  0999 V2000
   -0.8183   -2.8297    0.0000 O   0  0  0  0  0  0  0  0  0  0  0  0
   -0.8183   -3.6514    0.0000 C   0  0  0  0  0  0  0  0  0  0  0  0
   -0.1067   -4.0623    0.0000 C   0  0  0  0  0  0  0  0  0  0  0  0
    0.6049   -3.6514    0.0000 C   0  0  0  0  0  0  0  0  0  0  0  0
    0.6049   -2.8297    0.0000 C   0  0  0  0  0  0  0  0  0  0  0  0
   -0.1067   -2.4189    0.0000 C   0  0  0  0  0  0  0  0  0  0  0  0
   -0.1067   -1.5972    0.0000 O   0  0  0  0  0  0  0  0  0  0  0  0
    1.3164   -2.4189    0.0000 O   0  0  0  0  0  0  0  0  0  0  0  0
   -0.1067   -4.8839    0.0000 O   0  0  0  0  0  0  0  0  0  0  0  0
   -0.8183   -1.1864    0.0000 C   0  0  0  0  0  0  0  0  0  0  0  0
   -1.3013   -0.5217    0.0000 C   0  0  0  0  0  0  0  0  0  0  0  0
   -2.0827   -0.7756    0.0000 C   0  0  0  0  0  0  0  0  0  0  0  0
   -2.0827   -1.5972    0.0000 C   0  0  0  0  0  0  0  0  0  0  0  0
   -1.3013   -1.8512    0.0000 O   0  0  0  0  0  0  0  0  0  0  0  0
   -2.7475   -2.0802    0.0000 C   0  0  0  0  0  0  0  0  0  0  0  0
   -0.1067   -0.7756    0.0000 C   0  0  0  0  0  0  0  0  0  0  0  0
   -0.1067    0.0461    0.0000 O   0  0  0  0  0  0  0  0  0  0  0  0
   -1.5299   -4.0623    0.0000 C   0  0  0  0  0  0  0  0  0  0  0  0
   -1.5299   -4.8839    0.0000 O   0  0  0  0  0  0  0  0  0  0  0  0
    1.3164   -4.0623    0.0000 O   0  0  0  0  0  0  0  0  0  0  0  0
   -3.4981   -1.7460    0.0000 O   0  0  0  0  0  0  0  0  0  0  0  0
   -2.7475   -0.2926    0.0000 O   0  0  0  0  0  0  0  0  0  0  0  0
   -1.0474    0.2598    0.0000 O   0  0  0  0  0  0  0  0  0  0  0  0
    0.8183    0.5802    0.0000 C   0  0  0  0  0  0  0  0  0  0  0  0
    1.3013   -0.0846    0.0000 C   0  0  0  0  0  0  0  0  0  0  0  0
    2.0827    0.1694    0.0000 C   0  0  0  0  0  0  0  0  0  0  0  0
    2.0827    0.9910    0.0000 C   0  0  0  0  0  0  0  0  0  0  0  0
    1.3013    1.2449    0.0000 O   0  0  0  0  0  0  0  0  0  0  0  0
   -0.1067    1.1143    0.0000 C   0  0  0  0  0  0  0  0  0  0  0  0
   -0.1067    1.9359    0.0000 O   0  0  0  0  0  0  0  0  0  0  0  0
    2.7475   -0.3136    0.0000 O   0  0  0  0  0  0  0  0  0  0  0  0
    2.7475    1.4740    0.0000 C   0  0  0  0  0  0  0  0  0  0  0  0
    1.0474   -0.8660    0.0000 O   0  0  0  0  0  0  0  0  0  0  0  0
    3.4981    1.1398    0.0000 O   0  0  0  0  0  0  0  0  0  0  0  0
   -0.8183    2.3468    0.0000 C   0  0  0  0  0  0  0  0  0  0  0  0
   -1.3013    3.0115    0.0000 O   0  0  0  0  0  0  0  0  0  0  0  0
   -2.0827    2.7576    0.0000 C   0  0  0  0  0  0  0  0  0  0  0  0
   -2.0827    1.9359    0.0000 C   0  0  0  0  0  0  0  0  0  0  0  0
   -1.3013    1.6820    0.0000 C   0  0  0  0  0  0  0  0  0  0  0  0
   -0.1067    2.7576    0.0000 C   0  0  0  0  0  0  0  0  0  0  0  0
   -2.7475    1.4530    0.0000 O   0  0  0  0  0  0  0  0  0  0  0  0
   -1.0474    0.9006    0.0000 O   0  0  0  0  0  0  0  0  0  0  0  0
   -2.7475    3.2406    0.0000 C   0  0  0  0  0  0  0  0  0  0  0  0
   -3.4981    2.9064    0.0000 O   0  0  0  0  0  0  0  0  0  0  0  0
   -0.1067    3.5793    0.0000 O   0  0  0  0  0  0  0  0  0  0  0  0
    0.6049    3.9901    0.0000 C   0  0  0  0  0  0  0  0  0  0  0  0
    1.0878    3.3254    0.0000 C   0  0  0  0  0  0  0  0  0  0  0  0
    1.8693    3.5793    0.0000 C   0  0  0  0  0  0  0  0  0  0  0  0
    1.8693    4.4010    0.0000 C   0  0  0  0  0  0  0  0  0  0  0  0
    1.0878    4.6549    0.0000 O   0  0  0  0  0  0  0  0  0  0  0  0
   -0.1067    4.4010    0.0000 C   0  0  0  0  0  0  0  0  0  0  0  0
   -0.8183    3.9901    0.0000 O   0  0  0  0  0  0  0  0  0  0  0  0
    2.5340    3.0963    0.0000 O   0  0  0  0  0  0  0  0  0  0  0  0
    2.5340    4.8839    0.0000 C   0  0  0  0  0  0  0  0  0  0  0  0
    0.8339    2.5439    0.0000 O   0  0  0  0  0  0  0  0  0  0  0  0
    3.2847    4.5497    0.0000 O   0  0  0  0  0  0  0  0  0  0  0  0
  1  2  1  0      
  2  3  1  0      
  3  4  1  0      
  4  5  1  0      
  5  6  1  0      
  6  1  1  0      
  6  7  1  6      
  5  8  1  6      
  3  9  1  6      
 10  7  1  6      
 10 11  1  0      
 11 12  1  0      
 12 13  1  0      
 13 14  1  0      
 14 10  1  0      
 13 15  1  6      
 10 16  1  1      
 16 17  1  0      
  2 18  1  1      
 18 19  1  0      
  4 20  1  1      
 15 21  1  0      
 12 22  1  1      
 11 23  1  6      
 24 17  1  6      
 24 25  1  0      
 25 26  1  0      
 26 27  1  0      
 27 28  1  0      
 28 24  1  0      
 24 29  1  1      
 29 30  1  0      
 26 31  1  1      
 27 32  1  6      
 25 33  1  6      
 32 34  1  0      
 35 30  1  1      
 35 36  1  0      
 36 37  1  0      
 37 38  1  0      
 38 39  1  0      
 39 35  1  0      
 35 40  1  6      
 38 41  1  6      
 39 42  1  1      
 37 43  1  1      
 43 44  1  0      
 40 45  1  0      
 46 45  1  6      
 46 47  1  0      
 47 48  1  0      
 48 49  1  0      
 49 50  1  0      
 50 46  1  0      
 46 51  1  1      
 51 52  1  0      
 48 53  1  1      
 49 54  1  6      
 47 55  1  6      
 54 56  1  0      
M  END
