MCSJ25_0087.mol
  ChemDraw04192415162D

 42 47  0  0  1  0  0  0  0  0999 V2000
   -0.0988   -0.1899    0.0000 C   0  0  0  0  0  0  0  0  0  0  0  0
   -0.0988   -1.0149    0.0000 C   0  0  0  0  0  0  0  0  0  0  0  0
    0.6157   -1.4274    0.0000 N   0  0  0  0  0  0  0  0  0  0  0  0
    1.3302   -1.0149    0.0000 C   0  0  0  0  0  0  0  0  0  0  0  0
    1.3302   -0.1899    0.0000 C   0  0  0  0  0  0  0  0  0  0  0  0
    0.6157    0.2226    0.0000 C   0  0  0  0  0  0  0  0  0  0  0  0
    0.6157    1.0476    0.0000 O   0  0  0  0  0  0  0  0  0  0  0  0
   -0.8132    0.2226    0.0000 C   0  0  0  0  0  0  0  0  0  0  0  0
   -1.5277   -0.1899    0.0000 C   0  0  0  0  0  0  0  0  0  0  0  0
    2.0896   -0.5122    0.0000 C   0  0  0  0  0  0  0  0  0  0  0  0
    2.6308    0.1105    0.0000 N   0  0  0  0  0  0  0  0  0  0  0  0
    2.2058    0.8177    0.0000 C   0  0  0  0  0  0  0  0  0  0  0  0
    1.4020    0.6320    0.0000 C   0  0  0  0  0  0  0  0  0  0  0  0
    0.9895    1.3465    0.0000 H   0  0  0  0  0  0  0  0  0  0  0  0
    1.8145    1.3465    0.0000 C   0  0  0  0  0  0  0  0  0  0  0  0
    2.0896   -1.3372    0.0000 C   0  0  0  0  0  0  0  0  0  0  0  0
    2.8742   -1.5921    0.0000 C   0  0  0  0  0  0  0  0  0  0  0  0
    3.3592   -0.9247    0.0000 N   0  0  0  0  0  0  0  0  0  0  0  0
    2.8742   -0.2572    0.0000 C   0  0  0  0  0  0  0  0  0  0  0  0
    1.4765   -1.8892    0.0000 C   0  0  0  0  0  0  0  0  0  0  0  0
    1.6480   -2.6962    0.0000 C   0  0  0  0  0  0  0  0  0  0  0  0
    2.4327   -2.9511    0.0000 C   0  0  0  0  0  0  0  0  0  0  0  0
    3.0458   -2.3991    0.0000 C   0  0  0  0  0  0  0  0  0  0  0  0
    3.6711   -0.0437    0.0000 O   0  0  0  0  0  0  0  0  0  0  0  0
   -2.2422    0.2226    0.0000 C   0  0  0  0  0  0  0  0  0  0  0  0
   -2.9567   -0.1899    0.0000 C   0  0  0  0  0  0  0  0  0  0  0  0
   -2.9567   -1.0149    0.0000 C   0  0  0  0  0  0  0  0  0  0  0  0
   -2.2422   -1.4274    0.0000 C   0  0  0  0  0  0  0  0  0  0  0  0
   -1.5277   -1.0149    0.0000 C   0  0  0  0  0  0  0  0  0  0  0  0
    2.6395    1.3465    0.0000 C   0  0  0  0  0  0  0  0  0  0  0  0
    3.0520    2.0609    0.0000 C   0  0  0  0  0  0  0  0  0  0  0  0
    2.6395    2.7754    0.0000 C   0  0  0  0  0  0  0  0  0  0  0  0
    1.8145    2.7754    0.0000 C   0  0  0  0  0  0  0  0  0  0  0  0
    1.4020    2.0609    0.0000 C   0  0  0  0  0  0  0  0  0  0  0  0
    0.6157   -2.2524    0.0000 S   0  0  0  0  0  0  0  0  0  0  0  0
   -0.2093   -2.2524    0.0000 O   0  0  0  0  0  0  0  0  0  0  0  0
    3.3453    0.5230    0.0000 C   0  0  0  0  0  0  0  0  0  0  0  0
    3.0520    3.4899    0.0000 F   0  0  0  0  0  0  0  0  0  0  0  0
   -3.6711   -1.4274    0.0000 F   0  0  0  0  0  0  0  0  0  0  0  0
    0.6157   -3.0774    0.0000 C   0  0  0  0  0  0  0  0  0  0  0  0
   -0.0988   -3.4899    0.0000 C   0  0  0  0  0  0  0  0  0  0  0  0
    1.3302   -2.6649    0.0000 C   0  0  0  0  0  0  0  0  0  0  0  0
  1  2  1  0      
  2  3  1  0      
  3  4  1  0      
  5  4  1  1      
  5  6  1  6      
  6  1  1  0      
  6  7  2  0      
  1  8  2  0      
  8  9  1  0      
  5 10  1  0      
 10 11  1  0      
 11 12  1  0      
 12 13  1  0      
 13  5  1  0      
 13 14  1  6      
 13 15  1  1      
 10 16  1  6      
 16 17  2  0      
 17 18  1  0      
 18 19  1  0      
 10 19  1  1      
 16 20  1  0      
 20 21  2  0      
 21 22  1  0      
 22 23  2  0      
 23 17  1  0      
 19 24  2  0      
  9 25  2  0      
 25 26  1  0      
 26 27  2  0      
 27 28  1  0      
 28 29  2  0      
 29  9  1  0      
 15 30  2  0      
 30 31  1  0      
 31 32  2  0      
 32 33  1  0      
 33 34  2  0      
 34 15  1  0      
  3 35  1  0      
 35 36  2  0      
 11 37  1  0      
 32 38  1  0      
 27 39  1  0      
 35 40  1  0      
 40 41  1  0      
 35 42  2  0      
M  END
