MCSJ25_0042.mol
  ChemDraw04192413282D

 25 27  0  0  0  0  0  0  0  0999 V2000
   -3.5883    3.2472    0.0000 C   0  0  0  0  0  0  0  0  0  0  0  0
   -3.7592    2.4435    0.0000 C   0  0  0  0  0  0  0  0  0  0  0  0
   -3.1485    1.8937    0.0000 C   0  0  0  0  0  0  0  0  0  0  0  0
   -2.3671    2.1476    0.0000 C   0  0  0  0  0  0  0  0  0  0  0  0
   -2.1963    2.9513    0.0000 C   0  0  0  0  0  0  0  0  0  0  0  0
   -2.8069    3.5011    0.0000 C   0  0  0  0  0  0  0  0  0  0  0  0
   -3.1485    1.0720    0.0000 N   0  0  0  0  0  0  0  0  0  0  0  0
   -2.3671    0.8181    0.0000 C   0  0  0  0  0  0  0  0  0  0  0  0
   -1.8841    1.4829    0.0000 C   0  0  0  0  0  0  0  0  0  0  0  0
   -1.0624    1.4829    0.0000 S   0  0  0  0  0  0  0  0  0  0  0  0
   -0.6516    0.7713    0.0000 C   0  0  0  0  0  0  0  0  0  0  0  0
    0.1701    0.7713    0.0000 C   0  0  0  0  0  0  0  0  0  0  0  0
    0.5809    0.0597    0.0000 N   0  0  0  0  0  0  0  0  0  0  0  0
    0.5809    1.4829    0.0000 O   0  0  0  0  0  0  0  0  0  0  0  0
    1.4026    0.0597    0.0000 C   0  0  0  0  0  0  0  0  0  0  0  0
    1.8134   -0.6519    0.0000 C   0  0  0  0  0  0  0  0  0  0  0  0
    1.4026   -1.3635    0.0000 C   0  0  0  0  0  0  0  0  0  0  0  0
    1.8134   -2.0751    0.0000 C   0  0  0  0  0  0  0  0  0  0  0  0
    2.6351   -2.0751    0.0000 C   0  0  0  0  0  0  0  0  0  0  0  0
    3.0459   -1.3635    0.0000 C   0  0  0  0  0  0  0  0  0  0  0  0
    2.6351   -0.6519    0.0000 C   0  0  0  0  0  0  0  0  0  0  0  0
    3.0476   -2.7895    0.0000 C   0  0  0  0  0  0  0  0  0  0  0  0
    2.3360   -3.2004    0.0000 F   0  0  0  0  0  0  0  0  0  0  0  0
    3.4584   -3.5011    0.0000 F   0  0  0  0  0  0  0  0  0  0  0  0
    3.7592   -2.3787    0.0000 F   0  0  0  0  0  0  0  0  0  0  0  0
 22 23  1  0      
 22 24  1  0      
 22 25  1  0      
 19 22  1  0      
  1  2  2  0      
  2  3  1  0      
  3  4  2  0      
  4  5  1  0      
  5  6  2  0      
  6  1  1  0      
  3  7  1  0      
  7  8  1  0      
  8  9  2  0      
  9  4  1  0      
  9 10  1  0      
 10 11  1  0      
 11 12  1  0      
 12 13  1  0      
 12 14  2  0      
 13 15  1  0      
 15 16  1  0      
 16 17  2  0      
 17 18  1  0      
 18 19  2  0      
 19 20  1  0      
 20 21  2  0      
 21 16  1  0      
M  STY  1   1 SUP
M  SLB  1   1   1
M  SAL   1  4  22  23  24  25
M  SBL   1  1   4
M  SMT   1 CF3
M  SBV   1   4   -0.4125    0.7145
M  END
