SA1_0004
  MOE2015           3D

 20 21  0  0  1  0  0  0  0  0999 V2000
    1.3554   -0.4036   -0.5646 S   0  0  0  0  0  0  0  0  0  0  0  0
    1.0095   -1.8946    0.2432 C   0  0  0  0  0  0  0  0  0  0  0  0
    1.8770   -2.2617    1.1575 N   0  0  0  0  0  0  0  0  0  0  0  0
    2.8680   -1.3288    1.2582 C   0  0  0  0  0  0  0  0  0  0  0  0
    3.6643   -1.4488    1.9486 H   0  0  0  0  0  0  0  0  0  0  0  0
    2.7534   -0.2648    0.4240 C   0  0  0  0  0  0  0  0  0  0  0  0
   -1.7353   -0.3442    0.8761 S   0  0  0  0  0  0  0  0  0  0  0  0
   -3.1649    0.1290    0.0764 C   0  0  0  0  0  0  0  0  0  0  0  0
   -3.5401   -0.6121   -0.9145 N   0  0  0  0  0  0  0  0  0  0  0  0
   -2.6580   -1.6626   -1.1073 N   0  0  0  0  0  0  0  0  0  0  0  0
   -1.6755   -1.6362   -0.2503 C   0  0  0  0  0  0  0  0  0  0  0  0
   -0.3980   -2.8317   -0.1918 S   0  0  0  0  0  0  0  0  0  0  0  0
   -3.8609    1.2506    0.4857 N   0  0  0  0  0  0  0  0  0  0  0  0
    3.7061    0.9019    0.3354 N   0  3  3  0  0  0  0  0  0  0  0  0
    4.3460    0.9744    1.1925 H   0  0  0  0  0  0  0  0  0  0  0  0
    3.0371    1.9244    0.1423 O   0  5  0  0  0  0  0  0  0  0  0  0
    4.3810    0.7821   -0.8274 O   0  0  0  0  0  0  0  0  0  0  0  0
    3.8614    1.3968   -1.3760 H   0  0  0  0  0  0  0  0  0  0  0  0
   -3.2597    1.9589    0.9252 H   0  0  0  0  0  0  0  0  0  0  0  0
   -4.4597    1.6094   -0.2703 H   0  0  0  0  0  0  0  0  0  0  0  0
  1  2  1  0  0  0  0
  1  6  1  0  0  0  0
  2  3  2  0  0  0  0
  2 12  1  0  0  0  0
  3  4  1  0  0  0  0
  4  5  1  0  0  0  0
  4  6  2  0  0  0  0
  6 14  1  0  0  0  0
  7  8  1  0  0  0  0
  7 11  1  0  0  0  0
  8  9  2  0  0  0  0
  8 13  1  0  0  0  0
  9 10  1  0  0  0  0
 10 11  2  0  0  0  0
 11 12  1  0  0  0  0
 13 19  1  0  0  0  0
 13 20  1  0  0  0  0
 14 15  1  0  0  0  0
 14 16  1  0  0  0  0
 14 17  1  0  0  0  0
 17 18  1  0  0  0  0
M  CHG  1  14   1
M  CHG  1  16  -1
M  END
$$$$
