SA1_0003.mol
  ChemDraw02172413512D

 20 23  0  0  0  0  0  0  0  0999 V2000
    2.1764    0.3639    0.0000 C   0  0  0  0  0  0  0  0  0  0  0  0
    2.3434   -0.4440    0.0000 C   0  0  0  0  0  0  0  0  0  0  0  0
    3.1265   -0.7034    0.0000 C   0  0  0  0  0  0  0  0  0  0  0  0
    3.7427   -0.1548    0.0000 C   0  0  0  0  0  0  0  0  0  0  0  0
    3.5758    0.6531    0.0000 C   0  0  0  0  0  0  0  0  0  0  0  0
    2.7926    0.9125    0.0000 C   0  0  0  0  0  0  0  0  0  0  0  0
    1.3528    0.4117    0.0000 S   0  0  0  0  0  0  0  0  0  0  0  0
    1.0528   -0.3568    0.0000 C   0  0  0  0  0  0  0  0  0  0  0  0
    1.6910   -0.8796    0.0000 N   0  0  0  0  0  0  0  0  0  0  0  0
    0.2547   -0.5658    0.0000 S   0  0  0  0  0  0  0  0  0  0  0  0
   -2.3106   -0.4972    0.0000 C   0  0  0  0  0  0  0  0  0  0  0  0
   -2.3138    0.3278    0.0000 C   0  0  0  0  0  0  0  0  0  0  0  0
   -3.0299    0.7375    0.0000 C   0  0  0  0  0  0  0  0  0  0  0  0
   -3.7427    0.3223    0.0000 C   0  0  0  0  0  0  0  0  0  0  0  0
   -3.7395   -0.5027    0.0000 C   0  0  0  0  0  0  0  0  0  0  0  0
   -3.0235   -0.9125    0.0000 C   0  0  0  0  0  0  0  0  0  0  0  0
   -1.5129   -0.7077    0.0000 N   0  0  0  0  0  0  0  0  0  0  0  0
   -1.0663   -0.0140    0.0000 C   0  0  0  0  0  0  0  0  0  0  0  0
   -1.5879    0.6251    0.0000 S   0  0  0  0  0  0  0  0  0  0  0  0
   -0.2426    0.0323    0.0000 S   0  0  0  0  0  0  0  0  0  0  0  0
  1  2  1  0      
  2  3  2  0      
  3  4  1  0      
  4  5  2  0      
  5  6  1  0      
  6  1  2  0      
  1  7  1  0      
  7  8  1  0      
  8  9  2  0      
  9  2  1  0      
  8 10  1  0      
 11 12  1  0      
 12 13  2  0      
 13 14  1  0      
 14 15  2  0      
 15 16  1  0      
 16 11  2  0      
 11 17  1  0      
 17 18  2  0      
 18 19  1  0      
 19 12  1  0      
 18 20  1  0      
 20 10  1  0      
M  END
