SA21_0006.mol
  ChemDraw05232412482D

 28 31  0  0  0  0  0  0  0  0999 V2000
   -3.0950   -0.9059    0.0000 C   0  0  0  0  0  0  0  0  0  0  0  0
   -3.0950   -1.7309    0.0000 C   0  0  0  0  0  0  0  0  0  0  0  0
   -2.3805   -2.1434    0.0000 C   0  0  0  0  0  0  0  0  0  0  0  0
   -1.6660   -1.7309    0.0000 C   0  0  0  0  0  0  0  0  0  0  0  0
   -1.6660   -0.9059    0.0000 N   0  0  0  0  0  0  0  0  0  0  0  0
   -2.3805   -0.4934    0.0000 C   0  0  0  0  0  0  0  0  0  0  0  0
   -0.9516   -2.1434    0.0000 N   0  0  0  0  0  0  0  0  0  0  0  0
   -0.2371   -1.7309    0.0000 C   0  0  0  0  0  0  0  0  0  0  0  0
   -0.2371   -0.9059    0.0000 C   0  0  0  0  0  0  0  0  0  0  0  0
   -0.9516   -0.4934    0.0000 C   0  0  0  0  0  0  0  0  0  0  0  0
    0.5475   -1.9859    0.0000 N   0  0  0  0  0  0  0  0  0  0  0  0
    1.0325   -1.3184    0.0000 C   0  0  0  0  0  0  0  0  0  0  0  0
    0.5475   -0.6510    0.0000 C   0  0  0  0  0  0  0  0  0  0  0  0
    1.8575   -1.3184    0.0000 C   0  0  0  0  0  0  0  0  0  0  0  0
    2.2700   -0.6039    0.0000 N   0  0  0  0  0  0  0  0  0  0  0  0
    2.2700   -2.0329    0.0000 O   0  0  0  0  0  0  0  0  0  0  0  0
   -0.9516    0.3316    0.0000 O   0  0  0  0  0  0  0  0  0  0  0  0
   -2.3805   -2.9684    0.0000 H   0  0  0  0  0  0  0  0  0  0  0  0
    0.8025   -2.7705    0.0000 C   0  0  0  0  0  0  0  0  0  0  0  0
    1.8575    0.1105    0.0000 C   0  0  0  0  0  0  0  0  0  0  0  0
    2.2700    0.8250    0.0000 C   0  0  0  0  0  0  0  0  0  0  0  0
    1.8575    1.5395    0.0000 C   0  0  0  0  0  0  0  0  0  0  0  0
    1.0325    1.5395    0.0000 C   0  0  0  0  0  0  0  0  0  0  0  0
    0.6200    0.8250    0.0000 C   0  0  0  0  0  0  0  0  0  0  0  0
    1.0325    0.1105    0.0000 C   0  0  0  0  0  0  0  0  0  0  0  0
    2.2700    2.2539    0.0000 C   0  0  0  0  0  0  0  0  0  0  0  0
    1.8575    2.9684    0.0000 O   0  0  0  0  0  0  0  0  0  0  0  0
    3.0950    2.2539    0.0000 C   0  0  0  0  0  0  0  0  0  0  0  0
  1  2  1  0      
  2  3  2  0      
  3  4  1  0      
  4  5  1  0      
  5  6  1  0      
  6  1  2  0      
  4  7  2  0      
  7  8  1  0      
  8  9  2  0      
  9 10  1  0      
 10  5  1  0      
  8 11  1  0      
 11 12  1  0      
 12 13  2  0      
 13  9  1  0      
 12 14  1  0      
 14 15  1  0      
 14 16  2  0      
 10 17  2  0      
  3 18  1  0      
 11 19  1  0      
 15 20  1  0      
 20 21  2  0      
 21 22  1  0      
 22 23  2  0      
 23 24  1  0      
 24 25  2  0      
 25 20  1  0      
 22 26  1  0      
 26 27  2  0      
 26 28  1  0      
M  END
