SA40_0002.mol
  ChemDraw05232418242D

 67 72  0  0  0  0  0  0  0  0999 V2000
   -7.1447    0.2062    0.0000 C   0  0  0  0  0  0  0  0  0  0  0  0
   -7.8592   -0.2062    0.0000 C   0  0  0  0  0  0  0  0  0  0  0  0
   -7.8592   -1.0312    0.0000 C   0  0  0  0  0  0  0  0  0  0  0  0
   -7.1447   -1.4437    0.0000 C   0  0  0  0  0  0  0  0  0  0  0  0
   -6.4302   -1.0312    0.0000 C   0  0  0  0  0  0  0  0  0  0  0  0
   -6.4302   -0.2062    0.0000 C   0  0  0  0  0  0  0  0  0  0  0  0
   -8.5737   -1.4437    0.0000 Cl  0  0  0  0  0  0  0  0  0  0  0  0
   -8.5737    0.2062    0.0000 O   0  0  0  0  0  0  0  0  0  0  0  0
   -7.1447    1.0312    0.0000 C   0  0  0  0  0  0  0  0  0  0  0  0
   -5.7158   -1.4437    0.0000 C   0  0  0  0  0  0  0  0  0  0  0  0
   -5.0013   -1.0312    0.0000 C   0  0  0  0  0  0  0  0  0  0  0  0
   -4.2868   -1.4437    0.0000 C   0  0  0  0  0  0  0  0  0  0  0  0
   -3.5724   -1.0312    0.0000 C   0  0  0  0  0  0  0  0  0  0  0  0
   -3.5724   -0.2062    0.0000 C   0  0  0  0  0  0  0  0  0  0  0  0
   -4.2868    0.2062    0.0000 C   0  0  0  0  0  0  0  0  0  0  0  0
   -5.0013   -0.2062    0.0000 C   0  0  0  0  0  0  0  0  0  0  0  0
   -2.8579   -1.4437    0.0000 C   0  0  0  0  0  0  0  0  0  0  0  0
   -5.7158    0.2062    0.0000 O   0  0  0  0  0  0  0  0  0  0  0  0
   -4.2868    1.0312    0.0000 C   0  0  0  0  0  0  0  0  0  0  0  0
   -2.1434   -1.0312    0.0000 C   0  0  0  0  0  0  0  0  0  0  0  0
   -1.4289   -1.4437    0.0000 C   0  0  0  0  0  0  0  0  0  0  0  0
   -0.7145   -1.0312    0.0000 C   0  0  0  0  0  0  0  0  0  0  0  0
   -0.7145   -0.2062    0.0000 C   0  0  0  0  0  0  0  0  0  0  0  0
   -1.4289    0.2062    0.0000 C   0  0  0  0  0  0  0  0  0  0  0  0
   -2.1434   -0.2062    0.0000 C   0  0  0  0  0  0  0  0  0  0  0  0
    0.0000   -1.4437    0.0000 C   0  0  0  0  0  0  0  0  0  0  0  0
    0.7145   -1.0312    0.0000 C   0  0  0  0  0  0  0  0  0  0  0  0
    1.4289   -1.4437    0.0000 C   0  0  0  0  0  0  0  0  0  0  0  0
    2.1434   -1.0312    0.0000 C   0  0  0  0  0  0  0  0  0  0  0  0
    2.1434   -0.2062    0.0000 C   0  0  0  0  0  0  0  0  0  0  0  0
    1.4289    0.2062    0.0000 C   0  0  0  0  0  0  0  0  0  0  0  0
    0.7145   -0.2062    0.0000 C   0  0  0  0  0  0  0  0  0  0  0  0
   -2.8579    0.2062    0.0000 O   0  0  0  0  0  0  0  0  0  0  0  0
   -1.4289    1.0312    0.0000 C   0  0  0  0  0  0  0  0  0  0  0  0
    1.4289    1.0312    0.0000 C   0  0  0  0  0  0  0  0  0  0  0  0
    2.8579    0.2062    0.0000 O   0  0  0  0  0  0  0  0  0  0  0  0
    2.8579   -1.4437    0.0000 C   0  0  0  0  0  0  0  0  0  0  0  0
    3.5724   -1.0312    0.0000 C   0  0  0  0  0  0  0  0  0  0  0  0
    4.2868   -1.4437    0.0000 C   0  0  0  0  0  0  0  0  0  0  0  0
    5.0013   -1.0312    0.0000 C   0  0  0  0  0  0  0  0  0  0  0  0
    5.0013   -0.2062    0.0000 C   0  0  0  0  0  0  0  0  0  0  0  0
    4.2868    0.2062    0.0000 C   0  0  0  0  0  0  0  0  0  0  0  0
    3.5724   -0.2062    0.0000 C   0  0  0  0  0  0  0  0  0  0  0  0
    5.7158   -1.4437    0.0000 C   0  0  0  0  0  0  0  0  0  0  0  0
    6.4302   -1.0312    0.0000 C   0  0  0  0  0  0  0  0  0  0  0  0
    7.1447   -1.4437    0.0000 C   0  0  0  0  0  0  0  0  0  0  0  0
    7.8592   -1.0312    0.0000 C   0  0  0  0  0  0  0  0  0  0  0  0
    7.8592   -0.2062    0.0000 C   0  0  0  0  0  0  0  0  0  0  0  0
    7.1447    0.2062    0.0000 C   0  0  0  0  0  0  0  0  0  0  0  0
    6.4302   -0.2062    0.0000 C   0  0  0  0  0  0  0  0  0  0  0  0
    8.5737   -1.4437    0.0000 Cl  0  0  0  0  0  0  0  0  0  0  0  0
    8.5737    0.2062    0.0000 O   0  0  0  0  0  0  0  0  0  0  0  0
    7.1447    1.0312    0.0000 C   0  0  0  0  0  0  0  0  0  0  0  0
    5.7158    0.2062    0.0000 O   0  0  0  0  0  0  0  0  0  0  0  0
    4.2868    1.0312    0.0000 C   0  0  0  0  0  0  0  0  0  0  0  0
   -7.8592    1.4437    0.0000 O   0  0  0  0  0  0  0  0  0  0  0  0
   -6.4302    1.4437    0.0000 O   0  0  0  0  0  0  0  0  0  0  0  0
   -5.0013    1.4437    0.0000 O   0  0  0  0  0  0  0  0  0  0  0  0
   -3.5724    1.4437    0.0000 O   0  0  0  0  0  0  0  0  0  0  0  0
   -2.1434    1.4437    0.0000 O   0  0  0  0  0  0  0  0  0  0  0  0
   -0.7145    1.4437    0.0000 O   0  0  0  0  0  0  0  0  0  0  0  0
    0.7145    1.4437    0.0000 O   0  0  0  0  0  0  0  0  0  0  0  0
    2.1434    1.4437    0.0000 O   0  0  0  0  0  0  0  0  0  0  0  0
    3.5724    1.4437    0.0000 O   0  0  0  0  0  0  0  0  0  0  0  0
    5.0013    1.4437    0.0000 O   0  0  0  0  0  0  0  0  0  0  0  0
    6.4302    1.4437    0.0000 O   0  0  0  0  0  0  0  0  0  0  0  0
    7.8592    1.4437    0.0000 O   0  0  0  0  0  0  0  0  0  0  0  0
  1  2  2  0      
  2  3  1  0      
  3  4  2  0      
  4  5  1  0      
  5  6  2  0      
  6  1  1  0      
  3  7  1  0      
  2  8  1  0      
  1  9  1  0      
  5 10  1  0      
 10 11  1  0      
 11 12  2  0      
 12 13  1  0      
 13 14  2  0      
 14 15  1  0      
 15 16  2  0      
 16 11  1  0      
 13 17  1  0      
 16 18  1  0      
 15 19  1  0      
 17 20  1  0      
 20 21  2  0      
 21 22  1  0      
 22 23  2  0      
 23 24  1  0      
 24 25  2  0      
 25 20  1  0      
 22 26  1  0      
 26 27  1  0      
 27 28  2  0      
 28 29  1  0      
 29 30  2  0      
 30 31  1  0      
 31 32  2  0      
 32 27  1  0      
 25 33  1  0      
 24 34  1  0      
 31 35  1  0      
 30 36  1  0      
 29 37  1  0      
 37 38  1  0      
 38 39  2  0      
 39 40  1  0      
 40 41  2  0      
 41 42  1  0      
 42 43  2  0      
 43 38  1  0      
 40 44  1  0      
 44 45  1  0      
 45 46  2  0      
 46 47  1  0      
 47 48  2  0      
 48 49  1  0      
 49 50  2  0      
 50 45  1  0      
 47 51  1  0      
 48 52  1  0      
 49 53  1  0      
 41 54  1  0      
 42 55  1  0      
  9 56  1  0      
  9 57  2  0      
 19 58  1  0      
 19 59  2  0      
 34 60  1  0      
 34 61  2  0      
 35 62  1  0      
 35 63  2  0      
 55 64  1  0      
 55 65  2  0      
 53 66  1  0      
 53 67  2  0      
M  END
