SA41_0001.mol
  ChemDraw05232418572D

 53 59  0  0  0  0  0  0  0  0999 V2000
   -4.3521    2.9378    0.0000 C   0  0  0  0  0  0  0  0  0  0  0  0
   -4.3521    2.1128    0.0000 C   0  0  0  0  0  0  0  0  0  0  0  0
   -3.5675    1.8579    0.0000 C   0  0  0  0  0  0  0  0  0  0  0  0
   -3.0826    2.5253    0.0000 N   0  0  0  0  0  0  0  0  0  0  0  0
   -3.5675    3.1928    0.0000 C   0  0  0  0  0  0  0  0  0  0  0  0
   -3.3126    1.0733    0.0000 C   0  0  0  0  0  0  0  0  0  0  0  0
   -2.5056    0.9018    0.0000 N   0  0  0  0  0  0  0  0  0  0  0  0
   -2.2507    0.1171    0.0000 C   0  0  0  0  0  0  0  0  0  0  0  0
   -0.8657   -0.4202    0.0000 C   0  0  0  0  0  0  0  0  0  0  0  0
    0.3752   -0.4202    0.0000 C   0  0  0  0  0  0  0  0  0  0  0  0
    0.9957    0.1236    0.0000 C   0  0  0  0  0  0  0  0  0  0  0  0
    0.3752    0.6673    0.0000 C   0  0  0  0  0  0  0  0  0  0  0  0
   -0.8657    0.6673    0.0000 C   0  0  0  0  0  0  0  0  0  0  0  0
   -1.4861    0.1236    0.0000 C   0  0  0  0  0  0  0  0  0  0  0  0
    1.8207    0.1236    0.0000 C   0  0  0  0  0  0  0  0  0  0  0  0
    2.2332   -0.5909    0.0000 N   0  0  0  0  0  0  0  0  0  0  0  0
    2.9476   -1.0034    0.0000 C   0  0  0  0  0  0  0  0  0  0  0  0
    3.3601   -1.7179    0.0000 C   0  0  0  0  0  0  0  0  0  0  0  0
    3.0246   -2.4715    0.0000 N   0  0  0  0  0  0  0  0  0  0  0  0
    3.6377   -3.0236    0.0000 C   0  0  0  0  0  0  0  0  0  0  0  0
    4.3521   -2.6111    0.0000 C   0  0  0  0  0  0  0  0  0  0  0  0
    4.1806   -1.8041    0.0000 C   0  0  0  0  0  0  0  0  0  0  0  0
   -1.4490    1.2507    0.0000 C   0  0  0  0  0  0  0  0  0  0  0  0
    0.9586    1.2507    0.0000 C   0  0  0  0  0  0  0  0  0  0  0  0
    0.7451    2.0476    0.0000 N   0  0  0  0  0  0  0  0  0  0  0  0
    1.3284    2.6310    0.0000 C   0  0  0  0  0  0  0  0  0  0  0  0
   -1.8526   -0.6464    0.0000 N   0  0  0  0  0  0  0  0  0  0  0  0
   -1.1561   -1.1923    0.0000 C   0  0  0  0  0  0  0  0  0  0  0  0
   -1.1561   -2.0173    0.0000 N   0  0  0  0  0  0  0  0  0  0  0  0
   -1.5686   -2.7318    0.0000 C   0  0  0  0  0  0  0  0  0  0  0  0
    1.1721   -0.6337    0.0000 C   0  0  0  0  0  0  0  0  0  0  0  0
    1.5582    0.7219    0.0000 N   0  0  0  0  0  0  0  0  0  0  0  0
    2.3551    0.9355    0.0000 C   0  0  0  0  0  0  0  0  0  0  0  0
    2.6868    1.6254    0.0000 C   0  0  0  0  0  0  0  0  0  0  0  0
    3.1134    1.8158    0.0000 C   0  0  0  0  0  0  0  0  0  0  0  0
    3.3820    2.7867    0.0000 C   0  0  0  0  0  0  0  0  0  0  0  0
    3.1213    3.1882    0.0000 C   0  0  0  0  0  0  0  0  0  0  0  0
    2.6957    2.4815    0.0000 N   0  0  0  0  0  0  0  0  0  0  0  0
    1.6351    3.7173    0.0000 C   0  0  0  0  0  0  0  0  0  0  0  0
    1.6336    4.7107    0.0000 C   0  0  0  0  0  0  0  0  0  0  0  0
    1.3310    5.0173    0.0000 C   0  0  0  0  0  0  0  0  0  0  0  0
    1.1460    4.2121    0.0000 N   0  0  0  0  0  0  0  0  0  0  0  0
    1.3334    3.4086    0.0000 C   0  0  0  0  0  0  0  0  0  0  0  0
   -1.5750   -3.4509    0.0000 C   0  0  0  0  0  0  0  0  0  0  0  0
   -1.8453   -3.8319    0.0000 C   0  0  0  0  0  0  0  0  0  0  0  0
   -1.5823   -4.8043    0.0000 C   0  0  0  0  0  0  0  0  0  0  0  0
   -1.1536   -5.0173    0.0000 C   0  0  0  0  0  0  0  0  0  0  0  0
   -1.1469   -4.1923    0.0000 N   0  0  0  0  0  0  0  0  0  0  0  0
   -2.8348   -2.3278    0.0000 C   0  0  0  0  0  0  0  0  0  0  0  0
   -2.5046   -2.6302    0.0000 C   0  0  0  0  0  0  0  0  0  0  0  0
   -2.3148   -1.8179    0.0000 N   0  0  0  0  0  0  0  0  0  0  0  0
   -2.5273   -1.0208    0.0000 C   0  0  0  0  0  0  0  0  0  0  0  0
   -2.8437   -1.3333    0.0000 C   0  0  0  0  0  0  0  0  0  0  0  0
  1  2  1  0      
  2  3  2  0      
  3  4  1  0      
  4  5  1  0      
  5  1  2  0      
  3  6  1  0      
  6  7  1  0      
  7  8  1  0      
  9 10  4  0      
 11 10  4  0      
 11 12  4  0      
 12 13  4  0      
 13 14  4  0      
 14  9  4  0      
 11 15  1  0      
 15 16  1  0      
 16 17  1  0      
 17 18  1  0      
 18 19  1  0      
 19 20  1  0      
 20 21  2  0      
 21 22  1  0      
 22 18  2  0      
 13 23  1  0      
 12 24  1  0      
 24 25  1  0      
 25 26  1  0      
 27 23  4  0      
  8 14  1  0      
  9 28  1  0      
 28 29  1  0      
 29 30  1  0      
 10 31  1  0      
 32 33  1  0      
 31 32  1  0      
 35 36  1  1      
 37 38  1  0      
 34 38  1  0      
 36 37  2  0      
 35 34  2  0      
 34 33  1  0      
 39 40  1  0      
 40 41  2  0      
 41 42  1  1      
 43 42  1  1      
 39 43  2  0      
 43 26  1  0      
 45 46  1  1      
 47 48  1  0      
 44 48  1  0      
 30 44  1  0      
 45 44  2  0      
 46 47  2  0      
 49 50  2  0      
 52 53  2  0      
 49 53  1  0      
 50 51  1  1      
 52 51  1  1      
 52 27  1  0      
M  END
