SA44_0019.mol
  ChemDraw05022415512D

 17 18  0  0  0  0  0  0  0  0999 V2000
   -0.0970    0.1710    0.0000 C   0  0  0  0  0  0  0  0  0  0  0  0
   -0.0111   -0.6462    0.0000 C   0  0  0  0  0  0  0  0  0  0  0  0
    0.7926   -0.8170    0.0000 C   0  0  0  0  0  0  0  0  0  0  0  0
    1.2034   -0.1054    0.0000 C   0  0  0  0  0  0  0  0  0  0  0  0
    0.6536    0.5052    0.0000 O   0  0  0  0  0  0  0  0  0  0  0  0
   -0.8086    0.5818    0.0000 C   0  0  0  0  0  0  0  0  0  0  0  0
   -1.5202    0.1710    0.0000 N   0  0  0  0  0  0  0  0  0  0  0  0
   -2.2318    0.5818    0.0000 N   0  0  0  0  0  0  0  0  0  0  0  0
   -2.9434    0.1710    0.0000 C   0  0  0  0  0  0  0  0  0  0  0  0
   -3.6549    0.5818    0.0000 N   0  0  0  0  0  0  0  0  0  0  0  0
   -2.9434   -0.6507    0.0000 S   0  0  0  0  0  0  0  0  0  0  0  0
    2.0206   -0.0195    0.0000 C   0  0  0  0  0  0  0  0  0  0  0  0
    2.5036   -0.6843    0.0000 C   0  0  0  0  0  0  0  0  0  0  0  0
    3.3207   -0.5984    0.0000 C   0  0  0  0  0  0  0  0  0  0  0  0
    3.6549    0.1523    0.0000 C   0  0  0  0  0  0  0  0  0  0  0  0
    3.1720    0.8170    0.0000 C   0  0  0  0  0  0  0  0  0  0  0  0
    2.3548    0.7311    0.0000 C   0  0  0  0  0  0  0  0  0  0  0  0
  1  2  2  0      
  2  3  1  0      
  3  4  2  0      
  4  5  1  0      
  5  1  1  0      
  1  6  1  0      
  6  7  2  0      
  7  8  1  0      
  8  9  1  0      
  9 10  1  0      
  9 11  2  0      
  4 12  1  0      
 12 13  2  0      
 13 14  1  0      
 14 15  2  0      
 15 16  1  0      
 16 17  2  0      
 17 12  1  0      
M  END
