SA44_0010.mol
  ChemDraw05022413382D

 25 28  0  0  0  0  0  0  0  0999 V2000
   -3.9980   -0.3652    0.0000 O   0  0  0  0  0  0  0  0  0  0  0  0
   -3.4146   -0.9486    0.0000 C   0  0  0  0  0  0  0  0  0  0  0  0
   -3.6281   -1.7455    0.0000 N   0  0  0  0  0  0  0  0  0  0  0  0
   -2.6177   -0.7351    0.0000 C   0  0  0  0  0  0  0  0  0  0  0  0
   -2.0344   -1.3184    0.0000 C   0  0  0  0  0  0  0  0  0  0  0  0
   -1.2375   -1.1049    0.0000 C   0  0  0  0  0  0  0  0  0  0  0  0
   -1.0239   -0.3080    0.0000 C   0  0  0  0  0  0  0  0  0  0  0  0
   -1.6073    0.2753    0.0000 C   0  0  0  0  0  0  0  0  0  0  0  0
   -2.4042    0.0618    0.0000 C   0  0  0  0  0  0  0  0  0  0  0  0
   -0.2889    0.0665    0.0000 N   0  0  0  0  0  0  0  0  0  0  0  0
   -0.4179    0.8814    0.0000 C   0  0  0  0  0  0  0  0  0  0  0  0
   -1.2328    1.0104    0.0000 C   0  0  0  0  0  0  0  0  0  0  0  0
    0.4256   -0.3460    0.0000 C   0  0  0  0  0  0  0  0  0  0  0  0
    1.1401    0.0665    0.0000 C   0  0  0  0  0  0  0  0  0  0  0  0
    1.8546   -0.3460    0.0000 C   0  0  0  0  0  0  0  0  0  0  0  0
    2.5690    0.0665    0.0000 C   0  0  0  0  0  0  0  0  0  0  0  0
    2.5690    0.8915    0.0000 C   0  0  0  0  0  0  0  0  0  0  0  0
    1.8546    1.3040    0.0000 C   0  0  0  0  0  0  0  0  0  0  0  0
    1.1401    0.8915    0.0000 C   0  0  0  0  0  0  0  0  0  0  0  0
    3.2835   -0.3460    0.0000 C   0  0  0  0  0  0  0  0  0  0  0  0
    3.9980    0.0665    0.0000 C   0  0  0  0  0  0  0  0  0  0  0  0
    3.9980    0.8915    0.0000 C   0  0  0  0  0  0  0  0  0  0  0  0
    3.2835    1.3040    0.0000 C   0  0  0  0  0  0  0  0  0  0  0  0
   -1.6073    1.7455    0.0000 O   0  0  0  0  0  0  0  0  0  0  0  0
    0.1654    1.4647    0.0000 O   0  0  0  0  0  0  0  0  0  0  0  0
  1  2  2  0      
  2  3  1  0      
  2  4  1  0      
  4  5  2  0      
  5  6  1  0      
  6  7  2  0      
  7  8  1  0      
  8  9  2  0      
  9  4  1  0      
  7 10  1  0      
 10 11  1  0      
 11 12  1  0      
 12  8  1  0      
 10 13  1  0      
 13 14  1  0      
 14 15  2  0      
 15 16  1  0      
 16 17  2  0      
 17 18  1  0      
 18 19  2  0      
 19 14  1  0      
 16 20  1  0      
 20 21  2  0      
 21 22  1  0      
 22 23  2  0      
 23 17  1  0      
 12 24  2  0      
 11 25  2  0      
M  END
