SA44_0034.mol
  ChemDraw05022415212D

 18 19  0  0  0  0  0  0  0  0999 V2000
    0.0956   -0.4491    0.0000 C   0  0  0  0  0  0  0  0  0  0  0  0
    0.0956   -1.2741    0.0000 C   0  0  0  0  0  0  0  0  0  0  0  0
    0.8802   -1.5291    0.0000 C   0  0  0  0  0  0  0  0  0  0  0  0
    1.3651   -0.8616    0.0000 C   0  0  0  0  0  0  0  0  0  0  0  0
    0.8802   -0.1942    0.0000 O   0  0  0  0  0  0  0  0  0  0  0  0
   -0.5718    0.0358    0.0000 C   0  0  0  0  0  0  0  0  0  0  0  0
   -1.3255   -0.2997    0.0000 N   0  0  0  0  0  0  0  0  0  0  0  0
   -1.9930    0.1852    0.0000 N   0  0  0  0  0  0  0  0  0  0  0  0
   -2.7466   -0.1504    0.0000 C   0  0  0  0  0  0  0  0  0  0  0  0
   -3.4141    0.3345    0.0000 N   0  0  0  0  0  0  0  0  0  0  0  0
   -2.8329   -0.9709    0.0000 S   0  0  0  0  0  0  0  0  0  0  0  0
    2.1901   -0.8616    0.0000 C   0  0  0  0  0  0  0  0  0  0  0  0
    2.4037   -0.0647    0.0000 C   0  0  0  0  0  0  0  0  0  0  0  0
    3.2006    0.1488    0.0000 C   0  0  0  0  0  0  0  0  0  0  0  0
    3.4141    0.9457    0.0000 C   0  0  0  0  0  0  0  0  0  0  0  0
    2.8307    1.5291    0.0000 C   0  0  0  0  0  0  0  0  0  0  0  0
    2.0338    1.3155    0.0000 C   0  0  0  0  0  0  0  0  0  0  0  0
    1.8203    0.5186    0.0000 C   0  0  0  0  0  0  0  0  0  0  0  0
  1  2  2  0      
  2  3  1  0      
  3  4  2  0      
  4  5  1  0      
  5  1  1  0      
  1  6  1  0      
  6  7  2  0      
  7  8  1  0      
  8  9  1  0      
  9 10  1  0      
  9 11  2  0      
  4 12  1  0      
 12 13  1  0      
 13 14  2  0      
 14 15  1  0      
 15 16  2  0      
 16 17  1  0      
 17 18  2  0      
 18 13  1  0      
M  END
