SA44_0026.mol
  ChemDraw05022415312D

 21 22  0  0  0  0  0  0  0  0999 V2000
   -0.5299    0.7697    0.0000 C   0  0  0  0  0  0  0  0  0  0  0  0
   -0.5299   -0.0553    0.0000 C   0  0  0  0  0  0  0  0  0  0  0  0
    0.2547   -0.3102    0.0000 C   0  0  0  0  0  0  0  0  0  0  0  0
    0.7396    0.3572    0.0000 C   0  0  0  0  0  0  0  0  0  0  0  0
    0.2547    1.0247    0.0000 O   0  0  0  0  0  0  0  0  0  0  0  0
   -1.1974    1.2547    0.0000 C   0  0  0  0  0  0  0  0  0  0  0  0
   -1.9511    0.9191    0.0000 N   0  0  0  0  0  0  0  0  0  0  0  0
   -2.6185    1.4040    0.0000 N   0  0  0  0  0  0  0  0  0  0  0  0
   -3.3722    1.0685    0.0000 C   0  0  0  0  0  0  0  0  0  0  0  0
   -4.0396    1.5534    0.0000 N   0  0  0  0  0  0  0  0  0  0  0  0
   -3.4584    0.2480    0.0000 S   0  0  0  0  0  0  0  0  0  0  0  0
    1.5646    0.3572    0.0000 C   0  0  0  0  0  0  0  0  0  0  0  0
    1.9771   -0.3572    0.0000 C   0  0  0  0  0  0  0  0  0  0  0  0
    2.8021   -0.3572    0.0000 C   0  0  0  0  0  0  0  0  0  0  0  0
    3.2146    0.3572    0.0000 C   0  0  0  0  0  0  0  0  0  0  0  0
    2.8021    1.0717    0.0000 C   0  0  0  0  0  0  0  0  0  0  0  0
    1.9771    1.0717    0.0000 C   0  0  0  0  0  0  0  0  0  0  0  0
    3.2146   -1.0717    0.0000 C   0  0  0  0  0  0  0  0  0  0  0  0
    2.8021   -1.7862    0.0000 O   0  0  0  0  0  0  0  0  0  0  0  0
    4.0396   -1.0717    0.0000 O   0  0  0  0  0  0  0  0  0  0  0  0
    1.5646    1.7862    0.0000 Cl  0  0  0  0  0  0  0  0  0  0  0  0
  1  2  2  0      
  2  3  1  0      
  3  4  2  0      
  4  5  1  0      
  5  1  1  0      
  1  6  1  0      
  6  7  2  0      
  7  8  1  0      
  8  9  1  0      
  9 10  1  0      
  9 11  2  0      
  4 12  1  0      
 12 13  2  0      
 13 14  1  0      
 14 15  2  0      
 15 16  1  0      
 16 17  2  0      
 17 12  1  0      
 14 18  1  0      
 18 19  2  0      
 18 20  1  0      
 17 21  1  0      
M  END
