SA45_0005.mol
  ChemDraw05022417032D

 78 84  0  0  1  0  0  0  0  0999 V2000
   -1.9697   -0.4745    0.0000 C   0  0  0  0  0  0  0  0  0  0  0  0
   -1.2114   -0.1583    0.0000 N   0  0  0  0  0  0  0  0  0  0  0  0
   -1.3204    0.6550    0.0000 C   0  0  0  0  0  0  0  0  0  0  0  0
   -2.1461    0.8414    0.0000 C   0  0  0  0  0  0  0  0  0  0  0  0
   -2.5738    0.1398    0.0000 O   0  0  0  0  0  0  0  0  0  0  0  0
   -2.4666    1.5980    0.0000 C   0  0  0  0  0  0  0  0  0  0  0  0
   -0.7142    1.2096    0.0000 C   0  0  0  0  0  0  0  0  0  0  0  0
   -2.1325   -1.2799    0.0000 C   0  0  0  0  0  0  0  0  0  0  0  0
    0.0693    0.9620    0.0000 N   0  0  0  0  0  0  0  0  0  0  0  0
   -0.8914    2.0120    0.0000 O   0  0  0  0  0  0  0  0  0  0  0  0
    0.6755    1.5166    0.0000 C   0  0  0  0  0  0  0  0  0  0  0  0
    1.4590    1.2690    0.0000 C   0  0  0  0  0  0  0  0  0  0  0  0
    0.4983    2.3190    0.0000 C   0  0  0  0  0  0  0  0  0  0  0  0
    1.2817    2.0713    0.0000 C   0  0  0  0  0  0  0  0  0  0  0  0
    1.0793    2.9000    0.0000 N   0  0  0  0  0  0  0  0  0  0  0  0
   -0.2954    2.5316    0.0000 O   0  0  0  0  0  0  0  0  0  0  0  0
    1.7191    0.4896    0.0000 N   0  0  0  0  0  0  0  0  0  0  0  0
    2.5407    0.4961    0.0000 C   0  0  0  0  0  0  0  0  0  0  0  0
    2.7884    1.2796    0.0000 C   0  0  0  0  0  0  0  0  0  0  0  0
    2.1198    1.7572    0.0000 O   0  0  0  0  0  0  0  0  0  0  0  0
    3.5678    1.5397    0.0000 C   0  0  0  0  0  0  0  0  0  0  0  0
    2.6499   -0.3183    0.0000 C   0  0  0  0  0  0  0  0  0  0  0  0
    3.4098   -0.6309    0.0000 O   0  0  0  0  0  0  0  0  0  0  0  0
    1.9992   -0.8200    0.0000 N   0  0  0  0  0  0  0  0  0  0  0  0
    2.1084   -1.6344    0.0000 C   0  0  0  0  0  0  0  0  0  0  0  0
    1.4577   -2.1361    0.0000 C   0  0  0  0  0  0  0  0  0  0  0  0
    2.8683   -1.9470    0.0000 C   0  0  0  0  0  0  0  0  0  0  0  0
    2.2176   -2.4488    0.0000 C   0  0  0  0  0  0  0  0  0  0  0  0
    3.5190   -1.4453    0.0000 O   0  0  0  0  0  0  0  0  0  0  0  0
    2.9774   -2.7614    0.0000 N   0  0  0  0  0  0  0  0  0  0  0  0
    0.6693   -1.9046    0.0000 N   0  0  0  0  0  0  0  0  0  0  0  0
    0.2055   -2.5829    0.0000 C   0  0  0  0  0  0  0  0  0  0  0  0
    0.7073   -3.2336    0.0000 C   0  0  0  0  0  0  0  0  0  0  0  0
    1.4811   -2.9575    0.0000 O   0  0  0  0  0  0  0  0  0  0  0  0
   -0.6158   -2.6063    0.0000 C   0  0  0  0  0  0  0  0  0  0  0  0
   -1.0267   -3.3179    0.0000 O   0  0  0  0  0  0  0  0  0  0  0  0
   -1.0468   -1.9067    0.0000 N   0  0  0  0  0  0  0  0  0  0  0  0
   -2.9501   -1.1982    0.0000 C   0  0  0  0  0  0  0  0  0  0  0  0
   -2.6121   -1.9471    0.0000 C   0  0  0  0  0  0  0  0  0  0  0  0
   -3.2880   -0.4492    0.0000 O   0  0  0  0  0  0  0  0  0  0  0  0
   -3.4297   -1.8653    0.0000 N   0  0  0  0  0  0  0  0  0  0  0  0
    0.4757   -4.0219    0.0000 C   0  0  0  0  0  0  0  0  0  0  0  0
    3.6160    4.4303    0.0000 N   0  0  0  0  0  0  0  0  0  0  0  0
    2.8223    4.6430    0.0000 C   0  0  0  0  0  0  0  0  0  0  0  0
    2.2413    4.0620    0.0000 C   0  0  0  0  0  0  0  0  0  0  0  0
    1.4476    4.2747    0.0000 C   0  0  0  0  0  0  0  0  0  0  0  0
    0.8666    3.6936    0.0000 C   0  0  0  0  0  0  0  0  0  0  0  0
    0.0729    3.9063    0.0000 C   0  0  0  0  0  0  0  0  0  0  0  0
   -0.1397    4.7000    0.0000 C   0  0  0  0  0  0  0  0  0  0  0  0
    0.4413    5.2810    0.0000 C   0  0  0  0  0  0  0  0  0  0  0  0
    1.2349    5.0683    0.0000 C   0  0  0  0  0  0  0  0  0  0  0  0
   -0.9334    4.9126    0.0000 N   0  0  0  0  0  0  0  0  0  0  0  0
   -1.1461    5.7063    0.0000 C   0  0  0  0  0  0  0  0  0  0  0  0
   -1.5144    4.3316    0.0000 C   0  0  0  0  0  0  0  0  0  0  0  0
    2.6542   -5.7063    0.0000 N   0  0  0  0  0  0  0  0  0  0  0  0
    3.3049   -5.2046    0.0000 C   0  0  0  0  0  0  0  0  0  0  0  0
    3.1958   -4.3902    0.0000 C   0  0  0  0  0  0  0  0  0  0  0  0
    3.8465   -3.8885    0.0000 C   0  0  0  0  0  0  0  0  0  0  0  0
    3.7373   -3.0741    0.0000 C   0  0  0  0  0  0  0  0  0  0  0  0
    4.3880   -2.5723    0.0000 C   0  0  0  0  0  0  0  0  0  0  0  0
    5.1479   -2.8850    0.0000 C   0  0  0  0  0  0  0  0  0  0  0  0
    5.2570   -3.6994    0.0000 C   0  0  0  0  0  0  0  0  0  0  0  0
    4.6063   -4.2011    0.0000 C   0  0  0  0  0  0  0  0  0  0  0  0
    5.7985   -2.3832    0.0000 N   0  0  0  0  0  0  0  0  0  0  0  0
    6.5584   -2.6959    0.0000 C   0  0  0  0  0  0  0  0  0  0  0  0
    5.6894   -1.5689    0.0000 C   0  0  0  0  0  0  0  0  0  0  0  0
   -3.2333   -4.0304    0.0000 N   0  0  0  0  0  0  0  0  0  0  0  0
   -3.5713   -3.2814    0.0000 C   0  0  0  0  0  0  0  0  0  0  0  0
   -4.3889   -3.1997    0.0000 C   0  0  0  0  0  0  0  0  0  0  0  0
   -4.7269   -2.4507    0.0000 C   0  0  0  0  0  0  0  0  0  0  0  0
   -5.5445   -2.3689    0.0000 C   0  0  0  0  0  0  0  0  0  0  0  0
   -5.8825   -1.6200    0.0000 C   0  0  0  0  0  0  0  0  0  0  0  0
   -5.4028   -0.9528    0.0000 C   0  0  0  0  0  0  0  0  0  0  0  0
   -4.5852   -1.0346    0.0000 C   0  0  0  0  0  0  0  0  0  0  0  0
   -4.2473   -1.7835    0.0000 C   0  0  0  0  0  0  0  0  0  0  0  0
   -5.7408   -0.2039    0.0000 N   0  0  0  0  0  0  0  0  0  0  0  0
   -5.2612    0.4633    0.0000 C   0  0  0  0  0  0  0  0  0  0  0  0
   -6.5584   -0.1221    0.0000 C   0  0  0  0  0  0  0  0  0  0  0  0
  1  2  2  0      
  2  3  1  0      
  3  4  2  0      
  4  5  1  0      
  5  1  1  0      
  4  6  1  0      
  3  7  1  0      
  1  8  1  0      
  7  9  1  0      
  7 10  2  0      
  9 11  1  0      
 11 12  1  0      
 11 13  1  0      
 11 14  1  1      
 13 15  1  0      
 13 16  2  0      
 12 17  2  0      
 17 18  1  0      
 18 19  2  0      
 19 20  1  0      
 20 12  1  0      
 19 21  1  0      
 18 22  1  0      
 22 23  2  0      
 22 24  1  0      
 24 25  1  0      
 25 26  1  0      
 25 27  1  0      
 25 28  1  1      
 27 29  2  0      
 27 30  1  0      
 26 31  2  0      
 31 32  1  0      
 32 33  2  0      
 33 34  1  0      
 34 26  1  0      
 32 35  1  0      
 35 36  2  0      
 35 37  1  0      
 37  8  1  0      
  8 38  1  6      
  8 39  1  1      
 38 40  2  0      
 38 41  1  0      
 33 42  1  0      
 44 45  1  0      
 43 44  1  0      
 46 47  1  0      
 47 48  2  0      
 48 49  1  0      
 49 50  2  0      
 50 51  1  0      
 46 51  2  0      
 52 53  1  0      
 52 54  1  0      
 49 52  1  0      
 45 46  1  0      
 56 57  1  0      
 55 56  1  0      
 58 59  1  0      
 59 60  2  0      
 60 61  1  0      
 61 62  2  0      
 62 63  1  0      
 58 63  2  0      
 64 65  1  0      
 64 66  1  0      
 61 64  1  0      
 57 58  1  0      
 68 69  1  0      
 67 68  1  0      
 70 71  1  0      
 71 72  2  0      
 72 73  1  0      
 73 74  2  0      
 74 75  1  0      
 70 75  2  0      
 76 77  1  0      
 76 78  1  0      
 73 76  1  0      
 69 70  1  0      
 41 75  1  0      
 59 30  1  0      
 47 15  1  0      
M  END
