SA45_0003.mol
  ChemDraw05022416462D

 69 75  0  0  1  0  0  0  0  0999 V2000
   -2.6006   -1.7604    0.0000 C   0  0  0  0  0  0  0  0  0  0  0  0
   -1.8422   -1.4442    0.0000 N   0  0  0  0  0  0  0  0  0  0  0  0
   -1.9512   -0.6309    0.0000 C   0  0  0  0  0  0  0  0  0  0  0  0
   -2.7770   -0.4445    0.0000 C   0  0  0  0  0  0  0  0  0  0  0  0
   -3.2047   -1.1461    0.0000 O   0  0  0  0  0  0  0  0  0  0  0  0
   -3.0975    0.3121    0.0000 C   0  0  0  0  0  0  0  0  0  0  0  0
   -1.3450   -0.0763    0.0000 C   0  0  0  0  0  0  0  0  0  0  0  0
   -2.7633   -2.5658    0.0000 C   0  0  0  0  0  0  0  0  0  0  0  0
   -0.5616   -0.3239    0.0000 N   0  0  0  0  0  0  0  0  0  0  0  0
   -1.5223    0.7261    0.0000 O   0  0  0  0  0  0  0  0  0  0  0  0
    0.0446    0.2307    0.0000 C   0  0  0  0  0  0  0  0  0  0  0  0
    0.8281   -0.0169    0.0000 C   0  0  0  0  0  0  0  0  0  0  0  0
   -0.1326    1.0331    0.0000 C   0  0  0  0  0  0  0  0  0  0  0  0
    0.6509    0.7854    0.0000 C   0  0  0  0  0  0  0  0  0  0  0  0
    0.4484    1.6141    0.0000 N   0  0  0  0  0  0  0  0  0  0  0  0
   -0.9263    1.2457    0.0000 O   0  0  0  0  0  0  0  0  0  0  0  0
    1.0882   -0.7963    0.0000 N   0  0  0  0  0  0  0  0  0  0  0  0
    1.9099   -0.7898    0.0000 C   0  0  0  0  0  0  0  0  0  0  0  0
    2.1576   -0.0063    0.0000 C   0  0  0  0  0  0  0  0  0  0  0  0
    1.4890    0.4713    0.0000 O   0  0  0  0  0  0  0  0  0  0  0  0
    2.9370    0.2538    0.0000 C   0  0  0  0  0  0  0  0  0  0  0  0
    2.0191   -1.6042    0.0000 C   0  0  0  0  0  0  0  0  0  0  0  0
    2.7789   -1.9168    0.0000 O   0  0  0  0  0  0  0  0  0  0  0  0
    1.3684   -2.1059    0.0000 N   0  0  0  0  0  0  0  0  0  0  0  0
    1.4775   -2.9203    0.0000 C   0  0  0  0  0  0  0  0  0  0  0  0
    0.8268   -3.4220    0.0000 C   0  0  0  0  0  0  0  0  0  0  0  0
    2.2374   -3.2329    0.0000 C   0  0  0  0  0  0  0  0  0  0  0  0
    1.5867   -3.7347    0.0000 C   0  0  0  0  0  0  0  0  0  0  0  0
    2.8881   -2.7312    0.0000 O   0  0  0  0  0  0  0  0  0  0  0  0
    2.3466   -4.0473    0.0000 N   0  0  0  0  0  0  0  0  0  0  0  0
    0.0385   -3.1905    0.0000 N   0  0  0  0  0  0  0  0  0  0  0  0
   -0.4253   -3.8688    0.0000 C   0  0  0  0  0  0  0  0  0  0  0  0
    0.0764   -4.5195    0.0000 C   0  0  0  0  0  0  0  0  0  0  0  0
    0.8503   -4.2434    0.0000 O   0  0  0  0  0  0  0  0  0  0  0  0
   -1.2467   -3.8922    0.0000 C   0  0  0  0  0  0  0  0  0  0  0  0
   -1.6575   -4.6038    0.0000 O   0  0  0  0  0  0  0  0  0  0  0  0
   -1.6777   -3.1926    0.0000 N   0  0  0  0  0  0  0  0  0  0  0  0
   -3.5809   -2.4840    0.0000 C   0  0  0  0  0  0  0  0  0  0  0  0
   -3.2429   -3.2330    0.0000 C   0  0  0  0  0  0  0  0  0  0  0  0
   -3.9189   -1.7351    0.0000 O   0  0  0  0  0  0  0  0  0  0  0  0
   -4.0605   -3.1512    0.0000 N   0  0  0  0  0  0  0  0  0  0  0  0
   -0.1551   -5.3078    0.0000 C   0  0  0  0  0  0  0  0  0  0  0  0
   -6.7966   -5.7381    0.0000 N   0  0  0  0  0  0  0  0  0  0  0  0
   -6.3170   -5.0710    0.0000 C   0  0  0  0  0  0  0  0  0  0  0  0
   -6.6550   -4.3220    0.0000 C   0  0  0  0  0  0  0  0  0  0  0  0
   -6.1753   -3.6548    0.0000 C   0  0  0  0  0  0  0  0  0  0  0  0
   -6.5133   -2.9059    0.0000 C   0  0  0  0  0  0  0  0  0  0  0  0
   -6.0337   -2.2387    0.0000 C   0  0  0  0  0  0  0  0  0  0  0  0
   -5.2161   -2.3205    0.0000 C   0  0  0  0  0  0  0  0  0  0  0  0
   -4.8781   -3.0694    0.0000 C   0  0  0  0  0  0  0  0  0  0  0  0
   -5.3577   -3.7366    0.0000 C   0  0  0  0  0  0  0  0  0  0  0  0
    6.7966   -5.1088    0.0000 N   0  0  0  0  0  0  0  0  0  0  0  0
    6.0367   -4.7962    0.0000 C   0  0  0  0  0  0  0  0  0  0  0  0
    5.3860   -5.2979    0.0000 C   0  0  0  0  0  0  0  0  0  0  0  0
    4.6262   -4.9853    0.0000 C   0  0  0  0  0  0  0  0  0  0  0  0
    3.9755   -5.4870    0.0000 C   0  0  0  0  0  0  0  0  0  0  0  0
    3.2156   -5.1744    0.0000 C   0  0  0  0  0  0  0  0  0  0  0  0
    3.1064   -4.3600    0.0000 C   0  0  0  0  0  0  0  0  0  0  0  0
    3.7571   -3.8582    0.0000 C   0  0  0  0  0  0  0  0  0  0  0  0
    4.5170   -4.1709    0.0000 C   0  0  0  0  0  0  0  0  0  0  0  0
    1.5534    5.7381    0.0000 N   0  0  0  0  0  0  0  0  0  0  0  0
    0.9724    5.1571    0.0000 C   0  0  0  0  0  0  0  0  0  0  0  0
    1.1851    4.3634    0.0000 C   0  0  0  0  0  0  0  0  0  0  0  0
    0.6041    3.7824    0.0000 C   0  0  0  0  0  0  0  0  0  0  0  0
    0.8168    2.9888    0.0000 C   0  0  0  0  0  0  0  0  0  0  0  0
    0.2357    2.4077    0.0000 C   0  0  0  0  0  0  0  0  0  0  0  0
   -0.5579    2.6204    0.0000 C   0  0  0  0  0  0  0  0  0  0  0  0
   -0.7706    3.4141    0.0000 C   0  0  0  0  0  0  0  0  0  0  0  0
   -0.1896    3.9951    0.0000 C   0  0  0  0  0  0  0  0  0  0  0  0
  1  2  2  0      
  2  3  1  0      
  3  4  2  0      
  4  5  1  0      
  5  1  1  0      
  4  6  1  0      
  3  7  1  0      
  1  8  1  0      
  7  9  1  0      
  7 10  2  0      
  9 11  1  0      
 11 12  1  0      
 11 13  1  6      
 11 14  1  1      
 13 15  1  0      
 13 16  2  0      
 12 17  2  0      
 17 18  1  0      
 18 19  2  0      
 19 20  1  0      
 20 12  1  0      
 19 21  1  0      
 18 22  1  0      
 22 23  2  0      
 22 24  1  0      
 24 25  1  0      
 25 26  1  0      
 25 27  1  6      
 25 28  1  1      
 27 29  2  0      
 27 30  1  0      
 26 31  2  0      
 31 32  1  0      
 32 33  2  0      
 33 34  1  0      
 34 26  1  0      
 32 35  1  0      
 35 36  2  0      
 35 37  1  0      
 37  8  1  0      
  8 38  1  6      
  8 39  1  1      
 38 40  2  0      
 38 41  1  0      
 33 42  1  0      
 44 45  1  0      
 45 46  1  0      
 46 47  1  0      
 47 48  2  0      
 48 49  1  0      
 49 50  2  0      
 50 51  1  0      
 46 51  2  0      
 43 44  1  0      
 53 54  1  0      
 54 55  1  0      
 55 56  1  0      
 56 57  2  0      
 57 58  1  0      
 58 59  2  0      
 59 60  1  0      
 55 60  2  0      
 52 53  1  0      
 62 63  1  0      
 63 64  1  0      
 64 65  1  0      
 65 66  2  0      
 66 67  1  0      
 67 68  2  0      
 68 69  1  0      
 64 69  2  0      
 61 62  1  0      
 15 66  1  0      
 30 58  1  0      
 41 50  1  0      
M  END
