SA48_0004.mol
  ChemDraw05022417282D

 50 55  0  0  1  0  0  0  0  0999 V2000
   -2.5707   -0.2474    0.0000 C   0  0  0  0  0  0  0  0  0  0  0  0
   -2.5707   -1.0724    0.0000 C   0  0  0  0  0  0  0  0  0  0  0  0
   -1.8562   -1.4849    0.0000 C   0  0  0  0  0  0  0  0  0  0  0  0
   -1.1418   -1.0724    0.0000 C   0  0  0  0  0  0  0  0  0  0  0  0
   -1.1418   -0.2474    0.0000 C   0  0  0  0  0  0  0  0  0  0  0  0
   -1.8562    0.1651    0.0000 C   0  0  0  0  0  0  0  0  0  0  0  0
   -0.4273   -1.4849    0.0000 C   0  0  0  0  0  0  0  0  0  0  0  0
    0.2872   -1.0724    0.0000 C   0  0  0  0  0  0  0  0  0  0  0  0
    0.2872   -0.2474    0.0000 C   0  0  0  0  0  0  0  0  0  0  0  0
   -0.4273    0.1651    0.0000 C   0  0  0  0  0  0  0  0  0  0  0  0
   -0.4273    0.9901    0.0000 C   0  0  0  0  0  0  0  0  0  0  0  0
   -1.1418    0.5776    0.0000 C   0  0  0  0  0  0  0  0  0  0  0  0
    0.2872    1.4026    0.0000 C   0  0  0  0  0  0  0  0  0  0  0  0
    0.2872    2.2276    0.0000 C   0  0  0  0  0  0  0  0  0  0  0  0
    1.0016    0.9901    0.0000 S   0  0  0  0  0  0  0  0  0  0  0  0
    0.9546    2.7126    0.0000 C   0  0  0  0  0  0  0  0  0  0  0  0
    0.6997    3.4972    0.0000 O   0  0  0  0  0  0  0  0  0  0  0  0
   -0.1253    3.4972    0.0000 C   0  0  0  0  0  0  0  0  0  0  0  0
   -0.3803    2.7126    0.0000 C   0  0  0  0  0  0  0  0  0  0  0  0
    1.7392    2.4576    0.0000 O   0  0  0  0  0  0  0  0  0  0  0  0
    1.8266    0.9901    0.0000 C   0  0  0  0  0  0  0  0  0  0  0  0
    2.2391    1.7046    0.0000 S   0  0  0  0  0  0  0  0  0  0  0  0
    2.2391    0.2757    0.0000 N   0  0  0  0  0  0  0  0  0  0  0  0
    1.8266   -0.4388    0.0000 C   0  0  0  0  0  0  0  0  0  0  0  0
    2.2391   -1.1533    0.0000 C   0  0  0  0  0  0  0  0  0  0  0  0
    3.0641   -1.1533    0.0000 C   0  0  0  0  0  0  0  0  0  0  0  0
    3.4766   -0.4388    0.0000 C   0  0  0  0  0  0  0  0  0  0  0  0
    3.0641    0.2757    0.0000 C   0  0  0  0  0  0  0  0  0  0  0  0
    1.0016    0.1651    0.0000 C   0  0  0  0  0  0  0  0  0  0  0  0
   -3.2852   -1.4849    0.0000 O   0  0  0  0  0  0  0  0  0  0  0  0
   -2.4396   -2.0682    0.0000 C   0  0  0  0  0  0  0  0  0  0  0  0
   -1.1418   -1.8974    0.0000 H   0  0  0  0  0  0  0  0  0  0  0  0
   -1.4437   -2.1993    0.0000 C   0  0  0  0  0  0  0  0  0  0  0  0
   -3.9997   -1.0724    0.0000 C   0  0  0  0  0  0  0  0  0  0  0  0
   -4.7141   -1.4849    0.0000 C   0  0  0  0  0  0  0  0  0  0  0  0
   -3.9997   -0.2474    0.0000 O   0  0  0  0  0  0  0  0  0  0  0  0
   -3.2646   -2.0682    0.0000 O   0  0  0  0  0  0  0  0  0  0  0  0
   -3.6771   -2.7827    0.0000 C   0  0  0  0  0  0  0  0  0  0  0  0
   -4.5021   -2.7827    0.0000 C   0  0  0  0  0  0  0  0  0  0  0  0
   -3.2646   -3.4972    0.0000 O   0  0  0  0  0  0  0  0  0  0  0  0
    3.4766   -1.8678    0.0000 C   0  0  0  0  0  0  0  0  0  0  0  0
    4.3016   -1.8678    0.0000 C   0  0  0  0  0  0  0  0  0  0  0  0
    4.7141   -1.1533    0.0000 C   0  0  0  0  0  0  0  0  0  0  0  0
    4.3016   -0.4388    0.0000 C   0  0  0  0  0  0  0  0  0  0  0  0
    3.4766    0.9901    0.0000 C   0  0  0  0  0  0  0  0  0  0  0  0
    4.3016    0.9901    0.0000 C   0  0  0  0  0  0  0  0  0  0  0  0
    4.7141    1.7046    0.0000 C   0  0  0  0  0  0  0  0  0  0  0  0
    4.3016    2.4191    0.0000 C   0  0  0  0  0  0  0  0  0  0  0  0
    3.4766    2.4191    0.0000 C   0  0  0  0  0  0  0  0  0  0  0  0
    3.0641    1.7046    0.0000 C   0  0  0  0  0  0  0  0  0  0  0  0
  1  2  1  0      
  2  3  1  0      
  3  4  1  0      
  4  5  1  0      
  5  6  1  0      
  6  1  1  0      
  4  7  1  0      
  7  8  1  0      
  8  9  1  0      
  9 10  1  0      
 10  5  1  0      
 10 11  1  6      
  5 12  1  6      
 11 13  1  0      
 13 14  1  0      
 13 15  1  0      
 14 16  1  0      
 16 17  1  0      
 17 18  1  0      
 18 19  1  0      
 19 14  2  0      
 16 20  2  0      
 15 21  1  0      
 21 22  2  0      
 21 23  1  0      
 23 24  1  0      
 24 25  1  0      
 25 26  1  0      
 26 27  2  0      
 27 28  1  0      
 28 23  1  0      
  9 29  2  0      
  2 30  1  6      
  3 31  1  6      
  4 32  1  1      
  3 33  1  1      
 30 34  1  0      
 34 35  1  0      
 34 36  1  0      
 31 37  1  0      
 37 38  1  0      
 38 39  1  0      
 38 40  2  0      
 26 41  1  0      
 41 42  2  0      
 42 43  1  0      
 43 44  2  0      
 44 27  1  0      
 28 45  1  1      
 45 46  2  0      
 46 47  1  0      
 47 48  2  0      
 48 49  1  0      
 49 50  2  0      
 50 45  1  0      
M  END
