SA51_0027.mol
  ChemDraw05032410142D

 19 21  0  0  0  0  0  0  0  0999 V2000
   -2.4561    1.4109    0.0000 C   0  0  0  0  0  0  0  0  0  0  0  0
   -2.4561    0.5892    0.0000 C   0  0  0  0  0  0  0  0  0  0  0  0
   -1.7445    0.1783    0.0000 C   0  0  0  0  0  0  0  0  0  0  0  0
   -1.0329    0.5892    0.0000 C   0  0  0  0  0  0  0  0  0  0  0  0
   -1.0329    1.4109    0.0000 C   0  0  0  0  0  0  0  0  0  0  0  0
   -1.7445    1.8217    0.0000 C   0  0  0  0  0  0  0  0  0  0  0  0
   -0.2514    0.3353    0.0000 S   0  0  0  0  0  0  0  0  0  0  0  0
    0.2315    1.0000    0.0000 N   0  0  0  0  0  0  0  0  0  0  0  0
   -0.2514    1.6648    0.0000 C   0  0  0  0  0  0  0  0  0  0  0  0
    0.0025    2.4462    0.0000 O   0  0  0  0  0  0  0  0  0  0  0  0
    1.0532    1.0000    0.0000 C   0  0  0  0  0  0  0  0  0  0  0  0
    1.4640    0.2884    0.0000 N   0  0  0  0  0  0  0  0  0  0  0  0
    1.4657    1.7145    0.0000 O   0  0  0  0  0  0  0  0  0  0  0  0
    1.0515   -0.4260    0.0000 C   0  0  0  0  0  0  0  0  0  0  0  0
    1.4640   -1.1405    0.0000 C   0  0  0  0  0  0  0  0  0  0  0  0
    1.1285   -1.8942    0.0000 C   0  0  0  0  0  0  0  0  0  0  0  0
    1.7416   -2.4462    0.0000 C   0  0  0  0  0  0  0  0  0  0  0  0
    2.4561   -2.0337    0.0000 C   0  0  0  0  0  0  0  0  0  0  0  0
    2.2845   -1.2267    0.0000 O   0  0  0  0  0  0  0  0  0  0  0  0
  1  2  2  0      
  2  3  1  0      
  3  4  2  0      
  4  5  1  0      
  5  6  2  0      
  6  1  1  0      
  4  7  1  0      
  7  8  1  0      
  8  9  1  0      
  9  5  1  0      
  9 10  2  0      
  8 11  1  0      
 11 12  1  0      
 11 13  2  0      
 12 14  1  0      
 14 15  1  0      
 15 16  2  0      
 16 17  1  0      
 17 18  2  0      
 18 19  1  0      
 19 15  1  0      
M  END
