SA5_0005.mol
  ChemDraw02212408222D

 31 35  0  0  1  0  0  0  0  0999 V2000
   -3.1888   -0.2536    0.0000 N   0  0  0  0  0  0  0  0  0  0  0  0
   -2.7763   -0.9680    0.0000 C   0  0  0  0  0  0  0  0  0  0  0  0
   -1.9513   -0.9680    0.0000 N   0  0  0  0  0  0  0  0  0  0  0  0
   -1.5388   -0.2536    0.0000 C   0  0  0  0  0  0  0  0  0  0  0  0
   -1.9513    0.4609    0.0000 C   0  0  0  0  0  0  0  0  0  0  0  0
   -2.7763    0.4609    0.0000 C   0  0  0  0  0  0  0  0  0  0  0  0
   -1.6964    1.2455    0.0000 C   0  0  0  0  0  0  0  0  0  0  0  0
   -2.3638    1.7304    0.0000 C   0  0  0  0  0  0  0  0  0  0  0  0
   -3.0313    1.2455    0.0000 N   0  0  0  0  0  0  0  0  0  0  0  0
   -0.7138   -0.2536    0.0000 C   0  0  0  0  0  0  0  0  0  0  0  0
   -0.1305   -0.8369    0.0000 C   0  0  0  0  0  0  0  0  0  0  0  0
    0.6046   -0.4624    0.0000 C   0  0  0  0  0  0  0  0  0  0  0  0
    0.4755    0.3525    0.0000 N   0  0  0  0  0  0  0  0  0  0  0  0
   -0.3393    0.4815    0.0000 C   0  0  0  0  0  0  0  0  0  0  0  0
   -0.1305   -1.6619    0.0000 C   0  0  0  0  0  0  0  0  0  0  0  0
    0.5840   -2.0744    0.0000 C   0  0  0  0  0  0  0  0  0  0  0  0
    1.2985   -1.6619    0.0000 C   0  0  0  0  0  0  0  0  0  0  0  0
    1.2985   -0.8369    0.0000 C   0  0  0  0  0  0  0  0  0  0  0  0
    1.0589    0.9358    0.0000 C   0  0  0  0  0  0  0  0  0  0  0  0
    2.0129   -2.0744    0.0000 C   0  0  0  0  0  0  0  0  0  0  0  0
    2.7274   -1.6619    0.0000 F   0  0  0  0  0  0  0  0  0  0  0  0
    2.0129   -2.8994    0.0000 F   0  0  0  0  0  0  0  0  0  0  0  0
    2.0129   -1.2494    0.0000 F   0  0  0  0  0  0  0  0  0  0  0  0
    1.8558    0.7223    0.0000 C   0  0  0  0  0  0  0  0  0  0  0  0
    0.8454    1.7327    0.0000 C   0  0  0  0  0  0  0  0  0  0  0  0
    1.4287    2.3161    0.0000 C   0  0  0  0  0  0  0  0  0  0  0  0
    2.0121    2.8994    0.0000 N   0  0  0  0  0  0  0  0  0  0  0  0
    2.0693   -0.0746    0.0000 C   0  0  0  0  0  0  0  0  0  0  0  0
    2.8932   -0.1178    0.0000 C   0  0  0  0  0  0  0  0  0  0  0  0
    3.1888    0.6524    0.0000 C   0  0  0  0  0  0  0  0  0  0  0  0
    2.5477    1.1716    0.0000 C   0  0  0  0  0  0  0  0  0  0  0  0
  1  2  2  0      
  2  3  1  0      
  3  4  2  0      
  4  5  1  0      
  5  6  2  0      
  6  1  1  0      
  5  7  1  0      
  7  8  2  0      
  8  9  1  0      
  9  6  1  0      
  4 10  1  0      
 10 11  1  0      
 11 12  2  0      
 12 13  1  0      
 13 14  1  0      
 14 10  2  0      
 11 15  1  0      
 15 16  2  0      
 16 17  1  0      
 17 18  2  0      
 18 12  1  0      
 13 19  1  0      
 17 20  1  0      
 20 21  1  0      
 20 22  1  0      
 20 23  1  0      
 19 24  1  6      
 19 25  1  0      
 25 26  1  0      
 26 27  3  0      
 24 28  1  0      
 28 29  1  0      
 29 30  1  0      
 30 31  1  0      
 31 24  1  0      
M  END
