SA5_0004.mol
  ChemDraw02202411142D

 34 38  0  0  0  0  0  0  0  0999 V2000
   -3.8040   -0.3479    0.0000 N   0  0  0  0  0  0  0  0  0  0  0  0
   -3.3915   -1.0623    0.0000 C   0  0  0  0  0  0  0  0  0  0  0  0
   -2.5665   -1.0623    0.0000 N   0  0  0  0  0  0  0  0  0  0  0  0
   -2.1540   -0.3479    0.0000 C   0  0  0  0  0  0  0  0  0  0  0  0
   -2.5665    0.3666    0.0000 C   0  0  0  0  0  0  0  0  0  0  0  0
   -3.3915    0.3666    0.0000 C   0  0  0  0  0  0  0  0  0  0  0  0
   -2.3116    1.1512    0.0000 C   0  0  0  0  0  0  0  0  0  0  0  0
   -2.9790    1.6361    0.0000 C   0  0  0  0  0  0  0  0  0  0  0  0
   -3.6465    1.1512    0.0000 N   0  0  0  0  0  0  0  0  0  0  0  0
   -1.3290   -0.3479    0.0000 C   0  0  0  0  0  0  0  0  0  0  0  0
   -0.7457   -0.9312    0.0000 C   0  0  0  0  0  0  0  0  0  0  0  0
   -0.0106   -0.5567    0.0000 C   0  0  0  0  0  0  0  0  0  0  0  0
   -0.1397    0.2581    0.0000 N   0  0  0  0  0  0  0  0  0  0  0  0
   -0.9545    0.3872    0.0000 C   0  0  0  0  0  0  0  0  0  0  0  0
   -0.7457   -1.7562    0.0000 C   0  0  0  0  0  0  0  0  0  0  0  0
   -0.0312   -2.1687    0.0000 C   0  0  0  0  0  0  0  0  0  0  0  0
    0.6833   -1.7562    0.0000 C   0  0  0  0  0  0  0  0  0  0  0  0
    0.6833   -0.9312    0.0000 C   0  0  0  0  0  0  0  0  0  0  0  0
    0.4437    0.8415    0.0000 C   0  0  0  0  0  0  0  0  0  0  0  0
    0.8562    1.5560    0.0000 C   0  0  0  0  0  0  0  0  0  0  0  0
    1.1582    0.4290    0.0000 C   0  0  0  0  0  0  0  0  0  0  0  0
    1.7415    1.0124    0.0000 N   0  0  0  0  0  0  0  0  0  0  0  0
    2.5665    1.0124    0.0000 S   0  0  0  0  0  0  0  0  0  0  0  0
    3.3915    1.0124    0.0000 C   0  0  0  0  0  0  0  0  0  0  0  0
    3.8040    0.2979    0.0000 C   0  0  0  0  0  0  0  0  0  0  0  0
    2.5665    1.8374    0.0000 O   0  0  0  0  0  0  0  0  0  0  0  0
    2.5665    0.1874    0.0000 O   0  0  0  0  0  0  0  0  0  0  0  0
   -0.2108    1.3437    0.0000 C   0  0  0  0  0  0  0  0  0  0  0  0
   -0.2108    2.1687    0.0000 C   0  0  0  0  0  0  0  0  0  0  0  0
    1.3977   -2.1687    0.0000 C   0  0  0  0  0  0  0  0  0  0  0  0
   -0.2108    2.9937    0.0000 N   0  0  0  0  0  0  0  0  0  0  0  0
    2.1122   -1.7562    0.0000 F   0  0  0  0  0  0  0  0  0  0  0  0
    1.3977   -2.9937    0.0000 F   0  0  0  0  0  0  0  0  0  0  0  0
    1.3977   -1.3437    0.0000 F   0  0  0  0  0  0  0  0  0  0  0  0
  1  2  2  0      
  2  3  1  0      
  3  4  2  0      
  4  5  1  0      
  5  6  2  0      
  6  1  1  0      
  5  7  1  0      
  7  8  2  0      
  8  9  1  0      
  9  6  1  0      
  4 10  1  0      
 10 11  1  0      
 11 12  2  0      
 12 13  1  0      
 13 14  1  0      
 14 10  2  0      
 11 15  1  0      
 15 16  2  0      
 16 17  1  0      
 17 18  2  0      
 18 12  1  0      
 13 19  1  0      
 19 20  1  0      
 19 21  1  0      
 21 22  1  0      
 20 22  1  0      
 22 23  1  0      
 23 24  1  0      
 24 25  1  0      
 23 26  2  0      
 23 27  2  0      
 19 28  1  0      
 28 29  1  0      
 17 30  1  0      
 29 31  3  0      
 30 32  1  0      
 30 33  1  0      
 30 34  1  0      
M  END
