SV_J19_0007.mol
  ChemDraw04112415182D

 36 39  0  0  0  0  0  0  0  0999 V2000
   -3.2428    1.8031    0.0000 C   0  0  0  0  0  0  0  0  0  0  0  0
   -3.9371    1.3574    0.0000 C   0  0  0  0  0  0  0  0  0  0  0  0
   -3.8981    0.5333    0.0000 C   0  0  0  0  0  0  0  0  0  0  0  0
   -3.1650    0.1550    0.0000 C   0  0  0  0  0  0  0  0  0  0  0  0
   -2.4708    0.6007    0.0000 C   0  0  0  0  0  0  0  0  0  0  0  0
   -2.5097    1.4248    0.0000 C   0  0  0  0  0  0  0  0  0  0  0  0
   -1.6750    0.3831    0.0000 N   0  0  0  0  0  0  0  0  0  0  0  0
   -1.2221    1.0726    0.0000 C   0  0  0  0  0  0  0  0  0  0  0  0
   -1.7380    1.7165    0.0000 C   0  0  0  0  0  0  0  0  0  0  0  0
   -1.4615   -0.4138    0.0000 C   0  0  0  0  0  0  0  0  0  0  0  0
   -1.5203    2.5122    0.0000 O   0  0  0  0  0  0  0  0  0  0  0  0
   -0.3980    1.1116    0.0000 O   0  0  0  0  0  0  0  0  0  0  0  0
   -0.7470   -0.8263    0.0000 C   0  0  0  0  0  0  0  0  0  0  0  0
   -0.6608   -1.6468    0.0000 N   0  0  0  0  0  0  0  0  0  0  0  0
    0.1462   -1.8183    0.0000 N   0  0  0  0  0  0  0  0  0  0  0  0
    0.5587   -1.1039    0.0000 N   0  0  0  0  0  0  0  0  0  0  0  0
    0.0067   -0.4908    0.0000 C   0  0  0  0  0  0  0  0  0  0  0  0
    1.1421   -0.5205    0.0000 C   0  0  0  0  0  0  0  0  0  0  0  0
    1.9389   -0.7340    0.0000 C   0  0  0  0  0  0  0  0  0  0  0  0
    2.5223   -0.1507    0.0000 N   0  0  0  0  0  0  0  0  0  0  0  0
    2.1525   -1.5309    0.0000 O   0  0  0  0  0  0  0  0  0  0  0  0
    3.2368   -0.5632    0.0000 C   0  0  0  0  0  0  0  0  0  0  0  0
    3.2368   -1.3882    0.0000 C   0  0  0  0  0  0  0  0  0  0  0  0
    3.9512   -1.8007    0.0000 C   0  0  0  0  0  0  0  0  0  0  0  0
    4.6657   -1.3882    0.0000 C   0  0  0  0  0  0  0  0  0  0  0  0
    4.6657   -0.5632    0.0000 C   0  0  0  0  0  0  0  0  0  0  0  0
    3.9512   -0.1507    0.0000 C   0  0  0  0  0  0  0  0  0  0  0  0
    5.3802   -1.8007    0.0000 S   0  0  0  0  0  0  0  0  0  0  0  0
    5.7910   -1.0891    0.0000 O   0  0  0  0  0  0  0  0  0  0  0  0
    4.9694   -2.5122    0.0000 O   0  0  0  0  0  0  0  0  0  0  0  0
    6.0918   -2.2115    0.0000 N   0  0  0  0  0  0  0  0  0  0  0  0
   -4.6702    1.7357    0.0000 O   0  0  0  0  0  0  0  0  0  0  0  0
   -5.3616    1.2918    0.0000 C   0  0  0  0  0  0  0  0  0  0  0  0
   -6.0530    0.8478    0.0000 F   0  0  0  0  0  0  0  0  0  0  0  0
   -5.3228    0.4710    0.0000 F   0  0  0  0  0  0  0  0  0  0  0  0
   -6.0918    1.6686    0.0000 F   0  0  0  0  0  0  0  0  0  0  0  0
 28 29  2  0      
 28 30  2  0      
 28 31  1  0      
 25 28  1  0      
 33 34  1  0      
 33 35  1  0      
 33 36  1  0      
 32 33  1  0      
  2 32  1  0      
  1  2  2  0      
  2  3  1  0      
  3  4  2  0      
  4  5  1  0      
  5  6  2  0      
  6  1  1  0      
  5  7  1  0      
  7  8  1  0      
  8  9  1  0      
  9  6  1  0      
  7 10  1  0      
  9 11  2  0      
  8 12  2  0      
 10 13  1  0      
 13 14  1  0      
 14 15  2  0      
 15 16  1  0      
 16 17  1  0      
 17 13  2  0      
 16 18  1  0      
 18 19  1  0      
 19 20  1  0      
 19 21  2  0      
 20 22  1  0      
 22 23  2  0      
 23 24  1  0      
 24 25  2  0      
 25 26  1  0      
 26 27  2  0      
 27 22  1  0      
M  STY  1   1 SUP
M  SLB  1   1   1
M  SAL   1  4  28  29  30  31
M  SBL   1  1   4
M  SMT   1 SO2NH2
M  SBV   1   4   -0.7145    0.4125
M  STY  1   2 SUP
M  SLB  1   2   2
M  SAL   2  5  32  33  34  35  36
M  SBL   2  1   9
M  SMT   2 OCF3
M  SBV   2   9    0.7331   -0.3783
M  END
