SV_J13_0007.mol
  ChemDraw04112415322D

 48 53  0  0  0  0  0  0  0  0999 V2000
   -3.8079   -0.8758    0.0000 C   0  0  0  0  0  0  0  0  0  0  0  0
   -3.4727   -1.6296    0.0000 C   0  0  0  0  0  0  0  0  0  0  0  0
   -2.6522   -1.7162    0.0000 C   0  0  0  0  0  0  0  0  0  0  0  0
   -2.1670   -1.0489    0.0000 C   0  0  0  0  0  0  0  0  0  0  0  0
   -2.5023   -0.2951    0.0000 C   0  0  0  0  0  0  0  0  0  0  0  0
   -3.3228   -0.2086    0.0000 C   0  0  0  0  0  0  0  0  0  0  0  0
   -2.0172    0.3721    0.0000 C   0  0  0  0  0  0  0  0  0  0  0  0
   -2.3524    1.1259    0.0000 C   0  0  0  0  0  0  0  0  0  0  0  0
   -3.1729    1.2125    0.0000 C   0  0  0  0  0  0  0  0  0  0  0  0
   -3.6581    0.5452    0.0000 C   0  0  0  0  0  0  0  0  0  0  0  0
   -3.5082    1.9663    0.0000 N   0  0  0  0  0  0  0  0  0  0  0  0
   -3.0957    2.6807    0.0000 C   0  0  0  0  0  0  0  0  0  0  0  0
   -2.2707    2.6807    0.0000 C   0  0  0  0  0  0  0  0  0  0  0  0
   -3.5082    3.3952    0.0000 O   0  0  0  0  0  0  0  0  0  0  0  0
   -1.8582    1.9663    0.0000 C   0  0  0  0  0  0  0  0  0  0  0  0
   -1.0332    1.9663    0.0000 C   0  0  0  0  0  0  0  0  0  0  0  0
   -0.6207    2.6807    0.0000 C   0  0  0  0  0  0  0  0  0  0  0  0
   -1.0332    3.3952    0.0000 C   0  0  0  0  0  0  0  0  0  0  0  0
   -1.8582    3.3952    0.0000 C   0  0  0  0  0  0  0  0  0  0  0  0
    0.2043    2.6807    0.0000 C   0  0  0  0  0  0  0  0  0  0  0  0
    0.6168    1.9663    0.0000 C   0  0  0  0  0  0  0  0  0  0  0  0
    1.4418    1.9663    0.0000 C   0  0  0  0  0  0  0  0  0  0  0  0
    1.8543    2.6807    0.0000 C   0  0  0  0  0  0  0  0  0  0  0  0
    1.4418    3.3952    0.0000 C   0  0  0  0  0  0  0  0  0  0  0  0
    0.6168    3.3952    0.0000 C   0  0  0  0  0  0  0  0  0  0  0  0
    2.6793    2.6807    0.0000 C   0  0  0  0  0  0  0  0  0  0  0  0
    3.0918    3.3952    0.0000 O   0  0  0  0  0  0  0  0  0  0  0  0
    3.0918    1.9663    0.0000 N   0  0  0  0  0  0  0  0  0  0  0  0
    2.8783    1.1694    0.0000 C   0  0  0  0  0  0  0  0  0  0  0  0
    2.0814    0.9559    0.0000 C   0  0  0  0  0  0  0  0  0  0  0  0
    1.8679    0.1590    0.0000 C   0  0  0  0  0  0  0  0  0  0  0  0
    2.4513   -0.4244    0.0000 C   0  0  0  0  0  0  0  0  0  0  0  0
    3.2481   -0.2109    0.0000 C   0  0  0  0  0  0  0  0  0  0  0  0
    3.4617    0.5860    0.0000 C   0  0  0  0  0  0  0  0  0  0  0  0
    2.2377   -1.2213    0.0000 C   0  0  0  0  0  0  0  0  0  0  0  0
    2.8211   -1.8046    0.0000 C   0  0  0  0  0  0  0  0  0  0  0  0
    3.6180   -1.5911    0.0000 C   0  0  0  0  0  0  0  0  0  0  0  0
    3.8315   -0.7942    0.0000 C   0  0  0  0  0  0  0  0  0  0  0  0
    4.6284   -0.5807    0.0000 O   0  0  0  0  0  0  0  0  0  0  0  0
   -4.6284   -0.7893    0.0000 O   0  0  0  0  0  0  0  0  0  0  0  0
    2.6076   -2.6015    0.0000 S   0  0  0  0  0  0  0  0  0  0  0  0
    3.4012   -2.8142    0.0000 O   0  0  0  0  0  0  0  0  0  0  0  0
    1.8139   -2.3889    0.0000 O   0  0  0  0  0  0  0  0  0  0  0  0
    2.3949   -3.3952    0.0000 O   0  0  0  0  0  0  0  0  0  0  0  0
   -2.3169   -2.4700    0.0000 S   0  0  0  0  0  0  0  0  0  0  0  0
   -1.5662   -2.1360    0.0000 O   0  0  0  0  0  0  0  0  0  0  0  0
   -3.0677   -2.8039    0.0000 O   0  0  0  0  0  0  0  0  0  0  0  0
   -1.9830   -3.2207    0.0000 O   0  0  0  0  0  0  0  0  0  0  0  0
 41 42  2  0      
 41 43  2  0      
 41 44  1  0      
 36 41  1  0      
 45 46  2  0      
 45 47  2  0      
 45 48  1  0      
  3 45  1  0      
  1  2  2  0      
  2  3  1  0      
  3  4  2  0      
  4  5  1  0      
  5  6  2  0      
  6  1  1  0      
  5  7  1  0      
  7  8  2  0      
  8  9  1  0      
  9 10  2  0      
 10  6  1  0      
  9 11  1  0      
 11 12  1  0      
 12 13  1  0      
 12 14  2  0      
 13 15  2  0      
 15 16  1  0      
 16 17  2  0      
 17 18  1  0      
 18 19  2  0      
 19 13  1  0      
 17 20  1  0      
 20 21  2  0      
 21 22  1  0      
 22 23  2  0      
 23 24  1  0      
 24 25  2  0      
 25 20  1  0      
 23 26  1  0      
 26 27  2  0      
 26 28  1  0      
 28 29  1  0      
 29 30  2  0      
 30 31  1  0      
 31 32  2  0      
 32 33  1  0      
 33 34  2  0      
 34 29  1  0      
 32 35  1  0      
 35 36  2  0      
 36 37  1  0      
 37 38  2  0      
 38 33  1  0      
 38 39  1  0      
  1 40  1  0      
M  STY  1   1 SUP
M  SLB  1   1   1
M  SAL   1  4  41  42  43  44
M  SBL   1  1   4
M  SMT   1 SO3H
M  SBV   1   4    0.2135    0.7969
M  STY  1   2 SUP
M  SLB  1   2   2
M  SAL   2  4  45  46  47  48
M  SBL   2  1   8
M  SMT   2 SO3H
M  SBV   2   8   -0.3353    0.7538
M  END
