SV_J19_0002.mol
  ChemDraw04112415092D

 22 25  0  0  0  0  0  0  0  0999 V2000
   -1.9387    1.1664    0.0000 C   0  0  0  0  0  0  0  0  0  0  0  0
   -2.6330    0.7207    0.0000 C   0  0  0  0  0  0  0  0  0  0  0  0
   -2.5940   -0.1034    0.0000 C   0  0  0  0  0  0  0  0  0  0  0  0
   -1.8609   -0.4817    0.0000 C   0  0  0  0  0  0  0  0  0  0  0  0
   -1.1667   -0.0360    0.0000 C   0  0  0  0  0  0  0  0  0  0  0  0
   -1.2056    0.7881    0.0000 C   0  0  0  0  0  0  0  0  0  0  0  0
   -0.3709   -0.2536    0.0000 N   0  0  0  0  0  0  0  0  0  0  0  0
    0.0820    0.4359    0.0000 C   0  0  0  0  0  0  0  0  0  0  0  0
   -0.4339    1.0798    0.0000 C   0  0  0  0  0  0  0  0  0  0  0  0
   -3.3661    1.0990    0.0000 I   0  0  0  0  0  0  0  0  0  0  0  0
   -0.1574   -1.0505    0.0000 C   0  0  0  0  0  0  0  0  0  0  0  0
    0.6676   -1.0505    0.0000 C   0  0  0  0  0  0  0  0  0  0  0  0
    1.1525   -1.7180    0.0000 S   0  0  0  0  0  0  0  0  0  0  0  0
    1.9372   -1.4630    0.0000 C   0  0  0  0  0  0  0  0  0  0  0  0
    1.9372   -0.6380    0.0000 C   0  0  0  0  0  0  0  0  0  0  0  0
    1.1525   -0.3831    0.0000 C   0  0  0  0  0  0  0  0  0  0  0  0
    2.6516   -1.8755    0.0000 C   0  0  0  0  0  0  0  0  0  0  0  0
    3.3661   -1.4630    0.0000 C   0  0  0  0  0  0  0  0  0  0  0  0
    3.3661   -0.6380    0.0000 C   0  0  0  0  0  0  0  0  0  0  0  0
    2.6516   -0.2255    0.0000 C   0  0  0  0  0  0  0  0  0  0  0  0
   -0.2162    1.8755    0.0000 O   0  0  0  0  0  0  0  0  0  0  0  0
    0.9061    0.4748    0.0000 O   0  0  0  0  0  0  0  0  0  0  0  0
  1  2  2  0      
  2  3  1  0      
  3  4  2  0      
  4  5  1  0      
  5  6  2  0      
  6  1  1  0      
  5  7  1  0      
  7  8  1  0      
  8  9  1  0      
  9  6  1  0      
  2 10  1  0      
  7 11  1  0      
 11 12  1  0      
 12 13  1  0      
 13 14  1  0      
 14 15  2  0      
 15 16  1  0      
 16 12  2  0      
 14 17  1  0      
 17 18  2  0      
 18 19  1  0      
 19 20  2  0      
 20 15  1  0      
  9 21  2  0      
  8 22  2  0      
M  END
