SV_J19_0004.mol
  ChemDraw04112415102D

 32 35  0  0  0  0  0  0  0  0999 V2000
   -3.9536    1.8031    0.0000 C   0  0  0  0  0  0  0  0  0  0  0  0
   -4.6478    1.3574    0.0000 C   0  0  0  0  0  0  0  0  0  0  0  0
   -4.6089    0.5333    0.0000 C   0  0  0  0  0  0  0  0  0  0  0  0
   -3.8758    0.1550    0.0000 C   0  0  0  0  0  0  0  0  0  0  0  0
   -3.1816    0.6007    0.0000 C   0  0  0  0  0  0  0  0  0  0  0  0
   -3.2205    1.4248    0.0000 C   0  0  0  0  0  0  0  0  0  0  0  0
   -2.3858    0.3831    0.0000 N   0  0  0  0  0  0  0  0  0  0  0  0
   -1.9329    1.0726    0.0000 C   0  0  0  0  0  0  0  0  0  0  0  0
   -2.4488    1.7165    0.0000 C   0  0  0  0  0  0  0  0  0  0  0  0
   -2.1723   -0.4138    0.0000 C   0  0  0  0  0  0  0  0  0  0  0  0
   -2.2311    2.5122    0.0000 O   0  0  0  0  0  0  0  0  0  0  0  0
   -1.1088    1.1116    0.0000 O   0  0  0  0  0  0  0  0  0  0  0  0
   -1.4578   -0.8263    0.0000 C   0  0  0  0  0  0  0  0  0  0  0  0
   -1.3716   -1.6468    0.0000 N   0  0  0  0  0  0  0  0  0  0  0  0
   -0.5646   -1.8183    0.0000 N   0  0  0  0  0  0  0  0  0  0  0  0
   -0.1521   -1.1039    0.0000 N   0  0  0  0  0  0  0  0  0  0  0  0
   -0.7041   -0.4908    0.0000 C   0  0  0  0  0  0  0  0  0  0  0  0
    0.4313   -0.5205    0.0000 C   0  0  0  0  0  0  0  0  0  0  0  0
    1.2281   -0.7340    0.0000 C   0  0  0  0  0  0  0  0  0  0  0  0
    1.8115   -0.1507    0.0000 N   0  0  0  0  0  0  0  0  0  0  0  0
    1.4417   -1.5309    0.0000 O   0  0  0  0  0  0  0  0  0  0  0  0
    2.5260   -0.5632    0.0000 C   0  0  0  0  0  0  0  0  0  0  0  0
    2.5260   -1.3882    0.0000 C   0  0  0  0  0  0  0  0  0  0  0  0
    3.2405   -1.8007    0.0000 C   0  0  0  0  0  0  0  0  0  0  0  0
    3.9549   -1.3882    0.0000 C   0  0  0  0  0  0  0  0  0  0  0  0
    3.9549   -0.5632    0.0000 C   0  0  0  0  0  0  0  0  0  0  0  0
    3.2405   -0.1507    0.0000 C   0  0  0  0  0  0  0  0  0  0  0  0
   -5.3810    1.7357    0.0000 H   0  0  0  0  0  0  0  0  0  0  0  0
    4.6694   -1.8007    0.0000 S   0  0  0  0  0  0  0  0  0  0  0  0
    5.0802   -1.0891    0.0000 O   0  0  0  0  0  0  0  0  0  0  0  0
    4.2586   -2.5122    0.0000 O   0  0  0  0  0  0  0  0  0  0  0  0
    5.3810   -2.2115    0.0000 N   0  0  0  0  0  0  0  0  0  0  0  0
 29 30  2  0      
 29 31  2  0      
 29 32  1  0      
 25 29  1  0      
  1  2  2  0      
  2  3  1  0      
  3  4  2  0      
  4  5  1  0      
  5  6  2  0      
  6  1  1  0      
  5  7  1  0      
  7  8  1  0      
  8  9  1  0      
  9  6  1  0      
  7 10  1  0      
  9 11  2  0      
  8 12  2  0      
 10 13  1  0      
 13 14  1  0      
 14 15  2  0      
 15 16  1  0      
 16 17  1  0      
 17 13  2  0      
 16 18  1  0      
 18 19  1  0      
 19 20  1  0      
 19 21  2  0      
 20 22  1  0      
 22 23  2  0      
 23 24  1  0      
 24 25  2  0      
 25 26  1  0      
 26 27  2  0      
 27 22  1  0      
  2 28  1  0      
M  STY  1   1 SUP
M  SLB  1   1   1
M  SAL   1  4  29  30  31  32
M  SBL   1  1   4
M  SMT   1 SO2NH2
M  SBV   1   4   -0.7145    0.4125
M  END
