SV_J7_0005.mol
  ChemDraw02082412032D

 38 43  0  0  0  0  0  0  0  0999 V2000
   -3.9811    1.4075    0.0000 C   0  0  0  0  0  0  0  0  0  0  0  0
   -3.6944    2.1810    0.0000 N   0  0  0  0  0  0  0  0  0  0  0  0
   -4.3415    2.6928    0.0000 N   0  0  0  0  0  0  0  0  0  0  0  0
   -5.0282    2.2355    0.0000 C   0  0  0  0  0  0  0  0  0  0  0  0
   -4.8055    1.4411    0.0000 S   0  0  0  0  0  0  0  0  0  0  0  0
   -5.8018    2.5222    0.0000 O   0  0  0  0  0  0  0  0  0  0  0  0
   -6.2143    3.2366    0.0000 C   0  0  0  0  0  0  0  0  0  0  0  0
   -3.5238    0.7208    0.0000 N   0  0  0  0  0  0  0  0  0  0  0  0
   -3.8087   -0.0535    0.0000 N   0  0  0  0  0  0  0  0  0  0  0  0
   -3.1603   -0.5636    0.0000 N   0  0  0  0  0  0  0  0  0  0  0  0
   -2.4748   -0.1047    0.0000 C   0  0  0  0  0  0  0  0  0  0  0  0
   -2.6994    0.7208    0.0000 C   0  0  0  0  0  0  0  0  0  0  0  0
   -2.1985    1.3763    0.0000 C   0  0  0  0  0  0  0  0  0  0  0  0
   -1.7019   -0.3934    0.0000 C   0  0  0  0  0  0  0  0  0  0  0  0
   -1.4980   -1.1928    0.0000 C   0  0  0  0  0  0  0  0  0  0  0  0
   -0.6748   -1.2459    0.0000 C   0  0  0  0  0  0  0  0  0  0  0  0
   -0.3698   -0.4793    0.0000 N   0  0  0  0  0  0  0  0  0  0  0  0
   -1.0047    0.0476    0.0000 N   0  0  0  0  0  0  0  0  0  0  0  0
   -0.2338   -1.9432    0.0000 C   0  0  0  0  0  0  0  0  0  0  0  0
   -0.5387   -2.7098    0.0000 C   0  0  0  0  0  0  0  0  0  0  0  0
    0.0961   -3.2366    0.0000 C   0  0  0  0  0  0  0  0  0  0  0  0
    0.7934   -2.7957    0.0000 C   0  0  0  0  0  0  0  0  0  0  0  0
    0.5895   -1.9963    0.0000 S   0  0  0  0  0  0  0  0  0  0  0  0
    0.4270   -0.2658    0.0000 C   0  0  0  0  0  0  0  0  0  0  0  0
    1.0309   -0.8279    0.0000 S   0  0  0  0  0  0  0  0  0  0  0  0
    1.7521   -0.4273    0.0000 C   0  0  0  0  0  0  0  0  0  0  0  0
    1.5940    0.3824    0.0000 C   0  0  0  0  0  0  0  0  0  0  0  0
    0.7750    0.4822    0.0000 N   0  0  0  0  0  0  0  0  0  0  0  0
    2.5001   -0.7753    0.0000 N   0  0  0  0  0  0  0  0  0  0  0  0
    2.1561    0.9863    0.0000 C   0  0  0  0  0  0  0  0  0  0  0  0
    3.1755   -0.3015    0.0000 N   0  0  0  0  0  0  0  0  0  0  0  0
    3.9235   -0.6495    0.0000 C   0  0  0  0  0  0  0  0  0  0  0  0
    4.0348   -1.4669    0.0000 C   0  0  0  0  0  0  0  0  0  0  0  0
    4.7984   -1.7793    0.0000 C   0  0  0  0  0  0  0  0  0  0  0  0
    5.4507   -1.2742    0.0000 C   0  0  0  0  0  0  0  0  0  0  0  0
    5.3394   -0.4568    0.0000 C   0  0  0  0  0  0  0  0  0  0  0  0
    4.5758   -0.1444    0.0000 C   0  0  0  0  0  0  0  0  0  0  0  0
    6.2143   -1.5866    0.0000 Cl  0  0  0  0  0  0  0  0  0  0  0  0
  1  2  2  0      
  2  3  1  0      
  3  4  2  0      
  4  5  1  0      
  5  1  1  0      
  4  6  1  0      
  6  7  1  0      
  1  8  1  0      
  8  9  1  0      
  9 10  2  0      
 10 11  1  0      
 11 12  2  0      
 12  8  1  0      
 12 13  1  0      
 11 14  1  0      
 14 15  1  0      
 15 16  1  0      
 16 17  1  0      
 17 18  1  0      
 18 14  2  0      
 16 19  1  0      
 19 20  2  0      
 20 21  1  0      
 21 22  2  0      
 22 23  1  0      
 23 19  1  0      
 17 24  1  0      
 24 25  1  0      
 25 26  1  0      
 26 27  2  0      
 27 28  1  0      
 28 24  2  0      
 26 29  1  0      
 27 30  1  0      
 29 31  2  0      
 31 32  1  0      
 32 33  2  0      
 33 34  1  0      
 34 35  2  0      
 35 36  1  0      
 36 37  2  0      
 37 32  1  0      
 35 38  1  0      
M  END
