SV_J26_0002
  -OEChem-07172407052D

 74 75  0     1  0  0  0  0  0999 V2000
    2.8380    5.2585    0.0000 O   0  0  0  0  0  0  0  0  0  0  0  0
    7.1962    2.4798    0.0000 O   0  0  0  0  0  0  0  0  0  0  0  0
    6.3301    4.9798    0.0000 O   0  0  0  0  0  0  0  0  0  0  0  0
    6.3301   -1.0202    0.0000 O   0  0  0  0  0  0  0  0  0  0  0  0
    3.7320   -3.5202    0.0000 O   0  0  0  0  0  0  0  0  0  0  0  0
    2.8660   -2.0202    0.0000 O   0  0  0  0  0  0  0  0  0  0  0  0
    4.0981    6.5186    0.0000 N   0  0  0  0  0  0  0  0  0  0  0  0
    5.4641    2.4798    0.0000 N   0  0  0  0  0  0  0  0  0  0  0  0
    5.4641    0.4798    0.0000 N   0  0  0  0  0  0  0  0  0  0  0  0
    4.5981   -2.0202    0.0000 N   0  0  0  0  0  0  0  0  0  0  0  0
    4.5981    4.9798    0.0000 C   0  0  2  0  0  0  0  0  0  0  0  0
    4.5981    3.9798    0.0000 C   0  0  0  0  0  0  0  0  0  0  0  0
    5.4071    5.5676    0.0000 C   0  0  0  0  0  0  0  0  0  0  0  0
    5.4641    3.4798    0.0000 C   0  0  1  0  0  0  0  0  0  0  0  0
    5.0981    6.5186    0.0000 C   0  0  0  0  0  0  0  0  0  0  0  0
    3.7891    5.5676    0.0000 C   0  0  0  0  0  0  0  0  0  0  0  0
    6.3301    0.9798    0.0000 C   0  0  1  0  0  0  0  0  0  0  0  0
    7.1962    0.4798    0.0000 C   0  0  0  0  0  0  0  0  0  0  0  0
    8.0622    0.9798    0.0000 C   0  0  0  0  0  0  0  0  0  0  0  0
    6.3301    1.9798    0.0000 C   0  0  0  0  0  0  0  0  0  0  0  0
    4.5981   -1.0202    0.0000 C   0  0  1  0  0  0  0  0  0  0  0  0
    3.7320   -0.5202    0.0000 C   0  0  0  0  0  0  0  0  0  0  0  0
    6.3301    3.9798    0.0000 C   0  0  0  0  0  0  0  0  0  0  0  0
    5.4641   -0.5202    0.0000 C   0  0  0  0  0  0  0  0  0  0  0  0
    8.9282    0.4798    0.0000 C   0  0  0  0  0  0  0  0  0  0  0  0
    8.0622    1.9798    0.0000 C   0  0  0  0  0  0  0  0  0  0  0  0
    3.7320    0.4798    0.0000 C   0  0  0  0  0  0  0  0  0  0  0  0
    2.8660   -1.0202    0.0000 C   0  0  0  0  0  0  0  0  0  0  0  0
    3.7320   -2.5202    0.0000 C   0  0  0  0  0  0  0  0  0  0  0  0
    2.8660   -4.0202    0.0000 C   0  0  0  0  0  0  0  0  0  0  0  0
    2.8660   -5.0202    0.0000 C   0  0  0  0  0  0  0  0  0  0  0  0
    3.7320   -5.5202    0.0000 C   0  0  0  0  0  0  0  0  0  0  0  0
    2.0000   -5.5202    0.0000 C   0  0  0  0  0  0  0  0  0  0  0  0
    3.7320   -6.5202    0.0000 C   0  0  0  0  0  0  0  0  0  0  0  0
    2.0000   -6.5202    0.0000 C   0  0  0  0  0  0  0  0  0  0  0  0
    2.8660   -7.0202    0.0000 C   0  0  0  0  0  0  0  0  0  0  0  0
    5.1505    4.6983    0.0000 H   0  0  0  0  0  0  0  0  0  0  0  0
    3.9875    4.0874    0.0000 H   0  0  0  0  0  0  0  0  0  0  0  0
    4.3860    3.3972    0.0000 H   0  0  0  0  0  0  0  0  0  0  0  0
    5.7171    5.0306    0.0000 H   0  0  0  0  0  0  0  0  0  0  0  0
    5.9735    5.8198    0.0000 H   0  0  0  0  0  0  0  0  0  0  0  0
    6.0010    3.1698    0.0000 H   0  0  0  0  0  0  0  0  0  0  0  0
    5.7045    6.6475    0.0000 H   0  0  0  0  0  0  0  0  0  0  0  0
    5.0333    7.1352    0.0000 H   0  0  0  0  0  0  0  0  0  0  0  0
    5.7932    1.2898    0.0000 H   0  0  0  0  0  0  0  0  0  0  0  0
    3.7336    7.0202    0.0000 H   0  0  0  0  0  0  0  0  0  0  0  0
    6.7976    0.0048    0.0000 H   0  0  0  0  0  0  0  0  0  0  0  0
    7.5947    0.0048    0.0000 H   0  0  0  0  0  0  0  0  0  0  0  0
    4.9272    2.1698    0.0000 H   0  0  0  0  0  0  0  0  0  0  0  0
    8.0622    0.3598    0.0000 H   0  0  0  0  0  0  0  0  0  0  0  0
    4.9272    0.7898    0.0000 H   0  0  0  0  0  0  0  0  0  0  0  0
    5.1350   -1.3302    0.0000 H   0  0  0  0  0  0  0  0  0  0  0  0
    3.7320   -1.1402    0.0000 H   0  0  0  0  0  0  0  0  0  0  0  0
    6.8671    3.6698    0.0000 H   0  0  0  0  0  0  0  0  0  0  0  0
    8.6182   -0.0572    0.0000 H   0  0  0  0  0  0  0  0  0  0  0  0
    9.4651    0.1698    0.0000 H   0  0  0  0  0  0  0  0  0  0  0  0
    9.2382    1.0167    0.0000 H   0  0  0  0  0  0  0  0  0  0  0  0
    8.6822    1.9798    0.0000 H   0  0  0  0  0  0  0  0  0  0  0  0
    8.0622    2.5998    0.0000 H   0  0  0  0  0  0  0  0  0  0  0  0
    7.4422    1.9798    0.0000 H   0  0  0  0  0  0  0  0  0  0  0  0
    4.3520    0.4798    0.0000 H   0  0  0  0  0  0  0  0  0  0  0  0
    3.7320    1.0998    0.0000 H   0  0  0  0  0  0  0  0  0  0  0  0
    3.1120    0.4798    0.0000 H   0  0  0  0  0  0  0  0  0  0  0  0
    2.5560   -0.4833    0.0000 H   0  0  0  0  0  0  0  0  0  0  0  0
    2.3291   -1.3302    0.0000 H   0  0  0  0  0  0  0  0  0  0  0  0
    3.1760   -1.5572    0.0000 H   0  0  0  0  0  0  0  0  0  0  0  0
    5.1350   -2.3302    0.0000 H   0  0  0  0  0  0  0  0  0  0  0  0
    2.6540   -3.4376    0.0000 H   0  0  0  0  0  0  0  0  0  0  0  0
    2.2554   -4.1279    0.0000 H   0  0  0  0  0  0  0  0  0  0  0  0
    4.2690   -5.2102    0.0000 H   0  0  0  0  0  0  0  0  0  0  0  0
    1.4631   -5.2102    0.0000 H   0  0  0  0  0  0  0  0  0  0  0  0
    4.2690   -6.8302    0.0000 H   0  0  0  0  0  0  0  0  0  0  0  0
    1.4631   -6.8302    0.0000 H   0  0  0  0  0  0  0  0  0  0  0  0
    2.8660   -7.6402    0.0000 H   0  0  0  0  0  0  0  0  0  0  0  0
  1 16  2  0  0  0  0
  2 20  2  0  0  0  0
  3 23  2  0  0  0  0
  4 24  2  0  0  0  0
  5 29  1  0  0  0  0
  5 30  1  0  0  0  0
  6 29  2  0  0  0  0
  7 15  1  0  0  0  0
  7 16  1  0  0  0  0
  7 46  1  0  0  0  0
 14  8  1  1  0  0  0
  8 20  1  0  0  0  0
  8 49  1  0  0  0  0
 17  9  1  6  0  0  0
  9 24  1  0  0  0  0
  9 51  1  0  0  0  0
 21 10  1  1  0  0  0
 10 29  1  0  0  0  0
 10 67  1  0  0  0  0
 11 12  1  1  0  0  0
 11 13  1  0  0  0  0
 11 16  1  0  0  0  0
 11 37  1  0  0  0  0
 12 14  1  0  0  0  0
 12 38  1  0  0  0  0
 12 39  1  0  0  0  0
 13 15  1  0  0  0  0
 13 40  1  0  0  0  0
 13 41  1  0  0  0  0
 14 23  1  0  0  0  0
 14 42  1  0  0  0  0
 15 43  1  0  0  0  0
 15 44  1  0  0  0  0
 17 18  1  0  0  0  0
 17 20  1  0  0  0  0
 17 45  1  0  0  0  0
 18 19  1  0  0  0  0
 18 47  1  0  0  0  0
 18 48  1  0  0  0  0
 19 25  1  0  0  0  0
 19 26  1  0  0  0  0
 19 50  1  0  0  0  0
 21 22  1  0  0  0  0
 21 24  1  0  0  0  0
 21 52  1  0  0  0  0
 22 27  1  0  0  0  0
 22 28  1  0  0  0  0
 22 53  1  0  0  0  0
 23 54  1  0  0  0  0
 25 55  1  0  0  0  0
 25 56  1  0  0  0  0
 25 57  1  0  0  0  0
 26 58  1  0  0  0  0
 26 59  1  0  0  0  0
 26 60  1  0  0  0  0
 27 61  1  0  0  0  0
 27 62  1  0  0  0  0
 27 63  1  0  0  0  0
 28 64  1  0  0  0  0
 28 65  1  0  0  0  0
 28 66  1  0  0  0  0
 30 31  1  0  0  0  0
 30 68  1  0  0  0  0
 30 69  1  0  0  0  0
 31 32  2  0  0  0  0
 31 33  1  0  0  0  0
 32 34  1  0  0  0  0
 32 70  1  0  0  0  0
 33 35  2  0  0  0  0
 33 71  1  0  0  0  0
 34 36  2  0  0  0  0
 34 72  1  0  0  0  0
 35 36  1  0  0  0  0
 35 73  1  0  0  0  0
 36 74  1  0  0  0  0
M  END
> <PUBCHEM_COMPOUND_CID>
154699455

> <PUBCHEM_COMPOUND_CANONICALIZED>
1

> <PUBCHEM_CACTVS_COMPLEXITY>
766

> <PUBCHEM_CACTVS_HBOND_ACCEPTOR>
6

> <PUBCHEM_CACTVS_HBOND_DONOR>
4

> <PUBCHEM_CACTVS_ROTATABLE_BOND>
14

> <PUBCHEM_CACTVS_SUBSKEYS>
AAADcfB7uAAAAAAAAAAAAAAAAAAAAWAAAAAwAAAAAAAAAAABAAAAHgAQAAAADSjhmAYyCILABACIAilSmAACAAAgAAAIiIGICIkIZjKAsTicMAAk1gGIqAecyyAOAAAAAAAAAAAAAAAAAAAAAAAAAAAAAA==

> <PUBCHEM_IUPAC_OPENEYE_NAME>
benzyl N-[(1S)-1-[[(1S)-1-[[(1S)-1-formyl-2-[(3S)-2-oxopyrrolidin-3-yl]ethyl]carbamoyl]-3-methyl-butyl]carbamoyl]-2-methyl-propyl]carbamate

> <PUBCHEM_IUPAC_CAS_NAME>
N-[(2S)-3-methyl-1-[[(2S)-4-methyl-1-oxo-1-[[(2S)-1-oxo-3-[(3S)-2-oxo-3-pyrrolidinyl]propan-2-yl]amino]pentan-2-yl]amino]-1-oxobutan-2-yl]carbamic acid (phenylmethyl) ester

> <PUBCHEM_IUPAC_NAME_MARKUP>
benzyl <I>N</I>-[(2<I>S</I>)-3-methyl-1-[[(2<I>S</I>)-4-methyl-1-oxo-1-[[(2<I>S</I>)-1-oxo-3-[(3<I>S</I>)-2-oxopyrrolidin-3-yl]propan-2-yl]amino]pentan-2-yl]amino]-1-oxobutan-2-yl]carbamate

> <PUBCHEM_IUPAC_NAME>
benzyl N-[(2S)-3-methyl-1-[[(2S)-4-methyl-1-oxo-1-[[(2S)-1-oxo-3-[(3S)-2-oxopyrrolidin-3-yl]propan-2-yl]amino]pentan-2-yl]amino]-1-oxobutan-2-yl]carbamate

> <PUBCHEM_IUPAC_SYSTEMATIC_NAME>
(phenylmethyl) N-[(2S)-3-methyl-1-[[(2S)-4-methyl-1-oxidanylidene-1-[[(2S)-1-oxidanylidene-3-[(3S)-2-oxidanylidenepyrrolidin-3-yl]propan-2-yl]amino]pentan-2-yl]amino]-1-oxidanylidene-butan-2-yl]carbamate

> <PUBCHEM_IUPAC_TRADITIONAL_NAME>
N-[(1S)-1-[[(1S)-1-[[(1S)-1-formyl-2-[(3S)-2-ketopyrrolidin-3-yl]ethyl]carbamoyl]-3-methyl-butyl]carbamoyl]-2-methyl-propyl]carbamic acid benzyl ester

> <PUBCHEM_IUPAC_INCHI>
InChI=1S/C26H38N4O6/c1-16(2)12-21(24(33)28-20(14-31)13-19-10-11-27-23(19)32)29-25(34)22(17(3)4)30-26(35)36-15-18-8-6-5-7-9-18/h5-9,14,16-17,19-22H,10-13,15H2,1-4H3,(H,27,32)(H,28,33)(H,29,34)(H,30,35)/t19-,20-,21-,22-/m0/s1

> <PUBCHEM_IUPAC_INCHIKEY>
RUHYGYHBVKWREW-CMOCDZPBSA-N

> <PUBCHEM_XLOGP3_AA>
2.6

> <PUBCHEM_EXACT_MASS>
502.27913494

> <PUBCHEM_MOLECULAR_FORMULA>
C26H38N4O6

> <PUBCHEM_MOLECULAR_WEIGHT>
502.6

> <PUBCHEM_OPENEYE_CAN_SMILES>
CC(C)CC(C(=O)NC(CC1CCNC1=O)C=O)NC(=O)C(C(C)C)NC(=O)OCC2=CC=CC=C2

> <PUBCHEM_OPENEYE_ISO_SMILES>
CC(C)C[C@@H](C(=O)N[C@@H](C[C@@H]1CCNC1=O)C=O)NC(=O)[C@H](C(C)C)NC(=O)OCC2=CC=CC=C2

> <PUBCHEM_CACTVS_TPSA>
143

> <PUBCHEM_MONOISOTOPIC_WEIGHT>
502.27913494

> <PUBCHEM_TOTAL_CHARGE>
0

> <PUBCHEM_HEAVY_ATOM_COUNT>
36

> <PUBCHEM_ATOM_DEF_STEREO_COUNT>
4

> <PUBCHEM_ATOM_UDEF_STEREO_COUNT>
0

> <PUBCHEM_BOND_DEF_STEREO_COUNT>
0

> <PUBCHEM_BOND_UDEF_STEREO_COUNT>
0

> <PUBCHEM_ISOTOPIC_ATOM_COUNT>
0

> <PUBCHEM_COMPONENT_COUNT>
1

> <PUBCHEM_CACTVS_TAUTO_COUNT>
-1

> <PUBCHEM_COORDINATE_TYPE>
1
5
255

> <PUBCHEM_BONDANNOTATIONS>
21  10  5
11  12  5
31  32  8
31  33  8
32  34  8
33  35  8
34  36  8
35  36  8
14  8  5
17  9  6

$$$$
