TAPI-1
  -OEChem-12182004162D

 73 74  0     1  0  0  0  0  0999 V2000
    6.3301   -2.5000    0.0000 O   0  0  0  0  0  0  0  0  0  0  0  0
    7.1962    1.0000    0.0000 O   0  0  0  0  0  0  0  0  0  0  0  0
    6.3301   -3.5000    0.0000 O   0  0  0  0  0  0  0  0  0  0  0  0
    6.3301   -5.5000    0.0000 O   0  0  0  0  0  0  0  0  0  0  0  0
    3.7320    2.0000    0.0000 O   0  0  0  0  0  0  0  0  0  0  0  0
    5.4641   -1.0000    0.0000 N   0  0  0  0  0  0  0  0  0  0  0  0
    5.4641    1.0000    0.0000 N   0  0  0  0  0  0  0  0  0  0  0  0
    5.4641   -5.0000    0.0000 N   0  0  0  0  0  0  0  0  0  0  0  0
    4.5981    3.5000    0.0000 N   0  0  0  0  0  0  0  0  0  0  0  0
    2.8660    5.5000    0.0000 N   0  0  0  0  0  0  0  0  0  0  0  0
    4.5981   -2.5000    0.0000 C   0  0  3  0  0  0  0  0  0  0  0  0
    3.7320   -2.0000    0.0000 C   0  0  0  0  0  0  0  0  0  0  0  0
    2.8660   -2.5000    0.0000 C   0  0  0  0  0  0  0  0  0  0  0  0
    4.5981   -3.5000    0.0000 C   0  0  0  0  0  0  0  0  0  0  0  0
    6.3301   -0.5000    0.0000 C   0  0  1  0  0  0  0  0  0  0  0  0
    5.4641   -2.0000    0.0000 C   0  0  0  0  0  0  0  0  0  0  0  0
    7.1962   -1.0000    0.0000 C   0  0  0  0  0  0  0  0  0  0  0  0
    2.0000   -2.0000    0.0000 C   0  0  0  0  0  0  0  0  0  0  0  0
    2.8660   -3.5000    0.0000 C   0  0  0  0  0  0  0  0  0  0  0  0
    6.3301    0.5000    0.0000 C   0  0  0  0  0  0  0  0  0  0  0  0
    8.0622   -0.5000    0.0000 C   0  0  0  0  0  0  0  0  0  0  0  0
    5.4641   -4.0000    0.0000 C   0  0  0  0  0  0  0  0  0  0  0  0
    5.4641    2.0000    0.0000 C   0  0  1  0  0  0  0  0  0  0  0  0
    8.9282   -1.0000    0.0000 C   0  0  0  0  0  0  0  0  0  0  0  0
    8.0622    0.5000    0.0000 C   0  0  0  0  0  0  0  0  0  0  0  0
    9.7942   -0.5000    0.0000 C   0  0  0  0  0  0  0  0  0  0  0  0
    9.7942    0.5000    0.0000 C   0  0  0  0  0  0  0  0  0  0  0  0
    8.9282    1.0000    0.0000 C   0  0  0  0  0  0  0  0  0  0  0  0
    6.3301    2.5000    0.0000 C   0  0  0  0  0  0  0  0  0  0  0  0
    4.5981    2.5000    0.0000 C   0  0  0  0  0  0  0  0  0  0  0  0
   10.6882   -1.0347    0.0000 C   0  0  0  0  0  0  0  0  0  0  0  0
   10.6882    1.0347    0.0000 C   0  0  0  0  0  0  0  0  0  0  0  0
   11.5942   -0.5208    0.0000 C   0  0  0  0  0  0  0  0  0  0  0  0
   11.5942    0.5208    0.0000 C   0  0  0  0  0  0  0  0  0  0  0  0
    3.7320    4.0000    0.0000 C   0  0  0  0  0  0  0  0  0  0  0  0
    3.7320    5.0000    0.0000 C   0  0  0  0  0  0  0  0  0  0  0  0
    4.5981   -1.8800    0.0000 H   0  0  0  0  0  0  0  0  0  0  0  0
    4.1306   -1.5250    0.0000 H   0  0  0  0  0  0  0  0  0  0  0  0
    3.3335   -1.5250    0.0000 H   0  0  0  0  0  0  0  0  0  0  0  0
    2.8660   -1.8800    0.0000 H   0  0  0  0  0  0  0  0  0  0  0  0
    3.9875   -3.3923    0.0000 H   0  0  0  0  0  0  0  0  0  0  0  0
    4.3860   -4.0826    0.0000 H   0  0  0  0  0  0  0  0  0  0  0  0
    5.7932   -0.1900    0.0000 H   0  0  0  0  0  0  0  0  0  0  0  0
    4.9272   -0.6900    0.0000 H   0  0  0  0  0  0  0  0  0  0  0  0
    6.7976   -1.4750    0.0000 H   0  0  0  0  0  0  0  0  0  0  0  0
    7.5947   -1.4750    0.0000 H   0  0  0  0  0  0  0  0  0  0  0  0
    2.3100   -1.4631    0.0000 H   0  0  0  0  0  0  0  0  0  0  0  0
    1.4631   -1.6900    0.0000 H   0  0  0  0  0  0  0  0  0  0  0  0
    1.6900   -2.5369    0.0000 H   0  0  0  0  0  0  0  0  0  0  0  0
    2.2460   -3.5000    0.0000 H   0  0  0  0  0  0  0  0  0  0  0  0
    2.8660   -4.1200    0.0000 H   0  0  0  0  0  0  0  0  0  0  0  0
    3.4860   -3.5000    0.0000 H   0  0  0  0  0  0  0  0  0  0  0  0
    4.9272    0.6900    0.0000 H   0  0  0  0  0  0  0  0  0  0  0  0
    6.0010    1.6900    0.0000 H   0  0  0  0  0  0  0  0  0  0  0  0
    8.9282   -1.6200    0.0000 H   0  0  0  0  0  0  0  0  0  0  0  0
    7.5252    0.8100    0.0000 H   0  0  0  0  0  0  0  0  0  0  0  0
    8.9282    1.6200    0.0000 H   0  0  0  0  0  0  0  0  0  0  0  0
    4.9272   -5.3100    0.0000 H   0  0  0  0  0  0  0  0  0  0  0  0
    6.6401    1.9631    0.0000 H   0  0  0  0  0  0  0  0  0  0  0  0
    6.8671    2.8100    0.0000 H   0  0  0  0  0  0  0  0  0  0  0  0
    6.0201    3.0369    0.0000 H   0  0  0  0  0  0  0  0  0  0  0  0
   10.6810   -1.6546    0.0000 H   0  0  0  0  0  0  0  0  0  0  0  0
   10.6810    1.6546    0.0000 H   0  0  0  0  0  0  0  0  0  0  0  0
    5.1350    3.8100    0.0000 H   0  0  0  0  0  0  0  0  0  0  0  0
   12.1300   -0.8329    0.0000 H   0  0  0  0  0  0  0  0  0  0  0  0
   12.1300    0.8329    0.0000 H   0  0  0  0  0  0  0  0  0  0  0  0
    3.1215    4.1077    0.0000 H   0  0  0  0  0  0  0  0  0  0  0  0
    3.5200    3.4174    0.0000 H   0  0  0  0  0  0  0  0  0  0  0  0
    6.3301   -6.1200    0.0000 H   0  0  0  0  0  0  0  0  0  0  0  0
    4.3426    4.8923    0.0000 H   0  0  0  0  0  0  0  0  0  0  0  0
    3.9441    5.5826    0.0000 H   0  0  0  0  0  0  0  0  0  0  0  0
    2.8660    6.1200    0.0000 H   0  0  0  0  0  0  0  0  0  0  0  0
    2.3291    5.1900    0.0000 H   0  0  0  0  0  0  0  0  0  0  0  0
  1 16  2  0  0  0  0
  2 20  2  0  0  0  0
  3 22  2  0  0  0  0
  4  8  1  0  0  0  0
  4 69  1  0  0  0  0
  5 30  2  0  0  0  0
 15  6  1  6  0  0  0
  6 16  1  0  0  0  0
  6 44  1  0  0  0  0
  7 20  1  0  0  0  0
 23  7  1  6  0  0  0
  7 53  1  0  0  0  0
  8 22  1  0  0  0  0
  8 58  1  0  0  0  0
  9 30  1  0  0  0  0
  9 35  1  0  0  0  0
  9 64  1  0  0  0  0
 10 36  1  0  0  0  0
 10 72  1  0  0  0  0
 10 73  1  0  0  0  0
 11 12  1  0  0  0  0
 11 14  1  0  0  0  0
 11 16  1  0  0  0  0
 11 37  1  0  0  0  0
 12 13  1  0  0  0  0
 12 38  1  0  0  0  0
 12 39  1  0  0  0  0
 13 18  1  0  0  0  0
 13 19  1  0  0  0  0
 13 40  1  0  0  0  0
 14 22  1  0  0  0  0
 14 41  1  0  0  0  0
 14 42  1  0  0  0  0
 15 17  1  0  0  0  0
 15 20  1  0  0  0  0
 15 43  1  0  0  0  0
 17 21  1  0  0  0  0
 17 45  1  0  0  0  0
 17 46  1  0  0  0  0
 18 47  1  0  0  0  0
 18 48  1  0  0  0  0
 18 49  1  0  0  0  0
 19 50  1  0  0  0  0
 19 51  1  0  0  0  0
 19 52  1  0  0  0  0
 21 24  2  0  0  0  0
 21 25  1  0  0  0  0
 23 29  1  0  0  0  0
 23 30  1  0  0  0  0
 23 54  1  0  0  0  0
 24 26  1  0  0  0  0
 24 55  1  0  0  0  0
 25 28  2  0  0  0  0
 25 56  1  0  0  0  0
 26 27  1  0  0  0  0
 26 31  2  0  0  0  0
 27 28  1  0  0  0  0
 27 32  2  0  0  0  0
 28 57  1  0  0  0  0
 29 59  1  0  0  0  0
 29 60  1  0  0  0  0
 29 61  1  0  0  0  0
 31 33  1  0  0  0  0
 31 62  1  0  0  0  0
 32 34  1  0  0  0  0
 32 63  1  0  0  0  0
 33 34  2  0  0  0  0
 33 65  1  0  0  0  0
 34 66  1  0  0  0  0
 35 36  1  0  0  0  0
 35 67  1  0  0  0  0
 35 68  1  0  0  0  0
 36 70  1  0  0  0  0
 36 71  1  0  0  0  0
M  END
> <PUBCHEM_COMPOUND_CID>
9827273

> <PUBCHEM_COMPOUND_CANONICALIZED>
1

> <PUBCHEM_CACTVS_COMPLEXITY>
746

> <PUBCHEM_CACTVS_HBOND_ACCEPTOR>
6

> <PUBCHEM_CACTVS_HBOND_DONOR>
6

> <PUBCHEM_CACTVS_ROTATABLE_BOND>
13

> <PUBCHEM_CACTVS_SUBSKEYS>
AAADcfB7uAAAAAAAAAAAAAAAAAAAAAAAAAAwYAAAAAAAAADBUAAAHgAUCAAADSjBmAQyAMLQAACIAiFSEAACAAAgAAAoiIGIAIgIYDKAkTGUIAAglgCIiAcdiMCOwAACAAAQAACAAAQAACAAAAAAAAAAAA==

> <PUBCHEM_IUPAC_OPENEYE_NAME>
N-[(1S)-2-[[(1S)-2-(2-aminoethylamino)-1-methyl-2-oxo-ethyl]amino]-1-(2-naphthylmethyl)-2-oxo-ethyl]-2-[2-(hydroxyamino)-2-oxo-ethyl]-4-methyl-pentanamide

> <PUBCHEM_IUPAC_CAS_NAME>
N-[(2S)-1-[[(2S)-1-(2-aminoethylamino)-1-oxopropan-2-yl]amino]-3-(2-naphthalenyl)-1-oxopropan-2-yl]-N'-hydroxy-2-(2-methylpropyl)butanediamide

> <PUBCHEM_IUPAC_NAME_MARKUP>
<I>N</I>-[(2<I>S</I>)-1-[[(2<I>S</I>)-1-(2-aminoethylamino)-1-oxopropan-2-yl]amino]-3-naphthalen-2-yl-1-oxopropan-2-yl]-<I>N</I>&apos;-hydroxy-2-(2-methylpropyl)butanediamide

> <PUBCHEM_IUPAC_NAME>
N-[(2S)-1-[[(2S)-1-(2-aminoethylamino)-1-oxopropan-2-yl]amino]-3-naphthalen-2-yl-1-oxopropan-2-yl]-N'-hydroxy-2-(2-methylpropyl)butanediamide

> <PUBCHEM_IUPAC_SYSTEMATIC_NAME>
N-[(2S)-1-[[(2S)-1-(2-azanylethylamino)-1-oxidanylidene-propan-2-yl]amino]-3-naphthalen-2-yl-1-oxidanylidene-propan-2-yl]-2-(2-methylpropyl)-N'-oxidanyl-butanediamide

> <PUBCHEM_IUPAC_TRADITIONAL_NAME>
N-[(1S)-2-[[(1S)-2-(2-aminoethylamino)-2-keto-1-methyl-ethyl]amino]-2-keto-1-(2-naphthylmethyl)ethyl]-2-[2-(hydroxyamino)-2-keto-ethyl]-4-methyl-valeramide

> <PUBCHEM_IUPAC_INCHI>
InChI=1S/C26H37N5O5/c1-16(2)12-21(15-23(32)31-36)25(34)30-22(26(35)29-17(3)24(33)28-11-10-27)14-18-8-9-19-6-4-5-7-20(19)13-18/h4-9,13,16-17,21-22,36H,10-12,14-15,27H2,1-3H3,(H,28,33)(H,29,35)(H,30,34)(H,31,32)/t17-,21?,22-/m0/s1

> <PUBCHEM_IUPAC_INCHIKEY>
AWNBSWDIOCXWJW-OWHMDLSXSA-N

> <PUBCHEM_XLOGP3_AA>
1.3

> <PUBCHEM_EXACT_MASS>
499.279469

> <PUBCHEM_MOLECULAR_FORMULA>
C26H37N5O5

> <PUBCHEM_MOLECULAR_WEIGHT>
499.6

> <PUBCHEM_OPENEYE_CAN_SMILES>
CC(C)CC(CC(=O)NO)C(=O)NC(CC1=CC2=CC=CC=C2C=C1)C(=O)NC(C)C(=O)NCCN

> <PUBCHEM_OPENEYE_ISO_SMILES>
C[C@@H](C(=O)NCCN)NC(=O)[C@H](CC1=CC2=CC=CC=C2C=C1)NC(=O)C(CC(C)C)CC(=O)NO

> <PUBCHEM_CACTVS_TPSA>
163

> <PUBCHEM_MONOISOTOPIC_WEIGHT>
499.279469

> <PUBCHEM_TOTAL_CHARGE>
0

> <PUBCHEM_HEAVY_ATOM_COUNT>
36

> <PUBCHEM_ATOM_DEF_STEREO_COUNT>
2

> <PUBCHEM_ATOM_UDEF_STEREO_COUNT>
1

> <PUBCHEM_BOND_DEF_STEREO_COUNT>
0

> <PUBCHEM_BOND_UDEF_STEREO_COUNT>
0

> <PUBCHEM_ISOTOPIC_ATOM_COUNT>
0

> <PUBCHEM_COMPONENT_COUNT>
1

> <PUBCHEM_CACTVS_TAUTO_COUNT>
-1

> <PUBCHEM_COORDINATE_TYPE>
1
5
255

> <PUBCHEM_BONDANNOTATIONS>
11  12  3
21  24  8
21  25  8
24  26  8
25  28  8
26  27  8
26  31  8
27  28  8
27  32  8
31  33  8
32  34  8
33  34  8
15  6  6
23  7  6

$$$$
