Cholest-22-ene-21-ol, 3,5-dehydro-6-methoxy
  -OEChem-12152006322D

 90 94  0     1  0  0  0  0  0999 V2000
    4.3958   -4.2000    0.0000 O   0  0  0  0  0  0  0  0  0  0  0  0
    9.1281    0.5556    0.0000 O   0  0  0  0  0  0  0  0  0  0  0  0
   10.4261    1.7023    0.0000 O   0  0  0  0  0  0  0  0  0  0  0  0
    3.5298   -2.7000    0.0000 C   0  0  3  0  0  0  0  0  0  0  0  0
    3.5298   -1.7000    0.0000 C   0  0  3  0  0  0  0  0  0  0  0  0
    2.5836   -3.0048    0.0000 C   0  0  3  0  0  0  0  0  0  0  0  0
    3.3208   -3.6723    0.0000 C   0  0  0  0  0  0  0  0  0  0  0  0
    4.3958   -1.2000    0.0000 C   0  0  3  0  0  0  0  0  0  0  0  0
    4.3958   -3.2000    0.0000 C   0  0  3  0  0  0  0  0  0  0  0  0
    5.2619   -1.7000    0.0000 C   0  0  3  0  0  0  0  0  0  0  0  0
    2.5836   -1.3953    0.0000 C   0  0  0  0  0  0  0  0  0  0  0  0
    2.0000   -2.2000    0.0000 C   0  0  0  0  0  0  0  0  0  0  0  0
    5.2619   -2.7000    0.0000 C   0  0  0  0  0  0  0  0  0  0  0  0
    6.1719   -1.1932    0.0000 C   0  0  3  0  0  0  0  0  0  0  0  0
    6.1799   -0.1516    0.0000 C   0  0  3  0  0  0  0  0  0  0  0  0
    4.3798   -0.1585    0.0000 C   0  0  0  0  0  0  0  0  0  0  0  0
    3.5298   -0.7000    0.0000 C   0  0  0  0  0  0  0  0  0  0  0  0
    5.2778    0.3692    0.0000 C   0  0  0  0  0  0  0  0  0  0  0  0
    7.1679    0.1582    0.0000 C   0  0  3  0  0  0  0  0  0  0  0  0
    7.1550   -1.5182    0.0000 C   0  0  0  0  0  0  0  0  0  0  0  0
    7.7694   -0.6847    0.0000 C   0  0  0  0  0  0  0  0  0  0  0  0
    6.1876    0.8484    0.0000 C   0  0  0  0  0  0  0  0  0  0  0  0
    7.4859    1.1063    0.0000 C   0  0  3  0  0  0  0  0  0  0  0  0
    5.2619   -4.7000    0.0000 C   0  0  0  0  0  0  0  0  0  0  0  0
    8.4660    1.3050    0.0000 C   0  0  3  0  0  0  0  0  0  0  0  0
    6.8238    1.8558    0.0000 C   0  0  0  0  0  0  0  0  0  0  0  0
    8.7840    2.2531    0.0000 C   0  0  0  0  0  0  0  0  0  0  0  0
    8.1219    3.0025    0.0000 C   0  0  0  0  0  0  0  0  0  0  0  0
   10.1081    0.7542    0.0000 C   0  0  0  0  0  0  0  0  0  0  0  0
    8.4399    3.9506    0.0000 C   0  0  0  0  0  0  0  0  0  0  0  0
   10.7702    0.0048    0.0000 C   0  0  0  0  0  0  0  0  0  0  0  0
    7.7778    4.7000    0.0000 C   0  0  0  0  0  0  0  0  0  0  0  0
    9.4199    4.1493    0.0000 C   0  0  0  0  0  0  0  0  0  0  0  0
   11.4323   -0.7446    0.0000 C   0  0  0  0  0  0  0  0  0  0  0  0
   11.5197    0.6669    0.0000 C   0  0  0  0  0  0  0  0  0  0  0  0
   10.0208   -0.6573    0.0000 C   0  0  0  0  0  0  0  0  0  0  0  0
    2.1221   -3.4188    0.0000 H   0  0  0  0  0  0  0  0  0  0  0  0
    2.9908   -4.1972    0.0000 H   0  0  0  0  0  0  0  0  0  0  0  0
    3.8950   -3.9060    0.0000 H   0  0  0  0  0  0  0  0  0  0  0  0
    4.9304   -0.8859    0.0000 H   0  0  0  0  0  0  0  0  0  0  0  0
    4.9328   -3.5100    0.0000 H   0  0  0  0  0  0  0  0  0  0  0  0
    5.7964   -2.0142    0.0000 H   0  0  0  0  0  0  0  0  0  0  0  0
    2.8346   -0.8284    0.0000 H   0  0  0  0  0  0  0  0  0  0  0  0
    2.0462   -1.0861    0.0000 H   0  0  0  0  0  0  0  0  0  0  0  0
    1.5391   -1.7853    0.0000 H   0  0  0  0  0  0  0  0  0  0  0  0
    1.5391   -2.6148    0.0000 H   0  0  0  0  0  0  0  0  0  0  0  0
    5.4739   -3.2826    0.0000 H   0  0  0  0  0  0  0  0  0  0  0  0
    5.8725   -2.5924    0.0000 H   0  0  0  0  0  0  0  0  0  0  0  0
    6.2304   -1.8104    0.0000 H   0  0  0  0  0  0  0  0  0  0  0  0
    4.1618    0.4219    0.0000 H   0  0  0  0  0  0  0  0  0  0  0  0
    3.7706   -0.2740    0.0000 H   0  0  0  0  0  0  0  0  0  0  0  0
    4.1498   -0.7000    0.0000 H   0  0  0  0  0  0  0  0  0  0  0  0
    3.5298   -0.0800    0.0000 H   0  0  0  0  0  0  0  0  0  0  0  0
    2.9098   -0.7000    0.0000 H   0  0  0  0  0  0  0  0  0  0  0  0
    5.6751    0.8452    0.0000 H   0  0  0  0  0  0  0  0  0  0  0  0
    4.8769    0.8421    0.0000 H   0  0  0  0  0  0  0  0  0  0  0  0
    7.7812    0.2497    0.0000 H   0  0  0  0  0  0  0  0  0  0  0  0
    6.8996   -2.0832    0.0000 H   0  0  0  0  0  0  0  0  0  0  0  0
    7.6900   -1.8316    0.0000 H   0  0  0  0  0  0  0  0  0  0  0  0
    8.2270   -1.1029    0.0000 H   0  0  0  0  0  0  0  0  0  0  0  0
    8.2334   -0.2735    0.0000 H   0  0  0  0  0  0  0  0  0  0  0  0
    6.8076    0.8436    0.0000 H   0  0  0  0  0  0  0  0  0  0  0  0
    6.1924    1.4684    0.0000 H   0  0  0  0  0  0  0  0  0  0  0  0
    5.5676    0.8532    0.0000 H   0  0  0  0  0  0  0  0  0  0  0  0
    7.6831    1.6941    0.0000 H   0  0  0  0  0  0  0  0  0  0  0  0
    4.9519   -5.2370    0.0000 H   0  0  0  0  0  0  0  0  0  0  0  0
    5.7988   -5.0100    0.0000 H   0  0  0  0  0  0  0  0  0  0  0  0
    5.5719   -4.1631    0.0000 H   0  0  0  0  0  0  0  0  0  0  0  0
    8.2688    0.7172    0.0000 H   0  0  0  0  0  0  0  0  0  0  0  0
    7.2885    2.2662    0.0000 H   0  0  0  0  0  0  0  0  0  0  0  0
    6.4133    2.3204    0.0000 H   0  0  0  0  0  0  0  0  0  0  0  0
    6.3592    1.4452    0.0000 H   0  0  0  0  0  0  0  0  0  0  0  0
    9.3916    2.3763    0.0000 H   0  0  0  0  0  0  0  0  0  0  0  0
    7.5142    2.8793    0.0000 H   0  0  0  0  0  0  0  0  0  0  0  0
    8.6370    4.5384    0.0000 H   0  0  0  0  0  0  0  0  0  0  0  0
    8.2424    5.1105    0.0000 H   0  0  0  0  0  0  0  0  0  0  0  0
    7.3673    5.1647    0.0000 H   0  0  0  0  0  0  0  0  0  0  0  0
    7.3131    4.2895    0.0000 H   0  0  0  0  0  0  0  0  0  0  0  0
    9.5431    3.5416    0.0000 H   0  0  0  0  0  0  0  0  0  0  0  0
   10.0276    4.2724    0.0000 H   0  0  0  0  0  0  0  0  0  0  0  0
    9.2968    4.7569    0.0000 H   0  0  0  0  0  0  0  0  0  0  0  0
   10.9677   -1.1551    0.0000 H   0  0  0  0  0  0  0  0  0  0  0  0
   11.8428   -1.2093    0.0000 H   0  0  0  0  0  0  0  0  0  0  0  0
   11.8970   -0.3341    0.0000 H   0  0  0  0  0  0  0  0  0  0  0  0
   11.9301    0.2022    0.0000 H   0  0  0  0  0  0  0  0  0  0  0  0
   11.9843    1.0774    0.0000 H   0  0  0  0  0  0  0  0  0  0  0  0
   11.1092    1.1315    0.0000 H   0  0  0  0  0  0  0  0  0  0  0  0
    9.6103   -0.1926    0.0000 H   0  0  0  0  0  0  0  0  0  0  0  0
    9.5562   -1.0678    0.0000 H   0  0  0  0  0  0  0  0  0  0  0  0
   10.4313   -1.1219    0.0000 H   0  0  0  0  0  0  0  0  0  0  0  0
  1  9  1  0  0  0  0
  1 24  1  0  0  0  0
  2 25  1  0  0  0  0
  2 29  1  0  0  0  0
  3 29  2  0  0  0  0
  4  5  1  0  0  0  0
  4  6  1  0  0  0  0
  4  7  1  0  0  0  0
  4  9  1  0  0  0  0
  5  8  1  0  0  0  0
  5 11  1  0  0  0  0
  5 17  1  0  0  0  0
  6  7  1  0  0  0  0
  6 12  1  0  0  0  0
  6 37  1  0  0  0  0
  7 38  1  0  0  0  0
  7 39  1  0  0  0  0
  8 10  1  0  0  0  0
  8 16  1  0  0  0  0
  8 40  1  0  0  0  0
  9 13  1  0  0  0  0
  9 41  1  0  0  0  0
 10 13  1  0  0  0  0
 10 14  1  0  0  0  0
 10 42  1  0  0  0  0
 11 12  1  0  0  0  0
 11 43  1  0  0  0  0
 11 44  1  0  0  0  0
 12 45  1  0  0  0  0
 12 46  1  0  0  0  0
 13 47  1  0  0  0  0
 13 48  1  0  0  0  0
 14 15  1  0  0  0  0
 14 20  1  0  0  0  0
 14 49  1  0  0  0  0
 15 18  1  0  0  0  0
 15 19  1  0  0  0  0
 15 22  1  0  0  0  0
 16 18  1  0  0  0  0
 16 50  1  0  0  0  0
 16 51  1  0  0  0  0
 17 52  1  0  0  0  0
 17 53  1  0  0  0  0
 17 54  1  0  0  0  0
 18 55  1  0  0  0  0
 18 56  1  0  0  0  0
 19 21  1  0  0  0  0
 19 23  1  0  0  0  0
 19 57  1  0  0  0  0
 20 21  1  0  0  0  0
 20 58  1  0  0  0  0
 20 59  1  0  0  0  0
 21 60  1  0  0  0  0
 21 61  1  0  0  0  0
 22 62  1  0  0  0  0
 22 63  1  0  0  0  0
 22 64  1  0  0  0  0
 23 25  1  0  0  0  0
 23 26  1  0  0  0  0
 23 65  1  0  0  0  0
 24 66  1  0  0  0  0
 24 67  1  0  0  0  0
 24 68  1  0  0  0  0
 25 27  1  0  0  0  0
 25 69  1  0  0  0  0
 26 70  1  0  0  0  0
 26 71  1  0  0  0  0
 26 72  1  0  0  0  0
 27 28  2  0  0  0  0
 27 73  1  0  0  0  0
 28 30  1  0  0  0  0
 28 74  1  0  0  0  0
 29 31  1  0  0  0  0
 30 32  1  0  0  0  0
 30 33  1  0  0  0  0
 30 75  1  0  0  0  0
 31 34  1  0  0  0  0
 31 35  1  0  0  0  0
 31 36  1  0  0  0  0
 32 76  1  0  0  0  0
 32 77  1  0  0  0  0
 32 78  1  0  0  0  0
 33 79  1  0  0  0  0
 33 80  1  0  0  0  0
 33 81  1  0  0  0  0
 34 82  1  0  0  0  0
 34 83  1  0  0  0  0
 34 84  1  0  0  0  0
 35 85  1  0  0  0  0
 35 86  1  0  0  0  0
 35 87  1  0  0  0  0
 36 88  1  0  0  0  0
 36 89  1  0  0  0  0
 36 90  1  0  0  0  0
M  END
> <PUBCHEM_COMPOUND_CID>
5365019

> <PUBCHEM_COMPOUND_CANONICALIZED>
1

> <PUBCHEM_CACTVS_COMPLEXITY>
884

> <PUBCHEM_CACTVS_HBOND_ACCEPTOR>
3

> <PUBCHEM_CACTVS_HBOND_DONOR>
0

> <PUBCHEM_CACTVS_ROTATABLE_BOND>
8

> <PUBCHEM_CACTVS_SUBSKEYS>
AAADcfB8MAAAAAAAAAAAAAAAGAAAAYMAAAAwYMAAAAAAAGDAAAAAGgAAAAAADxSggAICCAAABACIACDSCAAAAAAgAAAICAEAAAgABAIAIQACEAAEgAAIIAOAwPAPgAAAAAAAAADAAAYAADAAAQAACAAAAA==

> <PUBCHEM_IUPAC_OPENEYE_NAME>
[(E)-1-[1-(8-methoxy-2,15-dimethyl-14-pentacyclo[8.7.0.02,7.05,7.011,15]heptadecanyl)ethyl]-4-methyl-pent-2-enyl] 2,2-dimethylpropanoate

> <PUBCHEM_IUPAC_CAS_NAME>
2,2-dimethylpropanoic acid [(E)-2-(8-methoxy-2,15-dimethyl-14-pentacyclo[8.7.0.02,7.05,7.011,15]heptadecanyl)-6-methylhept-4-en-3-yl] ester

> <PUBCHEM_IUPAC_NAME_MARKUP>
[(<I>E</I>)-2-(8-methoxy-2,15-dimethyl-14-pentacyclo[8.7.0.0<SUP>2,7</SUP>.0<SUP>5,7</SUP>.0<SUP>11,15</SUP>]heptadecanyl)-6-methylhept-4-en-3-yl] 2,2-dimethylpropanoate

> <PUBCHEM_IUPAC_NAME>
[(E)-2-(8-methoxy-2,15-dimethyl-14-pentacyclo[8.7.0.02,7.05,7.011,15]heptadecanyl)-6-methylhept-4-en-3-yl] 2,2-dimethylpropanoate

> <PUBCHEM_IUPAC_SYSTEMATIC_NAME>
[(E)-2-(8-methoxy-2,15-dimethyl-14-pentacyclo[8.7.0.02,7.05,7.011,15]heptadecanyl)-6-methyl-hept-4-en-3-yl] 2,2-dimethylpropanoate

> <PUBCHEM_IUPAC_TRADITIONAL_NAME>
2,2-dimethylpropionic acid [(E)-1-[1-(8-methoxy-2,15-dimethyl-14-pentacyclo[8.7.0.02,7.05,7.011,15]heptadecanyl)ethyl]-4-methyl-pent-2-enyl] ester

> <PUBCHEM_IUPAC_INCHI>
InChI=1S/C33H54O3/c1-20(2)10-13-27(36-29(34)30(4,5)6)21(3)24-11-12-25-23-18-28(35-9)33-19-22(33)14-17-32(33,8)26(23)15-16-31(24,25)7/h10,13,20-28H,11-12,14-19H2,1-9H3/b13-10+

> <PUBCHEM_IUPAC_INCHIKEY>
TZJRPRMTYSBPHU-JLHYYAGUSA-N

> <PUBCHEM_XLOGP3_AA>
9.4

> <PUBCHEM_EXACT_MASS>
498.407296

> <PUBCHEM_MOLECULAR_FORMULA>
C33H54O3

> <PUBCHEM_MOLECULAR_WEIGHT>
498.8

> <PUBCHEM_OPENEYE_CAN_SMILES>
CC(C)C=CC(C(C)C1CCC2C1(CCC3C2CC(C45C3(CCC4C5)C)OC)C)OC(=O)C(C)(C)C

> <PUBCHEM_OPENEYE_ISO_SMILES>
CC(C)/C=C/C(C(C)C1CCC2C1(CCC3C2CC(C45C3(CCC4C5)C)OC)C)OC(=O)C(C)(C)C

> <PUBCHEM_CACTVS_TPSA>
35.5

> <PUBCHEM_MONOISOTOPIC_WEIGHT>
498.407296

> <PUBCHEM_TOTAL_CHARGE>
0

> <PUBCHEM_HEAVY_ATOM_COUNT>
36

> <PUBCHEM_ATOM_DEF_STEREO_COUNT>
0

> <PUBCHEM_ATOM_UDEF_STEREO_COUNT>
11

> <PUBCHEM_BOND_DEF_STEREO_COUNT>
1

> <PUBCHEM_BOND_UDEF_STEREO_COUNT>
0

> <PUBCHEM_ISOTOPIC_ATOM_COUNT>
0

> <PUBCHEM_COMPONENT_COUNT>
1

> <PUBCHEM_CACTVS_TAUTO_COUNT>
-1

> <PUBCHEM_COORDINATE_TYPE>
1
5
255

> <PUBCHEM_BONDANNOTATIONS>
9  1  3
10  13  3
14  20  3
15  22  3
19  21  3
23  26  3
25  27  3
4  7  3
5  17  3
6  12  3
8  16  3

$$$$
