Cryptoquindoline
  -OEChem-01222104222D

 35 42  0     0  0  0  0  0  0999 V2000
   -3.5990  -12.9186    0.0000 C   0  0  0  0  0  0  0  0  0  0  0  0
   -3.6001  -13.7463    0.0000 C   0  0  0  0  0  0  0  0  0  0  0  0
   -2.8850  -14.1594    0.0000 C   0  0  0  0  0  0  0  0  0  0  0  0
   -2.8868  -12.5057    0.0000 C   0  0  0  0  0  0  0  0  0  0  0  0
   -2.1710  -12.9149    0.0000 C   0  0  0  0  0  0  0  0  0  0  0  0
   -2.1661  -13.7464    0.0000 C   0  0  0  0  0  0  0  0  0  0  0  0
   -1.3740  -13.9988    0.0000 N   0  0  0  0  0  0  0  0  0  0  0  0
   -1.3819  -12.6535    0.0000 C   0  0  0  0  0  0  0  0  0  0  0  0
   -0.8919  -13.3249    0.0000 C   0  0  0  0  0  0  0  0  0  0  0  0
   -0.0699  -13.2369    0.0000 N   0  0  0  0  0  0  0  0  0  0  0  0
   -1.0498  -11.8940    0.0000 C   0  0  0  0  0  0  0  0  0  0  0  0
   -0.2215  -11.8068    0.0000 C   0  0  0  0  0  0  0  0  0  0  0  0
    0.2659  -12.4780    0.0000 C   0  0  0  0  0  0  0  0  0  0  0  0
    1.0864  -12.3919    0.0000 C   0  0  0  0  0  0  0  0  0  0  0  0
    1.4258  -11.6356    0.0000 C   0  0  0  0  0  0  0  0  0  0  0  0
    0.9382  -10.9645    0.0000 C   0  0  0  0  0  0  0  0  0  0  0  0
    0.1115  -11.0496    0.0000 C   0  0  0  0  0  0  0  0  0  0  0  0
    0.4166  -13.9036    0.0000 C   0  0  0  0  0  0  0  0  0  0  0  0
   -1.5373  -11.2278    0.0000 N   0  0  0  0  0  0  0  0  0  0  0  0
   -2.3632  -11.2267    0.0000 C   0  0  0  0  0  0  0  0  0  0  0  0
   -2.6171  -10.4436    0.0000 C   0  0  0  0  0  0  0  0  0  0  0  0
   -3.4207  -10.2732    0.0000 C   0  0  0  0  0  0  0  0  0  0  0  0
   -3.9712  -10.8851    0.0000 C   0  0  0  0  0  0  0  0  0  0  0  0
   -3.7126  -11.6701    0.0000 C   0  0  0  0  0  0  0  0  0  0  0  0
   -2.9096  -11.8366    0.0000 C   0  0  0  0  0  0  0  0  0  0  0  0
   -1.9550   -9.9552    0.0000 C   0  0  0  0  0  0  0  0  0  0  0  0
   -1.2874  -10.4379    0.0000 C   0  0  0  0  0  0  0  0  0  0  0  0
   -0.5378  -10.1010    0.0000 C   0  0  0  0  0  0  0  0  0  0  0  0
   -1.8739   -9.1400    0.0000 N   0  0  0  0  0  0  0  0  0  0  0  0
   -1.1268   -8.8004    0.0000 C   0  0  0  0  0  0  0  0  0  0  0  0
   -0.4592   -9.2813    0.0000 C   0  0  0  0  0  0  0  0  0  0  0  0
    0.2890   -8.9435    0.0000 C   0  0  0  0  0  0  0  0  0  0  0  0
    0.3708   -8.1250    0.0000 C   0  0  0  0  0  0  0  0  0  0  0  0
   -0.3017   -7.6454    0.0000 C   0  0  0  0  0  0  0  0  0  0  0  0
   -1.0473   -7.9859    0.0000 C   0  0  0  0  0  0  0  0  0  0  0  0
 14 15  1  0  0  0  0
 15 16  2  0  0  0  0
 16 17  1  0  0  0  0
  8  9  1  0  0  0  0
 10 18  1  0  0  0  0
  1  2  2  0  0  0  0
 11 19  1  0  0  0  0
 19 27  1  0  0  0  0
 21 26  1  0  0  0  0
 19 20  1  0  0  0  0
  4  5  2  0  0  0  0
  1  4  1  0  0  0  0
 20 21  2  0  0  0  0
  5  6  1  0  0  0  0
 21 22  1  0  0  0  0
  8 11  2  0  0  0  0
 22 23  2  0  0  0  0
  9 10  1  0  0  0  0
 23 24  1  0  0  0  0
 10 13  1  0  0  0  0
 24 25  2  0  0  0  0
 20 25  1  0  0  0  0
 11 12  1  0  0  0  0
 12 13  1  0  0  0  0
 26 27  2  0  0  0  0
 27 28  1  0  0  0  0
 28 31  2  0  0  0  0
  2  3  1  0  0  0  0
 29 30  2  0  0  0  0
 26 29  1  0  0  0  0
  3  6  2  0  0  0  0
  6  7  1  0  0  0  0
 30 31  1  0  0  0  0
  7  9  2  0  0  0  0
 31 32  1  0  0  0  0
  5  8  1  0  0  0  0
 32 33  2  0  0  0  0
 12 17  2  0  0  0  0
 33 34  1  0  0  0  0
 13 14  2  0  0  0  0
 34 35  2  0  0  0  0
 30 35  1  0  0  0  0
M  END
> <PUBCHEM_COMPOUND_ID_TYPE>
0

> <PUBCHEM_TOTAL_CHARGE>
0

> <PUBCHEM_SUBSTANCE_ID>
103636437

> <PUBCHEM_SUBSTANCE_VERSION>
8

> <PUBCHEM_EXT_DATASOURCE_NAME>
ChEMBL

> <PUBCHEM_EXT_DATASOURCE_REGID>
CHEMBL463942

> <PUBCHEM_SUBSTANCE_SYNONYM>
Cryptoquindoline
CHEMBL463942

> <PUBCHEM_XREF_EXT_ID>
CHEMBL463942

> <PUBCHEM_EXT_DATASOURCE_URL>
https://www.ebi.ac.uk/chembldb/

> <PUBCHEM_EXT_SUBSTANCE_URL>
https://www.ebi.ac.uk/chembl/compound_report_card/CHEMBL463942

> <PUBCHEM_CID_ASSOCIATIONS>
44583948  1

> <PUBCHEM_COORDINATE_TYPE>
1
3

$$$$
