Cryptoheptine
  -OEChem-01222104523D

 34 37  0     1  0  0  0  0  0999 V2000
    2.4493   -2.3625    1.2763 O   0  0  0  0  0  0  0  0  0  0  0  0
   -1.7949   -1.4501   -0.5159 N   0  0  0  0  0  0  0  0  0  0  0  0
    0.4147    1.0559   -0.1777 N   0  0  0  0  0  0  0  0  0  0  0  0
   -0.4717    0.2026    0.5752 C   0  0  2  0  0  0  0  0  0  0  0  0
   -0.5051   -1.1910   -0.0496 C   0  0  0  0  0  0  0  0  0  0  0  0
   -1.9090    0.6449    0.4242 C   0  0  0  0  0  0  0  0  0  0  0  0
   -2.6354   -0.3718   -0.2241 C   0  0  0  0  0  0  0  0  0  0  0  0
    0.5672   -1.9907   -0.0571 C   0  0  0  0  0  0  0  0  0  0  0  0
    1.7907    0.8850   -0.2184 C   0  0  0  0  0  0  0  0  0  0  0  0
   -2.5073    1.8243    0.8345 C   0  0  0  0  0  0  0  0  0  0  0  0
   -3.9873   -0.2066   -0.4749 C   0  0  0  0  0  0  0  0  0  0  0  0
   -2.3079   -2.6443   -1.1504 C   0  0  0  0  0  0  0  0  0  0  0  0
    2.4859   -0.2817    0.1548 C   0  0  0  0  0  0  0  0  0  0  0  0
    1.8584   -1.5786    0.5380 C   0  0  0  0  0  0  0  0  0  0  0  0
   -3.8685    1.9890    0.5798 C   0  0  0  0  0  0  0  0  0  0  0  0
   -4.6019    0.9828   -0.0695 C   0  0  0  0  0  0  0  0  0  0  0  0
    2.5557    1.9955   -0.6395 C   0  0  0  0  0  0  0  0  0  0  0  0
    3.8959   -0.2947    0.1335 C   0  0  0  0  0  0  0  0  0  0  0  0
    3.9500    1.9692   -0.6669 C   0  0  0  0  0  0  0  0  0  0  0  0
    4.6215    0.8230   -0.2723 C   0  0  0  0  0  0  0  0  0  0  0  0
   -0.2160    0.1629    1.6414 H   0  0  0  0  0  0  0  0  0  0  0  0
    0.0463    1.9292   -0.5408 H   0  0  0  0  0  0  0  0  0  0  0  0
    0.5130   -3.0123   -0.4165 H   0  0  0  0  0  0  0  0  0  0  0  0
   -1.9399    2.5989    1.3381 H   0  0  0  0  0  0  0  0  0  0  0  0
   -4.5732   -0.9726   -0.9716 H   0  0  0  0  0  0  0  0  0  0  0  0
   -2.8100   -2.4006   -2.0933 H   0  0  0  0  0  0  0  0  0  0  0  0
   -3.0220   -3.1535   -0.4940 H   0  0  0  0  0  0  0  0  0  0  0  0
   -1.5133   -3.3577   -1.3896 H   0  0  0  0  0  0  0  0  0  0  0  0
   -4.3685    2.9035    0.8873 H   0  0  0  0  0  0  0  0  0  0  0  0
   -5.6622    1.1306   -0.2576 H   0  0  0  0  0  0  0  0  0  0  0  0
    2.0552    2.9151   -0.9405 H   0  0  0  0  0  0  0  0  0  0  0  0
    4.4530   -1.1869    0.4123 H   0  0  0  0  0  0  0  0  0  0  0  0
    4.5048    2.8447   -0.9901 H   0  0  0  0  0  0  0  0  0  0  0  0
    5.7066    0.7918   -0.2888 H   0  0  0  0  0  0  0  0  0  0  0  0
  1 14  2  0  0  0  0
  2  5  1  0  0  0  0
  2  7  1  0  0  0  0
  2 12  1  0  0  0  0
  3  4  1  0  0  0  0
  3  9  1  0  0  0  0
  3 22  1  0  0  0  0
  4  5  1  0  0  0  0
  4  6  1  0  0  0  0
  4 21  1  0  0  0  0
  5  8  2  0  0  0  0
  6  7  1  0  0  0  0
  6 10  2  0  0  0  0
  7 11  2  0  0  0  0
  8 14  1  0  0  0  0
  8 23  1  0  0  0  0
  9 13  1  0  0  0  0
  9 17  2  0  0  0  0
 10 15  1  0  0  0  0
 10 24  1  0  0  0  0
 11 16  1  0  0  0  0
 11 25  1  0  0  0  0
 12 26  1  0  0  0  0
 12 27  1  0  0  0  0
 12 28  1  0  0  0  0
 13 14  1  0  0  0  0
 13 18  2  0  0  0  0
 15 16  2  0  0  0  0
 15 29  1  0  0  0  0
 16 30  1  0  0  0  0
 17 19  1  0  0  0  0
 17 31  1  0  0  0  0
 18 20  1  0  0  0  0
 18 32  1  0  0  0  0
 19 20  2  0  0  0  0
 19 33  1  0  0  0  0
 20 34  1  0  0  0  0
M  END
> <PUBCHEM_COMPOUND_CID>
10061250

> <PUBCHEM_CONFORMER_RMSD>
0.6

> <PUBCHEM_CONFORMER_DIVERSEORDER>
2
1

> <PUBCHEM_MMFF94_PARTIAL_CHARGES>
30
1 -0.57
10 -0.15
11 -0.15
12 0.37
13 0.09
14 0.47
15 -0.15
16 -0.15
17 -0.15
18 -0.15
19 -0.15
2 -0.57
20 -0.15
22 0.4
23 0.15
24 0.15
25 0.15
29 0.15
3 -0.87
30 0.15
31 0.15
32 0.15
33 0.15
34 0.15
4 0.65
5 -0.04
6 -0.14
7 0.1
8 -0.14
9 0.1

> <PUBCHEM_EFFECTIVE_ROTOR_COUNT>
0.4

> <PUBCHEM_PHARMACOPHORE_FEATURES>
8
1 1 acceptor
1 2 cation
1 3 cation
1 3 donor
5 2 4 5 6 7 rings
6 6 7 10 11 15 16 rings
6 9 13 17 18 19 20 rings
7 3 4 5 8 9 13 14 rings

> <PUBCHEM_HEAVY_ATOM_COUNT>
20

> <PUBCHEM_ATOM_DEF_STEREO_COUNT>
0

> <PUBCHEM_ATOM_UDEF_STEREO_COUNT>
1

> <PUBCHEM_BOND_DEF_STEREO_COUNT>
0

> <PUBCHEM_BOND_UDEF_STEREO_COUNT>
0

> <PUBCHEM_ISOTOPIC_ATOM_COUNT>
0

> <PUBCHEM_COMPONENT_COUNT>
1

> <PUBCHEM_CACTVS_TAUTO_COUNT>
4

> <PUBCHEM_CONFORMER_ID>
009985C200000002

> <PUBCHEM_MMFF94_ENERGY>
89.3856

> <PUBCHEM_FEATURE_SELFOVERLAP>
40.731

> <PUBCHEM_SHAPE_FINGERPRINT>
10062212 137 18410002269360040202
10382601 240 17967532350898544736
10411042 1 17184469820357252515
10616163 171 18341613758535399927
10967382 1 18409730629868843816
10980938 120 18335985264017817456
11640471 11 18410020943756367972
12173636 292 18272643571715245423
12236239 1 18413386518731328737
12403814 3 18113330899898225837
12644460 14 18040716918400464890
12788726 201 18198329840274600655
13009979 54 17841714010992508978
13140716 1 18334574681178835704
13583140 156 17821732711077423505
14739800 52 17987496222379506576
14787075 74 18117280461724682131
14790565 3 18201450116956413313
15196674 1 18411139129848991486
15279307 12 18411138038922276898
15342168 16 17749681790917760780
15442244 35 18193837046383078338
15536298 74 18342459192930201518
15669948 3 18202275935734290567
16752209 62 17988349477277251175
16945 1 18264487269753519715
17492 89 18411138043249730695
1813 80 17902226711870640570
19862831 5 18060143141079165264
20645476 183 18412543219504855471
20715895 44 17834106443196725601
21267235 1 18411146830752012779
21524375 3 18410015437544821976
2255824 54 18261956228552164682
22854114 111 18260832587628905096
23227448 37 18411139164483017389
23402539 116 18201997746101755756
23402655 69 18411421743535614636
23557571 272 17775003552174186774
23558518 356 17975135653908541840
23559900 14 17845658028052667222
25 1 18186519929923822466
25147074 1 18338219527290655194
2748010 2 13868411659112475254
335352 9 18409449142481959406
34934 24 18410008831916788744
4340502 62 17530690901031730531
474 4 18113622321718597828
5104073 3 18408323289228783944
6034566 193 17099486788487469484
633830 44 18261116313696012998
7364860 26 18340209570855008302
7832392 63 18411699872563846966
8272917 22 18263085435293245851
90525 40 18273213075936648263
9709674 26 18271815630632549998
9981440 41 17545314637578386472

> <PUBCHEM_SHAPE_MULTIPOLES>
395.76
8.58
2.67
0.91
0.43
0.78
-0.03
-3.99
0.72
-0.2
0.11
0
0.18
-1.74

> <PUBCHEM_SHAPE_SELFOVERLAP>
890.406

> <PUBCHEM_SHAPE_VOLUME>
209.1

> <PUBCHEM_COORDINATE_TYPE>
2
5
10

$$$$
