Indirubin
  -OEChem-01222105583D

 30 33  0     0  0  0  0  0  0999 V2000
    0.9605   -2.9585    0.5415 O   0  0  0  0  0  0  0  0  0  0  0  0
   -1.4710   -2.2863   -0.7983 O   0  0  0  0  0  0  0  0  0  0  0  0
    2.8896   -1.6601    0.3160 N   0  0  0  0  0  0  0  0  0  0  0  0
   -0.9124    0.9185    0.4264 N   0  0  0  0  0  0  0  0  0  0  0  0
    0.9901   -0.5290    0.1176 C   0  0  0  0  0  0  0  0  0  0  0  0
    2.0701    0.3838   -0.0418 C   0  0  0  0  0  0  0  0  0  0  0  0
   -0.4327   -0.2433    0.0670 C   0  0  0  0  0  0  0  0  0  0  0  0
    3.2504   -0.3514    0.0872 C   0  0  0  0  0  0  0  0  0  0  0  0
    1.5257   -1.7773    0.3361 C   0  0  0  0  0  0  0  0  0  0  0  0
   -2.7653   -0.3626   -0.2118 C   0  0  0  0  0  0  0  0  0  0  0  0
   -1.5650   -1.1607   -0.3801 C   0  0  0  0  0  0  0  0  0  0  0  0
   -2.3109    0.8612    0.2665 C   0  0  0  0  0  0  0  0  0  0  0  0
    2.1570    1.7690   -0.2842 C   0  0  0  0  0  0  0  0  0  0  0  0
    4.5184    0.2318   -0.0145 C   0  0  0  0  0  0  0  0  0  0  0  0
   -4.0920   -0.6520   -0.4473 C   0  0  0  0  0  0  0  0  0  0  0  0
    3.4187    2.3661   -0.3884 C   0  0  0  0  0  0  0  0  0  0  0  0
    4.5798    1.6074   -0.2552 C   0  0  0  0  0  0  0  0  0  0  0  0
   -3.2213    1.8685    0.5337 C   0  0  0  0  0  0  0  0  0  0  0  0
   -5.0101    0.3627   -0.1784 C   0  0  0  0  0  0  0  0  0  0  0  0
   -4.5794    1.6122    0.3078 C   0  0  0  0  0  0  0  0  0  0  0  0
    3.5376   -2.4240    0.4496 H   0  0  0  0  0  0  0  0  0  0  0  0
    1.2664    2.3802   -0.3958 H   0  0  0  0  0  0  0  0  0  0  0  0
    5.4230   -0.3580    0.0889 H   0  0  0  0  0  0  0  0  0  0  0  0
   -4.4133   -1.6160   -0.8222 H   0  0  0  0  0  0  0  0  0  0  0  0
    3.4919    3.4339   -0.5764 H   0  0  0  0  0  0  0  0  0  0  0  0
   -2.8988    2.8341    0.9082 H   0  0  0  0  0  0  0  0  0  0  0  0
    5.5494    2.0917   -0.3400 H   0  0  0  0  0  0  0  0  0  0  0  0
   -6.0700    0.1902   -0.3454 H   0  0  0  0  0  0  0  0  0  0  0  0
   -5.3131    2.3882    0.5102 H   0  0  0  0  0  0  0  0  0  0  0  0
   -0.0005   -2.8297    0.5956 H   0  0  0  0  0  0  0  0  0  0  0  0
  1  9  1  0  0  0  0
  1 30  1  0  0  0  0
  2 11  2  0  0  0  0
  3  8  1  0  0  0  0
  3  9  1  0  0  0  0
  3 21  1  0  0  0  0
  4  7  2  0  0  0  0
  4 12  1  0  0  0  0
  5  6  1  0  0  0  0
  5  7  1  0  0  0  0
  5  9  2  0  0  0  0
  6  8  1  0  0  0  0
  6 13  2  0  0  0  0
  7 11  1  0  0  0  0
  8 14  2  0  0  0  0
 10 11  1  0  0  0  0
 10 12  1  0  0  0  0
 10 15  2  0  0  0  0
 12 18  2  0  0  0  0
 13 16  1  0  0  0  0
 13 22  1  0  0  0  0
 14 17  1  0  0  0  0
 14 23  1  0  0  0  0
 15 19  1  0  0  0  0
 15 24  1  0  0  0  0
 16 17  2  0  0  0  0
 16 25  1  0  0  0  0
 17 27  1  0  0  0  0
 18 20  1  0  0  0  0
 18 26  1  0  0  0  0
 19 20  2  0  0  0  0
 19 28  1  0  0  0  0
 20 29  1  0  0  0  0
M  END
> <PUBCHEM_COMPOUND_CID>
10177

> <PUBCHEM_CONFORMER_RMSD>
0.6

> <PUBCHEM_CONFORMER_DIVERSEORDER>
1
4
6
2
5
3

> <PUBCHEM_MMFF94_PARTIAL_CHARGES>
29
1 -0.51
10 0.09
11 0.48
12 0.18
13 -0.15
14 -0.15
15 -0.15
16 -0.15
17 -0.15
18 -0.15
19 -0.15
2 -0.57
20 -0.15
21 0.27
22 0.15
23 0.15
24 0.15
25 0.15
26 0.15
27 0.15
28 0.15
29 0.15
3 0.03
30 0.45
4 -0.63
5 -0.09
7 0.54
8 -0.15
9 -0.09

> <PUBCHEM_EFFECTIVE_ROTOR_COUNT>
1

> <PUBCHEM_PHARMACOPHORE_FEATURES>
9
1 1 donor
1 2 acceptor
1 3 cation
1 3 donor
1 4 acceptor
5 3 5 6 8 9 rings
5 4 7 10 11 12 rings
6 10 12 15 18 19 20 rings
6 6 8 13 14 16 17 rings

> <PUBCHEM_HEAVY_ATOM_COUNT>
20

> <PUBCHEM_ATOM_DEF_STEREO_COUNT>
0

> <PUBCHEM_ATOM_UDEF_STEREO_COUNT>
0

> <PUBCHEM_BOND_DEF_STEREO_COUNT>
0

> <PUBCHEM_BOND_UDEF_STEREO_COUNT>
0

> <PUBCHEM_ISOTOPIC_ATOM_COUNT>
0

> <PUBCHEM_COMPONENT_COUNT>
1

> <PUBCHEM_CACTVS_TAUTO_COUNT>
24

> <PUBCHEM_CONFORMER_ID>
000027C100000001

> <PUBCHEM_MMFF94_ENERGY>
51.1473

> <PUBCHEM_FEATURE_SELFOVERLAP>
45.903

> <PUBCHEM_SHAPE_FINGERPRINT>
10411042 1 17544474150395091411
10616163 171 18341895237891584351
10967382 1 18409729556264046440
11471102 20 18335700516349854204
12107183 9 17691125933644752385
12173636 292 18271518797037138871
12236239 1 18273213092799863204
12644460 14 18114179692525209506
12788726 201 17489033639339351441
13009979 54 17628076689828625634
13140716 1 18335978744500075018
13583140 156 16950557826582300321
138480 1 17833831568956891002
14528608 73 18411136956722413357
14739800 52 17987497339076369192
15196674 1 18411700980280241997
15342168 16 17895482551936369036
15442244 35 18123187905133613176
15536298 74 18341896268630442044
17492 89 18340487772956441327
18186145 218 18336263461744544828
18681886 176 18201431489709039322
19862831 5 17989211455574898864
200 152 18343862225665141521
20157964 124 18335697179725027749
20645477 70 18340769243220907791
20715895 44 17907573624000016625
21033648 29 16805593755463699309
21267235 1 18411990151843829734
21524375 3 18410012169428150582
2255824 54 18336265635272777354
22854114 111 18334577927715162184
23227448 37 18339924921490985599
23402539 116 18131345319444843805
23402655 69 18340488958488091356
23558518 356 17754458177320050898
23559900 14 17916589726383780782
245318 6 17172100743899182316
335352 9 18409449181379232182
3545911 37 18409732871694092293
4214541 1 18411982464079262205
4280585 95 17554906368870831846
4340502 62 17530969081721201755
474 4 18114464551846620996
5104073 3 18408885131027921347
543358 83 18339646633411832192
633830 44 18410856590221629814
7364860 26 18340488850929409430
77779 3 18411139117275364921
7832392 63 18411980291057847604
8272917 22 18338520733336229934
9709674 26 18411706456696516423
9981440 41 17689428708936248240

> <PUBCHEM_SHAPE_MULTIPOLES>
389.89
9.78
2.53
0.71
2.52
0.62
-0.02
-4.68
-0.48
-0.98
0.07
0.12
0.03
-1

> <PUBCHEM_SHAPE_SELFOVERLAP>
895.257

> <PUBCHEM_SHAPE_VOLUME>
203.1

> <PUBCHEM_COORDINATE_TYPE>
2
5
10

$$$$
