@<TRIPOS>MOLECULE
J01_23
35 38 1 0 0 
SMALL
USER_CHARGES


@<TRIPOS>ATOM
  1 C        1.1969     0.7369    -0.0008 C.ar  1 <1>   0.0000 
  2 C       -0.0898     1.3298    -0.0737 C.ar  1 <1>  -0.1500 
  3 H       -0.2163     2.4084    -0.1121 H     1 <1>   0.1500 
  4 C       -1.2621     0.5768    -0.1130 C.ar  1 <1>  -0.1500 
  5 H       -2.2263     1.0756    -0.1661 H     1 <1>   0.1500 
  6 C       -1.1937    -0.8050    -0.0865 C.ar  1 <1>  -0.1500 
  7 H       -2.1170    -1.3782    -0.1170 H     1 <1>   0.1500 
  8 C        0.0471    -1.4511    -0.0283 C.ar  1 <1>  -0.1435 
  9 C        0.0520    -2.9600    -0.0121 C.3   1 <1>   0.1435 
 10 H1      -0.9642    -3.3688    -0.0309 H     1 <1>   0.0000 
 11 H2       0.5324    -3.3300     0.8994 H     1 <1>   0.0000 
 12 H3       0.5749    -3.3485    -0.8921 H     1 <1>   0.0000 
 13 C        1.2493    -0.6880     0.0078 C.ar  1 <1>   0.0000 
 14 C        2.5099    -1.3156     0.0472 C.ar  1 <1>  -0.1500 
 15 H        2.5939    -2.4007     0.0541 H     1 <1>   0.1500 
 16 C        3.6980    -0.5895     0.0646 C.ar  1 <1>  -0.1500 
 17 H        4.6423    -1.1308     0.0796 H     1 <1>   0.1500 
 18 C        3.6727     0.8019     0.0588 C.ar  1 <1>   0.0284 
 19 C        2.4282     1.4676     0.0463 C.ar  1 <1>   0.0862 
 20 C        4.9199     1.5553     0.0483 C.2   1 <1>   0.0483 
 21 C        4.9918     2.8691    -0.0571 C.2   1 <1>  -0.1238 
 22 C        3.7877     3.6737    -0.1240 C.2   1 <1>   0.5556 
 23 C        2.4757     2.9567     0.1202 C.2   1 <1>   0.4838 
 24 O        3.8048     4.8772    -0.3439 O.2   1 <1>  -0.5700 
 25 O        1.5107     3.6477     0.4233 O.2   1 <1>  -0.5700 
 26 O        6.1364     0.8986     0.1397 O.3   1 <1>  -0.3567 
 27 C        7.1072     1.9440    -0.1046 C.3   1 <1>   0.2800 
 28 C        6.3987     3.3106    -0.0537 C.3   1 <1>   0.1382 
 29 H1       7.5710     1.7462    -1.0786 H     1 <1>   0.0000 
 30 H2       7.8883     1.8751     0.6607 H     1 <1>   0.0000 
 31 C        6.8094     4.2002    -1.2194 C.3   1 <1>   0.0000 
 32 H1       7.8930     4.3599    -1.2181 H     1 <1>   0.0000 
 33 H2       6.3300     5.1822    -1.1535 H     1 <1>   0.0000 
 34 H3       6.5340     3.7579    -2.1835 H     1 <1>   0.0000 
 35 H2       6.6313     3.8160     0.8913 H     1 <1>   0.0000 
@<TRIPOS>BOND
  1   1   2  ar  
  2   1  13  ar  
  3   1  19  ar  
  4   2   3  1   
  5   2   4  ar  
  6   4   5  1   
  7   4   6  ar  
  8   6   7  1   
  9   6   8  ar  
 10   8   9  1   
 11   8  13  ar  
 12   9  10  1   
 13   9  11  1   
 14   9  12  1   
 15  13  14  ar  
 16  14  15  1   
 17  14  16  ar  
 18  16  17  1   
 19  16  18  ar  
 20  18  19  ar  
 21  18  20  1   
 22  19  23  1   
 23  20  21  2   
 24  20  26  1   
 25  21  22  1   
 26  21  28  1   
 27  22  23  1   
 28  22  24  2   
 29  23  25  2   
 30  26  27  1   
 31  27  28  1   
 32  27  29  1   
 33  27  30  1   
 34  28  31  1   
 35  28  35  1   
 36  31  32  1   
 37  31  33  1   
 38  31  34  1   
@<TRIPOS>SUBSTRUCTURE
  1 <1>   0 RESIDUE 1 * * 1
# MOE 2007.09 (io_trps.svl 2007.09)
