@<TRIPOS>MOLECULE
J01_15
42 43 1 0 0 
SMALL
USER_CHARGES


@<TRIPOS>ATOM
  1 C        1.1545     0.3544     0.2748 C.ar  1 <1>   0.0284 
  2 C        2.3860     1.0759     0.6176 C.2   1 <1>  -0.1784 
  3 H        2.2615     1.9607     1.2390 H     1 <1>   0.1500 
  4 C        3.6002     0.7117     0.1897 C.2   1 <1>  -0.1356 
  5 H        3.7502    -0.1475    -0.4526 H     1 <1>   0.1500 
  6 C        4.7805     1.5059     0.5828 C.2   1 <1>   0.6156 
  7 N        5.9610     1.0051     0.1003 N.am  1 <1>  -0.7301 
  8 C        7.2289     1.6706     0.2990 C.3   1 <1>   0.6411 
  9 C        8.2961     0.7951    -0.3721 C.2   1 <1>   0.4228 
 10 C        9.7315     1.1559    -0.2378 C.ar  1 <1>   0.0862 
 11 O        7.9793    -0.1830    -1.0558 O.2   1 <1>  -0.5700 
 12 O        7.4161     1.8228     1.6827 O.3   1 <1>  -0.6800 
 13 H        6.5601     2.1707     2.0055 H     1 <1>   0.4000 
 14 H3       7.1861     2.6490    -0.1911 H     1 <1>   0.0000 
 15 H2       5.9964     0.1462    -0.4432 H     1 <1>   0.3700 
 16 O        4.7265     2.4987     1.3021 O.2   1 <1>  -0.5700 
 17 C       -0.0135     1.0925     0.0167 C.ar  1 <1>  -0.1500 
 18 H        0.0433     2.1763     0.0516 H     1 <1>   0.1500 
 19 C       -1.2189     0.4479    -0.2883 C.ar  1 <1>   0.0825 
 20 O       -2.4025     1.0823    -0.5628 O.3   1 <1>  -0.3625 
 21 C       -2.4090     2.5030    -0.5432 C.3   1 <1>   0.2800 
 22 H1      -3.4230     2.8360    -0.7845 H     1 <1>   0.0000 
 23 H2      -1.7354     2.9117    -1.3037 H     1 <1>   0.0000 
 24 H3      -2.1619     2.8854     0.4526 H     1 <1>   0.0000 
 25 C       -1.2455    -0.9530    -0.3201 C.ar  1 <1>   0.0825 
 26 O       -2.4192    -1.5972    -0.6157 O.3   1 <1>  -0.5325 
 27 H       -2.2610    -2.5539    -0.5984 H     1 <1>   0.4500 
 28 C       -0.0984    -1.6993    -0.0502 C.ar  1 <1>  -0.1500 
 29 H       -0.1156    -2.7851    -0.0632 H     1 <1>   0.1500 
 30 C        1.0967    -1.0447     0.2516 C.ar  1 <1>  -0.1500 
 31 H        1.9757    -1.6429     0.4802 H     1 <1>   0.1500 
 32 C       10.6865     0.2718    -0.7636 C.ar  1 <1>  -0.1500 
 33 H       10.3766    -0.6543    -1.2446 H     1 <1>   0.1500 
 34 C       12.0499     0.5650    -0.6784 C.ar  1 <1>  -0.1500 
 35 H       12.7699    -0.1347    -1.0912 H     1 <1>   0.1500 
 36 C       12.4555     1.7464    -0.0678 C.ar  1 <1>   0.0825 
 37 O       13.7741     2.0771     0.0389 O.3   1 <1>  -0.5325 
 38 H       14.3092     1.3719    -0.3615 H     1 <1>   0.4500 
 39 C       11.5205     2.6332     0.4555 C.ar  1 <1>  -0.1500 
 40 H       11.8531     3.5523     0.9307 H     1 <1>   0.1500 
 41 C       10.1560     2.3410     0.3707 C.ar  1 <1>  -0.1500 
 42 H        9.4569     3.0575     0.7919 H     1 <1>   0.1500 
@<TRIPOS>BOND
  1   1   2  1   
  2   1  17  ar  
  3   1  30  ar  
  4   2   3  1   
  5   2   4  2   
  6   4   5  1   
  7   4   6  1   
  8   6   7  am  
  9   6  16  2   
 10   7   8  1   
 11   7  15  1   
 12   8   9  1   
 13   8  12  1   
 14   8  14  1   
 15   9  10  1   
 16   9  11  2   
 17  10  32  ar  
 18  10  41  ar  
 19  12  13  1   
 20  17  18  1   
 21  17  19  ar  
 22  19  20  1   
 23  19  25  ar  
 24  20  21  1   
 25  21  22  1   
 26  21  23  1   
 27  21  24  1   
 28  25  26  1   
 29  25  28  ar  
 30  26  27  1   
 31  28  29  1   
 32  28  30  ar  
 33  30  31  1   
 34  32  33  1   
 35  32  34  ar  
 36  34  35  1   
 37  34  36  ar  
 38  36  37  1   
 39  36  39  ar  
 40  37  38  1   
 41  39  40  1   
 42  39  41  ar  
 43  41  42  1   
@<TRIPOS>SUBSTRUCTURE
  1 <1>   0 RESIDUE 1 * * 1
# MOE 2007.09 (io_trps.svl 2007.09)
