@<TRIPOS>MOLECULE
J01_01
99 108 1 0 0 
SMALL
USER_CHARGES


@<TRIPOS>ATOM
  1 C        3.3060     0.9820     1.0750 C.ar  1 <1>   0.0820 
  2 C        2.5210     1.9130     1.7300 C.ar  1 <1>  -0.1500 
  3 H        2.3090     2.8830     1.2980 H     1 <1>   0.1500 
  4 C        2.0430     1.5620     2.9910 C.ar  1 <1>   0.0820 
  5 O        1.2680     2.4880     3.6390 O.3   1 <1>  -0.5320 
  6 H        0.9600     2.1130     4.4810 H     1 <1>   0.4500 
  7 C        2.3340     0.3240     3.5990 C.ar  1 <1>  -0.1500 
  8 H        1.9380     0.1090     4.5880 H     1 <1>   0.1500 
  9 C        3.1100    -0.6390     2.9380 C.ar  1 <1>   0.0820 
 10 O        3.3810    -1.8410     3.5160 O.3   1 <1>  -0.5320 
 11 H        3.0140    -1.8490     4.4150 H     1 <1>   0.4500 
 12 C        3.6060    -0.3740     1.6710 C.ar  1 <1>  -0.1440 
 13 C        4.3250    -1.5300     0.8220 C.3   1 <1>   0.2870 
 14 H        3.6140    -2.3080     0.5200 H     1 <1>   0.0000 
 15 C        4.4860    -0.4980    -0.1850 C.3   1 <1>   0.2800 
 16 O        4.3050    -1.0930    -1.4620 O.3   1 <1>  -0.6800 
 17 H        4.8980    -0.6400    -2.0900 H     1 <1>   0.4000 
 18 H2       5.3020    -0.3410     0.5540 H     1 <1>   0.0000 
 19 C        5.2400     0.7930    -0.2530 C.3   1 <1>   0.7040 
 20 C        6.0680     1.7890     0.5550 C.ar  1 <1>  -0.1440 
 21 O        3.9140     1.4230    -0.2180 O.3   1 <1>  -0.3620 
 22 C        6.2390     1.7580     1.9470 C.ar  1 <1>  -0.1500 
 23 H        5.8500     0.9460     2.5510 H     1 <1>   0.1500 
 24 C        6.8590     2.8280     2.5860 C.ar  1 <1>   0.0820 
 25 O        6.9270     2.8560     3.9550 O.3   1 <1>  -0.5320 
 26 H        7.4070     3.6940     4.1370 H     1 <1>   0.4500 
 27 C        7.3810     3.9000     1.8680 C.ar  1 <1>   0.0820 
 28 O        7.9650     4.9100     2.5810 O.3   1 <1>  -0.5320 
 29 H        8.2060     5.6210     1.9610 H     1 <1>   0.4500 
 30 C        7.2810     3.9280     0.4870 C.ar  1 <1>  -0.1500 
 31 H        7.6800     4.7490    -0.0980 H     1 <1>   0.1500 
 32 C        6.6150     2.8830    -0.1600 C.ar  1 <1>  -0.1500 
 33 H        6.4950     2.9350    -1.2420 H     1 <1>   0.1500 
 34 C        7.9470    -1.6910    -1.0130 C.ar  1 <1>  -0.1500 
 35 H        8.5320    -1.1020    -1.7070 H     1 <1>   0.1500 
 36 C        6.7740    -1.1910    -0.4880 C.ar  1 <1>   0.0820 
 37 O        6.2970     0.1200    -1.1160 O.3   1 <1>  -0.3620 
 38 C        5.9100    -2.0340     0.4610 C.ar  1 <1>  -0.1440 
 39 C        6.2980    -3.3420     0.7350 C.ar  1 <1>   0.0820 
 40 C        7.4810    -3.8480     0.1600 C.ar  1 <1>  -0.1440 
 41 C        8.2790    -3.0120    -0.6820 C.ar  1 <1>   0.0820 
 42 O        9.3960    -3.5660    -1.2580 O.3   1 <1>  -0.5320 
 43 H        9.8700    -2.8790    -1.7530 H     1 <1>   0.4500 
 44 O        5.4600    -4.1060     1.4910 O.3   1 <1>  -0.3620 
 45 C        5.3760    -5.4650     1.0390 C.3   1 <1>   0.4240 
 46 H1       4.9760    -5.4610     0.0130 H     1 <1>   0.0000 
 47 C        4.3590    -6.2060     1.9060 C.ar  1 <1>  -0.1440 
 48 C        6.7520    -6.1530     1.0780 C.3   1 <1>   0.2800 
 49 O        6.6370    -7.4680     0.4920 O.3   1 <1>  -0.6800 
 50 H        7.5240    -7.7510     0.1860 H     1 <1>   0.4000 
 51 H2       7.0640    -6.2820     2.1220 H     1 <1>   0.0000 
 52 C        7.8050    -5.3340     0.2900 C.3   1 <1>   0.2870 
 53 H1       7.7340    -5.6730    -0.7550 H     1 <1>   0.0000 
 54 C        9.1970    -5.7310     0.8010 C.ar  1 <1>  -0.1440 
 55 C        4.1110    -5.8360     3.2380 C.ar  1 <1>  -0.1500 
 56 H        4.6330    -4.9880     3.6780 H     1 <1>   0.1500 
 57 C        3.1920    -6.5420     4.0210 C.ar  1 <1>  -0.1500 
 58 H        3.0260    -6.2230     5.0450 H     1 <1>   0.1500 
 59 C        2.5150    -7.6350     3.4820 C.ar  1 <1>   0.0820 
 60 O        1.6160    -8.3340     4.2420 O.3   1 <1>  -0.5320 
 61 H        1.5960    -7.9450     5.1300 H     1 <1>   0.4500 
 62 C        2.7590    -8.0250     2.1660 C.ar  1 <1>   0.0820 
 63 O        2.1100    -9.1140     1.6490 O.3   1 <1>  -0.5320 
 64 H        2.4530    -9.2780     0.7560 H     1 <1>   0.4500 
 65 C        3.6700    -7.3140     1.3800 C.ar  1 <1>  -0.1500 
 66 H        3.8690    -7.6240     0.3560 H     1 <1>   0.1500 
 67 C        9.8700    -6.8100     0.2010 C.ar  1 <1>   0.0820 
 68 O        9.2330    -7.4970    -0.8010 O.3   1 <1>  -0.5320 
 69 H        9.8810    -8.0590    -1.2590 H     1 <1>   0.4500 
 70 C       11.1230    -7.2370     0.6350 C.ar  1 <1>  -0.1500 
 71 H       11.6230    -8.0670     0.1480 H     1 <1>   0.1500 
 72 C       11.7020    -6.6080     1.7300 C.ar  1 <1>   0.0820 
 73 O       12.9260    -7.0090     2.1920 O.3   1 <1>  -0.5320 
 74 H       13.2460    -7.7480     1.6490 H     1 <1>   0.4500 
 75 C       11.0460    -5.5710     2.4000 C.ar  1 <1>  -0.1440 
 76 C        9.8090    -5.1210     1.9090 C.ar  1 <1>   0.0820 
 77 C       11.6700    -4.9560     3.6230 C.3   1 <1>   0.1440 
 78 H1      12.5690    -4.4060     3.3160 H     1 <1>   0.0000 
 79 H2      12.0010    -5.7360     4.3210 H     1 <1>   0.0000 
 80 C       10.7130    -4.0210     4.3610 C.3   1 <1>   0.2800 
 81 O       11.4700    -3.1840     5.2350 O.3   1 <1>  -0.6800 
 82 H       12.1120    -2.6790     4.7090 H     1 <1>   0.4000 
 83 H2      10.0270    -4.6160     4.9780 H     1 <1>   0.0000 
 84 C        9.9150    -3.2280     3.3160 C.3   1 <1>   0.4240 
 85 H1      10.5950    -2.6890     2.6380 H     1 <1>   0.0000 
 86 C        8.9940    -2.1960     3.9370 C.ar  1 <1>  -0.1440 
 87 O        9.1150    -4.1150     2.5230 O.3   1 <1>  -0.3620 
 88 C        9.4760    -0.8960     4.1660 C.ar  1 <1>  -0.1500 
 89 H       10.5030    -0.6490     3.9180 H     1 <1>   0.1500 
 90 C        8.6310     0.0710     4.6950 C.ar  1 <1>   0.0820 
 91 O        9.0750     1.3410     4.9350 O.3   1 <1>  -0.5320 
 92 H       10.0180     1.3940     4.7060 H     1 <1>   0.4500 
 93 C        7.3050    -0.2380     4.9870 C.ar  1 <1>   0.0820 
 94 O        6.4430     0.7330     5.4130 O.3   1 <1>  -0.5320 
 95 H        6.8160     1.5770     5.0590 H     1 <1>   0.4500 
 96 C        6.8220    -1.5250     4.8050 C.ar  1 <1>  -0.1500 
 97 H        5.7890    -1.7630     5.0350 H     1 <1>   0.1500 
 98 C        7.6670    -2.5040     4.2840 C.ar  1 <1>  -0.1500 
 99 H        7.2730    -3.5050     4.1220 H     1 <1>   0.1500 
@<TRIPOS>BOND
  1   1   2  ar  
  2   1  12  ar  
  3   1  21  1   
  4   2   3  1   
  5   2   4  ar  
  6   4   5  1   
  7   4   7  ar  
  8   5   6  1   
  9   7   8  1   
 10   7   9  ar  
 11   9  10  1   
 12   9  12  ar  
 13  10  11  1   
 14  12  13  1   
 15  13  14  1   
 16  13  15  1   
 17  13  38  1   
 18  15  16  1   
 19  15  18  1   
 20  15  19  1   
 21  16  17  1   
 22  19  20  1   
 23  19  21  1   
 24  19  37  1   
 25  20  22  ar  
 26  20  32  ar  
 27  22  23  1   
 28  22  24  ar  
 29  24  25  1   
 30  24  27  ar  
 31  25  26  1   
 32  27  28  1   
 33  27  30  ar  
 34  28  29  1   
 35  30  31  1   
 36  30  32  ar  
 37  32  33  1   
 38  34  35  1   
 39  34  36  ar  
 40  34  41  ar  
 41  36  37  1   
 42  36  38  ar  
 43  38  39  ar  
 44  39  40  ar  
 45  39  44  1   
 46  40  41  ar  
 47  40  52  1   
 48  41  42  1   
 49  42  43  1   
 50  44  45  1   
 51  45  46  1   
 52  45  47  1   
 53  45  48  1   
 54  47  55  ar  
 55  47  65  ar  
 56  48  49  1   
 57  48  51  1   
 58  48  52  1   
 59  49  50  1   
 60  52  53  1   
 61  52  54  1   
 62  54  67  ar  
 63  54  76  ar  
 64  55  56  1   
 65  55  57  ar  
 66  57  58  1   
 67  57  59  ar  
 68  59  60  1   
 69  59  62  ar  
 70  60  61  1   
 71  62  63  1   
 72  62  65  ar  
 73  63  64  1   
 74  65  66  1   
 75  67  68  1   
 76  67  70  ar  
 77  68  69  1   
 78  70  71  1   
 79  70  72  ar  
 80  72  73  1   
 81  72  75  ar  
 82  73  74  1   
 83  75  76  ar  
 84  75  77  1   
 85  76  87  1   
 86  77  78  1   
 87  77  79  1   
 88  77  80  1   
 89  80  81  1   
 90  80  83  1   
 91  80  84  1   
 92  81  82  1   
 93  84  85  1   
 94  84  86  1   
 95  84  87  1   
 96  86  88  ar  
 97  86  98  ar  
 98  88  89  1   
 99  88  90  ar  
100  90  91  1   
101  90  93  ar  
102  91  92  1   
103  93  94  1   
104  93  96  ar  
105  94  95  1   
106  96  97  1   
107  96  98  ar  
108  98  99  1   
@<TRIPOS>SUBSTRUCTURE
  1 <1>   0 RESIDUE 1 * * 1
# MOE 2007.09 (io_trps.svl 2007.09)
