@<TRIPOS>MOLECULE
J02_01
69 72 1 0 0 
SMALL
USER_CHARGES


@<TRIPOS>ATOM
  1 C        1.0820     0.0860     0.1520 C.3   1 <1>   0.5600 
  2 O        2.3350     0.7900     0.0340 O.3   1 <1>  -0.3620 
  3 C        3.4480     0.0100    -0.1240 C.ar  1 <1>   0.0820 
  4 H2       0.8090    -0.2690    -0.8420 H     1 <1>   0.0000 
  5 O        0.0560     1.0430     0.4770 O.3   1 <1>  -0.5600 
  6 C       -1.2600     0.4880     0.4820 C.3   1 <1>   0.2800 
  7 H1      -1.4800     0.0740    -0.5120 H     1 <1>   0.0000 
  8 C       -2.2890     1.5940     0.7480 C.3   1 <1>   0.2800 
  9 O       -3.6210     1.0910     0.6460 O.3   1 <1>  -0.6800 
 10 H       -3.6010     0.1800     1.0260 H     1 <1>   0.4000 
 11 H2      -2.1710     2.4100     0.0280 H     1 <1>   0.0000 
 12 H3      -2.1510     2.0260     1.7460 H     1 <1>   0.0000 
 13 C       -1.3890    -0.6230     1.5310 C.3   1 <1>   0.2800 
 14 O       -2.7050    -1.1980     1.4710 O.3   1 <1>  -0.6800 
 15 H       -2.6380    -2.0250     1.9930 H     1 <1>   0.4000 
 16 H2      -1.2850    -0.2310     2.5470 H     1 <1>   0.0000 
 17 C       -0.3420    -1.7020     1.2690 C.3   1 <1>   0.2800 
 18 H1      -0.6110    -2.2160     0.3380 H     1 <1>   0.0000 
 19 O       -0.4310    -2.6880     2.3020 O.3   1 <1>  -0.6800 
 20 H        0.2980    -3.3200     2.1630 H     1 <1>   0.4000 
 21 H1       1.6910    -1.9130     0.6870 H     1 <1>   0.0000 
 22 O        1.7230    -0.9280     2.4150 O.3   1 <1>  -0.4300 
 23 C        1.0730    -1.1230     1.1280 C.3   1 <1>   0.2800 
 24 C        3.7700    -0.6800    -1.3050 C.ar  1 <1>  -0.1440 
 25 C        2.9950    -0.5070    -2.5900 C.3   1 <1>   0.4240 
 26 O        2.8030    -1.7320    -3.3250 O.3   1 <1>  -0.4300 
 27 C        1.8350    -2.5780    -2.8690 C.2   1 <1>   0.6590 
 28 C        1.6450    -3.7690    -3.8160 C.3   1 <1>   0.3410 
 29 O        0.8800    -4.7860    -3.1330 O.3   1 <1>  -0.6800 
 30 H       -0.0420    -4.4450    -3.1530 H     1 <1>   0.4000 
 31 O        1.1630    -2.3910    -1.8610 O.2   1 <1>  -0.5700 
 32 H2       3.5820     0.1530    -3.2420 H     1 <1>   0.0000 
 33 H3       2.0330    -0.0060    -2.4670 H     1 <1>   0.0000 
 34 C        4.9490    -1.4540    -1.3180 C.ar  1 <1>  -0.1500 
 35 H        5.2200    -2.0000    -2.2190 H     1 <1>   0.1500 
 36 C        5.7850    -1.4960    -0.2000 C.ar  1 <1>   0.0820 
 37 O        6.9330    -2.2340    -0.1850 O.3   1 <1>  -0.5320 
 38 H        7.0030    -2.7270    -1.0190 H     1 <1>   0.4500 
 39 C        5.4910    -0.7570     0.9360 C.ar  1 <1>  -0.1500 
 40 H        6.1620    -0.7720     1.7900 H     1 <1>   0.1500 
 41 C        4.3300     0.0070     0.9650 C.ar  1 <1>  -0.1500 
 42 H        4.1050     0.6020     1.8460 H     1 <1>   0.1500 
 43 C        1.4860     0.1060     3.2490 C.2   1 <1>   0.6340 
 44 C        2.4300     0.0470     4.3780 C.ar  1 <1>   0.0860 
 45 O        0.6740     1.0050     3.1170 O.2   1 <1>  -0.5700 
 46 C        3.1030    -1.1300     4.7270 C.ar  1 <1>  -0.1500 
 47 H        2.9340    -2.0570     4.1840 H     1 <1>   0.1500 
 48 C        4.0090    -1.1300     5.7900 C.ar  1 <1>  -0.1500 
 49 H        4.5300    -2.0450     6.0600 H     1 <1>   0.1500 
 50 C        4.2470     0.0430     6.5050 C.ar  1 <1>  -0.1500 
 51 H        4.9540     0.0430     7.3310 H     1 <1>   0.1500 
 52 C        3.5750     1.2160     6.1650 C.ar  1 <1>  -0.1500 
 53 H        3.7600     2.1300     6.7240 H     1 <1>   0.1500 
 54 C        2.6640     1.2190     5.1080 C.ar  1 <1>  -0.1500 
 55 H        2.1460     2.1420     4.8530 H     1 <1>   0.1500 
 56 C        2.9840    -4.3870    -4.2150 C.3   1 <1>   0.3410 
 57 O        3.6410    -4.9090    -3.0610 O.3   1 <1>  -0.6800 
 58 H        3.0130    -5.5460    -2.6630 H     1 <1>   0.4000 
 59 H2       3.6600    -3.6560    -4.6720 H     1 <1>   0.0000 
 60 C        2.7550    -5.4900    -5.2490 C.2   1 <1>   0.4950 
 61 O        3.3860    -6.5420    -5.2590 O.2   1 <1>  -0.5700 
 62 C        1.7550    -5.2450    -6.3110 C.2   1 <1>  -0.1360 
 63 H        1.7500    -5.9300    -7.1520 H     1 <1>   0.1500 
 64 C        0.9000    -4.2220    -6.2120 C.2   1 <1>  -0.2880 
 65 H        0.1920    -4.0610    -7.0220 H     1 <1>   0.1500 
 66 C        0.8390    -3.2810    -5.0420 C.3   1 <1>   0.4180 
 67 O       -0.5290    -3.1850    -4.6260 O.3   1 <1>  -0.6800 
 68 H       -1.0320    -2.7700    -5.3500 H     1 <1>   0.4000 
 69 H2       1.1670    -2.2880    -5.3700 H     1 <1>   0.0000 
@<TRIPOS>BOND
  1   1   2  1   
  2   1   4  1   
  3   1   5  1   
  4   1  23  1   
  5   2   3  1   
  6   3  24  ar  
  7   3  41  ar  
  8   5   6  1   
  9   6   7  1   
 10   6   8  1   
 11   6  13  1   
 12   8   9  1   
 13   8  11  1   
 14   8  12  1   
 15   9  10  1   
 16  13  14  1   
 17  13  16  1   
 18  13  17  1   
 19  14  15  1   
 20  17  18  1   
 21  17  19  1   
 22  17  23  1   
 23  19  20  1   
 24  21  23  1   
 25  22  23  1   
 26  22  43  1   
 27  24  25  1   
 28  24  34  ar  
 29  25  26  1   
 30  25  32  1   
 31  25  33  1   
 32  26  27  1   
 33  27  28  1   
 34  27  31  2   
 35  28  29  1   
 36  28  56  1   
 37  28  66  1   
 38  29  30  1   
 39  34  35  1   
 40  34  36  ar  
 41  36  37  1   
 42  36  39  ar  
 43  37  38  1   
 44  39  40  1   
 45  39  41  ar  
 46  41  42  1   
 47  43  44  1   
 48  43  45  2   
 49  44  46  ar  
 50  44  54  ar  
 51  46  47  1   
 52  46  48  ar  
 53  48  49  1   
 54  48  50  ar  
 55  50  51  1   
 56  50  52  ar  
 57  52  53  1   
 58  52  54  ar  
 59  54  55  1   
 60  56  57  1   
 61  56  59  1   
 62  56  60  1   
 63  57  58  1   
 64  60  61  2   
 65  60  62  1   
 66  62  63  1   
 67  62  64  2   
 68  64  65  1   
 69  64  66  1   
 70  66  67  1   
 71  66  69  1   
 72  67  68  1   
@<TRIPOS>SUBSTRUCTURE
  1 <1>   0 RESIDUE 1 * * 1
# MOE 2007.09 (io_trps.svl 2007.09)
