@<TRIPOS>MOLECULE
J02_26
82 85 1 0 0 
SMALL
USER_CHARGES


@<TRIPOS>ATOM
  1 C        0.3470    -0.3010    -0.0930 C.ar  1 <1>  -0.1500 
  2 H        1.0110    -0.4810    -0.9330 H     1 <1>   0.1500 
  3 C       -0.8760     0.3500    -0.2630 C.ar  1 <1>   0.0820 
  4 O       -1.3830     0.8380    -1.4400 O.3   1 <1>  -0.3620 
  5 C       -0.6050     0.6200    -2.6110 C.3   1 <1>   0.2800 
  6 H1      -1.1500     1.0470    -3.4580 H     1 <1>   0.0000 
  7 H2      -0.4730    -0.4500    -2.8050 H     1 <1>   0.0000 
  8 H3       0.3610     1.1320    -2.5440 H     1 <1>   0.0000 
  9 C        3.2100    -0.8200     1.3440 C.2   1 <1>   0.0910 
 10 O        3.3940     0.5410     1.1630 O.3   1 <1>  -0.5270 
 11 H        2.5180     0.9630     1.1330 H     1 <1>   0.4500 
 12 C        4.4320    -1.6640     1.5310 C.2   1 <1>   0.6160 
 13 N        5.5860    -0.9140     1.4800 N.am  1 <1>  -0.7300 
 14 C       -1.6980     0.5490     0.8520 C.ar  1 <1>   0.0820 
 15 O       -2.9010     1.1870     0.7030 O.3   1 <1>  -0.5320 
 16 H       -2.9460     1.3950    -0.2510 H     1 <1>   0.4500 
 17 C       -1.3290     0.1120     2.1180 C.ar  1 <1>  -0.1500 
 18 H       -1.9880     0.2760     2.9660 H     1 <1>   0.1500 
 19 C       -0.1080    -0.5400     2.2830 C.ar  1 <1>  -0.1500 
 20 H        0.1820    -0.8850     3.2740 H     1 <1>   0.1500 
 21 C        2.0140    -1.4270     1.3700 C.2   1 <1>  -0.1780 
 22 H        1.9390    -2.4990     1.5380 H     1 <1>   0.1500 
 23 C        0.7330    -0.7460     1.1820 C.ar  1 <1>   0.0280 
 24 C        6.9050    -1.4880     1.6330 C.3   1 <1>   0.3000 
 25 C        7.2580    -1.7180     3.1020 C.3   1 <1>   0.1440 
 26 C        8.6410    -2.3000     3.2530 C.ar  1 <1>  -0.1440 
 27 H2       6.5270    -2.3860     3.5750 H     1 <1>   0.0000 
 28 H3       7.1910    -0.7730     3.6580 H     1 <1>   0.0000 
 29 H2       7.6140    -0.7950     1.1650 H     1 <1>   0.0000 
 30 H3       6.9400    -2.4310     1.0740 H     1 <1>   0.0000 
 31 H2       5.4750     0.0860     1.3270 H     1 <1>   0.3700 
 32 O        4.3940    -2.8760     1.7120 O.2   1 <1>  -0.5700 
 33 C        9.7500    -1.4610     3.4230 C.ar  1 <1>  -0.1500 
 34 H        9.6230    -0.3810     3.4630 H     1 <1>   0.1500 
 35 C       11.0330    -2.0000     3.5310 C.ar  1 <1>  -0.1500 
 36 H       11.8840    -1.3350     3.6430 H     1 <1>   0.1500 
 37 C       11.2100    -3.3850     3.4820 C.ar  1 <1>   0.0820 
 38 O       12.4530    -3.9740     3.5410 O.3   1 <1>  -0.1650 
 39 C       13.2830    -3.5830     4.5680 C.ar  1 <1>   0.0820 
 40 C       10.1160    -4.2270     3.2880 C.ar  1 <1>  -0.1500 
 41 H       10.2590    -5.3020     3.2210 H     1 <1>   0.1500 
 42 C        8.8340    -3.6870     3.1800 C.ar  1 <1>  -0.1500 
 43 H        7.9860    -4.3520     3.0300 H     1 <1>   0.1500 
 44 C       14.6030    -3.2830     4.2360 C.ar  1 <1>  -0.1500 
 45 H       14.9310    -3.3300     3.2020 H     1 <1>   0.1500 
 46 C       15.5050    -2.9180     5.2370 C.ar  1 <1>  -0.1500 
 47 H       16.5330    -2.6820     4.9690 H     1 <1>   0.1500 
 48 C       15.0940    -2.8640     6.5770 C.ar  1 <1>  -0.1440 
 49 C       16.0810    -2.4990     7.6570 C.3   1 <1>   0.1440 
 50 H1      16.7580    -1.7220     7.2800 H     1 <1>   0.0000 
 51 C       16.8710    -3.7190     8.1330 C.3   1 <1>   0.3000 
 52 N       17.8420    -3.3740     9.1560 N.am  1 <1>  -0.7300 
 53 H2      17.5990    -3.5540    10.1220 H     1 <1>   0.3700 
 54 C       19.9070    -2.5550    10.0160 C.2   1 <1>  -0.1360 
 55 H       19.5300    -2.8340    10.9920 H     1 <1>   0.1500 
 56 C       21.1010    -1.9730     9.8570 C.2   1 <1>  -0.1780 
 57 H       21.4450    -1.6760     8.8680 H     1 <1>   0.1500 
 58 C       22.0080    -1.6640    10.9680 C.ar  1 <1>   0.0280 
 59 H2      17.4020    -4.1900     7.2960 H     1 <1>   0.0000 
 60 H3      16.2010    -4.4700     8.5660 H     1 <1>   0.0000 
 61 C       19.0610    -2.8170     8.8310 C.2   1 <1>   0.6160 
 62 H3      15.5540    -2.0400     8.5040 H     1 <1>   0.0000 
 63 C       13.7710    -3.1940     6.9020 C.ar  1 <1>  -0.1500 
 64 H       13.4370    -3.1760     7.9370 H     1 <1>   0.1500 
 65 C       12.8680    -3.5580     5.9010 C.ar  1 <1>  -0.1500 
 66 H       11.8510    -3.8280     6.1710 H     1 <1>   0.1500 
 67 O       19.4210    -2.5570     7.6900 O.2   1 <1>  -0.5700 
 68 C       22.2460    -2.5790    12.0090 C.ar  1 <1>  -0.1500 
 69 H       21.7370    -3.5370    11.9930 H     1 <1>   0.1500 
 70 C       23.1380    -2.2600    13.0350 C.ar  1 <1>   0.0820 
 71 O       23.4600    -3.0490    14.1090 O.3   1 <1>  -0.3620 
 72 C       22.8360    -4.3270    14.1760 C.3   1 <1>   0.2800 
 73 H1      23.1980    -4.8280    15.0790 H     1 <1>   0.0000 
 74 H2      23.1130    -4.9460    13.3170 H     1 <1>   0.0000 
 75 H3      21.7490    -4.2300    14.2620 H     1 <1>   0.0000 
 76 C       23.7950    -1.0250    13.0040 C.ar  1 <1>   0.0820 
 77 O       24.6720    -0.6990    14.0030 O.3   1 <1>  -0.5320 
 78 H       24.6570    -1.4750    14.5970 H     1 <1>   0.4500 
 79 C       23.5860    -0.1160    11.9770 C.ar  1 <1>  -0.1500 
 80 H       24.1120     0.8340    11.9720 H     1 <1>   0.1500 
 81 C       22.6950    -0.4400    10.9540 C.ar  1 <1>  -0.1500 
 82 H       22.5340     0.2750    10.1490 H     1 <1>   0.1500 
@<TRIPOS>BOND
  1   1   2  1   
  2   1   3  ar  
  3   1  23  ar  
  4   3   4  1   
  5   3  14  ar  
  6   4   5  1   
  7   5   6  1   
  8   5   7  1   
  9   5   8  1   
 10   9  10  1   
 11   9  12  1   
 12   9  21  2   
 13  10  11  1   
 14  12  13  am  
 15  12  32  2   
 16  13  24  1   
 17  13  31  1   
 18  14  15  1   
 19  14  17  ar  
 20  15  16  1   
 21  17  18  1   
 22  17  19  ar  
 23  19  20  1   
 24  19  23  ar  
 25  21  22  1   
 26  21  23  1   
 27  24  25  1   
 28  24  29  1   
 29  24  30  1   
 30  25  26  1   
 31  25  27  1   
 32  25  28  1   
 33  26  33  ar  
 34  26  42  ar  
 35  33  34  1   
 36  33  35  ar  
 37  35  36  1   
 38  35  37  ar  
 39  37  38  1   
 40  37  40  ar  
 41  38  39  1   
 42  39  44  ar  
 43  39  65  ar  
 44  40  41  1   
 45  40  42  ar  
 46  42  43  1   
 47  44  45  1   
 48  44  46  ar  
 49  46  47  1   
 50  46  48  ar  
 51  48  49  1   
 52  48  63  ar  
 53  49  50  1   
 54  49  51  1   
 55  49  62  1   
 56  51  52  1   
 57  51  59  1   
 58  51  60  1   
 59  52  53  1   
 60  52  61  am  
 61  54  55  1   
 62  54  56  2   
 63  54  61  1   
 64  56  57  1   
 65  56  58  1   
 66  58  68  ar  
 67  58  81  ar  
 68  61  67  2   
 69  63  64  1   
 70  63  65  ar  
 71  65  66  1   
 72  68  69  1   
 73  68  70  ar  
 74  70  71  1   
 75  70  76  ar  
 76  71  72  1   
 77  72  73  1   
 78  72  74  1   
 79  72  75  1   
 80  76  77  1   
 81  76  79  ar  
 82  77  78  1   
 83  79  80  1   
 84  79  81  ar  
 85  81  82  1   
@<TRIPOS>SUBSTRUCTURE
  1 <1>   0 RESIDUE 1 * * 1
# MOE 2007.09 (io_trps.svl 2007.09)
