@<TRIPOS>MOLECULE
J02_38
59 60 1 0 0 
SMALL
USER_CHARGES


@<TRIPOS>ATOM
  1 C        2.9681    -1.0495     1.9163 C.2   1 <1>   0.5438 
  2 C        2.2726    -1.8771     0.9033 C.ar  1 <1>   0.0862 
  3 N        3.4652    -1.7217     3.0168 N.am  1 <1>  -0.7301 
  4 C        4.1987    -1.0428     4.0669 C.3   1 <1>   0.3001 
  5 C        5.6855    -0.9588     3.7422 C.3   1 <1>   0.0000 
  6 C        6.4642    -0.3447     4.9049 C.3   1 <1>   0.3001 
  7 N        7.9038    -0.3136     4.6357 N.am  1 <1>  -0.6602 
  8 C        8.6590    -1.5310     4.9500 C.3   1 <1>   0.3001 
  9 C        9.1804    -1.5014     6.3861 C.3   1 <1>   0.0000 
 10 C       10.1189    -2.6732     6.6532 C.3   1 <1>   0.0000 
 11 C       10.6815    -2.6129     8.0694 C.3   1 <1>   0.3001 
 12 N       11.6584    -3.6561     8.2902 N.am  1 <1>  -0.7301 
 13 C       12.9611    -3.5281     7.8709 C.2   1 <1>   0.5700 
 14 H       13.5578    -4.4183     8.1310 H     1 <1>   0.0600 
 15 O       13.4414    -2.5720     7.2779 O.2   1 <1>  -0.5700 
 16 H2      11.3742    -4.5036     8.7664 H     1 <1>   0.3700 
 17 H2       9.8846    -2.7476     8.8082 H     1 <1>   0.0000 
 18 H3      11.1599    -1.6442     8.2536 H     1 <1>   0.0000 
 19 H2      10.9393    -2.6563     5.9249 H     1 <1>   0.0000 
 20 H3       9.5891    -3.6225     6.5055 H     1 <1>   0.0000 
 21 H2       8.3378    -1.5301     7.0878 H     1 <1>   0.0000 
 22 H3       9.7085    -0.5592     6.5757 H     1 <1>   0.0000 
 23 H2       9.4836    -1.6414     4.2388 H     1 <1>   0.0000 
 24 H3       8.0085    -2.4007     4.8021 H     1 <1>   0.0000 
 25 C        8.4475     0.8577     4.0972 C.2   1 <1>   0.6156 
 26 O        7.7617     1.8327     3.7994 O.2   1 <1>  -0.5700 
 27 C        9.9176     0.9002     3.8949 C.2   1 <1>  -0.1356 
 28 H       10.5493     0.2150     4.4414 H     1 <1>   0.1500 
 29 C       10.4362     1.8017     3.0527 C.2   1 <1>  -0.1784 
 30 C       11.8717     1.9273     2.7797 C.ar  1 <1>   0.0284 
 31 H2       9.7881     2.4790     2.5001 H     1 <1>   0.1500 
 32 H2       6.2982    -0.9126     5.8277 H     1 <1>   0.0000 
 33 H3       6.1022     0.6733     5.0899 H     1 <1>   0.0000 
 34 H2       5.8403    -0.3654     2.8323 H     1 <1>   0.0000 
 35 H3       6.0684    -1.9622     3.5183 H     1 <1>   0.0000 
 36 H2       4.0371    -1.6156     4.9863 H     1 <1>   0.0000 
 37 H3       3.7789    -0.0411     4.2111 H     1 <1>   0.0000 
 38 H2       3.3093    -2.7167     3.1158 H     1 <1>   0.3700 
 39 O        3.0487     0.1633     1.7542 O.2   1 <1>  -0.5700 
 40 C       12.8402     1.8223     3.7874 C.ar  1 <1>  -0.1500 
 41 H       12.5547     1.6317     4.8190 H     1 <1>   0.1500 
 42 C       14.1963     1.9771     3.4868 C.ar  1 <1>  -0.1500 
 43 H       14.9403     1.8936     4.2748 H     1 <1>   0.1500 
 44 C       14.5959     2.2464     2.1793 C.ar  1 <1>  -0.1500 
 45 H       15.6500     2.3690     1.9459 H     1 <1>   0.1500 
 46 C       13.6411     2.3650     1.1719 C.ar  1 <1>  -0.1500 
 47 H       13.9515     2.5780     0.1527 H     1 <1>   0.1500 
 48 C       12.2852     2.2137     1.4711 C.ar  1 <1>  -0.1500 
 49 H       11.5548     2.3127     0.6707 H     1 <1>   0.1500 
 50 C        2.6770    -3.1854     0.6178 C.ar  1 <1>  -0.1500 
 51 H        3.5338    -3.6344     1.1116 H     1 <1>   0.1500 
 52 C        1.9938    -3.9292    -0.3474 C.ar  1 <1>  -0.1500 
 53 H        2.3085    -4.9451    -0.5729 H     1 <1>   0.1500 
 54 C        0.9150    -3.3679    -1.0315 C.ar  1 <1>  -0.1500 
 55 H        0.3867    -3.9491    -1.7831 H     1 <1>   0.1500 
 56 C        0.5206    -2.0581    -0.7602 C.ar  1 <1>  -0.1500 
 57 H       -0.3146    -1.6187    -1.2997 H     1 <1>   0.1500 
 58 C        1.2016    -1.3100     0.2021 C.ar  1 <1>  -0.1500 
 59 H        0.8888    -0.2879     0.4050 H     1 <1>   0.1500 
@<TRIPOS>BOND
  1   1   2  1   
  2   1   3  am  
  3   1  39  2   
  4   2  50  ar  
  5   2  58  ar  
  6   3   4  1   
  7   3  38  1   
  8   4   5  1   
  9   4  36  1   
 10   4  37  1   
 11   5   6  1   
 12   5  34  1   
 13   5  35  1   
 14   6   7  1   
 15   6  32  1   
 16   6  33  1   
 17   7   8  1   
 18   7  25  am  
 19   8   9  1   
 20   8  23  1   
 21   8  24  1   
 22   9  10  1   
 23   9  21  1   
 24   9  22  1   
 25  10  11  1   
 26  10  19  1   
 27  10  20  1   
 28  11  12  1   
 29  11  17  1   
 30  11  18  1   
 31  12  13  am  
 32  12  16  1   
 33  13  14  1   
 34  13  15  2   
 35  25  26  2   
 36  25  27  1   
 37  27  28  1   
 38  27  29  2   
 39  29  30  1   
 40  29  31  1   
 41  30  40  ar  
 42  30  48  ar  
 43  40  41  1   
 44  40  42  ar  
 45  42  43  1   
 46  42  44  ar  
 47  44  45  1   
 48  44  46  ar  
 49  46  47  1   
 50  46  48  ar  
 51  48  49  1   
 52  50  51  1   
 53  50  52  ar  
 54  52  53  1   
 55  52  54  ar  
 56  54  55  1   
 57  54  56  ar  
 58  56  57  1   
 59  56  58  ar  
 60  58  59  1   
@<TRIPOS>SUBSTRUCTURE
  1 <1>   0 RESIDUE 1 * * 1
# MOE 2007.09 (io_trps.svl 2007.09)
