@<TRIPOS>MOLECULE
J02_34
75 76 1 0 0 
SMALL
USER_CHARGES


@<TRIPOS>ATOM
  1 C        1.2880     0.1960    -0.0510 C.ar  1 <1>  -0.1440 
  2 C        2.4300     1.1810    -0.1210 C.3   1 <1>   0.2040 
  3 H1       2.0790     2.1590     0.2310 H     1 <1>   0.0000 
  4 C        3.0250     1.3430    -1.5140 C.2   1 <1>   0.5690 
  5 N        4.0090     2.2970    -1.6180 N.am  1 <1>  -0.3250 
  6 C        4.6870     2.7030    -2.8460 C.3   1 <1>   0.3000 
  7 C        6.1890     2.4370    -2.7860 C.3   1 <1>   0.0000 
  8 C        6.8830     2.8200    -4.0940 C.3   1 <1>   0.0000 
  9 C        8.4000     2.6970    -3.9550 C.3   1 <1>   0.0000 
 10 C        9.1190     3.0200    -5.2610 C.3   1 <1>   0.3000 
 11 N       10.5590     2.9670    -5.0740 N.am  1 <1>  -0.7300 
 12 C       11.4480     1.9910    -5.4160 C.2   1 <1>   0.5690 
 13 O       12.6390     2.1270    -5.1370 O.2   1 <1>  -0.5700 
 14 C       10.9490     0.7580    -6.1370 C.3   1 <1>   0.0610 
 15 H1      10.3200     1.0630    -6.9790 H     1 <1>   0.0000 
 16 C       10.2030    -0.1840    -5.2020 C.3   1 <1>   0.0610 
 17 C       10.6350    -1.6170    -5.4040 C.2   1 <1>   0.5690 
 18 N       10.1140    -2.3000    -6.4690 N.am  1 <1>  -0.3250 
 19 O       10.5530    -3.6380    -6.6030 O.3   1 <1>  -0.4360 
 20 H       11.1600    -3.7200    -5.8370 H     1 <1>   0.4000 
 21 C        9.1580    -1.9210    -7.5000 C.3   1 <1>   0.3000 
 22 C        7.7710    -2.4860    -7.2010 C.3   1 <1>   0.0000 
 23 C        6.7630    -2.0670    -8.2700 C.3   1 <1>   0.0000 
 24 C        5.3880    -2.6750    -8.0030 C.3   1 <1>   0.0000 
 25 C        4.3830    -2.2620    -9.0770 C.3   1 <1>   0.3000 
 26 N        3.0950    -2.8990    -8.8620 N.am  1 <1>  -0.4200 
 27 H2       4.7530    -2.5520   -10.0670 H     1 <1>   0.0000 
 28 H3       4.2470    -1.1750    -9.0650 H     1 <1>   0.0000 
 29 H2       5.0250    -2.3600    -7.0170 H     1 <1>   0.0000 
 30 H3       5.4690    -3.7690    -7.9720 H     1 <1>   0.0000 
 31 H2       7.1200    -2.3870    -9.2570 H     1 <1>   0.0000 
 32 H3       6.6850    -0.9730    -8.2940 H     1 <1>   0.0000 
 33 H2       7.4340    -2.1380    -6.2170 H     1 <1>   0.0000 
 34 H3       7.8220    -3.5810    -7.1480 H     1 <1>   0.0000 
 35 H2       9.5320    -2.2940    -8.4610 H     1 <1>   0.0000 
 36 H3       9.1020    -0.8320    -7.5630 H     1 <1>   0.0000 
 37 O       11.4410    -2.1600    -4.6430 O.2   1 <1>  -0.5700 
 38 H2       9.1200    -0.1070    -5.3490 H     1 <1>   0.0000 
 39 H3      10.3910     0.0620    -4.1490 H     1 <1>   0.0000 
 40 H3      11.8250     0.2660    -6.5800 H     1 <1>   0.0000 
 41 H2      10.9970     3.7600    -4.6170 H     1 <1>   0.3700 
 42 H2       8.8820     4.0400    -5.5820 H     1 <1>   0.0000 
 43 H3       8.8080     2.3370    -6.0550 H     1 <1>   0.0000 
 44 H2       8.6590     1.6860    -3.6230 H     1 <1>   0.0000 
 45 H3       8.7510     3.3780    -3.1680 H     1 <1>   0.0000 
 46 H2       6.6240     3.8500    -4.3660 H     1 <1>   0.0000 
 47 H3       6.5270     2.1700    -4.9020 H     1 <1>   0.0000 
 48 H2       6.3700     1.3770    -2.5670 H     1 <1>   0.0000 
 49 H3       6.6320     3.0080    -1.9610 H     1 <1>   0.0000 
 50 H2       4.4930     3.7720    -2.9850 H     1 <1>   0.0000 
 51 H3       4.2440     2.1690    -3.6930 H     1 <1>   0.0000 
 52 O        4.4090     3.0180    -0.4820 O.3   1 <1>  -0.4360 
 53 H        5.2310     2.5570    -0.2300 H     1 <1>   0.4000 
 54 O        2.6660     0.6650    -2.4780 O.2   1 <1>  -0.5700 
 55 H3       3.2270     0.8650     0.5640 H     1 <1>   0.0000 
 56 C       -0.0280     0.6160    -0.2900 C.ar  1 <1>  -0.1500 
 57 H       -0.2400     1.6590    -0.5160 H     1 <1>   0.1500 
 58 C       -1.0820    -0.2980    -0.2420 C.ar  1 <1>  -0.1500 
 59 H       -2.1000     0.0370    -0.4250 H     1 <1>   0.1500 
 60 C       -0.8320    -1.6400     0.0410 C.ar  1 <1>  -0.1500 
 61 H       -1.6530    -2.3500     0.0800 H     1 <1>   0.1500 
 62 C        0.4740    -2.0690     0.2730 C.ar  1 <1>  -0.1500 
 63 H        0.6710    -3.1160     0.4910 H     1 <1>   0.1500 
 64 C        1.5300    -1.1570     0.2250 C.ar  1 <1>  -0.1500 
 65 H        2.5440    -1.5110     0.4010 H     1 <1>   0.1500 
 66 C        2.0870    -2.3390    -8.1260 C.2   1 <1>   0.5690 
 67 O        2.1130    -1.2660    -7.5420 O.2   1 <1>  -0.5700 
 68 C        0.9140    -3.2740    -8.1310 C.3   1 <1>   0.0610 
 69 H1       0.0470    -2.7810    -8.5800 H     1 <1>   0.0000 
 70 H2       0.6720    -3.5710    -7.1060 H     1 <1>   0.0000 
 71 C        1.3690    -4.4630    -8.9600 C.3   1 <1>   0.0610 
 72 H1       0.7480    -4.5920    -9.8510 H     1 <1>   0.0000 
 73 H2       1.3600    -5.3860    -8.3740 H     1 <1>   0.0000 
 74 C        2.7750    -4.1310    -9.3650 C.2   1 <1>   0.5690 
 75 O        3.4970    -4.8650   -10.0240 O.2   1 <1>  -0.5700 
@<TRIPOS>BOND
  1   1   2  1   
  2   1  56  ar  
  3   1  64  ar  
  4   2   3  1   
  5   2   4  1   
  6   2  55  1   
  7   4   5  am  
  8   4  54  2   
  9   5   6  1   
 10   5  52  1   
 11   6   7  1   
 12   6  50  1   
 13   6  51  1   
 14   7   8  1   
 15   7  48  1   
 16   7  49  1   
 17   8   9  1   
 18   8  46  1   
 19   8  47  1   
 20   9  10  1   
 21   9  44  1   
 22   9  45  1   
 23  10  11  1   
 24  10  42  1   
 25  10  43  1   
 26  11  12  am  
 27  11  41  1   
 28  12  13  2   
 29  12  14  1   
 30  14  15  1   
 31  14  16  1   
 32  14  40  1   
 33  16  17  1   
 34  16  38  1   
 35  16  39  1   
 36  17  18  am  
 37  17  37  2   
 38  18  19  1   
 39  18  21  1   
 40  19  20  1   
 41  21  22  1   
 42  21  35  1   
 43  21  36  1   
 44  22  23  1   
 45  22  33  1   
 46  22  34  1   
 47  23  24  1   
 48  23  31  1   
 49  23  32  1   
 50  24  25  1   
 51  24  29  1   
 52  24  30  1   
 53  25  26  1   
 54  25  27  1   
 55  25  28  1   
 56  26  66  am  
 57  26  74  am  
 58  52  53  1   
 59  56  57  1   
 60  56  58  ar  
 61  58  59  1   
 62  58  60  ar  
 63  60  61  1   
 64  60  62  ar  
 65  62  63  1   
 66  62  64  ar  
 67  64  65  1   
 68  66  67  2   
 69  66  68  1   
 70  68  69  1   
 71  68  70  1   
 72  68  71  1   
 73  71  72  1   
 74  71  73  1   
 75  71  74  1   
 76  74  75  2   
@<TRIPOS>SUBSTRUCTURE
  1 <1>   0 RESIDUE 1 * * 1
# MOE 2007.09 (io_trps.svl 2007.09)
