@<TRIPOS>MOLECULE
J02_06
42 43 1 0 0 
SMALL
USER_CHARGES


@<TRIPOS>ATOM
  1 C        1.2800     0.4570     0.2980 C.ar  1 <1>   0.0280 
  2 C        2.6510     0.9710     0.4040 C.2   1 <1>  -0.1780 
  3 H        2.7950     1.7890     1.1070 H     1 <1>   0.1500 
  4 C        3.6800     0.5110    -0.3180 C.2   1 <1>  -0.1360 
  5 H        3.5630    -0.2830    -1.0450 H     1 <1>   0.1500 
  6 C        5.0200     1.1140    -0.1390 C.2   1 <1>   0.6160 
  7 N        5.9790     0.5450    -0.9520 N.am  1 <1>  -0.7300 
  8 C        7.3540     1.0110    -0.9300 C.3   1 <1>   0.3000 
  9 C        8.1350     0.4300     0.2500 C.3   1 <1>   0.1440 
 10 C        9.5230     1.0110     0.3340 C.ar  1 <1>  -0.1440 
 11 H2       8.1890    -0.6620     0.1610 H     1 <1>   0.0000 
 12 H3       7.6100     0.6190     1.1950 H     1 <1>   0.0000 
 13 H2       7.3450     2.1070    -0.8920 H     1 <1>   0.0000 
 14 H3       7.8120     0.7150    -1.8800 H     1 <1>   0.0000 
 15 H2       5.7390    -0.2090    -1.5830 H     1 <1>   0.3700 
 16 O        5.2390     2.0200     0.6560 O.2   1 <1>  -0.5700 
 17 C        0.2100     1.3650     0.3900 C.ar  1 <1>  -0.1500 
 18 H        0.4400     2.4200     0.5070 H     1 <1>   0.1500 
 19 C       -1.1180     0.9240     0.3250 C.ar  1 <1>   0.0820 
 20 O       -2.2210     1.7350     0.3970 O.3   1 <1>  -0.3620 
 21 C       -2.0000     3.1310     0.5380 C.3   1 <1>   0.2800 
 22 H1      -2.9780     3.6220     0.5740 H     1 <1>   0.0000 
 23 H2      -1.4580     3.5350    -0.3230 H     1 <1>   0.0000 
 24 H3      -1.4820     3.3570     1.4760 H     1 <1>   0.0000 
 25 C       -1.3650    -0.4480     0.1780 C.ar  1 <1>   0.0820 
 26 O       -2.6590    -0.8950     0.1150 O.3   1 <1>  -0.5320 
 27 H       -2.6500    -1.8590     0.0120 H     1 <1>   0.4500 
 28 C       -0.3140    -1.3620     0.1010 C.ar  1 <1>  -0.1500 
 29 H       -0.5010    -2.4270    -0.0030 H     1 <1>   0.1500 
 30 C        1.0050    -0.9090     0.1660 C.ar  1 <1>  -0.1500 
 31 H        1.8100    -1.6380     0.1260 H     1 <1>   0.1500 
 32 C       10.6100     0.3630    -0.2690 C.ar  1 <1>  -0.1500 
 33 H       10.4670    -0.5800    -0.7920 H     1 <1>   0.1500 
 34 C       11.8900     0.9190    -0.2050 C.ar  1 <1>  -0.1500 
 35 H       12.7180     0.4000    -0.6770 H     1 <1>   0.1500 
 36 C       12.0790     2.1280     0.4590 C.ar  1 <1>   0.0820 
 37 O       13.3090     2.7100     0.5450 O.3   1 <1>  -0.5320 
 38 H       13.9590     2.1390     0.1020 H     1 <1>   0.4500 
 39 C       11.0110     2.7870     1.0580 C.ar  1 <1>  -0.1500 
 40 H       11.1720     3.7300     1.5710 H     1 <1>   0.1500 
 41 C        9.7340     2.2300     0.9950 C.ar  1 <1>  -0.1500 
 42 H        8.9010     2.7530     1.4620 H     1 <1>   0.1500 
@<TRIPOS>BOND
  1   1   2  1   
  2   1  17  ar  
  3   1  30  ar  
  4   2   3  1   
  5   2   4  2   
  6   4   5  1   
  7   4   6  1   
  8   6   7  am  
  9   6  16  2   
 10   7   8  1   
 11   7  15  1   
 12   8   9  1   
 13   8  13  1   
 14   8  14  1   
 15   9  10  1   
 16   9  11  1   
 17   9  12  1   
 18  10  32  ar  
 19  10  41  ar  
 20  17  18  1   
 21  17  19  ar  
 22  19  20  1   
 23  19  25  ar  
 24  20  21  1   
 25  21  22  1   
 26  21  23  1   
 27  21  24  1   
 28  25  26  1   
 29  25  28  ar  
 30  26  27  1   
 31  28  29  1   
 32  28  30  ar  
 33  30  31  1   
 34  32  33  1   
 35  32  34  ar  
 36  34  35  1   
 37  34  36  ar  
 38  36  37  1   
 39  36  39  ar  
 40  37  38  1   
 41  39  40  1   
 42  39  41  ar  
 43  41  42  1   
@<TRIPOS>SUBSTRUCTURE
  1 <1>   0 RESIDUE 1 * * 1
# MOE 2007.09 (io_trps.svl 2007.09)
