@<TRIPOS>MOLECULE
J02_24
82 84 1 0 0 
SMALL
USER_CHARGES


@<TRIPOS>ATOM
  1 C        1.5840     0.4550    -0.2830 C.ar  1 <1>  -0.1440 
  2 C        2.7300     0.9710     0.5640 C.3   1 <1>   0.4240 
  3 H        2.6440     0.5120     1.5600 H     1 <1>   0.0000 
  4 C        0.9180     1.2780    -1.2060 C.ar  1 <1>  -0.1500 
  5 H        1.1990     2.3230    -1.3140 H     1 <1>   0.1500 
  6 C       -0.1140     0.7700    -1.9990 C.ar  1 <1>  -0.1500 
  7 H       -0.6130     1.4280    -2.7030 H     1 <1>   0.1500 
  8 C       -0.4780    -0.5670    -1.8740 C.ar  1 <1>   0.0820 
  9 O       -1.4740    -1.1070    -2.6340 O.3   1 <1>  -0.5320 
 10 H       -1.8270    -0.4120    -3.2120 H     1 <1>   0.4500 
 11 C        0.1690    -1.4000    -0.9700 C.ar  1 <1>  -0.1500 
 12 H       -0.1230    -2.4420    -0.8860 H     1 <1>   0.1500 
 13 C        1.1980    -0.8920    -0.1770 C.ar  1 <1>  -0.1500 
 14 H        1.7030    -1.5610     0.5170 H     1 <1>   0.1500 
 15 C        4.0990     0.6830    -0.0810 C.3   1 <1>   0.2040 
 16 H1       4.0420     0.6020    -1.1730 H     1 <1>   0.0000 
 17 C        4.6790    -0.5990     0.4810 C.2   1 <1>   0.5690 
 18 O        4.5510    -1.6600    -0.1290 O.2   1 <1>  -0.5700 
 19 N        5.2650    -0.5150     1.7260 N.am  1 <1>  -0.7300 
 20 C        5.7880    -1.6770     2.4160 C.3   1 <1>   0.3000 
 21 C        7.0570    -2.2150     1.7590 C.3   1 <1>   0.0000 
 22 C        7.6890    -3.3190     2.6020 C.3   1 <1>   0.0000 
 23 C        8.8170    -4.0180     1.8480 C.3   1 <1>   0.3690 
 24 N        9.4930    -4.9390     2.7260 N.pl3 1 <1>  -0.8190 
 25 C       10.5220    -4.7330     3.5790 C.2   1 <1>   0.5500 
 26 N       10.9210    -5.7100     4.3260 N.2   1 <1>  -0.8500 
 27 H       11.6990    -5.3730     4.8950 H     1 <1>   0.4000 
 28 N       11.0890    -3.5120     3.6140 N.pl3 1 <1>  -0.8500 
 29 H1      10.7580    -2.7610     3.0310 H     1 <1>   0.4000 
 30 H2      11.8660    -3.3000     4.2230 H     1 <1>   0.4000 
 31 H2       9.1540    -5.8950     2.7370 H     1 <1>   0.4000 
 32 H2       9.5170    -3.2960     1.4140 H     1 <1>   0.0000 
 33 H3       8.3960    -4.5810     1.0060 H     1 <1>   0.0000 
 34 H2       6.9310    -4.0610     2.8830 H     1 <1>   0.0000 
 35 H3       8.0660    -2.8870     3.5380 H     1 <1>   0.0000 
 36 H2       7.7800    -1.4010     1.6190 H     1 <1>   0.0000 
 37 H3       6.8240    -2.6000     0.7590 H     1 <1>   0.0000 
 38 H2       5.0090    -2.4480     2.4310 H     1 <1>   0.0000 
 39 H3       5.9870    -1.3710     3.4480 H     1 <1>   0.0000 
 40 H2       5.3390     0.3820     2.1950 H     1 <1>   0.3700 
 41 C        4.8070     1.9470     0.2660 C.ar  1 <1>  -0.1440 
 42 C        3.8930     2.8790     0.7350 C.ar  1 <1>   0.0820 
 43 O        2.6070     2.4000     0.7900 O.3   1 <1>  -0.3620 
 44 C        6.1490     2.2660     0.1430 C.ar  1 <1>  -0.1500 
 45 H        6.8560     1.5320    -0.2330 H     1 <1>   0.1500 
 46 C        6.5720     3.5420     0.5400 C.ar  1 <1>   0.0280 
 47 C        8.0040     3.8590     0.4650 C.2   1 <1>  -0.1780 
 48 H        8.4940     3.5950    -0.4660 H     1 <1>   0.1500 
 49 C        8.6580     4.3830     1.5050 C.2   1 <1>  -0.1360 
 50 H        8.1350     4.6460     2.4210 H     1 <1>   0.1500 
 51 C       10.1040     4.6730     1.5750 C.2   1 <1>   0.6160 
 52 O       10.5050     5.4950     2.3880 O.2   1 <1>  -0.5700 
 53 N       10.9120     3.9140     0.7600 N.am  1 <1>  -0.7300 
 54 C       12.3600     3.9600     0.8370 C.3   1 <1>   0.3000 
 55 C       12.8490     2.8600     1.7750 C.3   1 <1>   0.0000 
 56 C       14.3680     2.7060     1.7620 C.3   1 <1>   0.0000 
 57 C       14.7860     1.5320     2.6470 C.3   1 <1>   0.3690 
 58 N       16.2100     1.2950     2.5400 N.pl3 1 <1>  -0.8190 
 59 C       16.7850     0.1280     2.9310 C.2   1 <1>   0.5500 
 60 N       18.1150     0.0990     2.7170 N.pl3 1 <1>  -0.8500 
 61 H1      18.6780    -0.7040     2.9580 H     1 <1>   0.4000 
 62 H2      18.5990     0.8810     2.3040 H     1 <1>   0.4000 
 63 N       16.1490    -0.8660     3.4520 N.2   1 <1>  -0.8500 
 64 H       16.8230    -1.6050     3.6530 H     1 <1>   0.4000 
 65 H2      16.7840     2.0390     2.1690 H     1 <1>   0.4000 
 66 H2      14.2370     0.6360     2.3340 H     1 <1>   0.0000 
 67 H3      14.5270     1.7360     3.6920 H     1 <1>   0.0000 
 68 H2      14.8450     3.6300     2.1100 H     1 <1>   0.0000 
 69 H3      14.7140     2.5360     0.7340 H     1 <1>   0.0000 
 70 H2      12.3880     1.9080     1.4810 H     1 <1>   0.0000 
 71 H3      12.5050     3.0660     2.7960 H     1 <1>   0.0000 
 72 H2      12.6870     4.9450     1.1870 H     1 <1>   0.0000 
 73 H3      12.7400     3.8060    -0.1780 H     1 <1>   0.0000 
 74 H2      10.5070     3.2690     0.0970 H     1 <1>   0.3700 
 75 C        5.6270     4.4900     0.9950 C.ar  1 <1>  -0.1500 
 76 H        5.9790     5.4810     1.2670 H     1 <1>   0.1500 
 77 C        4.2690     4.1660     1.0940 C.ar  1 <1>   0.0820 
 78 O        3.2730     4.9940     1.5240 O.3   1 <1>  -0.3620 
 79 C        3.6340     6.3270     1.8600 C.3   1 <1>   0.2800 
 80 H1       2.7240     6.8550     2.1610 H     1 <1>   0.0000 
 81 H2       4.0540     6.8530     0.9970 H     1 <1>   0.0000 
 82 H3       4.3250     6.3460     2.7100 H     1 <1>   0.0000 
@<TRIPOS>BOND
  1   1   2  1   
  2   1   4  ar  
  3   1  13  ar  
  4   2   3  1   
  5   2  15  1   
  6   2  43  1   
  7   4   5  1   
  8   4   6  ar  
  9   6   7  1   
 10   6   8  ar  
 11   8   9  1   
 12   8  11  ar  
 13   9  10  1   
 14  11  12  1   
 15  11  13  ar  
 16  13  14  1   
 17  15  16  1   
 18  15  17  1   
 19  15  41  1   
 20  17  18  2   
 21  17  19  am  
 22  19  20  1   
 23  19  40  1   
 24  20  21  1   
 25  20  38  1   
 26  20  39  1   
 27  21  22  1   
 28  21  36  1   
 29  21  37  1   
 30  22  23  1   
 31  22  34  1   
 32  22  35  1   
 33  23  24  1   
 34  23  32  1   
 35  23  33  1   
 36  24  25  1   
 37  24  31  1   
 38  25  26  2   
 39  25  28  1   
 40  26  27  1   
 41  28  29  1   
 42  28  30  1   
 43  41  42  ar  
 44  41  44  ar  
 45  42  43  1   
 46  42  77  ar  
 47  44  45  1   
 48  44  46  ar  
 49  46  47  1   
 50  46  75  ar  
 51  47  48  1   
 52  47  49  2   
 53  49  50  1   
 54  49  51  1   
 55  51  52  2   
 56  51  53  am  
 57  53  54  1   
 58  53  74  1   
 59  54  55  1   
 60  54  72  1   
 61  54  73  1   
 62  55  56  1   
 63  55  70  1   
 64  55  71  1   
 65  56  57  1   
 66  56  68  1   
 67  56  69  1   
 68  57  58  1   
 69  57  66  1   
 70  57  67  1   
 71  58  59  1   
 72  58  65  1   
 73  59  60  1   
 74  59  63  2   
 75  60  61  1   
 76  60  62  1   
 77  63  64  1   
 78  75  76  1   
 79  75  77  ar  
 80  77  78  1   
 81  78  79  1   
 82  79  80  1   
 83  79  81  1   
 84  79  82  1   
@<TRIPOS>SUBSTRUCTURE
  1 <1>   0 RESIDUE 1 * * 1
# MOE 2007.09 (io_trps.svl 2007.09)
