@<TRIPOS>MOLECULE
J02_15
82 86 1 0 0 
SMALL
USER_CHARGES


@<TRIPOS>ATOM
  1 C        0.9190     1.1370    -1.2380 C.ar  1 <1>   0.0280 
  2 C       -0.2470     1.8220    -1.6190 C.ar  1 <1>  -0.1500 
  3 H       -0.2250     2.8970    -1.7880 H     1 <1>   0.1500 
  4 C       -1.4520     1.1360    -1.7920 C.ar  1 <1>  -0.1500 
  5 H       -2.3400     1.6900    -2.0830 H     1 <1>   0.1500 
  6 C       -1.4870    -0.2380    -1.5930 C.ar  1 <1>   0.0820 
  7 O       -2.6400    -0.9570    -1.7540 O.3   1 <1>  -0.5320 
  8 H       -3.3320    -0.3520    -2.0700 H     1 <1>   0.4500 
  9 C       -0.3310    -0.9200    -1.2210 C.ar  1 <1>   0.0820 
 10 O       -0.3650    -2.2730    -1.0460 O.3   1 <1>  -0.5320 
 11 H       -1.3100    -2.5070    -0.8960 H     1 <1>   0.4500 
 12 C        0.8790    -0.2500    -1.0240 C.ar  1 <1>  -0.1440 
 13 C        2.1030    -0.9990    -0.5240 C.3   1 <1>   0.2040 
 14 H1       2.1090    -1.9910    -0.9980 H     1 <1>   0.0000 
 15 C        2.0180    -1.2270     0.9830 C.2   1 <1>   0.6590 
 16 O        2.5290    -2.4560     1.2980 O.3   1 <1>  -0.4300 
 17 C        2.6100    -2.7940     2.6990 C.3   1 <1>   0.3410 
 18 C        1.7060    -4.0050     2.9830 C.3   1 <1>   0.1440 
 19 C        0.2380    -3.6510     2.9260 C.ar  1 <1>  -0.1440 
 20 H2       1.9200    -4.4290     3.9720 H     1 <1>   0.0000 
 21 H3       1.9080    -4.8060     2.2600 H     1 <1>   0.0000 
 22 H2       2.3450    -1.9530     3.3510 H     1 <1>   0.0000 
 23 C        4.0550    -3.1510     3.0200 C.2   1 <1>   0.6590 
 24 O        4.4300    -4.0270     3.7850 O.2   1 <1>  -0.5700 
 25 O        4.9520    -2.3480     2.4050 O.3   1 <1>  -0.6500 
 26 H        5.8280    -2.6590     2.7160 H     1 <1>   0.5000 
 27 O        1.6100    -0.4070     1.7940 O.2   1 <1>  -0.5700 
 28 C        3.4490    -0.2820    -0.8260 C.3   1 <1>   0.2820 
 29 C        4.1070    -0.8590    -2.0790 C.ar  1 <1>  -0.1440 
 30 H2       4.1150    -0.5140     0.0170 H     1 <1>   0.0000 
 31 C        3.3350     1.2270    -0.9080 C.2   1 <1>  -0.1240 
 32 C        4.5500     2.0730    -0.8160 C.2   1 <1>   0.7060 
 33 O        4.6320     3.2170    -1.2420 O.2   1 <1>  -0.5700 
 34 O        5.5440     1.3900    -0.1920 O.3   1 <1>  -0.4300 
 35 C        6.7790     2.1000    -0.0200 C.3   1 <1>   0.3410 
 36 C        7.8180     1.0910     0.4910 C.3   1 <1>   0.1440 
 37 C        9.0710     1.0860    -0.3540 C.ar  1 <1>  -0.1440 
 38 H2       7.4000     0.0760     0.5070 H     1 <1>   0.0000 
 39 H3       8.1070     1.2980     1.5310 H     1 <1>   0.0000 
 40 C        6.6830     3.2500     0.9750 C.2   1 <1>   0.6590 
 41 O        7.5040     4.1470     1.0990 O.2   1 <1>  -0.5700 
 42 O        5.6140     3.1740     1.7950 O.3   1 <1>  -0.6500 
 43 H        5.6660     3.9650     2.3700 H     1 <1>   0.5000 
 44 H3       7.0660     2.5200    -0.9930 H     1 <1>   0.0000 
 45 C        2.1720     1.8740    -1.0750 C.2   1 <1>  -0.1780 
 46 H        2.1270     2.9580    -1.1300 H     1 <1>   0.1500 
 47 C        3.4980    -0.7800    -3.3480 C.ar  1 <1>  -0.1500 
 48 H        2.5280    -0.3020    -3.4660 H     1 <1>   0.1500 
 49 C        4.1210    -1.3150    -4.4810 C.ar  1 <1>  -0.1500 
 50 H        3.6290    -1.2380    -5.4460 H     1 <1>   0.1500 
 51 C        5.3590    -1.9290    -4.3450 C.ar  1 <1>   0.0820 
 52 O        6.0290    -2.4770    -5.4040 O.3   1 <1>  -0.5320 
 53 H        5.4960    -2.3430    -6.2080 H     1 <1>   0.4500 
 54 C        5.9700    -2.0060    -3.0970 C.ar  1 <1>   0.0820 
 55 O        7.1960    -2.5950    -2.9800 O.3   1 <1>  -0.5320 
 56 H        7.4110    -2.8730    -3.8940 H     1 <1>   0.4500 
 57 C        5.3580    -1.4850    -1.9670 C.ar  1 <1>  -0.1500 
 58 H        5.8600    -1.5680    -1.0070 H     1 <1>   0.1500 
 59 C       10.0660     2.0570    -0.1540 C.ar  1 <1>  -0.1500 
 60 H        9.9400     2.8110     0.6180 H     1 <1>   0.1500 
 61 C       11.2070     2.0400    -0.9490 C.ar  1 <1>   0.0820 
 62 O       12.2140     2.9550    -0.8010 O.3   1 <1>  -0.5320 
 63 H       11.9570     3.5830    -0.1030 H     1 <1>   0.4500 
 64 C       11.3610     1.0740    -1.9390 C.ar  1 <1>   0.0820 
 65 O       12.4890     1.0740    -2.7090 O.3   1 <1>  -0.5320 
 66 H       13.0040     1.8350    -2.3730 H     1 <1>   0.4500 
 67 C       10.3860     0.1140    -2.1570 C.ar  1 <1>  -0.1500 
 68 H       10.5160    -0.6320    -2.9350 H     1 <1>   0.1500 
 69 C        9.2370     0.1220    -1.3640 C.ar  1 <1>  -0.1500 
 70 H        8.4720    -0.6310    -1.5390 H     1 <1>   0.1500 
 71 C       -0.4390    -3.1980     4.0700 C.ar  1 <1>  -0.1500 
 72 H        0.0810    -3.1340     5.0240 H     1 <1>   0.1500 
 73 C       -1.7830    -2.8120     3.9990 C.ar  1 <1>  -0.1500 
 74 H       -2.2840    -2.4650     4.8970 H     1 <1>   0.1500 
 75 C       -2.4400    -2.8670     2.7760 C.ar  1 <1>   0.0820 
 76 O       -3.7440    -2.4800     2.6290 O.3   1 <1>  -0.5320 
 77 H       -4.0540    -2.1610     3.4940 H     1 <1>   0.4500 
 78 C       -1.7730    -3.3130     1.6410 C.ar  1 <1>   0.0820 
 79 O       -2.4110    -3.3080     0.4300 O.3   1 <1>  -0.5320 
 80 H       -3.3180    -3.0070     0.6510 H     1 <1>   0.4500 
 81 C       -0.4490    -3.7240     1.7090 C.ar  1 <1>  -0.1500 
 82 H        0.0560    -4.0610     0.8080 H     1 <1>   0.1500 
@<TRIPOS>BOND
  1   1   2  ar  
  2   1  12  ar  
  3   1  45  1   
  4   2   3  1   
  5   2   4  ar  
  6   4   5  1   
  7   4   6  ar  
  8   6   7  1   
  9   6   9  ar  
 10   7   8  1   
 11   9  10  1   
 12   9  12  ar  
 13  10  11  1   
 14  12  13  1   
 15  13  14  1   
 16  13  15  1   
 17  13  28  1   
 18  15  16  1   
 19  15  27  2   
 20  16  17  1   
 21  17  18  1   
 22  17  22  1   
 23  17  23  1   
 24  18  19  1   
 25  18  20  1   
 26  18  21  1   
 27  19  71  ar  
 28  19  81  ar  
 29  23  24  2   
 30  23  25  1   
 31  25  26  1   
 32  28  29  1   
 33  28  30  1   
 34  28  31  1   
 35  29  47  ar  
 36  29  57  ar  
 37  31  32  1   
 38  31  45  2   
 39  32  33  2   
 40  32  34  1   
 41  34  35  1   
 42  35  36  1   
 43  35  40  1   
 44  35  44  1   
 45  36  37  1   
 46  36  38  1   
 47  36  39  1   
 48  37  59  ar  
 49  37  69  ar  
 50  40  41  2   
 51  40  42  1   
 52  42  43  1   
 53  45  46  1   
 54  47  48  1   
 55  47  49  ar  
 56  49  50  1   
 57  49  51  ar  
 58  51  52  1   
 59  51  54  ar  
 60  52  53  1   
 61  54  55  1   
 62  54  57  ar  
 63  55  56  1   
 64  57  58  1   
 65  59  60  1   
 66  59  61  ar  
 67  61  62  1   
 68  61  64  ar  
 69  62  63  1   
 70  64  65  1   
 71  64  67  ar  
 72  65  66  1   
 73  67  68  1   
 74  67  69  ar  
 75  69  70  1   
 76  71  72  1   
 77  71  73  ar  
 78  73  74  1   
 79  73  75  ar  
 80  75  76  1   
 81  75  78  ar  
 82  76  77  1   
 83  78  79  1   
 84  78  81  ar  
 85  79  80  1   
 86  81  82  1   
@<TRIPOS>SUBSTRUCTURE
  1 <1>   0 RESIDUE 1 * * 1
# MOE 2007.09 (io_trps.svl 2007.09)
