@<TRIPOS>MOLECULE
J02_04
61 63 1 0 0 
SMALL
USER_CHARGES


@<TRIPOS>ATOM
  1 C        1.0140     0.1720     1.4370 C.ar  1 <1>   0.0280 
  2 C        2.4380     0.4840     1.6430 C.2   1 <1>  -0.1780 
  3 H        2.6520     1.1630     2.4680 H     1 <1>   0.1500 
  4 C        3.4520     0.0430     0.8900 C.2   1 <1>  -0.1360 
  5 H        3.3240    -0.6090     0.0350 H     1 <1>   0.1500 
  6 C        4.8210     0.5070     1.1710 C.2   1 <1>   0.7060 
  7 O        5.6100     0.1030     0.1470 O.3   1 <1>  -0.4300 
  8 C        6.9300     0.6860    -0.0370 C.3   1 <1>   0.2800 
  9 H        7.2270     0.2990    -1.0220 H     1 <1>   0.0000 
 10 O        5.1580     1.1780     2.1320 O.2   1 <1>  -0.5700 
 11 C        0.0570     0.9860     2.0680 C.ar  1 <1>  -0.1500 
 12 H        0.3840     1.8230     2.6810 H     1 <1>   0.1500 
 13 C       -1.3080     0.7360     1.9050 C.ar  1 <1>   0.0820 
 14 O       -2.2350     1.5340     2.5190 O.3   1 <1>  -0.5320 
 15 H       -1.7780     2.2070     3.0480 H     1 <1>   0.4500 
 16 C       -1.7360    -0.3260     1.1130 C.ar  1 <1>   0.0820 
 17 O       -3.0750    -0.5550     0.9500 O.3   1 <1>  -0.5320 
 18 H       -3.1870    -1.2250     0.2570 H     1 <1>   0.4500 
 19 C       -0.8020    -1.1540     0.4950 C.ar  1 <1>  -0.1500 
 20 H       -1.1160    -2.0000    -0.1120 H     1 <1>   0.1500 
 21 C        0.5660    -0.9090     0.6630 C.ar  1 <1>  -0.1500 
 22 H        1.2680    -1.5850     0.1820 H     1 <1>   0.1500 
 23 C        7.9440     0.1860     0.9980 C.3   1 <1>   0.2800 
 24 O        8.0300    -1.2390     0.9390 O.3   1 <1>  -0.6800 
 25 H        7.1240    -1.5840     1.0320 H     1 <1>   0.4000 
 26 H2       7.6330     0.4460     2.0160 H     1 <1>   0.0000 
 27 C        9.3380     0.7510     0.7080 C.3   1 <1>   0.0000 
 28 H1       9.7390     0.2770    -0.1990 H     1 <1>   0.0000 
 29 H2      10.0130     0.4450     1.5180 H     1 <1>   0.0000 
 30 C        9.3380     2.2760     0.5600 C.3   1 <1>   0.3410 
 31 C       10.7370     2.7600     0.1850 C.2   1 <1>   0.6590 
 32 O       11.1090     2.4530    -1.0710 O.3   1 <1>  -0.6500 
 33 H       12.0190     2.8040    -1.1690 H     1 <1>   0.5000 
 34 O       11.4930     3.3450     0.9480 O.2   1 <1>  -0.5700 
 35 O        8.9920     2.8370     1.8320 O.3   1 <1>  -0.6800 
 36 H        9.8270     2.9980     2.3160 H     1 <1>   0.4000 
 37 C        8.2960     2.7570    -0.4590 C.3   1 <1>   0.0000 
 38 H1       8.5640     2.4490    -1.4780 H     1 <1>   0.0000 
 39 H2       8.2700     3.8530    -0.4810 H     1 <1>   0.0000 
 40 C        6.9000     2.2250    -0.1200 C.3   1 <1>   0.2800 
 41 O        5.9470     2.5650    -1.1470 O.3   1 <1>  -0.4300 
 42 C        5.3590     3.7850    -1.0540 C.2   1 <1>   0.7060 
 43 C        4.1280     3.8440    -1.8610 C.2   1 <1>  -0.1360 
 44 H        3.7270     4.8410    -2.0090 H     1 <1>   0.1500 
 45 C        3.4890     2.7480    -2.2840 C.2   1 <1>  -0.1780 
 46 H        3.8650     1.7510    -2.0720 H     1 <1>   0.1500 
 47 C        2.2090     2.7970    -2.9930 C.ar  1 <1>   0.0280 
 48 O        5.7430     4.7280    -0.3800 O.2   1 <1>  -0.5700 
 49 H2       6.5600     2.6510     0.8300 H     1 <1>   0.0000 
 50 C        2.0370     3.5780    -4.1440 C.ar  1 <1>  -0.1500 
 51 H        2.8600     4.1750    -4.5260 H     1 <1>   0.1500 
 52 C        0.8080     3.5640    -4.7930 C.ar  1 <1>   0.0820 
 53 O        0.5680     4.2980    -5.9230 O.3   1 <1>  -0.5320 
 54 H        1.3740     4.7910    -6.1540 H     1 <1>   0.4500 
 55 C       -0.2400     2.7840    -4.3110 C.ar  1 <1>   0.0820 
 56 O       -1.4360     2.7900    -4.9720 O.3   1 <1>  -0.5320 
 57 H       -1.2830     3.4060    -5.7170 H     1 <1>   0.4500 
 58 C       -0.0850     2.0030    -3.1780 C.ar  1 <1>  -0.1500 
 59 H       -0.9100     1.4000    -2.8100 H     1 <1>   0.1500 
 60 C        1.1460     2.0050    -2.5210 C.ar  1 <1>  -0.1500 
 61 H        1.2680     1.3930    -1.6300 H     1 <1>   0.1500 
@<TRIPOS>BOND
  1   1   2  1   
  2   1  11  ar  
  3   1  21  ar  
  4   2   3  1   
  5   2   4  2   
  6   4   5  1   
  7   4   6  1   
  8   6   7  1   
  9   6  10  2   
 10   7   8  1   
 11   8   9  1   
 12   8  23  1   
 13   8  40  1   
 14  11  12  1   
 15  11  13  ar  
 16  13  14  1   
 17  13  16  ar  
 18  14  15  1   
 19  16  17  1   
 20  16  19  ar  
 21  17  18  1   
 22  19  20  1   
 23  19  21  ar  
 24  21  22  1   
 25  23  24  1   
 26  23  26  1   
 27  23  27  1   
 28  24  25  1   
 29  27  28  1   
 30  27  29  1   
 31  27  30  1   
 32  30  31  1   
 33  30  35  1   
 34  30  37  1   
 35  31  32  1   
 36  31  34  2   
 37  32  33  1   
 38  35  36  1   
 39  37  38  1   
 40  37  39  1   
 41  37  40  1   
 42  40  41  1   
 43  40  49  1   
 44  41  42  1   
 45  42  43  1   
 46  42  48  2   
 47  43  44  1   
 48  43  45  2   
 49  45  46  1   
 50  45  47  1   
 51  47  50  ar  
 52  47  60  ar  
 53  50  51  1   
 54  50  52  ar  
 55  52  53  1   
 56  52  55  ar  
 57  53  54  1   
 58  55  56  1   
 59  55  58  ar  
 60  56  57  1   
 61  58  59  1   
 62  58  60  ar  
 63  60  61  1   
@<TRIPOS>SUBSTRUCTURE
  1 <1>   0 RESIDUE 1 * * 1
# MOE 2007.09 (io_trps.svl 2007.09)
