@<TRIPOS>MOLECULE
J02_37
53 53 1 0 0 
SMALL
USER_CHARGES


@<TRIPOS>ATOM
  1 C        1.3870    -0.9430    -0.2880 C.3   1 <1>   0.2300 
  2 S        2.1020    -2.1420     0.8570 S.3   1 <1>  -0.3710 
  3 C        2.9270    -1.0490     1.9490 C.2   1 <1>   0.7710 
  4 N        3.4760    -1.7620     2.9800 N.am  1 <1>  -0.7300 
  5 C        4.2150    -1.1470     4.0600 C.3   1 <1>   0.3000 
  6 C        5.7000    -1.0420     3.7310 C.3   1 <1>   0.0000 
  7 C        6.4760    -0.4500     4.9070 C.3   1 <1>   0.3000 
  8 N        7.9130    -0.3910     4.6320 N.am  1 <1>  -0.6600 
  9 C        8.6950    -1.5900     4.9530 C.3   1 <1>   0.3000 
 10 C        9.2130    -1.5430     6.3890 C.3   1 <1>   0.0000 
 11 C       10.1870    -2.6850     6.6600 C.3   1 <1>   0.0000 
 12 C       10.7460    -2.6040     8.0760 C.3   1 <1>   0.3000 
 13 N       11.7600    -3.6110     8.2980 N.am  1 <1>  -0.7300 
 14 C       13.0570    -3.4360     7.8810 C.2   1 <1>   0.5700 
 15 H       13.6860    -4.3040     8.1410 H     1 <1>   0.0600 
 16 O       13.5030    -2.4630     7.2880 O.2   1 <1>  -0.5700 
 17 H2      11.5060    -4.4690     8.7740 H     1 <1>   0.3700 
 18 H2       9.9540    -2.7670     8.8140 H     1 <1>   0.0000 
 19 H3      11.1890    -1.6190     8.2610 H     1 <1>   0.0000 
 20 H2      11.0070    -2.6440     5.9320 H     1 <1>   0.0000 
 21 H3       9.6870    -3.6500     6.5130 H     1 <1>   0.0000 
 22 H2       8.3710    -1.5950     7.0900 H     1 <1>   0.0000 
 23 H3       9.7130    -0.5850     6.5770 H     1 <1>   0.0000 
 24 H2       9.5220    -1.6850     4.2420 H     1 <1>   0.0000 
 25 H3       8.0620    -2.4740     4.8070 H     1 <1>   0.0000 
 26 C        8.4300     0.7880     4.0840 C.2   1 <1>   0.6160 
 27 O        7.7170     1.7380     3.7690 O.2   1 <1>  -0.5700 
 28 C        9.9000     0.8690     3.8920 C.2   1 <1>  -0.1360 
 29 H       10.5440     0.1910     4.4340 H     1 <1>   0.1500 
 30 C       10.4030     1.7940     3.0660 C.2   1 <1>  -0.1780 
 31 C       11.8370     1.9600     2.8040 C.ar  1 <1>   0.0280 
 32 H2       9.7400     2.4620     2.5180 H     1 <1>   0.1500 
 33 H2       6.3200    -1.0420     5.8150 H     1 <1>   0.0000 
 34 H3       6.1040     0.5600     5.1190 H     1 <1>   0.0000 
 35 H2       5.8450    -0.4240     2.8360 H     1 <1>   0.0000 
 36 H3       6.0920    -2.0360     3.4810 H     1 <1>   0.0000 
 37 H2       4.0600    -1.7700     4.9470 H     1 <1>   0.0000 
 38 H3       3.7960    -0.1550     4.2610 H     1 <1>   0.0000 
 39 H2       3.3410    -2.7650     2.9610 H     1 <1>   0.3700 
 40 O        2.9830     0.1590     1.7870 O.2   1 <1>  -0.5700 
 41 H2       2.1740    -0.3690    -0.7860 H     1 <1>   0.0000 
 42 H3       0.7160    -0.2600     0.2400 H     1 <1>   0.0000 
 43 H4       0.8110    -1.4740    -1.0510 H     1 <1>   0.0000 
 44 C       12.8050     1.8400     3.8100 C.ar  1 <1>  -0.1500 
 45 H       12.5210     1.6060     4.8340 H     1 <1>   0.1500 
 46 C       14.1580     2.0340     3.5200 C.ar  1 <1>  -0.1500 
 47 H       14.9020     1.9370     4.3070 H     1 <1>   0.1500 
 48 C       14.5560     2.3590     2.2250 C.ar  1 <1>  -0.1500 
 49 H       15.6080     2.5120     2.0000 H     1 <1>   0.1500 
 50 C       13.6010     2.4940     1.2190 C.ar  1 <1>  -0.1500 
 51 H       13.9100     2.7510     0.2100 H     1 <1>   0.1500 
 52 C       12.2480     2.3030     1.5080 C.ar  1 <1>  -0.1500 
 53 H       11.5180     2.4170     0.7090 H     1 <1>   0.1500 
@<TRIPOS>BOND
  1   1   2  1   
  2   1  41  1   
  3   1  42  1   
  4   1  43  1   
  5   2   3  1   
  6   3   4  am  
  7   3  40  2   
  8   4   5  1   
  9   4  39  1   
 10   5   6  1   
 11   5  37  1   
 12   5  38  1   
 13   6   7  1   
 14   6  35  1   
 15   6  36  1   
 16   7   8  1   
 17   7  33  1   
 18   7  34  1   
 19   8   9  1   
 20   8  26  am  
 21   9  10  1   
 22   9  24  1   
 23   9  25  1   
 24  10  11  1   
 25  10  22  1   
 26  10  23  1   
 27  11  12  1   
 28  11  20  1   
 29  11  21  1   
 30  12  13  1   
 31  12  18  1   
 32  12  19  1   
 33  13  14  am  
 34  13  17  1   
 35  14  15  1   
 36  14  16  2   
 37  26  27  2   
 38  26  28  1   
 39  28  29  1   
 40  28  30  2   
 41  30  31  1   
 42  30  32  1   
 43  31  44  ar  
 44  31  52  ar  
 45  44  45  1   
 46  44  46  ar  
 47  46  47  1   
 48  46  48  ar  
 49  48  49  1   
 50  48  50  ar  
 51  50  51  1   
 52  50  52  ar  
 53  52  53  1   
@<TRIPOS>SUBSTRUCTURE
  1 <1>   0 RESIDUE 1 * * 1
# MOE 2007.09 (io_trps.svl 2007.09)
