@<TRIPOS>MOLECULE
J03_25
24 24 1 0 0 
SMALL
USER_CHARGES


@<TRIPOS>ATOM
  1 C        1.2371     0.7805    -0.7618 C.ar  1 <1>  -0.1435 
  2 C        2.5541     1.5209    -0.7171 C.3   1 <1>   0.2817 
  3 C        3.3864     1.1376     0.4729 C.2   1 <1>  -0.2882 
  4 H        2.9565     1.3199     1.4556 H     1 <1>   0.1500 
  5 C        4.6120     0.6034     0.3943 C.2   1 <1>  -0.3000 
  6 H1       5.1653     0.3520     1.2939 H     1 <1>   0.1500 
  7 H2       5.0889     0.4049    -0.5601 H     1 <1>   0.1500 
  8 H2       2.3684     2.6019    -0.6836 H     1 <1>   0.0000 
  9 H3       3.0956     1.3441    -1.6555 H     1 <1>   0.0000 
 10 C        0.0711     1.3659    -0.2331 C.ar  1 <1>  -0.1500 
 11 H        0.1400     2.3606     0.1959 H     1 <1>   0.1500 
 12 C       -1.1413     0.6746    -0.2645 C.ar  1 <1>   0.0825 
 13 O       -2.3484     1.1232     0.2077 O.3   1 <1>  -0.3625 
 14 C       -2.3622     2.4225     0.7880 C.3   1 <1>   0.2800 
 15 H1      -3.3861     2.6319     1.1127 H     1 <1>   0.0000 
 16 H2      -2.0830     3.1856     0.0540 H     1 <1>   0.0000 
 17 H3      -1.7171     2.4669     1.6717 H     1 <1>   0.0000 
 18 C       -1.1741    -0.6073    -0.8236 C.ar  1 <1>   0.0825 
 19 O       -2.3537    -1.3018    -0.8650 O.3   1 <1>  -0.5325 
 20 H       -3.0083    -0.7027    -0.4549 H     1 <1>   0.4500 
 21 C       -0.0338    -1.2062    -1.3424 C.ar  1 <1>  -0.1500 
 22 H       -0.0852    -2.2040    -1.7665 H     1 <1>   0.1500 
 23 C        1.1741    -0.5117    -1.3087 C.ar  1 <1>  -0.1500 
 24 H        2.0697    -0.9819    -1.7088 H     1 <1>   0.1500 
@<TRIPOS>BOND
  1   1   2  1   
  2   1  10  ar  
  3   1  23  ar  
  4   2   3  1   
  5   2   8  1   
  6   2   9  1   
  7   3   4  1   
  8   3   5  2   
  9   5   6  1   
 10   5   7  1   
 11  10  11  1   
 12  10  12  ar  
 13  12  13  1   
 14  12  18  ar  
 15  13  14  1   
 16  14  15  1   
 17  14  16  1   
 18  14  17  1   
 19  18  19  1   
 20  18  21  ar  
 21  19  20  1   
 22  21  22  1   
 23  21  23  ar  
 24  23  24  1   
@<TRIPOS>SUBSTRUCTURE
  1 <1>   0 RESIDUE 1 * * 1
# MOE 2007.09 (io_trps.svl 2007.09)
