@<TRIPOS>MOLECULE
J03_15
37 40 1 0 0 
SMALL
USER_CHARGES


@<TRIPOS>ATOM
  1 C        1.2274     0.8434     0.0623 C.ar  1 <1>  -0.1516 
  2 C        0.0311     1.5274    -0.1418 C.ar  1 <1>   0.0000 
  3 C       -1.1460     0.7794    -0.3519 C.ar  1 <1>  -0.1500 
  4 H       -2.0968     1.2784    -0.5144 H     1 <1>   0.1500 
  5 C       -1.0801    -0.6184    -0.3492 C.ar  1 <1>  -0.1500 
  6 H       -1.9856    -1.1975    -0.5106 H     1 <1>   0.1500 
  7 C        0.1323    -1.2725    -0.1420 C.ar  1 <1>  -0.1500 
  8 H        0.1632    -2.3594    -0.1434 H     1 <1>   0.1500 
  9 C        1.3122    -0.5535     0.0681 C.ar  1 <1>  -0.1500 
 10 H        2.2550    -1.0661     0.2292 H     1 <1>   0.1500 
 11 N        2.2068     1.7901     0.2394 N.pl3 1 <1>   0.0332 
 12 H        3.1779     1.5742     0.4079 H     1 <1>   0.2700 
 13 C        1.6916     3.0655     0.1580 C.ar  1 <1>  -0.1516 
 14 C        0.3237     2.9275    -0.0817 C.ar  1 <1>   0.0000 
 15 C        2.3168     4.3195     0.2766 C.ar  1 <1>   0.0284 
 16 C        1.5074     5.4602     0.1479 C.ar  1 <1>   0.0825 
 17 C        0.1299     5.3592    -0.1005 C.ar  1 <1>  -0.1435 
 18 C       -0.7171     6.5931    -0.2466 C.3   1 <1>   0.1435 
 19 H1      -1.7680     6.3414    -0.4242 H     1 <1>   0.0000 
 20 H2      -0.3711     7.1918    -1.0955 H     1 <1>   0.0000 
 21 H3      -0.6707     7.1952     0.6667 H     1 <1>   0.0000 
 22 C       -0.4631     4.0909    -0.2132 C.ar  1 <1>  -0.1500 
 23 H       -1.5291     3.9971    -0.4031 H     1 <1>   0.1500 
 24 C        3.7447     4.4562     0.5119 C.2   1 <1>  -0.1784 
 25 H        4.3886     3.5863     0.5397 H     1 <1>   0.1500 
 26 C        4.2296     5.6843     0.7084 C.2   1 <1>  -0.2882 
 27 H        5.2909     5.8077     0.9089 H     1 <1>   0.1500 
 28 C        3.3681     6.9238     0.6851 C.3   1 <1>   0.4182 
 29 C        3.9885     7.9487    -0.2729 C.3   1 <1>   0.0000 
 30 H1       3.3854     8.8636    -0.3103 H     1 <1>   0.0000 
 31 H2       4.0177     7.5578    -1.2973 H     1 <1>   0.0000 
 32 H3       5.0083     8.2217     0.0202 H     1 <1>   0.0000 
 33 C        3.2875     7.5204     2.0954 C.3   1 <1>   0.0000 
 34 H1       2.8054     6.8215     2.7896 H     1 <1>   0.0000 
 35 H2       2.6746     8.4295     2.1001 H     1 <1>   0.0000 
 36 H3       4.2776     7.7701     2.4926 H     1 <1>   0.0000 
 37 O        2.0140     6.7323     0.2307 O.3   1 <1>  -0.3625 
@<TRIPOS>BOND
  1   1   2  ar  
  2   1   9  ar  
  3   1  11  1   
  4   2   3  ar  
  5   2  14  1   
  6   3   4  1   
  7   3   5  ar  
  8   5   6  1   
  9   5   7  ar  
 10   7   8  1   
 11   7   9  ar  
 12   9  10  1   
 13  11  12  1   
 14  11  13  1   
 15  13  14  ar  
 16  13  15  ar  
 17  14  22  ar  
 18  15  16  ar  
 19  15  24  1   
 20  16  17  ar  
 21  16  37  1   
 22  17  18  1   
 23  17  22  ar  
 24  18  19  1   
 25  18  20  1   
 26  18  21  1   
 27  22  23  1   
 28  24  25  1   
 29  24  26  2   
 30  26  27  1   
 31  26  28  1   
 32  28  29  1   
 33  28  33  1   
 34  28  37  1   
 35  29  30  1   
 36  29  31  1   
 37  29  32  1   
 38  33  34  1   
 39  33  35  1   
 40  33  36  1   
@<TRIPOS>SUBSTRUCTURE
  1 <1>   0 RESIDUE 1 * * 1
# MOE 2007.09 (io_trps.svl 2007.09)
