@<TRIPOS>MOLECULE
J03_24
25 25 1 0 0 
SMALL
USER_CHARGES


@<TRIPOS>ATOM
  1 C        1.2163     0.6991     0.3273 C.2   1 <1>  -0.1238 
  2 C        2.5073     1.4361     0.4228 C.2   1 <1>   0.4956 
  3 H        3.4257     0.8323     0.4061 H     1 <1>   0.0600 
  4 O        2.5972     2.6525     0.5504 O.2   1 <1>  -0.5700 
  5 C       -0.1030     1.4937     0.3131 C.3   1 <1>   0.1382 
  6 C       -0.0656     2.7434    -0.5960 C.3   1 <1>   0.0000 
  7 H1       0.5301     3.5567    -0.1713 H     1 <1>   0.0000 
  8 H2      -1.0737     3.1508    -0.7420 H     1 <1>   0.0000 
  9 H3       0.3407     2.5028    -1.5851 H     1 <1>   0.0000 
 10 C       -0.4201     1.9396     1.7576 C.3   1 <1>   0.0000 
 11 H1      -0.5166     1.0826     2.4341 H     1 <1>   0.0000 
 12 H2      -1.3608     2.5009     1.7998 H     1 <1>   0.0000 
 13 H3       0.3638     2.5908     2.1607 H     1 <1>   0.0000 
 14 C       -1.2839     0.6167    -0.2185 C.3   1 <1>   0.1382 
 15 H1      -1.3393     0.6678    -1.3146 H     1 <1>   0.0000 
 16 H2      -2.2371     1.0138     0.1539 H     1 <1>   0.0000 
 17 C       -1.1888    -0.8298     0.1491 C.2   1 <1>  -0.2882 
 18 H       -2.1012    -1.4176     0.1806 H     1 <1>   0.1500 
 19 C       -0.0076    -1.4021     0.4059 C.2   1 <1>  -0.1500 
 20 H        0.0313    -2.4566     0.6667 H     1 <1>   0.1500 
 21 C        1.2421    -0.6551     0.3352 C.2   1 <1>  -0.1382 
 22 C        2.4700    -1.5328     0.3250 C.3   1 <1>   0.1382 
 23 H1       3.2561    -1.1328    -0.3224 H     1 <1>   0.0000 
 24 H2       2.2496    -2.5323    -0.0685 H     1 <1>   0.0000 
 25 H3       2.8631    -1.6497     1.3401 H     1 <1>   0.0000 
@<TRIPOS>BOND
  1   1   2  1   
  2   1   5  1   
  3   1  21  2   
  4   2   3  1   
  5   2   4  2   
  6   5   6  1   
  7   5  10  1   
  8   5  14  1   
  9   6   7  1   
 10   6   8  1   
 11   6   9  1   
 12  10  11  1   
 13  10  12  1   
 14  10  13  1   
 15  14  15  1   
 16  14  16  1   
 17  14  17  1   
 18  17  18  1   
 19  17  19  2   
 20  19  20  1   
 21  19  21  1   
 22  21  22  1   
 23  22  23  1   
 24  22  24  1   
 25  22  25  1   
@<TRIPOS>SUBSTRUCTURE
  1 <1>   0 RESIDUE 1 * * 1
# MOE 2007.09 (io_trps.svl 2007.09)
