@<TRIPOS>MOLECULE
J04_02
54 58 1 0 0 
SMALL
USER_CHARGES


@<TRIPOS>ATOM
  1 C        1.1181     0.9714     0.7719 C.3   1 <1>   0.5600 
  2 H        0.7193     1.2642     1.7520 H     1 <1>   0.0000 
  3 O        2.2911     1.7576     0.5044 O.3   1 <1>  -0.3625 
  4 C        2.1818     3.0964     0.2313 C.ar  1 <1>   0.0825 
  5 O        0.0900     1.0726    -0.2193 O.3   1 <1>  -0.5600 
  6 C       -1.1182     0.3665     0.1201 C.3   1 <1>   0.2800 
  7 H1      -1.5485     0.0312    -0.8317 H     1 <1>   0.0000 
  8 C       -2.1159     1.3372     0.7444 C.3   1 <1>   0.0000 
  9 H1      -2.2821     2.1921     0.0801 H     1 <1>   0.0000 
 10 H2      -1.7362     1.7420     1.6885 H     1 <1>   0.0000 
 11 H3      -3.0774     0.8514     0.9360 H     1 <1>   0.0000 
 12 C       -0.8741    -0.8546     1.0228 C.3   1 <1>   0.2800 
 13 O       -1.9263    -1.8072     0.8770 O.3   1 <1>  -0.6800 
 14 H       -1.5743    -2.6354     1.2626 H     1 <1>   0.4000 
 15 H2      -0.8573    -0.5697     2.0823 H     1 <1>   0.0000 
 16 C        0.4569    -1.4930     0.6453 C.3   1 <1>   0.2800 
 17 O        0.6590    -2.6504     1.4660 O.3   1 <1>  -0.6800 
 18 H        1.5155    -3.0301     1.1909 H     1 <1>   0.4000 
 19 H2       0.4057    -1.8652    -0.3861 H     1 <1>   0.0000 
 20 C        1.6086    -0.4978     0.8238 C.3   1 <1>   0.2800 
 21 H1       2.1542    -0.6639     1.7596 H     1 <1>   0.0000 
 22 O        2.5576    -0.7724    -0.2267 O.3   1 <1>  -0.6800 
 23 H        2.9141     0.0996    -0.5050 H     1 <1>   0.4000 
 24 C        3.3406     3.7313    -0.2845 C.ar  1 <1>   0.0000 
 25 C        4.6207     3.0014    -0.4797 C.ar  1 <1>   0.0000 
 26 C        3.2380     5.1040    -0.6047 C.ar  1 <1>   0.0825 
 27 C        2.0718     5.8412    -0.3937 C.ar  1 <1>   0.0284 
 28 C        0.9598     5.2009     0.1455 C.ar  1 <1>  -0.1500 
 29 H        0.0372     5.7474     0.3282 H     1 <1>   0.1500 
 30 C        1.0145     3.8388     0.4551 C.ar  1 <1>  -0.1500 
 31 H        0.1226     3.3831     0.8721 H     1 <1>   0.1500 
 32 O        4.3692     5.7539    -1.1703 O.3   1 <1>  -0.2325 
 33 C        4.3774     7.1161    -1.4754 C.2   1 <1>   0.7056 
 34 O        5.3634     7.6833    -1.9300 O.2   1 <1>  -0.5700 
 35 C        3.1269     7.8482    -1.2318 C.2   1 <1>  -0.1356 
 36 H        3.1312     8.9022    -1.4843 H     1 <1>   0.1500 
 37 C        2.0446     7.2554    -0.7300 C.2   1 <1>  -0.1784 
 38 H        1.1326     7.8186    -0.5604 H     1 <1>   0.1500 
 39 C        4.7353     1.9185    -1.3733 C.ar  1 <1>   0.0825 
 40 O        3.6322     1.4975    -2.0723 O.3   1 <1>  -0.5325 
 41 H        3.9095     0.8863    -2.7756 H     1 <1>   0.4500 
 42 C        5.9464     1.2441    -1.5649 C.ar  1 <1>  -0.1500 
 43 H        6.0177     0.4011    -2.2472 H     1 <1>   0.1500 
 44 C        7.0871     1.6469    -0.8708 C.ar  1 <1>  -0.1500 
 45 H        8.0219     1.1154    -1.0342 H     1 <1>   0.1500 
 46 C        7.0210     2.7205     0.0164 C.ar  1 <1>   0.0284 
 47 C        5.7983     3.3747     0.2061 C.ar  1 <1>   0.0825 
 48 C        8.2000     3.1763     0.7354 C.2   1 <1>  -0.1784 
 49 H        9.1406     2.6561     0.5854 H     1 <1>   0.1500 
 50 C        8.1259     4.2258     1.5520 C.2   1 <1>  -0.1356 
 51 H        8.9945     4.5895     2.0882 H     1 <1>   0.1500 
 52 C        6.8699     4.9531     1.7777 C.2   1 <1>   0.7056 
 53 O        6.8301     5.9273     2.5192 O.2   1 <1>  -0.5700 
 54 O        5.7390     4.4632     1.1197 O.3   1 <1>  -0.2325 
@<TRIPOS>BOND
  1   1   2  1   
  2   1   3  1   
  3   1   5  1   
  4   1  20  1   
  5   3   4  1   
  6   4  24  ar  
  7   4  30  ar  
  8   5   6  1   
  9   6   7  1   
 10   6   8  1   
 11   6  12  1   
 12   8   9  1   
 13   8  10  1   
 14   8  11  1   
 15  12  13  1   
 16  12  15  1   
 17  12  16  1   
 18  13  14  1   
 19  16  17  1   
 20  16  19  1   
 21  16  20  1   
 22  17  18  1   
 23  20  21  1   
 24  20  22  1   
 25  22  23  1   
 26  24  25  1   
 27  24  26  ar  
 28  25  39  ar  
 29  25  47  ar  
 30  26  27  ar  
 31  26  32  1   
 32  27  28  ar  
 33  27  37  1   
 34  28  29  1   
 35  28  30  ar  
 36  30  31  1   
 37  32  33  1   
 38  33  34  2   
 39  33  35  1   
 40  35  36  1   
 41  35  37  2   
 42  37  38  1   
 43  39  40  1   
 44  39  42  ar  
 45  40  41  1   
 46  42  43  1   
 47  42  44  ar  
 48  44  45  1   
 49  44  46  ar  
 50  46  47  ar  
 51  46  48  1   
 52  47  54  1   
 53  48  49  1   
 54  48  50  2   
 55  50  51  1   
 56  50  52  1   
 57  52  53  2   
 58  52  54  1   
@<TRIPOS>SUBSTRUCTURE
  1 <1>   0 RESIDUE 1 * * 1
# MOE 2007.09 (io_trps.svl 2007.09)
