@<TRIPOS>MOLECULE
J06_09
71 74 1 0 0 
SMALL
USER_CHARGES


@<TRIPOS>ATOM
  1 C        4.0259     0.2634     1.2994 C.ar  1 <1>   0.0284 
  2 C        4.1327     1.1787     0.1562 C.2   1 <1>  -0.1784 
  3 H        3.2510     1.7819    -0.0520 H     1 <1>   0.1500 
  4 C        5.2343     1.3155    -0.5891 C.2   1 <1>  -0.1356 
  5 H        6.1440     0.7564    -0.4050 H     1 <1>   0.1500 
  6 C        5.2518     2.2738    -1.7022 C.2   1 <1>   0.7056 
  7 O        6.4815     2.2211    -2.2829 O.3   1 <1>  -0.4300 
  8 C        6.6486     3.0658    -3.4539 C.3   1 <1>   0.2800 
  9 H        5.7786     2.8783    -4.0990 H     1 <1>   0.0000 
 10 O        4.3314     3.0090    -2.0371 O.2   1 <1>  -0.5700 
 11 C        3.2139     0.6314     2.3829 C.ar  1 <1>  -0.1500 
 12 H        2.6945     1.5875     2.3853 H     1 <1>   0.1500 
 13 C        3.0648    -0.2179     3.4820 C.ar  1 <1>  -0.1500 
 14 H        2.4388     0.0801     4.3193 H     1 <1>   0.1500 
 15 C        3.7151    -1.4494     3.5041 C.ar  1 <1>  -0.1500 
 16 H        3.5970    -2.1114     4.3576 H     1 <1>   0.1500 
 17 C        4.5102    -1.8360     2.4274 C.ar  1 <1>  -0.1500 
 18 H        5.0059    -2.8036     2.4419 H     1 <1>   0.1500 
 19 C        4.6619    -0.9860     1.3280 C.ar  1 <1>  -0.1500 
 20 H        5.2746    -1.3209     0.4945 H     1 <1>   0.1500 
 21 C        6.6686     4.5353    -2.9844 C.3   1 <1>   0.2800 
 22 H1       6.6525     4.5598    -1.8857 H     1 <1>   0.0000 
 23 O        5.4658     5.1940    -3.3846 O.3   1 <1>  -0.6800 
 24 H        4.7317     4.6670    -2.9956 H     1 <1>   0.4000 
 25 C        7.9155     5.3190    -3.4010 C.3   1 <1>   0.0000 
 26 H1       7.9684     6.2056    -2.7531 H     1 <1>   0.0000 
 27 C        7.8684     5.8610    -4.8324 C.3   1 <1>   0.0000 
 28 H1       8.7781     6.4233    -5.0660 H     1 <1>   0.0000 
 29 H2       7.0281     6.5531    -4.9540 H     1 <1>   0.0000 
 30 H3       7.7584     5.0807    -5.5867 H     1 <1>   0.0000 
 31 C        9.1169     4.4152    -3.0829 C.3   1 <1>   0.2800 
 32 H1       9.0453     4.0705    -2.0423 H     1 <1>   0.0000 
 33 C       10.4610     5.1375    -3.2439 C.3   1 <1>   0.2800 
 34 O       11.4780     4.4185    -2.5445 O.3   1 <1>  -0.6800 
 35 H       12.3278     4.8212    -2.7939 H     1 <1>   0.4000 
 36 H2      10.4228     6.1454    -2.8198 H     1 <1>   0.0000 
 37 H3      10.7556     5.1913    -4.2970 H     1 <1>   0.0000 
 38 O        9.1509     3.2411    -3.8948 O.3   1 <1>  -0.5600 
 39 C        7.9054     2.6385    -4.2516 C.3   1 <1>   0.4235 
 40 C        8.0412     1.1159    -4.3585 C.ar  1 <1>  -0.1435 
 41 H2       7.7612     3.0033    -5.2742 H     1 <1>   0.0000 
 42 C        7.3111     0.4282    -5.3507 C.ar  1 <1>   0.0825 
 43 O        6.5228     1.2040    -6.1633 O.3   1 <1>  -0.3625 
 44 C        5.7397     0.5518    -7.1556 C.3   1 <1>   0.2800 
 45 H1       5.1712     1.3199    -7.6889 H     1 <1>   0.0000 
 46 H2       5.0207    -0.1378    -6.7014 H     1 <1>   0.0000 
 47 H3       6.3751     0.0415    -7.8867 H     1 <1>   0.0000 
 48 C        7.4107    -0.9632    -5.4529 C.ar  1 <1>  -0.1500 
 49 H        6.8603    -1.5008    -6.2204 H     1 <1>   0.1500 
 50 C        8.2135    -1.7101    -4.5728 C.ar  1 <1>  -0.1435 
 51 C        8.2604    -3.2038    -4.7557 C.3   1 <1>   0.1435 
 52 H1       7.8548    -3.7109    -3.8747 H     1 <1>   0.0000 
 53 H2       9.2857    -3.5354    -4.9475 H     1 <1>   0.0000 
 54 H3       7.6591    -3.5247    -5.6137 H     1 <1>   0.0000 
 55 C        8.9208    -1.0334    -3.5630 C.ar  1 <1>   0.0862 
 56 C        8.8320     0.3646    -3.4584 C.ar  1 <1>   0.0825 
 57 C        9.7605    -1.7441    -2.5797 C.2   1 <1>   0.4694 
 58 O        9.8984    -2.9602    -2.5597 O.2   1 <1>  -0.5700 
 59 C       10.4560    -0.9332    -1.5776 C.2   1 <1>  -0.1356 
 60 H       11.0912    -1.4521    -0.8707 H     1 <1>   0.1500 
 61 C       10.3062     0.3932    -1.5834 C.2   1 <1>  -0.0615 
 62 C       10.9836     1.2825    -0.5802 C.3   1 <1>   0.1992 
 63 H       10.9701     0.8205     0.4139 H     1 <1>   0.0000 
 64 H1      10.4416     2.2324    -0.5071 H     1 <1>   0.0000 
 65 C       12.4377     1.5773    -0.9359 C.2   1 <1>   0.4480 
 66 C       13.0870     2.7037    -0.1719 C.3   1 <1>   0.0610 
 67 H1      14.0174     2.9952    -0.6668 H     1 <1>   0.0000 
 68 H2      13.3036     2.3717     0.8463 H     1 <1>   0.0000 
 69 H3      12.4249     3.5720    -0.1443 H     1 <1>   0.0000 
 70 O       13.0982     0.8919    -1.7180 O.2   1 <1>  -0.5700 
 71 O        9.4869     1.0639    -2.4686 O.3   1 <1>  -0.1592 
@<TRIPOS>BOND
  1   1   2  1   
  2   1  11  ar  
  3   1  19  ar  
  4   2   3  1   
  5   2   4  2   
  6   4   5  1   
  7   4   6  1   
  8   6   7  1   
  9   6  10  2   
 10   7   8  1   
 11   8   9  1   
 12   8  21  1   
 13   8  39  1   
 14  11  12  1   
 15  11  13  ar  
 16  13  14  1   
 17  13  15  ar  
 18  15  16  1   
 19  15  17  ar  
 20  17  18  1   
 21  17  19  ar  
 22  19  20  1   
 23  21  22  1   
 24  21  23  1   
 25  21  25  1   
 26  23  24  1   
 27  25  26  1   
 28  25  27  1   
 29  25  31  1   
 30  27  28  1   
 31  27  29  1   
 32  27  30  1   
 33  31  32  1   
 34  31  33  1   
 35  31  38  1   
 36  33  34  1   
 37  33  36  1   
 38  33  37  1   
 39  34  35  1   
 40  38  39  1   
 41  39  40  1   
 42  39  41  1   
 43  40  42  ar  
 44  40  56  ar  
 45  42  43  1   
 46  42  48  ar  
 47  43  44  1   
 48  44  45  1   
 49  44  46  1   
 50  44  47  1   
 51  48  49  1   
 52  48  50  ar  
 53  50  51  1   
 54  50  55  ar  
 55  51  52  1   
 56  51  53  1   
 57  51  54  1   
 58  55  56  ar  
 59  55  57  1   
 60  56  71  1   
 61  57  58  2   
 62  57  59  1   
 63  59  60  1   
 64  59  61  2   
 65  61  62  1   
 66  61  71  1   
 67  62  63  1   
 68  62  64  1   
 69  62  65  1   
 70  65  66  1   
 71  65  70  2   
 72  66  67  1   
 73  66  68  1   
 74  66  69  1   
@<TRIPOS>SUBSTRUCTURE
  1 <1>   0 RESIDUE 1 * * 1
# MOE 2007.09 (io_trps.svl 2007.09)
