@<TRIPOS>MOLECULE
J06_10
29 31 1 0 0 
SMALL
USER_CHARGES


@<TRIPOS>ATOM
  1 C        1.2541     0.7188    -0.0590 C.ar  1 <1>   0.0862 
  2 C        0.0291     1.3868     0.0795 C.ar  1 <1>   0.0825 
  3 O       -0.0341     2.7513     0.0382 O.3   1 <1>  -0.5325 
  4 H       -0.9579     3.0459     0.0770 H     1 <1>   0.4500 
  5 C       -1.1540     0.6711     0.2938 C.ar  1 <1>  -0.1500 
  6 H       -2.1075     1.1806     0.4047 H     1 <1>   0.1500 
  7 C       -1.1233    -0.7191     0.3754 C.ar  1 <1>  -0.1500 
  8 H       -2.0418    -1.2771     0.5413 H     1 <1>   0.1500 
  9 C        0.0892    -1.3922     0.2553 C.ar  1 <1>  -0.1500 
 10 H        0.1067    -2.4779     0.3314 H     1 <1>   0.1500 
 11 C        1.2731    -0.6723     0.0458 C.ar  1 <1>   0.0862 
 12 C        2.5395    -1.4103    -0.0462 C.2   1 <1>   0.3976 
 13 O        2.5413    -2.6350    -0.1016 O.2   1 <1>  -0.5700 
 14 C        3.8042    -0.6632    -0.0337 C.ar  1 <1>   0.0862 
 15 C        3.8073     0.7271    -0.1381 C.ar  1 <1>   0.0862 
 16 C        2.5208     1.4302    -0.3479 C.2   1 <1>   0.3976 
 17 O        2.5028     2.5603    -0.8192 O.2   1 <1>  -0.5700 
 18 C        5.0038    -1.3760     0.1028 C.ar  1 <1>  -0.1500 
 19 H        4.9840    -2.4621     0.1853 H     1 <1>   0.1500 
 20 C        6.2274    -0.7021     0.1401 C.ar  1 <1>  -0.1435 
 21 C        7.5077    -1.4616     0.3234 C.3   1 <1>   0.1435 
 22 H1       8.3431    -0.9412    -0.1569 H     1 <1>   0.0000 
 23 H2       7.4413    -2.4556    -0.1314 H     1 <1>   0.0000 
 24 H3       7.7268    -1.5741     1.3896 H     1 <1>   0.0000 
 25 C        6.2327     0.6946     0.0708 C.ar  1 <1>  -0.1500 
 26 H        7.1809     1.2237     0.1333 H     1 <1>   0.1500 
 27 C        5.0331     1.4026    -0.0706 C.ar  1 <1>   0.0825 
 28 O        5.0847     2.7681    -0.1081 O.3   1 <1>  -0.5325 
 29 H        6.0070     3.0691    -0.1314 H     1 <1>   0.4500 
@<TRIPOS>BOND
  1   1   2  ar  
  2   1  11  ar  
  3   1  16  1   
  4   2   3  1   
  5   2   5  ar  
  6   3   4  1   
  7   5   6  1   
  8   5   7  ar  
  9   7   8  1   
 10   7   9  ar  
 11   9  10  1   
 12   9  11  ar  
 13  11  12  1   
 14  12  13  2   
 15  12  14  1   
 16  14  15  ar  
 17  14  18  ar  
 18  15  16  1   
 19  15  27  ar  
 20  16  17  2   
 21  18  19  1   
 22  18  20  ar  
 23  20  21  1   
 24  20  25  ar  
 25  21  22  1   
 26  21  23  1   
 27  21  24  1   
 28  25  26  1   
 29  25  27  ar  
 30  27  28  1   
 31  28  29  1   
@<TRIPOS>SUBSTRUCTURE
  1 <1>   0 RESIDUE 1 * * 1
# MOE 2007.09 (io_trps.svl 2007.09)
