@<TRIPOS>MOLECULE
J08_09_S
47 49 1 0 0 
SMALL
USER_CHARGES


@<TRIPOS>ATOM
  1 C        1.0452    -0.1199    -1.4300 C.ar  1 <1>   0.0825 
  2 O        1.9587     0.1050    -2.4271 O.3   1 <1>  -0.3625 
  3 C        0.0260     0.8247    -1.2933 C.ar  1 <1>  -0.1500 
  4 H        0.0182     1.6653    -1.9797 H     1 <1>   0.1500 
  5 C       -0.9511     0.6753    -0.3010 C.ar  1 <1>   0.0825 
  6 O       -1.9887     1.5473    -0.0962 O.3   1 <1>  -0.3625 
  7 C       -2.1586     2.6014    -1.0347 C.3   1 <1>   0.2800 
  8 H1      -3.0619     3.1529    -0.7564 H     1 <1>   0.0000 
  9 H2      -2.3061     2.2118    -2.0475 H     1 <1>   0.0000 
 10 H3      -1.3173     3.3009    -0.9965 H     1 <1>   0.0000 
 11 C       -0.8908    -0.4275     0.5766 C.ar  1 <1>  -0.1435 
 12 C       -1.9317    -0.6384     1.6580 C.3   1 <1>   0.2817 
 13 C       -3.1201    -1.4211     1.1668 C.2   1 <1>  -0.2882 
 14 H       -2.8819    -2.4428     0.8707 H     1 <1>   0.1500 
 15 C       -4.4034    -1.0198     1.0717 C.2   1 <1>  -0.2764 
 16 C       -5.4634    -1.9627     0.5633 C.3   1 <1>   0.1382 
 17 H1      -6.2364    -2.1098     1.3248 H     1 <1>   0.0000 
 18 H2      -5.0584    -2.9475     0.3074 H     1 <1>   0.0000 
 19 H3      -5.9343    -1.5538    -0.3368 H     1 <1>   0.0000 
 20 C       -4.9191     0.3461     1.4312 C.3   1 <1>   0.1382 
 21 H1      -4.1469     1.0276     1.7919 H     1 <1>   0.0000 
 22 H2      -5.6767     0.2659     2.2180 H     1 <1>   0.0000 
 23 H3      -5.3811     0.8144     0.5554 H     1 <1>   0.0000 
 24 H2      -2.2034     0.3235     2.1020 H     1 <1>   0.0000 
 25 H3      -1.4782    -1.1988     2.4866 H     1 <1>   0.0000 
 26 C        0.1462    -1.3672     0.4344 C.ar  1 <1>  -0.1500 
 27 H        0.2043    -2.2196     1.1095 H     1 <1>   0.1500 
 28 C        1.1111    -1.2026    -0.5587 C.ar  1 <1>   0.0862 
 29 C        2.2351    -2.1421    -0.6729 C.2   1 <1>   0.4228 
 30 C        3.2977    -1.7924    -1.6774 C.3   1 <1>   0.0610 
 31 H1       3.7924    -2.7133    -2.0061 H     1 <1>   0.0000 
 32 H2       4.0342    -1.1541    -1.1754 H     1 <1>   0.0000 
 33 C        2.6357    -1.0885    -2.8560 C.3   1 <1>   0.4235 
 34 H        3.4300    -0.8460    -3.5774 H     1 <1>   0.0000 
 35 C        1.6613    -2.0437    -3.5206 C.ar  1 <1>  -0.1435 
 36 O        2.3154    -3.1237     0.0582 O.2   1 <1>  -0.5700 
 37 C        1.5360    -2.0560    -4.9199 C.ar  1 <1>  -0.1500 
 38 H        2.1472    -1.3974    -5.5339 H     1 <1>   0.1500 
 39 C        0.6256    -2.9105    -5.5482 C.ar  1 <1>  -0.1500 
 40 H        0.5513    -2.9013    -6.6312 H     1 <1>   0.1500 
 41 C       -0.1673    -3.7542    -4.7764 C.ar  1 <1>   0.0825 
 42 O       -1.0698    -4.6033    -5.3491 O.3   1 <1>  -0.5325 
 43 H       -1.0473    -4.4735    -6.3113 H     1 <1>   0.4500 
 44 C       -0.0637    -3.7545    -3.3903 C.ar  1 <1>  -0.1500 
 45 H       -0.6890    -4.4163    -2.7982 H     1 <1>   0.1500 
 46 C        0.8451    -2.8997    -2.7631 C.ar  1 <1>  -0.1500 
 47 H        0.9144    -2.9073    -1.6773 H     1 <1>   0.1500 
@<TRIPOS>BOND
  1   1   2  1   
  2   1   3  ar  
  3   1  28  ar  
  4   2  33  1   
  5   3   4  1   
  6   3   5  ar  
  7   5   6  1   
  8   5  11  ar  
  9   6   7  1   
 10   7   8  1   
 11   7   9  1   
 12   7  10  1   
 13  11  12  1   
 14  11  26  ar  
 15  12  13  1   
 16  12  24  1   
 17  12  25  1   
 18  13  14  1   
 19  13  15  2   
 20  15  16  1   
 21  15  20  1   
 22  16  17  1   
 23  16  18  1   
 24  16  19  1   
 25  20  21  1   
 26  20  22  1   
 27  20  23  1   
 28  26  27  1   
 29  26  28  ar  
 30  28  29  1   
 31  29  30  1   
 32  29  36  2   
 33  30  31  1   
 34  30  32  1   
 35  30  33  1   
 36  33  34  1   
 37  33  35  1   
 38  35  37  ar  
 39  35  46  ar  
 40  37  38  1   
 41  37  39  ar  
 42  39  40  1   
 43  39  41  ar  
 44  41  42  1   
 45  41  44  ar  
 46  42  43  1   
 47  44  45  1   
 48  44  46  ar  
 49  46  47  1   
@<TRIPOS>SUBSTRUCTURE
  1 <1>   0 RESIDUE 1 * * 1
# MOE 2007.09 (io_trps.svl 2007.09)
