@<TRIPOS>MOLECULE
J08_02
52 54 1 0 0 
SMALL
USER_CHARGES


@<TRIPOS>ATOM
  1 C        1.2564     0.7168    -1.0991 C.3   1 <1>   0.1382 
  2 C        1.0218     0.2370    -2.5534 C.3   1 <1>   0.0000 
  3 H1       1.6004    -0.6541    -2.8083 H     1 <1>   0.0000 
  4 H2       1.2917     1.0216    -3.2720 H     1 <1>   0.0000 
  5 H3      -0.0219     0.0016    -2.7672 H     1 <1>   0.0000 
  6 C        0.0324     1.5939    -0.6922 C.3   1 <1>   0.0000 
  7 H1      -0.1543     2.3644    -1.4518 H     1 <1>   0.0000 
  8 H2       0.2506     2.1217     0.2464 H     1 <1>   0.0000 
  9 C       -1.2607     0.8078    -0.4796 C.3   1 <1>   0.0000 
 10 H1      -1.6284     0.3868    -1.4200 H     1 <1>   0.0000 
 11 H2      -2.0415     1.4984    -0.1376 H     1 <1>   0.0000 
 12 C       -1.0858    -0.2902     0.5591 C.3   1 <1>   0.0000 
 13 H1      -2.0283    -0.8445     0.6558 H     1 <1>   0.0000 
 14 H2      -0.9173     0.1908     1.5327 H     1 <1>   0.0000 
 15 C        0.0822    -1.2629     0.2622 C.3   1 <1>   0.0000 
 16 C       -0.3108    -2.2397    -0.8621 C.3   1 <1>   0.0000 
 17 H1      -0.6147    -1.7387    -1.7801 H     1 <1>   0.0000 
 18 H2      -1.1640    -2.8576    -0.5558 H     1 <1>   0.0000 
 19 H3       0.5063    -2.9259    -1.1063 H     1 <1>   0.0000 
 20 C        0.2736    -2.1226     1.5403 C.3   1 <1>   0.0000 
 21 H1       0.9728    -2.9492     1.3796 H     1 <1>   0.0000 
 22 H2      -0.6760    -2.5692     1.8593 H     1 <1>   0.0000 
 23 H3       0.6481    -1.5193     2.3748 H     1 <1>   0.0000 
 24 C        1.3881    -0.4371    -0.0323 C.3   1 <1>   0.0000 
 25 H        1.5978     0.0830     0.9189 H     1 <1>   0.0000 
 26 C        2.6361    -1.3106    -0.2861 C.3   1 <1>   0.0000 
 27 H1       2.5617    -1.8447    -1.2385 H     1 <1>   0.0000 
 28 H2       2.7401    -2.0765     0.4886 H     1 <1>   0.0000 
 29 C        3.9132    -0.4664    -0.2602 C.3   1 <1>   0.0000 
 30 H1       4.7575    -1.1319    -0.4853 H     1 <1>   0.0000 
 31 H2       4.0668    -0.0907     0.7610 H     1 <1>   0.0000 
 32 C        3.8759     0.6997    -1.2555 C.3   1 <1>   0.5564 
 33 O        3.9283     0.1613    -2.5742 O.3   1 <1>  -0.6800 
 34 H        3.8271     0.9074    -3.1896 H     1 <1>   0.4000 
 35 C        2.5992     1.5163    -1.0924 C.2   1 <1>  -0.2764 
 36 C        5.1359     1.5110    -1.1165 C.2   1 <1>  -0.2882 
 37 H        6.0611     0.9426    -1.2003 H     1 <1>   0.1500 
 38 C        5.2059     2.8381    -0.9271 C.2   1 <1>  -0.1238 
 39 C        6.5304     3.5660    -0.8107 C.3   1 <1>   0.1382 
 40 C        6.7101     4.2401     0.5520 C.3   1 <1>   0.0000 
 41 H1       7.7299     4.6277     0.6540 H     1 <1>   0.0000 
 42 H2       6.5430     3.5280     1.3677 H     1 <1>   0.0000 
 43 H3       6.0253     5.0823     0.6918 H     1 <1>   0.0000 
 44 C        6.7576     4.5571    -1.9552 C.3   1 <1>   0.0000 
 45 H1       6.6223     4.0717    -2.9280 H     1 <1>   0.0000 
 46 H2       7.7793     4.9514    -1.9206 H     1 <1>   0.0000 
 47 H3       6.0762     5.4121    -1.9053 H     1 <1>   0.0000 
 48 H3       7.3360     2.8220    -0.8893 H     1 <1>   0.0000 
 49 C        3.9327     3.5975    -0.8440 C.2   1 <1>   0.5412 
 50 O        3.8990     4.8139    -0.7123 O.2   1 <1>  -0.5700 
 51 C        2.6640     2.8467    -0.9147 C.2   1 <1>  -0.1356 
 52 H        1.7884     3.4732    -0.8000 H     1 <1>   0.1500 
@<TRIPOS>BOND
  1   1   2  1   
  2   1   6  1   
  3   1  24  1   
  4   1  35  1   
  5   2   3  1   
  6   2   4  1   
  7   2   5  1   
  8   6   7  1   
  9   6   8  1   
 10   6   9  1   
 11   9  10  1   
 12   9  11  1   
 13   9  12  1   
 14  12  13  1   
 15  12  14  1   
 16  12  15  1   
 17  15  16  1   
 18  15  20  1   
 19  15  24  1   
 20  16  17  1   
 21  16  18  1   
 22  16  19  1   
 23  20  21  1   
 24  20  22  1   
 25  20  23  1   
 26  24  25  1   
 27  24  26  1   
 28  26  27  1   
 29  26  28  1   
 30  26  29  1   
 31  29  30  1   
 32  29  31  1   
 33  29  32  1   
 34  32  33  1   
 35  32  35  1   
 36  32  36  1   
 37  33  34  1   
 38  35  51  2   
 39  36  37  1   
 40  36  38  2   
 41  38  39  1   
 42  38  49  1   
 43  39  40  1   
 44  39  44  1   
 45  39  48  1   
 46  40  41  1   
 47  40  42  1   
 48  40  43  1   
 49  44  45  1   
 50  44  46  1   
 51  44  47  1   
 52  49  50  2   
 53  49  51  1   
 54  51  52  1   
@<TRIPOS>SUBSTRUCTURE
  1 <1>   0 RESIDUE 1 * * 1
# MOE 2007.09 (io_trps.svl 2007.09)
