@<TRIPOS>MOLECULE
J08_38
36 38 1 0 0 
SMALL
USER_CHARGES


@<TRIPOS>ATOM
  1 C        1.3153     0.5847    -0.0745 C.ar  1 <1>   0.0825 
  2 C        0.3249     1.4391    -0.5588 C.ar  1 <1>  -0.1500 
  3 H        0.4625     2.5162    -0.5203 H     1 <1>   0.1500 
  4 C       -0.8350     0.9061    -1.1050 C.ar  1 <1>   0.0825 
  5 O       -1.7705     1.7801    -1.5749 O.3   1 <1>  -0.5325 
  6 H       -2.5293     1.2832    -1.9224 H     1 <1>   0.4500 
  7 C       -1.0251    -0.4711    -1.1694 C.ar  1 <1>  -0.1500 
  8 H       -1.9340    -0.8761    -1.6024 H     1 <1>   0.1500 
  9 C       -0.0383    -1.3249    -0.6635 C.ar  1 <1>   0.0825 
 10 O       -0.2422    -2.6740    -0.7223 O.3   1 <1>  -0.5325 
 11 H       -1.1017    -2.8704    -1.1273 H     1 <1>   0.4500 
 12 C        1.1337    -0.8040    -0.1027 C.ar  1 <1>   0.0862 
 13 C        2.1855    -1.6482     0.5035 C.2   1 <1>   0.4228 
 14 O        2.1446    -2.8752     0.5031 O.2   1 <1>  -0.5700 
 15 C        3.3113    -0.9210     1.1903 C.3   1 <1>   0.0610 
 16 H1       4.1969    -1.5665     1.1982 H     1 <1>   0.0000 
 17 H2       3.0052    -0.7284     2.2253 H     1 <1>   0.0000 
 18 C        3.5898     0.3606     0.4230 C.3   1 <1>   0.4235 
 19 H        3.8325     0.1447    -0.6282 H     1 <1>   0.0000 
 20 C        4.7535     1.1164     1.0349 C.ar  1 <1>  -0.1435 
 21 O        2.4294     1.2023     0.4319 O.3   1 <1>  -0.3625 
 22 C        6.0478     0.9469     0.5200 C.ar  1 <1>  -0.1500 
 23 H        6.1981     0.2772    -0.3236 H     1 <1>   0.1500 
 24 C        7.1402     1.6283     1.0779 C.ar  1 <1>   0.0825 
 25 O        8.3761     1.4203     0.5296 O.3   1 <1>  -0.5325 
 26 H        8.3028     0.7841    -0.2004 H     1 <1>   0.4500 
 27 C        6.9599     2.4904     2.1643 C.ar  1 <1>   0.0825 
 28 O        7.8954     3.2360     2.8305 O.3   1 <1>  -0.3625 
 29 C        9.2436     3.1834     2.3886 C.3   1 <1>   0.2800 
 30 H1       9.8263     3.8525     3.0298 H     1 <1>   0.0000 
 31 H2       9.3417     3.5529     1.3630 H     1 <1>   0.0000 
 32 H3       9.6614     2.1788     2.5068 H     1 <1>   0.0000 
 33 C        5.6680     2.6471     2.6820 C.ar  1 <1>  -0.1500 
 34 H        5.5048     3.3105     3.5282 H     1 <1>   0.1500 
 35 C        4.5781     1.9685     2.1309 C.ar  1 <1>  -0.1500 
 36 H        3.5905     2.1181     2.5625 H     1 <1>   0.1500 
@<TRIPOS>BOND
  1   1   2  ar  
  2   1  12  ar  
  3   1  21  1   
  4   2   3  1   
  5   2   4  ar  
  6   4   5  1   
  7   4   7  ar  
  8   5   6  1   
  9   7   8  1   
 10   7   9  ar  
 11   9  10  1   
 12   9  12  ar  
 13  10  11  1   
 14  12  13  1   
 15  13  14  2   
 16  13  15  1   
 17  15  16  1   
 18  15  17  1   
 19  15  18  1   
 20  18  19  1   
 21  18  20  1   
 22  18  21  1   
 23  20  22  ar  
 24  20  35  ar  
 25  22  23  1   
 26  22  24  ar  
 27  24  25  1   
 28  24  27  ar  
 29  25  26  1   
 30  27  28  1   
 31  27  33  ar  
 32  28  29  1   
 33  29  30  1   
 34  29  31  1   
 35  29  32  1   
 36  33  34  1   
 37  33  35  ar  
 38  35  36  1   
@<TRIPOS>SUBSTRUCTURE
  1 <1>   0 RESIDUE 1 * * 1
# MOE 2007.09 (io_trps.svl 2007.09)
