@<TRIPOS>MOLECULE
J08_13
41 44 1 0 0 
SMALL
USER_CHARGES


@<TRIPOS>ATOM
  1 C        1.1480     0.4413    -0.2865 C.ar  1 <1>   0.0825 
  2 C       -0.1033     1.0386    -0.3378 C.ar  1 <1>  -0.1500 
  3 H       -0.2046     2.1142    -0.4404 H     1 <1>   0.1500 
  4 C       -1.2338     0.2270    -0.2439 C.ar  1 <1>   0.0825 
  5 O       -2.4372     0.8760    -0.2795 O.3   1 <1>  -0.5325 
  6 C       -1.1286    -1.1729    -0.1201 C.ar  1 <1>  -0.1435 
  7 C       -2.3401    -2.0795    -0.0533 C.3   1 <1>   0.2817 
  8 H1      -2.0340    -3.1198    -0.2226 H     1 <1>   0.0000 
  9 H2      -2.9976    -1.8323    -0.8917 H     1 <1>   0.0000 
 10 C       -3.0307    -2.0130     1.2817 C.2   1 <1>  -0.2882 
 11 H       -2.3710    -2.2053     2.1293 H     1 <1>   0.1500 
 12 C       -4.3284    -1.7567     1.5386 C.2   1 <1>  -0.2764 
 13 C       -4.8312    -1.7246     2.9599 C.3   1 <1>   0.1382 
 14 H1      -5.2612    -0.7434     3.1868 H     1 <1>   0.0000 
 15 H2      -4.0362    -1.9144     3.6888 H     1 <1>   0.0000 
 16 H3      -5.6042    -2.4862     3.1061 H     1 <1>   0.0000 
 17 C       -5.3935    -1.4988     0.5085 C.3   1 <1>   0.1382 
 18 H1      -5.0354    -1.5726    -0.5199 H     1 <1>   0.0000 
 19 H2      -5.8077    -0.4938     0.6414 H     1 <1>   0.0000 
 20 H3      -6.2069    -2.2238     0.6194 H     1 <1>   0.0000 
 21 C        0.1558    -1.7509    -0.0642 C.ar  1 <1>  -0.1500 
 22 H        0.2679    -2.8286     0.0389 H     1 <1>   0.1500 
 23 C        1.2894    -0.9457    -0.1463 C.ar  1 <1>   0.0530 
 24 C        2.6449    -1.4124    -0.1028 C.2   1 <1>   0.0870 
 25 C        3.7633    -0.6247    -0.1877 C.2   1 <1>  -0.0860 
 26 C        3.6338     0.8064    -0.3352 C.2   1 <1>   0.8060 
 27 O        4.5922     1.5660    -0.4193 O.2   1 <1>  -0.5700 
 28 O        2.2971     1.2888    -0.3776 O.3   1 <1>  -0.2325 
 29 H       -3.1279     0.2811     0.0551 H     1 <1>   0.4500 
 30 O        2.9487    -2.7216     0.0324 O.3   1 <1>  -0.2800 
 31 C        4.3160    -2.7847     0.0346 C.ar  1 <1>   0.1400 
 32 C        4.8678    -1.5078    -0.0998 C.ar  1 <1>   0.0000 
 33 C        5.0697    -3.9498     0.1532 C.ar  1 <1>  -0.1500 
 34 H        4.6042    -4.9217     0.2558 H     1 <1>   0.1500 
 35 C        6.4555    -3.7898     0.1321 C.ar  1 <1>   0.0825 
 36 O        7.2144    -4.9218     0.2471 O.3   1 <1>  -0.5325 
 37 H        8.1536    -4.6754     0.2184 H     1 <1>   0.4500 
 38 C        7.0550    -2.5363    -0.0000 C.ar  1 <1>  -0.1500 
 39 H        8.1366    -2.4329    -0.0143 H     1 <1>   0.1500 
 40 C        6.2690    -1.3806    -0.1175 C.ar  1 <1>  -0.1500 
 41 H        6.7365    -0.4046    -0.2204 H     1 <1>   0.1500 
@<TRIPOS>BOND
  1   1   2  ar  
  2   1  23  ar  
  3   1  28  1   
  4   2   3  1   
  5   2   4  ar  
  6   4   5  1   
  7   4   6  ar  
  8   5  29  1   
  9   6   7  1   
 10   6  21  ar  
 11   7   8  1   
 12   7   9  1   
 13   7  10  1   
 14  10  11  1   
 15  10  12  2   
 16  12  13  1   
 17  12  17  1   
 18  13  14  1   
 19  13  15  1   
 20  13  16  1   
 21  17  18  1   
 22  17  19  1   
 23  17  20  1   
 24  21  22  1   
 25  21  23  ar  
 26  23  24  1   
 27  24  25  2   
 28  24  30  1   
 29  25  26  1   
 30  25  32  1   
 31  26  27  2   
 32  26  28  1   
 33  30  31  1   
 34  31  32  ar  
 35  31  33  ar  
 36  32  40  ar  
 37  33  34  1   
 38  33  35  ar  
 39  35  36  1   
 40  35  38  ar  
 41  36  37  1   
 42  38  39  1   
 43  38  40  ar  
 44  40  41  1   
@<TRIPOS>SUBSTRUCTURE
  1 <1>   0 RESIDUE 1 * * 1
# MOE 2007.09 (io_trps.svl 2007.09)
