@<TRIPOS>MOLECULE
J08_04
58 60 1 0 0 
SMALL
USER_CHARGES


@<TRIPOS>ATOM
  1 C        1.3079     0.6742    -0.8964 C.3   1 <1>   0.1435 
  2 C        0.9648     0.5485    -2.4023 C.3   1 <1>   0.0000 
  3 H1       1.6957    -0.0548    -2.9512 H     1 <1>   0.0000 
  4 H2       0.9476     1.5359    -2.8820 H     1 <1>   0.0000 
  5 H3      -0.0182     0.1147    -2.5830 H     1 <1>   0.0000 
  6 C        0.1291     1.3656    -0.1657 C.3   1 <1>   0.0000 
  7 H1      -0.1833     2.2708    -0.7014 H     1 <1>   0.0000 
  8 H2       0.4537     1.6935     0.8316 H     1 <1>   0.0000 
  9 C       -1.0994     0.4740    -0.0005 C.3   1 <1>   0.0000 
 10 H1      -1.5597     0.2724    -0.9739 H     1 <1>   0.0000 
 11 H2      -1.8577     1.0275     0.5693 H     1 <1>   0.0000 
 12 C       -0.7686    -0.8302     0.7307 C.3   1 <1>   0.0610 
 13 C       -2.0708    -1.6046     0.9527 C.2   1 <1>   0.4480 
 14 C       -2.4442    -1.9164     2.3799 C.3   1 <1>   0.0610 
 15 H1      -3.3417    -2.5410     2.3970 H     1 <1>   0.0000 
 16 H2      -2.6486    -0.9850     2.9136 H     1 <1>   0.0000 
 17 H3      -1.6330    -2.4597     2.8694 H     1 <1>   0.0000 
 18 O       -2.8066    -1.9331     0.0223 O.2   1 <1>  -0.5700 
 19 H2      -0.4098    -0.5406     1.7298 H     1 <1>   0.0000 
 20 C        0.3652    -1.6597     0.0443 C.3   1 <1>   0.0000 
 21 C       -0.1061    -2.3436    -1.2567 C.3   1 <1>   0.0000 
 22 H1      -0.7024    -1.6867    -1.8902 H     1 <1>   0.0000 
 23 H2      -0.7382    -3.2130    -1.0398 H     1 <1>   0.0000 
 24 H3       0.7336    -2.7146    -1.8525 H     1 <1>   0.0000 
 25 C        0.7803    -2.7984     1.0196 C.3   1 <1>   0.0000 
 26 H1       1.5627    -3.4370     0.5981 H     1 <1>   0.0000 
 27 H2      -0.0640    -3.4569     1.2512 H     1 <1>   0.0000 
 28 H3       1.1531    -2.3940     1.9674 H     1 <1>   0.0000 
 29 C        1.6002    -0.7006    -0.1767 C.3   1 <1>   0.1382 
 30 H        1.9044    -0.4316     0.8515 H     1 <1>   0.0000 
 31 C        2.8458    -1.3479    -0.7554 C.2   1 <1>  -0.2882 
 32 H        2.9104    -2.4270    -0.8464 H     1 <1>   0.1500 
 33 C        3.9028    -0.6058    -1.1141 C.2   1 <1>  -0.1784 
 34 H        4.8079    -1.0659    -1.4965 H     1 <1>   0.1500 
 35 C        3.8520     0.8531    -0.9695 C.ar  1 <1>   0.0284 
 36 C        2.6111     1.5110    -0.8452 C.ar  1 <1>  -0.1435 
 37 C        5.0476     1.5900    -0.9704 C.ar  1 <1>  -0.1500 
 38 H        5.9922     1.0547    -1.0662 H     1 <1>   0.1500 
 39 C        5.0629     2.9940    -0.8332 C.ar  1 <1>  -0.1435 
 40 C        6.4287     3.6680    -0.8133 C.3   1 <1>   0.1435 
 41 C        6.6086     4.7720     0.2311 C.3   1 <1>   0.0000 
 42 H1       7.6734     5.0003     0.3563 H     1 <1>   0.0000 
 43 H2       6.2181     4.4647     1.2071 H     1 <1>   0.0000 
 44 H3       6.1233     5.7071    -0.0605 H     1 <1>   0.0000 
 45 C        6.8343     4.1539    -2.2063 C.3   1 <1>   0.0000 
 46 H1       6.7783     3.3421    -2.9401 H     1 <1>   0.0000 
 47 H2       7.8649     4.5254    -2.1994 H     1 <1>   0.0000 
 48 H3       6.1935     4.9653    -2.5605 H     1 <1>   0.0000 
 49 H3       7.1595     2.8972    -0.5281 H     1 <1>   0.0000 
 50 C        3.8188     3.6327    -0.7388 C.ar  1 <1>   0.0862 
 51 C        3.6549     5.0886    -0.6340 C.2   1 <1>   0.4228 
 52 O        3.4766     5.5916     0.4699 O.2   1 <1>  -0.5700 
 53 C        3.6328     5.8797    -1.9110 C.3   1 <1>   0.0610 
 54 H1       4.4331     6.6237    -1.8904 H     1 <1>   0.0000 
 55 H2       2.6638     6.3773    -2.0051 H     1 <1>   0.0000 
 56 H3       3.7716     5.2339    -2.7825 H     1 <1>   0.0000 
 57 C        2.6132     2.9079    -0.7405 C.ar  1 <1>  -0.1500 
 58 H        1.6781     3.4575    -0.6654 H     1 <1>   0.1500 
@<TRIPOS>BOND
  1   1   2  1   
  2   1   6  1   
  3   1  29  1   
  4   1  36  1   
  5   2   3  1   
  6   2   4  1   
  7   2   5  1   
  8   6   7  1   
  9   6   8  1   
 10   6   9  1   
 11   9  10  1   
 12   9  11  1   
 13   9  12  1   
 14  12  13  1   
 15  12  19  1   
 16  12  20  1   
 17  13  14  1   
 18  13  18  2   
 19  14  15  1   
 20  14  16  1   
 21  14  17  1   
 22  20  21  1   
 23  20  25  1   
 24  20  29  1   
 25  21  22  1   
 26  21  23  1   
 27  21  24  1   
 28  25  26  1   
 29  25  27  1   
 30  25  28  1   
 31  29  30  1   
 32  29  31  1   
 33  31  32  1   
 34  31  33  2   
 35  33  34  1   
 36  33  35  1   
 37  35  36  ar  
 38  35  37  ar  
 39  36  57  ar  
 40  37  38  1   
 41  37  39  ar  
 42  39  40  1   
 43  39  50  ar  
 44  40  41  1   
 45  40  45  1   
 46  40  49  1   
 47  41  42  1   
 48  41  43  1   
 49  41  44  1   
 50  45  46  1   
 51  45  47  1   
 52  45  48  1   
 53  50  51  1   
 54  50  57  ar  
 55  51  52  2   
 56  51  53  1   
 57  53  54  1   
 58  53  55  1   
 59  53  56  1   
 60  57  58  1   
@<TRIPOS>SUBSTRUCTURE
  1 <1>   0 RESIDUE 1 * * 1
# MOE 2007.09 (io_trps.svl 2007.09)
