@<TRIPOS>MOLECULE
J08_03
56 58 1 0 0 
SMALL
USER_CHARGES


@<TRIPOS>ATOM
  1 C        1.2664     0.7667    -0.8210 C.3   1 <1>   0.1435 
  2 C        0.8817     0.5900    -2.3108 C.3   1 <1>   0.0000 
  3 H1       1.6655     0.0911    -2.8898 H     1 <1>   0.0000 
  4 H2       0.7185     1.5551    -2.8023 H     1 <1>   0.0000 
  5 H3      -0.0415     0.0316    -2.4507 H     1 <1>   0.0000 
  6 C        0.1203     1.5120    -0.0748 C.3   1 <1>   0.0000 
  7 H1      -0.2135     2.3965    -0.6225 H     1 <1>   0.0000 
  8 H2       0.4880     1.8681     0.8972 H     1 <1>   0.0000 
  9 C       -1.1373     0.6760     0.1512 C.3   1 <1>   0.0000 
 10 H1      -1.6105     0.4286    -0.8048 H     1 <1>   0.0000 
 11 H2      -1.8687     1.2792     0.7031 H     1 <1>   0.0000 
 12 C       -0.8429    -0.5839     0.9439 C.3   1 <1>   0.0000 
 13 H1      -1.7735    -1.1493     1.0811 H     1 <1>   0.0000 
 14 H2      -0.5181    -0.2852     1.9502 H     1 <1>   0.0000 
 15 C        0.2383    -1.4755     0.2959 C.3   1 <1>   0.0000 
 16 C       -0.3554    -2.2486    -0.8976 C.3   1 <1>   0.0000 
 17 H1      -0.8487    -1.6052    -1.6247 H     1 <1>   0.0000 
 18 H2      -1.1226    -2.9548    -0.5558 H     1 <1>   0.0000 
 19 H3       0.4045    -2.8367    -1.4213 H     1 <1>   0.0000 
 20 C        0.6196    -2.5442     1.3579 C.3   1 <1>   0.0000 
 21 H1       1.2761    -3.3179     0.9482 H     1 <1>   0.0000 
 22 H2      -0.2731    -3.0550     1.7389 H     1 <1>   0.0000 
 23 H3       1.1271    -2.0911     2.2169 H     1 <1>   0.0000 
 24 C        1.4985    -0.6011    -0.0514 C.3   1 <1>   0.0000 
 25 H        1.8910    -0.3060     0.9377 H     1 <1>   0.0000 
 26 C        2.6218    -1.3895    -0.7322 C.3   1 <1>   0.0000 
 27 H1       2.3921    -1.5948    -1.7835 H     1 <1>   0.0000 
 28 H2       2.7624    -2.3796    -0.2860 H     1 <1>   0.0000 
 29 C        3.9395    -0.6392    -0.6002 C.3   1 <1>   0.4235 
 30 O        4.8350    -1.1651    -1.5804 O.3   1 <1>  -0.6800 
 31 H        4.7599    -0.6073    -2.3738 H     1 <1>   0.4000 
 32 H2       4.3650    -0.8660     0.3860 H     1 <1>   0.0000 
 33 C        3.8382     0.8684    -0.7187 C.ar  1 <1>  -0.1435 
 34 C        2.6109     1.5665    -0.8339 C.ar  1 <1>  -0.1435 
 35 C        5.0591     1.5778    -0.6392 C.ar  1 <1>  -0.1500 
 36 H        5.9795     1.0070    -0.5038 H     1 <1>   0.1500 
 37 C        5.1293     2.9744    -0.7102 C.ar  1 <1>  -0.1435 
 38 C        6.4935     3.6351    -0.5766 C.3   1 <1>   0.1435 
 39 C        6.5751     4.5935     0.6151 C.3   1 <1>   0.0000 
 40 H1       7.6079     4.9274     0.7652 H     1 <1>   0.0000 
 41 H2       6.2460     4.1013     1.5371 H     1 <1>   0.0000 
 42 H3       5.9622     5.4889     0.4762 H     1 <1>   0.0000 
 43 C        6.9474     4.3124    -1.8717 C.3   1 <1>   0.0000 
 44 H1       6.8818     3.6225    -2.7203 H     1 <1>   0.0000 
 45 H2       7.9898     4.6389    -1.7862 H     1 <1>   0.0000 
 46 H3       6.3496     5.1961    -2.1111 H     1 <1>   0.0000 
 47 H3       7.2302     2.8451    -0.3738 H     1 <1>   0.0000 
 48 C        3.9320     3.6665    -0.9170 C.ar  1 <1>   0.0825 
 49 O        3.9980     5.0370    -1.0025 O.3   1 <1>  -0.3625 
 50 C        3.4845     5.5513    -2.2304 C.3   1 <1>   0.2800 
 51 H1       4.0812     6.4288    -2.4983 H     1 <1>   0.0000 
 52 H2       2.4515     5.8852    -2.0970 H     1 <1>   0.0000 
 53 H3       3.5546     4.8345    -3.0570 H     1 <1>   0.0000 
 54 C        2.6997     2.9738    -0.9718 C.ar  1 <1>   0.0825 
 55 O        1.5842     3.7456    -1.1640 O.3   1 <1>  -0.5325 
 56 H        1.0646     3.3329    -1.8709 H     1 <1>   0.4500 
@<TRIPOS>BOND
  1   1   2  1   
  2   1   6  1   
  3   1  24  1   
  4   1  34  1   
  5   2   3  1   
  6   2   4  1   
  7   2   5  1   
  8   6   7  1   
  9   6   8  1   
 10   6   9  1   
 11   9  10  1   
 12   9  11  1   
 13   9  12  1   
 14  12  13  1   
 15  12  14  1   
 16  12  15  1   
 17  15  16  1   
 18  15  20  1   
 19  15  24  1   
 20  16  17  1   
 21  16  18  1   
 22  16  19  1   
 23  20  21  1   
 24  20  22  1   
 25  20  23  1   
 26  24  25  1   
 27  24  26  1   
 28  26  27  1   
 29  26  28  1   
 30  26  29  1   
 31  29  30  1   
 32  29  32  1   
 33  29  33  1   
 34  30  31  1   
 35  33  34  ar  
 36  33  35  ar  
 37  34  54  ar  
 38  35  36  1   
 39  35  37  ar  
 40  37  38  1   
 41  37  48  ar  
 42  38  39  1   
 43  38  43  1   
 44  38  47  1   
 45  39  40  1   
 46  39  41  1   
 47  39  42  1   
 48  43  44  1   
 49  43  45  1   
 50  43  46  1   
 51  48  49  1   
 52  48  54  ar  
 53  49  50  1   
 54  50  51  1   
 55  50  52  1   
 56  50  53  1   
 57  54  55  1   
 58  55  56  1   
@<TRIPOS>SUBSTRUCTURE
  1 <1>   0 RESIDUE 1 * * 1
# MOE 2007.09 (io_trps.svl 2007.09)
