@<TRIPOS>MOLECULE
J08_58
41 44 1 0 0 
SMALL
USER_CHARGES


@<TRIPOS>ATOM
  1 C        1.3302     0.6549    -0.1940 C.ar  1 <1>  -0.1435 
  2 C        0.0056     1.3600     0.0320 C.3   1 <1>   0.1435 
  3 H1      -0.0514     2.2558    -0.5971 H     1 <1>   0.0000 
  4 H2      -0.0419     1.6672     1.0842 H     1 <1>   0.0000 
  5 C       -1.2263     0.5236    -0.2831 C.3   1 <1>   0.0000 
  6 H1      -1.3612     0.4353    -1.3667 H     1 <1>   0.0000 
  7 H2      -2.1183     1.0310     0.1025 H     1 <1>   0.0000 
  8 C       -1.0884    -0.8438     0.3574 C.3   1 <1>   0.0000 
  9 H1      -2.0283    -1.3976     0.2471 H     1 <1>   0.0000 
 10 H2      -0.9430    -0.7086     1.4386 H     1 <1>   0.0000 
 11 C        0.0995    -1.6368    -0.2442 C.3   1 <1>   0.1435 
 12 C       -0.2563    -2.1677    -1.6629 C.3   1 <1>   0.2800 
 13 H1      -0.3982    -1.3467    -2.3739 H     1 <1>   0.0000 
 14 O       -1.4472    -2.9504    -1.6466 O.3   1 <1>  -0.6800 
 15 H       -1.5807    -3.2873    -2.5495 H     1 <1>   0.4000 
 16 H3       0.5479    -2.8010    -2.0554 H     1 <1>   0.0000 
 17 C        0.3243    -2.8459     0.6999 C.3   1 <1>   0.0000 
 18 H1       1.0395    -3.5667     0.2897 H     1 <1>   0.0000 
 19 H2      -0.6098    -3.3922     0.8760 H     1 <1>   0.0000 
 20 H3       0.7064    -2.5208     1.6750 H     1 <1>   0.0000 
 21 C        1.3700    -0.7605    -0.3395 C.ar  1 <1>  -0.1435 
 22 C        2.6097    -1.3814    -0.5990 C.ar  1 <1>  -0.1500 
 23 H        2.6711    -2.4586    -0.7453 H     1 <1>   0.1500 
 24 C        3.7894    -0.6480    -0.6804 C.ar  1 <1>  -0.1500 
 25 H        4.7289    -1.1615    -0.8818 H     1 <1>   0.1500 
 26 C        3.7532     0.7294    -0.4930 C.ar  1 <1>   0.0862 
 27 C        2.5441     1.3956    -0.2351 C.ar  1 <1>   0.0862 
 28 C        5.0245     1.4354    -0.5861 C.2   1 <1>   0.8494 
 29 C        5.0156     2.8929    -0.5103 C.2   1 <1>   0.0288 
 30 C        3.8123     3.6616    -0.3278 C.2   1 <1>   0.5556 
 31 O        3.7596     4.8762    -0.4517 O.2   1 <1>  -0.5700 
 32 C        2.5844     2.8612     0.0404 C.2   1 <1>   0.4838 
 33 O        1.6829     3.4523     0.6180 O.2   1 <1>  -0.5700 
 34 O        6.2116     0.9508    -0.7600 O.3   1 <1>  -0.9960 
 35 C        7.1701     1.9425    -0.8286 C.2   1 <1>   1.1842 
 36 H        8.2386     1.8580    -0.9612 H     1 <1>   0.0000 
 37 C        6.3134     3.1814    -0.6671 C.2   1 <1>  -0.2764 
 38 C        6.9682     4.5187    -0.6893 C.3   1 <1>   0.1382 
 39 H1       6.2590     5.3361    -0.5362 H     1 <1>   0.0000 
 40 H2       7.4630     4.6812    -1.6521 H     1 <1>   0.0000 
 41 H3       7.7227     4.5828     0.1013 H     1 <1>   0.0000 
@<TRIPOS>BOND
  1   1   2  1   
  2   1  21  ar  
  3   1  27  ar  
  4   2   3  1   
  5   2   4  1   
  6   2   5  1   
  7   5   6  1   
  8   5   7  1   
  9   5   8  1   
 10   8   9  1   
 11   8  10  1   
 12   8  11  1   
 13  11  12  1   
 14  11  17  1   
 15  11  21  1   
 16  12  13  1   
 17  12  14  1   
 18  12  16  1   
 19  14  15  1   
 20  17  18  1   
 21  17  19  1   
 22  17  20  1   
 23  21  22  ar  
 24  22  23  1   
 25  22  24  ar  
 26  24  25  1   
 27  24  26  ar  
 28  26  27  ar  
 29  26  28  1   
 30  27  32  1   
 31  28  29  2   
 32  28  34  1   
 33  29  30  1   
 34  29  37  1   
 35  30  31  2   
 36  30  32  1   
 37  32  33  2   
 38  34  35  1   
 39  35  36  1   
 40  35  37  2   
 41  37  38  1   
 42  38  39  1   
 43  38  40  1   
 44  38  41  1   
@<TRIPOS>SUBSTRUCTURE
  1 ****  27 GROUP 4 **** **** 0

# MOE 2015.10 (io_trps.svl 2015.10)
