@<TRIPOS>MOLECULE
J08_54
59 63 1 0 0 
SMALL
USER_CHARGES


@<TRIPOS>ATOM
  1 C        1.1631     0.8186    -0.3323 C.ar  1 <1>  -0.1500 
  2 H        2.0770     1.4061    -0.2781 H     1 <1>   0.1500 
  3 C       -0.0257     1.5386    -0.4712 C.ar  1 <1>   0.0825 
  4 O        0.1358     2.8980    -0.5565 O.3   1 <1>  -0.3625 
  5 C       -0.7384     3.6423     0.2885 C.3   1 <1>   0.2800 
  6 H1      -0.2170     4.5604     0.5769 H     1 <1>   0.0000 
  7 H2      -0.9987     3.1062     1.2085 H     1 <1>   0.0000 
  8 H3      -1.6381     3.9346    -0.2606 H     1 <1>   0.0000 
  9 C       -1.2353     0.8615    -0.5721 C.ar  1 <1>   0.0825 
 10 O       -2.3600     1.6118    -0.7880 O.3   1 <1>  -0.3625 
 11 C       -3.5990     0.9345    -0.9505 C.3   1 <1>   0.2800 
 12 H1      -4.3697     1.6890    -1.1357 H     1 <1>   0.0000 
 13 H2      -3.8755     0.3950    -0.0388 H     1 <1>   0.0000 
 14 H3      -3.5742     0.2658    -1.8172 H     1 <1>   0.0000 
 15 C       -1.2161    -0.5364    -0.4660 C.ar  1 <1>  -0.1500 
 16 H       -2.1630    -1.0580    -0.5301 H     1 <1>   0.1500 
 17 C       -0.0229    -1.3030    -0.2855 C.ar  1 <1>   0.0000 
 18 C        1.2021    -0.5924    -0.2360 C.ar  1 <1>   0.0000 
 19 C       -0.0153    -2.7387    -0.1615 C.ar  1 <1>   0.0000 
 20 C        1.2127    -3.4307     0.0221 C.ar  1 <1>   0.0000 
 21 C        2.4300    -2.6974     0.0976 C.ar  1 <1>  -0.1435 
 22 C        2.4265    -1.2985    -0.0803 C.ar  1 <1>  -0.1435 
 23 C       -1.1987    -3.5256    -0.2024 C.ar  1 <1>  -0.1500 
 24 H       -2.1759    -3.0683    -0.3240 H     1 <1>   0.1500 
 25 C       -1.1927    -4.9183    -0.0753 C.ar  1 <1>   0.0825 
 26 O       -2.4005    -5.5625    -0.0975 O.3   1 <1>  -0.3625 
 27 C       -2.8842    -5.7357     1.2365 C.3   1 <1>   0.2800 
 28 H1      -3.8402    -6.2645     1.1787 H     1 <1>   0.0000 
 29 H2      -3.0599    -4.7691     1.7214 H     1 <1>   0.0000 
 30 H3      -2.1968    -6.3433     1.8355 H     1 <1>   0.0000 
 31 C        0.0083    -5.5950     0.0350 C.ar  1 <1>   0.0825 
 32 O        0.1659    -6.9500     0.1350 O.3   1 <1>  -0.3625 
 33 C       -0.6380    -7.7126    -0.7625 C.3   1 <1>   0.2800 
 34 H1      -0.1161    -8.6556    -0.9531 H     1 <1>   0.0000 
 35 H2      -0.7809    -7.2127    -1.7272 H     1 <1>   0.0000 
 36 H3      -1.5986    -7.9572    -0.3009 H     1 <1>   0.0000 
 37 C        1.1847    -4.8487     0.1118 C.ar  1 <1>  -0.1500 
 38 H        2.1045    -5.4185     0.2249 H     1 <1>   0.1500 
 39 C        3.7497    -3.4329     0.3124 C.3   1 <1>   0.4135 
 40 H1       3.9464    -4.0042    -0.6020 H     1 <1>   0.0000 
 41 H2       3.6144    -4.1423     1.1377 H     1 <1>   0.0000 
 42 N        4.8979    -2.5958     0.6879 N.3   1 <1>  -0.8100 
 43 C        5.0163    -1.4016    -0.1514 C.3   1 <1>   0.2700 
 44 H        5.8264    -0.7791     0.2569 H     1 <1>   0.0000 
 45 C        3.7464    -0.5464    -0.0426 C.3   1 <1>   0.1435 
 46 H1       3.7758     0.1953    -0.8495 H     1 <1>   0.0000 
 47 H2       3.7769    -0.0052     0.9132 H     1 <1>   0.0000 
 48 C        6.1536    -3.3628     0.6822 C.3   1 <1>   0.2700 
 49 H1       6.0439    -4.2724     1.2856 H     1 <1>   0.0000 
 50 H2       6.9224    -2.7667     1.1913 H     1 <1>   0.0000 
 51 C        6.6620    -3.7300    -0.7175 C.3   1 <1>   0.0000 
 52 H1       6.0216    -4.5000    -1.1631 H     1 <1>   0.0000 
 53 H2       7.6627    -4.1706    -0.6380 H     1 <1>   0.0000 
 54 C        6.7137    -2.5169    -1.6423 C.3   1 <1>   0.0000 
 55 H1       6.9313    -2.8353    -2.6678 H     1 <1>   0.0000 
 56 H2       7.5379    -1.8630    -1.3308 H     1 <1>   0.0000 
 57 C        5.4059    -1.7266    -1.6051 C.3   1 <1>   0.0000 
 58 H1       4.6155    -2.2940    -2.1106 H     1 <1>   0.0000 
 59 H2       5.5355    -0.7982    -2.1742 H     1 <1>   0.0000 
@<TRIPOS>BOND
  1   1   2  1   
  2   1   3  ar  
  3   1  18  ar  
  4   3   4  1   
  5   3   9  ar  
  6   4   5  1   
  7   5   6  1   
  8   5   7  1   
  9   5   8  1   
 10   9  10  1   
 11   9  15  ar  
 12  10  11  1   
 13  11  12  1   
 14  11  13  1   
 15  11  14  1   
 16  15  16  1   
 17  15  17  ar  
 18  17  18  ar  
 19  17  19  ar  
 20  18  22  ar  
 21  19  20  ar  
 22  19  23  ar  
 23  20  21  ar  
 24  20  37  ar  
 25  21  22  ar  
 26  21  39  1   
 27  22  45  1   
 28  23  24  1   
 29  23  25  ar  
 30  25  26  1   
 31  25  31  ar  
 32  26  27  1   
 33  27  28  1   
 34  27  29  1   
 35  27  30  1   
 36  31  32  1   
 37  31  37  ar  
 38  32  33  1   
 39  33  34  1   
 40  33  35  1   
 41  33  36  1   
 42  37  38  1   
 43  39  40  1   
 44  39  41  1   
 45  39  42  1   
 46  42  43  1   
 47  42  48  1   
 48  43  44  1   
 49  43  45  1   
 50  43  57  1   
 51  45  46  1   
 52  45  47  1   
 53  48  49  1   
 54  48  50  1   
 55  48  51  1   
 56  51  52  1   
 57  51  53  1   
 58  51  54  1   
 59  54  55  1   
 60  54  56  1   
 61  54  57  1   
 62  57  58  1   
 63  57  59  1   
@<TRIPOS>SUBSTRUCTURE
  1 <1>   0 RESIDUE 1 * * 1
# MOE 2007.09 (io_trps.svl 2007.09)
