@<TRIPOS>MOLECULE
J08_28
129 135 1 0 0 
SMALL
USER_CHARGES


@<TRIPOS>ATOM
  1 C        2.6500     0.7147    -0.2947 C.3   1 <1>   0.0000 
  2 C        2.2772     1.4685     1.0089 C.3   1 <1>   0.0000 
  3 H1       1.3401     2.0227     0.9270 H     1 <1>   0.0000 
  4 H2       3.0381     2.1899     1.3158 H     1 <1>   0.0000 
  5 H3       2.1643     0.7985     1.8651 H     1 <1>   0.0000 
  6 C        3.3304    -0.6358     0.0938 C.3   1 <1>   0.0000 
  7 H1       4.1556    -0.4727     0.7944 H     1 <1>   0.0000 
  8 H2       3.7755    -1.0929    -0.8001 H     1 <1>   0.0000 
  9 C        2.3865    -1.6564     0.7214 C.3   1 <1>   0.0000 
 10 H1       2.0595    -1.3395     1.7179 H     1 <1>   0.0000 
 11 H2       2.9401    -2.5877     0.9002 H     1 <1>   0.0000 
 12 C        1.1776    -1.9564    -0.1612 C.3   1 <1>   0.2800 
 13 O        0.3562    -2.8813     0.5653 O.3   1 <1>  -0.5600 
 14 C        0.4817    -4.2288     0.0910 C.3   1 <1>   0.5600 
 15 H        1.5176    -4.4108    -0.2284 H     1 <1>   0.0000 
 16 H1       0.6164    -5.8658    -2.0257 H     1 <1>   0.0000 
 17 O       -0.6567    -8.0354    -1.1334 O.3   1 <1>  -0.6800 
 18 H       -0.7205    -8.6310    -0.3556 H     1 <1>   0.4000 
 19 H2       1.5453    -2.4231    -1.0872 H     1 <1>   0.0000 
 20 C        0.3798    -0.6776    -0.5727 C.3   1 <1>   0.0000 
 21 C       -0.4566    -0.1190     0.5910 C.3   1 <1>   0.0000 
 22 H1      -1.2411    -0.8243     0.8902 H     1 <1>   0.0000 
 23 H2      -0.9599     0.8131     0.3145 H     1 <1>   0.0000 
 24 H3       0.1412     0.0744     1.4797 H     1 <1>   0.0000 
 25 C       -0.6475    -1.1094    -1.6564 C.3   1 <1>   0.0000 
 26 H1      -1.3120    -0.2890    -1.9445 H     1 <1>   0.0000 
 27 H2      -1.2971    -1.9131    -1.2934 H     1 <1>   0.0000 
 28 H3      -0.1449    -1.4714    -2.5601 H     1 <1>   0.0000 
 29 C        1.3955     0.3641    -1.1841 C.3   1 <1>   0.0000 
 30 H        1.8073    -0.1595    -2.0639 H     1 <1>   0.0000 
 31 H1       0.3819     2.3055    -0.9656 H     1 <1>   0.0000 
 32 H2      -0.1120     1.4022    -2.3740 H     1 <1>   0.0000 
 33 C        0.7552     1.6459    -1.7530 C.3   1 <1>   0.0000 
 34 C        1.7457     2.3871    -2.6553 C.3   1 <1>   0.0000 
 35 H1       1.2469     3.2700    -3.0718 H     1 <1>   0.0000 
 36 H2       1.9358     1.7185    -3.5007 H     1 <1>   0.0000 
 37 C        3.0834     2.7878    -1.9711 C.3   1 <1>   0.0000 
 38 C        2.7648     3.9552    -0.9856 C.3   1 <1>   0.0000 
 39 H1       3.6634     4.3495    -0.5014 H     1 <1>   0.0000 
 40 H2       2.0690     3.6726    -0.1986 H     1 <1>   0.0000 
 41 H3       2.2730     4.7908    -1.4953 H     1 <1>   0.0000 
 42 C        3.6587     1.5502    -1.1973 C.3   1 <1>   0.0610 
 43 H        3.9931     0.8319    -1.9610 H     1 <1>   0.0000 
 44 C        4.1842     3.2876    -3.0698 C.3   1 <1>   0.1382 
 45 C        3.8113     4.7278    -3.5381 C.3   1 <1>   0.0000 
 46 H1       4.0139     5.4719    -2.7596 H     1 <1>   0.0000 
 47 H2       2.7546     4.7957    -3.8162 H     1 <1>   0.0000 
 48 H3       4.3663     5.0581    -4.4201 H     1 <1>   0.0000 
 49 C        5.6213     3.2719    -2.4884 C.2   1 <1>  -0.2764 
 50 C        5.9299     2.7391    -1.2963 C.2   1 <1>  -0.1356 
 51 H        6.9323     2.7311    -0.8870 H     1 <1>   0.1500 
 52 C        4.9545     1.9713    -0.4994 C.2   1 <1>   0.4946 
 53 O        5.2665     1.6427     0.6391 O.2   1 <1>  -0.5700 
 54 C        4.2381     2.3803    -4.3423 C.3   1 <1>   0.0000 
 55 H1       3.3028     2.4705    -4.9079 H     1 <1>   0.0000 
 56 H2       4.3249     1.3260    -4.0574 H     1 <1>   0.0000 
 57 C        5.3767     2.7113    -5.3297 C.3   1 <1>   0.0000 
 58 H1       5.1340     3.6469    -5.8481 H     1 <1>   0.0000 
 59 H2       5.3906     1.9447    -6.1160 H     1 <1>   0.0000 
 60 C        6.7804     2.8253    -4.6767 C.3   1 <1>   0.0000 
 61 C        7.2531     1.3978    -4.2965 C.3   1 <1>   0.0000 
 62 H1       8.2418     1.3920    -3.8299 H     1 <1>   0.0000 
 63 H2       7.3165     0.7626    -5.1879 H     1 <1>   0.0000 
 64 H3       6.5688     0.9033    -3.6006 H     1 <1>   0.0000 
 65 C        6.7076     3.7799    -3.4465 C.3   1 <1>   0.1382 
 66 H        6.3740     4.7640    -3.7921 H     1 <1>   0.0000 
 67 C        7.7635     3.4219    -5.7135 C.3   1 <1>   0.0000 
 68 H1       7.3463     4.3496    -6.1260 H     1 <1>   0.0000 
 69 H2       7.8719     2.7383    -6.5655 H     1 <1>   0.0000 
 70 C        9.1517     3.7245    -5.1427 C.3   1 <1>   0.0000 
 71 H1       9.7471     4.2071    -5.9290 H     1 <1>   0.0000 
 72 H2       9.6683     2.7801    -4.9282 H     1 <1>   0.0000 
 73 C        9.1316     4.6041    -3.8726 C.3   1 <1>   0.0610 
 74 C        8.7974     6.0675    -4.2167 C.3   1 <1>   0.0000 
 75 H1       8.8051     6.6925    -3.3160 H     1 <1>   0.0000 
 76 H2       7.8170     6.1751    -4.6888 H     1 <1>   0.0000 
 77 H3       9.5357     6.4929    -4.9065 H     1 <1>   0.0000 
 78 C        8.1112     4.0357    -2.8487 C.3   1 <1>   0.0000 
 79 H1       8.0214     4.7312    -2.0024 H     1 <1>   0.0000 
 80 H2       8.5154     3.1064    -2.4273 H     1 <1>   0.0000 
 81 O       -0.4001    -4.3823    -1.0172 O.3   1 <1>  -0.5600 
 82 C       -0.3810    -5.6733    -1.6123 C.3   1 <1>   0.3410 
 83 C       -0.7986    -6.7197    -0.5921 C.3   1 <1>   0.2800 
 84 H2      -1.8534    -6.5968    -0.3144 H     1 <1>   0.0000 
 85 C        0.0758    -6.6339     0.6581 C.3   1 <1>   0.2800 
 86 H        1.0935    -6.9701     0.4208 H     1 <1>   0.0000 
 87 O       -0.4362    -7.6277     1.5576 O.3   1 <1>  -0.6800 
 88 H       -0.7580    -7.1800     2.3822 H     1 <1>   0.4000 
 89 C        0.1334    -5.2083     1.2374 C.3   1 <1>   0.2800 
 90 H       -0.8257    -4.9288     1.6880 H     1 <1>   0.0000 
 91 C       -1.3753    -5.6749    -2.7740 C.2   1 <1>   0.4480 
 92 C       -1.2172    -6.7602    -3.8258 C.3   1 <1>   0.3410 
 93 O       -1.9136    -6.3838    -5.0078 O.3   1 <1>  -0.6800 
 94 H       -2.6496    -5.8085    -4.7142 H     1 <1>   0.4000 
 95 H2      -1.6416    -7.6972    -3.4604 H     1 <1>   0.0000 
 96 H3      -0.1625    -6.8914    -4.0780 H     1 <1>   0.0000 
 97 O       -2.2917    -4.8536    -2.8796 O.2   1 <1>  -0.5700 
 98 C        0.8544    -4.8936     3.5541 C.3   1 <1>   0.5600 
 99 H        1.8127    -4.6832     4.0457 H     1 <1>   0.0000 
100 O        1.2072    -5.1570     2.1952 O.3   1 <1>  -0.5600 
101 C        0.2257    -6.1149     4.2589 C.3   1 <1>   0.2800 
102 H1       0.8650    -6.9981     4.1586 H     1 <1>   0.0000 
103 O       -1.0402    -6.4649     3.6458 O.3   1 <1>  -0.6800 
104 H       -1.6996    -5.8106     4.0007 H     1 <1>   0.4000 
105 C       -0.0154    -5.7671     5.7325 C.3   1 <1>   0.2800 
106 H1       0.9403    -5.6002     6.2422 H     1 <1>   0.0000 
107 O       -0.6672    -6.8538     6.3871 O.3   1 <1>  -0.6800 
108 H       -1.5221    -6.9713     5.9284 H     1 <1>   0.4000 
109 C       -0.8861    -4.5094     5.8234 C.3   1 <1>   0.2800 
110 H1      -1.0949    -4.2538     6.8681 H     1 <1>   0.0000 
111 O       -2.1526    -4.8204     5.1929 O.3   1 <1>  -0.6800 
112 H       -2.7127    -4.0222     5.3398 H     1 <1>   0.4000 
113 C       -0.1949    -3.3670     5.0626 C.3   1 <1>   0.3410 
114 H1       0.7535    -3.1071     5.5488 H     1 <1>   0.0000 
115 O        0.0480    -3.7195     3.6980 O.3   1 <1>  -0.5600 
116 C       -1.0699    -2.1234     5.0579 C.2   1 <1>   0.4480 
117 C       -0.4922    -0.8882     4.3945 C.3   1 <1>   0.3410 
118 O       -1.2564     0.2630     4.7110 O.3   1 <1>  -0.6800 
119 H       -2.1855    -0.0316     4.7803 H     1 <1>   0.4000 
120 H2      -0.5036    -1.0379     3.3151 H     1 <1>   0.0000 
121 H3       0.5318    -0.7260     4.7395 H     1 <1>   0.0000 
122 O       -2.2038    -2.1151     5.5488 O.2   1 <1>  -0.5700 
123 C       10.5268     4.6029    -3.2258 C.2   1 <1>   0.6590 
124 O       11.4955     4.8688    -4.1506 O.3   1 <1>  -0.4300 
125 C       12.8243     4.9086    -3.6257 C.3   1 <1>   0.2800 
126 H1      13.5086     5.1188    -4.4521 H     1 <1>   0.0000 
127 H2      13.0925     3.9413    -3.1898 H     1 <1>   0.0000 
128 H3      12.9181     5.7085    -2.8847 H     1 <1>   0.0000 
129 O       10.7402     4.4203    -2.0337 O.2   1 <1>  -0.5700 
@<TRIPOS>BOND
  1   1   2  1   
  2   1   6  1   
  3   1  29  1   
  4   1  42  1   
  5   2   3  1   
  6   2   4  1   
  7   2   5  1   
  8   6   7  1   
  9   6   8  1   
 10   6   9  1   
 11   9  10  1   
 12   9  11  1   
 13   9  12  1   
 14  12  13  1   
 15  12  19  1   
 16  12  20  1   
 17  13  14  1   
 18  14  15  1   
 19  14  81  1   
 20  14  89  1   
 21  16  82  1   
 22  17  18  1   
 23  17  83  1   
 24  20  21  1   
 25  20  25  1   
 26  20  29  1   
 27  21  22  1   
 28  21  23  1   
 29  21  24  1   
 30  25  26  1   
 31  25  27  1   
 32  25  28  1   
 33  29  30  1   
 34  29  33  1   
 35  31  33  1   
 36  32  33  1   
 37  33  34  1   
 38  34  35  1   
 39  34  36  1   
 40  34  37  1   
 41  37  38  1   
 42  37  42  1   
 43  37  44  1   
 44  38  39  1   
 45  38  40  1   
 46  38  41  1   
 47  42  43  1   
 48  42  52  1   
 49  44  45  1   
 50  44  49  1   
 51  44  54  1   
 52  45  46  1   
 53  45  47  1   
 54  45  48  1   
 55  49  50  2   
 56  49  65  1   
 57  50  51  1   
 58  50  52  1   
 59  52  53  2   
 60  54  55  1   
 61  54  56  1   
 62  54  57  1   
 63  57  58  1   
 64  57  59  1   
 65  57  60  1   
 66  60  61  1   
 67  60  65  1   
 68  60  67  1   
 69  61  62  1   
 70  61  63  1   
 71  61  64  1   
 72  65  66  1   
 73  65  78  1   
 74  67  68  1   
 75  67  69  1   
 76  67  70  1   
 77  70  71  1   
 78  70  72  1   
 79  70  73  1   
 80  73  74  1   
 81  73  78  1   
 82  73 123  1   
 83  74  75  1   
 84  74  76  1   
 85  74  77  1   
 86  78  79  1   
 87  78  80  1   
 88  81  82  1   
 89  82  83  1   
 90  82  91  1   
 91  83  84  1   
 92  83  85  1   
 93  85  86  1   
 94  85  87  1   
 95  85  89  1   
 96  87  88  1   
 97  89  90  1   
 98  89 100  1   
 99  91  92  1   
100  91  97  2   
101  92  93  1   
102  92  95  1   
103  92  96  1   
104  93  94  1   
105  98  99  1   
106  98 100  1   
107  98 101  1   
108  98 115  1   
109 101 102  1   
110 101 103  1   
111 101 105  1   
112 103 104  1   
113 105 106  1   
114 105 107  1   
115 105 109  1   
116 107 108  1   
117 109 110  1   
118 109 111  1   
119 109 113  1   
120 111 112  1   
121 113 114  1   
122 113 115  1   
123 113 116  1   
124 116 117  1   
125 116 122  2   
126 117 118  1   
127 117 120  1   
128 117 121  1   
129 118 119  1   
130 123 124  1   
131 123 129  2   
132 124 125  1   
133 125 126  1   
134 125 127  1   
135 125 128  1   
@<TRIPOS>SUBSTRUCTURE
  1 <1>   0 RESIDUE 1 * * 1
# MOE 2007.09 (io_trps.svl 2007.09)
