@<TRIPOS>MOLECULE
J12_02
26 27 1 0 0 
SMALL
USER_CHARGES


@<TRIPOS>ATOM
  1 C        0.9891     0.5333    -0.5213 C.3   1 <1>   0.1382 
  2 H1       1.2391     1.4066     0.0903 H     1 <1>   0.0000 
  3 H2       1.7297     0.4623    -1.3254 H     1 <1>   0.0000 
  4 C       -0.4270     0.6850    -1.1176 C.3   1 <1>   0.0000 
  5 H       -0.5108     1.5586    -1.7721 H     1 <1>   0.0000 
  6 C       -1.6288     0.4815    -0.0929 C.3   1 <1>   0.0000 
  7 C       -3.0169     0.8957    -0.6214 C.3   1 <1>   0.0000 
  8 H1      -3.8051     0.5292     0.0460 H     1 <1>   0.0000 
  9 H2      -3.2399     0.5120    -1.6197 H     1 <1>   0.0000 
 10 H3      -3.0973     1.9875    -0.6718 H     1 <1>   0.0000 
 11 C       -1.4723     1.0899     1.3073 C.3   1 <1>   0.0000 
 12 H1      -0.5135     0.8712     1.7817 H     1 <1>   0.0000 
 13 H2      -2.2532     0.7145     1.9783 H     1 <1>   0.0000 
 14 H3      -1.5621     2.1813     1.2635 H     1 <1>   0.0000 
 15 C       -1.2733    -1.0615    -0.2855 C.3   1 <1>   0.1160 
 16 C       -0.8806    -0.6695    -1.7573 C.3   1 <1>   0.0000 
 17 H1      -0.1006    -1.2696    -2.2397 H     1 <1>   0.0000 
 18 H2      -1.7100    -0.6077    -2.4689 H     1 <1>   0.0000 
 19 H2      -2.1125    -1.7583    -0.1976 H     1 <1>   0.0000 
 20 C       -0.0458    -1.5039     0.4717 C.2   1 <1>  -0.2542 
 21 C       -0.1108    -2.7450     1.2955 C.3   1 <1>   0.1382 
 22 H1       0.8439    -2.9570     1.7876 H     1 <1>   0.0000 
 23 H2      -0.3648    -3.6051     0.6680 H     1 <1>   0.0000 
 24 H3      -0.8753    -2.6447     2.0724 H     1 <1>   0.0000 
 25 C        1.0428    -0.7216     0.3265 C.2   1 <1>  -0.2882 
 26 H        1.9769    -0.9601     0.8258 H     1 <1>   0.1500 
@<TRIPOS>BOND
  1   1   2  1   
  2   1   3  1   
  3   1   4  1   
  4   1  25  1   
  5   4   5  1   
  6   4   6  1   
  7   4  16  1   
  8   6   7  1   
  9   6  11  1   
 10   6  15  1   
 11   7   8  1   
 12   7   9  1   
 13   7  10  1   
 14  11  12  1   
 15  11  13  1   
 16  11  14  1   
 17  15  16  1   
 18  15  19  1   
 19  15  20  1   
 20  16  17  1   
 21  16  18  1   
 22  20  21  1   
 23  20  25  2   
 24  21  22  1   
 25  21  23  1   
 26  21  24  1   
 27  25  26  1   
@<TRIPOS>SUBSTRUCTURE
  1 <1>   0 RESIDUE 1 * * 1
# MOE 2007.09 (io_trps.svl 2007.09)
