@<TRIPOS>MOLECULE
J12_07
39 41 1 0 0 
SMALL
USER_CHARGES


@<TRIPOS>ATOM
  1 C        0.8897     0.7739     0.0257 C.3   1 <1>  -0.1950 
  2 H        1.5776     0.4691     0.8112 H     1 <1>   0.1000 
  3 C       -0.3735     1.4720     0.4800 C.3   1 <1>  -0.1950 
  4 C        0.7240     2.2711    -0.2146 C.3   1 <1>  -0.1900 
  5 C        0.5232     2.8188    -1.6051 C.3   1 <1>   0.0950 
  6 H1      -0.0619     2.1736    -2.2625 H     1 <1>   0.0000 
  7 H2       1.4937     2.9779    -2.0875 H     1 <1>   0.0000 
  8 H3       0.0079     3.7842    -1.5559 H     1 <1>   0.0000 
  9 C        1.5405     3.1962     0.6594 C.3   1 <1>   0.0950 
 10 H1       1.0417     4.1663     0.7560 H     1 <1>   0.0000 
 11 H2       2.5309     3.3579     0.2213 H     1 <1>   0.0000 
 12 H3       1.6827     2.7918     1.6675 H     1 <1>   0.0000 
 13 H2      -0.4729     1.5727     1.5580 H     1 <1>   0.1000 
 14 C       -1.6852     1.0927    -0.1531 C.3   1 <1>   0.0950 
 15 H       -1.6188     1.1476    -1.2457 H     1 <1>   0.0000 
 16 C       -2.0568    -0.3631     0.2526 C.3   1 <1>   0.1382 
 17 H       -1.6681    -0.5680     1.2624 H     1 <1>   0.0000 
 18 C       -1.4316    -1.4043    -0.6631 C.2   1 <1>  -0.2764 
 19 C       -2.1363    -2.2179    -1.4686 C.2   1 <1>  -0.3000 
 20 H1      -1.6453    -2.9577    -2.0940 H     1 <1>   0.1500 
 21 H2      -3.2174    -2.1821    -1.5361 H     1 <1>   0.1500 
 22 C        0.0853    -1.5307    -0.5971 C.3   1 <1>   0.1382 
 23 H1       0.4118    -2.3632    -1.2342 H     1 <1>   0.0000 
 24 H2       0.3743    -1.8017     0.4264 H     1 <1>   0.0000 
 25 C        0.8439    -0.2738    -1.0510 C.3   1 <1>   0.0950 
 26 H1       0.4202     0.0952    -1.9896 H     1 <1>   0.0000 
 27 H2       1.8802    -0.5550    -1.2764 H     1 <1>   0.0000 
 28 C       -2.8985     1.9664     0.2604 C.3   1 <1>   0.0000 
 29 H       -3.4289     2.2330    -0.6657 H     1 <1>   0.0000 
 30 C       -2.6117     3.2671     0.9963 C.3   1 <1>   0.0000 
 31 H1      -1.9467     3.9098     0.4109 H     1 <1>   0.0000 
 32 H2      -2.1538     3.0926     1.9749 H     1 <1>   0.0000 
 33 H3      -3.5422     3.8197     1.1663 H     1 <1>   0.0000 
 34 C       -3.8160     1.0302     1.0504 C.3   1 <1>   0.0000 
 35 H1      -4.8648     1.3380     0.9965 H     1 <1>   0.0000 
 36 H2      -3.5248     0.9895     2.1070 H     1 <1>   0.0000 
 37 C       -3.5837    -0.3193     0.3856 C.3   1 <1>   0.0000 
 38 H1      -4.0835    -0.3365    -0.5900 H     1 <1>   0.0000 
 39 H2      -3.9720    -1.1451     0.9898 H     1 <1>   0.0000 
@<TRIPOS>BOND
  1   1   2  1   
  2   1   3  1   
  3   1   4  1   
  4   1  25  1   
  5   3   4  1   
  6   3  13  1   
  7   3  14  1   
  8   4   5  1   
  9   4   9  1   
 10   5   6  1   
 11   5   7  1   
 12   5   8  1   
 13   9  10  1   
 14   9  11  1   
 15   9  12  1   
 16  14  15  1   
 17  14  16  1   
 18  14  28  1   
 19  16  17  1   
 20  16  18  1   
 21  16  37  1   
 22  18  19  2   
 23  18  22  1   
 24  19  20  1   
 25  19  21  1   
 26  22  23  1   
 27  22  24  1   
 28  22  25  1   
 29  25  26  1   
 30  25  27  1   
 31  28  29  1   
 32  28  30  1   
 33  28  34  1   
 34  30  31  1   
 35  30  32  1   
 36  30  33  1   
 37  34  35  1   
 38  34  36  1   
 39  34  37  1   
 40  37  38  1   
 41  37  39  1   
@<TRIPOS>SUBSTRUCTURE
  1 <1>   0 RESIDUE 1 * * 1
# MOE 2007.09 (io_trps.svl 2007.09)
