@<TRIPOS>MOLECULE
J13_03
25 27 1 0 0 
SMALL
USER_CHARGES


@<TRIPOS>ATOM
  1 C        1.3443     0.7013    -0.0884 C.ar  1 <1>   0.0862 
  2 C        0.1344     1.3992    -0.1399 C.ar  1 <1>  -0.1500 
  3 H        0.1211     2.4865    -0.1486 H     1 <1>   0.1500 
  4 C       -1.0655     0.6903    -0.1801 C.ar  1 <1>  -0.1500 
  5 H       -2.0115     1.2247    -0.2202 H     1 <1>   0.1500 
  6 C       -1.0527    -0.7049    -0.1685 C.ar  1 <1>  -0.1500 
  7 H       -1.9889    -1.2568    -0.1997 H     1 <1>   0.1500 
  8 C        0.1610    -1.3959    -0.1165 C.ar  1 <1>  -0.1500 
  9 H        0.1639    -2.4829    -0.1076 H     1 <1>   0.1500 
 10 C        1.3736    -0.7028    -0.0758 C.ar  1 <1>   0.1790 
 11 N        2.5717    -1.4452    -0.0235 N.2   1 <1>  -0.6290 
 12 C        3.6637    -0.7596     0.0012 C.2   1 <1>   0.4490 
 13 N        3.7344     0.6207    -0.0026 N.am  1 <1>  -0.4201 
 14 C        2.6257     1.4321    -0.0442 C.2   1 <1>   0.5438 
 15 O        2.6564     2.6579    -0.0443 O.2   1 <1>  -0.5700 
 16 C        5.0585    -1.3296     0.0735 C.3   1 <1>   0.3410 
 17 H1       5.1802    -2.2049    -0.5697 H     1 <1>   0.0000 
 18 O        5.3714    -1.6714     1.4116 O.3   1 <1>  -0.6800 
 19 H        4.7461    -2.3708     1.6765 H     1 <1>   0.4000 
 20 C        5.9082    -0.1416    -0.3766 C.3   1 <1>   0.0000 
 21 H1       5.9888    -0.1437    -1.4707 H     1 <1>   0.0000 
 22 H2       6.9155    -0.1354     0.0500 H     1 <1>   0.0000 
 23 C        5.1017     1.0738     0.0620 C.3   1 <1>   0.3001 
 24 H1       5.2581     1.9484    -0.5763 H     1 <1>   0.0000 
 25 H2       5.3175     1.3509     1.0999 H     1 <1>   0.0000 
@<TRIPOS>BOND
  1   1   2  ar  
  2   1  10  ar  
  3   1  14  1   
  4   2   3  1   
  5   2   4  ar  
  6   4   5  1   
  7   4   6  ar  
  8   6   7  1   
  9   6   8  ar  
 10   8   9  1   
 11   8  10  ar  
 12  10  11  1   
 13  11  12  2   
 14  12  13  1   
 15  12  16  1   
 16  13  14  am  
 17  13  23  1   
 18  14  15  2   
 19  16  17  1   
 20  16  18  1   
 21  16  20  1   
 22  18  19  1   
 23  20  21  1   
 24  20  22  1   
 25  20  23  1   
 26  23  24  1   
 27  23  25  1   
@<TRIPOS>SUBSTRUCTURE
  1 <1>   0 RESIDUE 1 * * 1
# MOE 2007.09 (io_trps.svl 2007.09)
