@<TRIPOS>MOLECULE
J14_20
34 36 1 0 0 
SMALL
USER_CHARGES


@<TRIPOS>ATOM
  1 C        1.3708     0.7291     0.0696 C.ar  1 <1>  -0.1435 
  2 C        0.1273     1.3850     0.1555 C.ar  1 <1>   0.1000 
  3 C       -1.0177     0.7856    -0.3259 C.ar  1 <1>  -0.1500 
  4 H       -1.9731     1.2961    -0.2815 H     1 <1>   0.1500 
  5 C       -0.9200    -0.4916    -0.8956 C.ar  1 <1>   0.0825 
  6 O       -2.1110    -0.9996    -1.3465 O.3   1 <1>  -0.3625 
  7 C       -2.0789    -2.2920    -1.9381 C.3   1 <1>   0.2800 
  8 H1      -3.0992    -2.5458    -2.2416 H     1 <1>   0.0000 
  9 H2      -1.7488    -3.0481    -1.2181 H     1 <1>   0.0000 
 10 H3      -1.4534    -2.2999    -2.8369 H     1 <1>   0.0000 
 11 C        0.3285    -1.1411    -0.9710 C.ar  1 <1>  -0.1500 
 12 H        0.4252    -2.1326    -1.4023 H     1 <1>   0.1500 
 13 C        1.4885    -0.5317    -0.4782 C.ar  1 <1>  -0.1500 
 14 H        2.4425    -1.0465    -0.5121 H     1 <1>   0.1500 
 15 C        2.3707     1.5809     0.7811 C.3   1 <1>   0.1435 
 16 H        2.3456     1.2469     1.8280 H     1 <1>   0.0000 
 17 C        1.6818     2.9519     0.6154 C.3   1 <1>   0.3691 
 18 H        1.8686     3.3257    -0.4066 H     1 <1>   0.0000 
 19 N        0.2560     2.6763     0.6741 N.pl3 1 <1>  -0.8691 
 20 H       -0.4845     3.2854     0.9798 H     1 <1>   0.4000 
 21 C        3.8171     1.7331     0.3571 C.3   1 <1>   0.0000 
 22 H1       4.3523     0.7824     0.4595 H     1 <1>   0.0000 
 23 H2       3.8912     2.0303    -0.6963 H     1 <1>   0.0000 
 24 C        4.4629     2.8031     1.2613 C.3   1 <1>   0.2700 
 25 H1       4.5535     2.4141     2.2825 H     1 <1>   0.0000 
 26 H2       5.4868     2.9893     0.9176 H     1 <1>   0.0000 
 27 N        3.7455     4.0933     1.3032 N.3   1 <1>  -0.9000 
 28 H        3.8703     4.5540     0.3997 H     1 <1>   0.3600 
 29 C        2.2864     3.9794     1.5720 C.3   1 <1>   0.2700 
 30 H1       1.8402     4.9569     1.3476 H     1 <1>   0.0000 
 31 C        2.0207     3.7161     3.0551 C.3   1 <1>   0.0000 
 32 H1       2.4294     4.5292     3.6659 H     1 <1>   0.0000 
 33 H2       2.4683     2.7844     3.4123 H     1 <1>   0.0000 
 34 H3       0.9447     3.6682     3.2527 H     1 <1>   0.0000 
@<TRIPOS>BOND
  1   1   2  ar  
  2   1  13  ar  
  3   1  15  1   
  4   2   3  ar  
  5   2  19  1   
  6   3   4  1   
  7   3   5  ar  
  8   5   6  1   
  9   5  11  ar  
 10   6   7  1   
 11   7   8  1   
 12   7   9  1   
 13   7  10  1   
 14  11  12  1   
 15  11  13  ar  
 16  13  14  1   
 17  15  16  1   
 18  15  17  1   
 19  15  21  1   
 20  17  18  1   
 21  17  19  1   
 22  17  29  1   
 23  19  20  1   
 24  21  22  1   
 25  21  23  1   
 26  21  24  1   
 27  24  25  1   
 28  24  26  1   
 29  24  27  1   
 30  27  28  1   
 31  27  29  1   
 32  29  30  1   
 33  29  31  1   
 34  31  32  1   
 35  31  33  1   
 36  31  34  1   
@<TRIPOS>SUBSTRUCTURE
  1 <1>   0 RESIDUE 1 * * 1
# MOE 2007.09 (io_trps.svl 2007.09)
