@<TRIPOS>MOLECULE
J14_16
30 32 1 0 0 
SMALL
USER_CHARGES


@<TRIPOS>ATOM
  1 C        1.4923     0.8584     0.1276 C.2   1 <1>   0.0144 
  2 C        0.2098     1.5716     0.3325 C.2   1 <1>   0.4212 
  3 C       -1.0248     0.7941     0.4203 C.2   1 <1>  -0.1356 
  4 H       -1.9555     1.3219     0.5835 H     1 <1>   0.1500 
  5 C       -0.9488    -0.5396     0.3095 C.2   1 <1>  -0.2882 
  6 H       -1.8615    -1.1249     0.3868 H     1 <1>   0.1500 
  7 C        0.3225    -1.3237     0.0813 C.3   1 <1>   0.5564 
  8 O        0.4572    -2.2242     1.1802 O.3   1 <1>  -0.5600 
  9 C        0.9263    -3.5081     0.7910 C.3   1 <1>   0.2800 
 10 H1       1.0327    -4.1216     1.6897 H     1 <1>   0.0000 
 11 H2       1.9022    -3.4340     0.3018 H     1 <1>   0.0000 
 12 H3       0.2052    -3.9912     0.1245 H     1 <1>   0.0000 
 13 H2       0.2127    -1.8703    -0.8644 H     1 <1>   0.0000 
 14 C        1.5565    -0.4637     0.0160 C.2   1 <1>  -0.2882 
 15 H        2.5102    -0.9588    -0.1315 H     1 <1>   0.1500 
 16 C        2.4503     1.9092     0.0962 C.2   1 <1>  -0.1382 
 17 C        1.7338     3.0280     0.2766 C.2   1 <1>   0.1854 
 18 N        0.3659     2.8647     0.4110 N.2   1 <1>  -0.6210 
 19 C        3.9119     1.8935    -0.0856 C.3   1 <1>   0.1382 
 20 H1       4.3629     1.0093     0.3780 H     1 <1>   0.0000 
 21 H2       4.1416     1.8568    -1.1571 H     1 <1>   0.0000 
 22 C        4.5247     3.1544     0.5389 C.3   1 <1>   0.2460 
 23 H1       4.6157     3.0298     1.6254 H     1 <1>   0.0000 
 24 H2       5.5420     3.2831     0.1524 H     1 <1>   0.0000 
 25 N        3.7667     4.3958     0.2794 N.2   1 <1>  -0.6960 
 26 C        2.4765     4.3014     0.2030 C.2   1 <1>   0.3746 
 27 C        1.6775     5.5672     0.0269 C.3   1 <1>   0.0610 
 28 H1       2.2921     6.3364    -0.4501 H     1 <1>   0.0000 
 29 H2       1.3565     5.9275     1.0084 H     1 <1>   0.0000 
 30 H3       0.7990     5.3904    -0.5996 H     1 <1>   0.0000 
@<TRIPOS>BOND
  1   1   2  1   
  2   1  14  2   
  3   1  16  1   
  4   2   3  1   
  5   2  18  2   
  6   3   4  1   
  7   3   5  2   
  8   5   6  1   
  9   5   7  1   
 10   7   8  1   
 11   7  13  1   
 12   7  14  1   
 13   8   9  1   
 14   9  10  1   
 15   9  11  1   
 16   9  12  1   
 17  14  15  1   
 18  16  17  2   
 19  16  19  1   
 20  17  18  1   
 21  17  26  1   
 22  19  20  1   
 23  19  21  1   
 24  19  22  1   
 25  22  23  1   
 26  22  24  1   
 27  22  25  1   
 28  25  26  2   
 29  26  27  1   
 30  27  28  1   
 31  27  29  1   
 32  27  30  1   
@<TRIPOS>SUBSTRUCTURE
  1 <1>   0 RESIDUE 1 * * 1
# MOE 2007.09 (io_trps.svl 2007.09)
