@<TRIPOS>MOLECULE
J14_02
28 29 1 0 0 
SMALL
USER_CHARGES


@<TRIPOS>ATOM
  1 C        1.2271     0.5302    -0.1383 C.ar  1 <1>   0.0284 
  2 C        2.5091     1.2346    -0.2492 C.2   1 <1>  -0.1784 
  3 C        3.6425     0.8304     0.3423 C.2   1 <1>  -0.1500 
  4 C        4.9023     1.5376     0.2705 C.2   1 <1>   0.0767 
  5 C        0.0572     1.2964    -0.0085 C.ar  1 <1>  -0.1500 
  6 H        0.1203     2.3799     0.0355 H     1 <1>   0.1500 
  7 C       -1.1755     0.6585     0.0749 C.ar  1 <1>   0.0825 
  8 O       -2.3461     1.3521     0.2136 O.3   1 <1>  -0.5325 
  9 H       -2.1394     2.3026     0.2432 H     1 <1>   0.4500 
 10 C       -1.2585    -0.7292     0.0180 C.ar  1 <1>   0.0825 
 11 O       -2.4810    -1.3331     0.0997 O.3   1 <1>  -0.5325 
 12 H       -3.1072    -0.5867     0.1935 H     1 <1>   0.4500 
 13 C       -0.1166    -1.5020    -0.1249 C.ar  1 <1>  -0.1500 
 14 H       -0.1902    -2.5838    -0.1767 H     1 <1>   0.1500 
 15 C        1.1284    -0.8699    -0.2074 C.ar  1 <1>  -0.1500 
 16 H        2.0174    -1.4830    -0.3373 H     1 <1>   0.1500 
 17 O        6.0270     0.6801     0.2333 O.3   1 <1>  -0.2267 
 18 C        7.3010     1.1960     0.1966 C.2   1 <1>   0.7056 
 19 O        8.2934     0.4794     0.1556 O.2   1 <1>  -0.5700 
 20 C        7.4374     2.6604     0.2105 C.2   1 <1>  -0.1356 
 21 H        8.4390     3.0679     0.1776 H     1 <1>   0.1500 
 22 C        6.3567     3.4361     0.2635 C.2   1 <1>   0.0767 
 23 O        6.4667     4.8063     0.2792 O.3   1 <1>  -0.5267 
 24 C        5.0388     2.8706     0.3081 C.2   1 <1>  -0.1500 
 25 H        4.1762     3.5230     0.3816 H     1 <1>   0.1500 
 26 H        5.5797     5.2019     0.3136 H     1 <1>   0.4500 
 27 H        2.4859     2.1495    -0.8360 H     1 <1>   0.1500 
 28 H        3.6655    -0.0858     0.9275 H     1 <1>   0.1500 
@<TRIPOS>BOND
  1   1   2  1   
  2   1   5  ar  
  3   1  15  ar  
  4   2   3  2   
  5   2  27  1   
  6   3   4  1   
  7   3  28  1   
  8   4  17  1   
  9   4  24  2   
 10   5   6  1   
 11   5   7  ar  
 12   7   8  1   
 13   7  10  ar  
 14   8   9  1   
 15  10  11  1   
 16  10  13  ar  
 17  11  12  1   
 18  13  14  1   
 19  13  15  ar  
 20  15  16  1   
 21  17  18  1   
 22  18  19  2   
 23  18  20  1   
 24  20  21  1   
 25  20  22  2   
 26  22  23  1   
 27  22  24  1   
 28  23  26  1   
 29  24  25  1   
@<TRIPOS>SUBSTRUCTURE
  1 <1>   0 RESIDUE 1 * * 1
# MOE 2007.09 (io_trps.svl 2007.09)
