@<TRIPOS>MOLECULE
J14_11
25 27 1 0 0 
SMALL
USER_CHARGES


@<TRIPOS>ATOM
  1 C        1.2884     0.7148    -0.0401 C.ar  1 <1>   0.0000 
  2 C        0.1039     1.4472     0.0290 C.ar  1 <1>  -0.1516 
  3 C       -1.1600     0.8509    -0.0445 C.ar  1 <1>  -0.1500 
  4 H       -2.0727     1.4342     0.0107 H     1 <1>   0.1500 
  5 C       -1.2037    -0.5353    -0.1931 C.ar  1 <1>   0.0825 
  6 O       -2.4394    -1.1151    -0.2647 O.3   1 <1>  -0.5325 
  7 H       -2.3265    -2.0742    -0.3666 H     1 <1>   0.4500 
  8 C       -0.0463    -1.3033    -0.2662 C.ar  1 <1>  -0.1500 
  9 H       -0.0935    -2.3821    -0.3818 H     1 <1>   0.1500 
 10 C        1.2087    -0.6867    -0.1905 C.ar  1 <1>  -0.1500 
 11 H        2.1128    -1.2862    -0.2475 H     1 <1>   0.1500 
 12 C        2.3717     1.6438     0.0676 C.ar  1 <1>   0.0000 
 13 C        1.8209     2.9183     0.1995 C.ar  1 <1>  -0.1516 
 14 N        0.4530     2.7687     0.1728 N.pl3 1 <1>   0.0332 
 15 H       -0.2095     3.5272     0.2487 H     1 <1>   0.2700 
 16 C        3.7678     1.5142     0.0646 C.ar  1 <1>  -0.1500 
 17 H        4.2581     0.5536    -0.0343 H     1 <1>   0.1500 
 18 C        4.4959     2.6849     0.1954 C.ar  1 <1>   0.1600 
 19 H        5.5819     2.6598     0.2012 H     1 <1>   0.1500 
 20 N        3.9587     3.9173     0.3231 N.ar  1 <1>  -0.6200 
 21 C        2.6066     4.0695     0.3288 C.ar  1 <1>   0.1665 
 22 C        2.0581     5.4532     0.4728 C.3   1 <1>   0.1435 
 23 H1       2.8651     6.1877     0.5569 H     1 <1>   0.0000 
 24 H2       1.4374     5.5206     1.3714 H     1 <1>   0.0000 
 25 H3       1.4497     5.7099    -0.3997 H     1 <1>   0.0000 
@<TRIPOS>BOND
  1   1   2  ar  
  2   1  10  ar  
  3   1  12  1   
  4   2   3  ar  
  5   2  14  1   
  6   3   4  1   
  7   3   5  ar  
  8   5   6  1   
  9   5   8  ar  
 10   6   7  1   
 11   8   9  1   
 12   8  10  ar  
 13  10  11  1   
 14  12  13  ar  
 15  12  16  ar  
 16  13  14  1   
 17  13  21  ar  
 18  14  15  1   
 19  16  17  1   
 20  16  18  ar  
 21  18  19  1   
 22  18  20  ar  
 23  20  21  ar  
 24  21  22  1   
 25  22  23  1   
 26  22  24  1   
 27  22  25  1   
@<TRIPOS>SUBSTRUCTURE
  1 <1>   0 RESIDUE 1 * * 1
# MOE 2007.09 (io_trps.svl 2007.09)
