@<TRIPOS>MOLECULE
J18_12
31 33 1 0 0 
SMALL
USER_CHARGES


@<TRIPOS>ATOM
  1 C        1.3900     0.5786    -0.4052 C.ar  1 <1>   0.0825 
  2 C        0.2196     1.2751    -0.7083 C.ar  1 <1>  -0.1500 
  3 H        0.2661     2.2636    -1.1566 H     1 <1>   0.1500 
  4 C       -1.0120     0.6960    -0.4335 C.ar  1 <1>   0.0825 
  5 O       -2.1290     1.4131    -0.7457 O.3   1 <1>  -0.5325 
  6 H       -2.9182     0.9010    -0.5038 H     1 <1>   0.4500 
  7 C       -1.0929    -0.5704     0.1385 C.ar  1 <1>  -0.1500 
  8 H       -2.0612    -1.0137     0.3471 H     1 <1>   0.1500 
  9 C        0.0848    -1.2636     0.4404 C.ar  1 <1>   0.0825 
 10 O       -0.0065    -2.5072     0.9983 O.3   1 <1>  -0.5325 
 11 H       -0.9361    -2.7557     1.1226 H     1 <1>   0.4500 
 12 C        1.3343    -0.6926     0.1726 C.ar  1 <1>   0.0862 
 13 C        2.6083    -1.3641     0.4702 C.2   1 <1>   0.4694 
 14 O        2.7017    -2.4726     0.9797 O.2   1 <1>  -0.5700 
 15 C        3.8381    -0.6374     0.1213 C.2   1 <1>  -0.1356 
 16 H        4.7723    -1.1336     0.3528 H     1 <1>   0.1500 
 17 C        3.7557     0.5707    -0.4429 C.2   1 <1>   0.0483 
 18 C        4.9570     1.3381    -0.8170 C.ar  1 <1>   0.0284 
 19 O        2.5648     1.2188    -0.7107 O.3   1 <1>  -0.1592 
 20 C        6.0422     0.7231    -1.4645 C.ar  1 <1>  -0.1500 
 21 H        6.0113    -0.3366    -1.7006 H     1 <1>   0.1500 
 22 C        7.1521     1.4838    -1.8180 C.ar  1 <1>   0.0825 
 23 O        8.2383     0.9391    -2.4469 O.3   1 <1>  -0.5325 
 24 H        8.0730    -0.0116    -2.5746 H     1 <1>   0.4500 
 25 C        7.1941     2.8473    -1.5435 C.ar  1 <1>   0.0825 
 26 O        8.2962     3.5701    -1.9027 O.3   1 <1>  -0.5325 
 27 H        8.8869     2.9069    -2.3147 H     1 <1>   0.4500 
 28 C        6.1320     3.4765    -0.9155 C.ar  1 <1>  -0.1500 
 29 H        6.1676     4.5410    -0.7079 H     1 <1>   0.1500 
 30 C        5.0128     2.7209    -0.5550 C.ar  1 <1>  -0.1500 
 31 H        4.1819     3.2213    -0.0610 H     1 <1>   0.1500 
@<TRIPOS>BOND
  1   1   2  ar  
  2   1  12  ar  
  3   1  19  1   
  4   2   3  1   
  5   2   4  ar  
  6   4   5  1   
  7   4   7  ar  
  8   5   6  1   
  9   7   8  1   
 10   7   9  ar  
 11   9  10  1   
 12   9  12  ar  
 13  10  11  1   
 14  12  13  1   
 15  13  14  2   
 16  13  15  1   
 17  15  16  1   
 18  15  17  2   
 19  17  18  1   
 20  17  19  1   
 21  18  20  ar  
 22  18  30  ar  
 23  20  21  1   
 24  20  22  ar  
 25  22  23  1   
 26  22  25  ar  
 27  23  24  1   
 28  25  26  1   
 29  25  28  ar  
 30  26  27  1   
 31  28  29  1   
 32  28  30  ar  
 33  30  31  1   
@<TRIPOS>SUBSTRUCTURE
  1 <1>   0 RESIDUE 1 * * 1
# MOE 2007.09 (io_trps.svl 2007.09)
