@<TRIPOS>MOLECULE
J18_17
29 31 1 0 0 
SMALL
USER_CHARGES


@<TRIPOS>ATOM
  1 C        1.2188     0.6553     0.0181 C.ar  1 <1>   0.0862 
  2 C       -0.0650     1.2001    -0.0826 C.ar  1 <1>  -0.1500 
  3 H       -0.2122     2.1909    -0.5074 H     1 <1>   0.1500 
  4 C       -1.1663     0.4673     0.3652 C.ar  1 <1>  -0.1500 
  5 H       -2.1593     0.8988     0.2827 H     1 <1>   0.1500 
  6 C       -0.9700    -0.8015     0.9079 C.ar  1 <1>   0.0825 
  7 O       -2.0176    -1.5516     1.3571 O.3   1 <1>  -0.5325 
  8 H       -2.8418    -1.0536     1.2274 H     1 <1>   0.4500 
  9 C        0.3068    -1.3472     1.0099 C.ar  1 <1>  -0.1500 
 10 H        0.4420    -2.3371     1.4358 H     1 <1>   0.1500 
 11 C        1.4039    -0.6127     0.5620 C.ar  1 <1>   0.0825 
 12 O        2.6405    -1.1912     0.6842 O.3   1 <1>  -0.1592 
 13 C        3.7271    -0.4709     0.2491 C.2   1 <1>  -0.0733 
 14 H        4.6278    -1.0463     0.4288 H     1 <1>   0.1500 
 15 C        3.7140     0.7506    -0.3021 C.2   1 <1>  -0.0140 
 16 C        4.9703     1.4052    -0.7070 C.ar  1 <1>   0.0284 
 17 C        2.3899     1.4092    -0.4479 C.2   1 <1>   0.4694 
 18 O        2.2559     2.5261    -0.9347 O.2   1 <1>  -0.5700 
 19 C        5.8876     0.7527    -1.5476 C.ar  1 <1>  -0.1500 
 20 H        5.6790    -0.2463    -1.9251 H     1 <1>   0.1500 
 21 C        7.0801     1.3773    -1.9266 C.ar  1 <1>  -0.1500 
 22 H        7.7706     0.8509    -2.5783 H     1 <1>   0.1500 
 23 C        7.3563     2.6605    -1.4662 C.ar  1 <1>   0.0825 
 24 O        8.5064     3.3089    -1.8096 O.3   1 <1>  -0.5325 
 25 H        9.0298     2.7338    -2.3916 H     1 <1>   0.4500 
 26 C        6.4599     3.3261    -0.6385 C.ar  1 <1>  -0.1500 
 27 H        6.6836     4.3300    -0.2894 H     1 <1>   0.1500 
 28 C        5.2692     2.7012    -0.2609 C.ar  1 <1>  -0.1500 
 29 H        4.5763     3.2390     0.3830 H     1 <1>   0.1500 
@<TRIPOS>BOND
  1   1   2  ar  
  2   1  11  ar  
  3   1  17  1   
  4   2   3  1   
  5   2   4  ar  
  6   4   5  1   
  7   4   6  ar  
  8   6   7  1   
  9   6   9  ar  
 10   7   8  1   
 11   9  10  1   
 12   9  11  ar  
 13  11  12  1   
 14  12  13  1   
 15  13  14  1   
 16  13  15  2   
 17  15  16  1   
 18  15  17  1   
 19  16  19  ar  
 20  16  28  ar  
 21  17  18  2   
 22  19  20  1   
 23  19  21  ar  
 24  21  22  1   
 25  21  23  ar  
 26  23  24  1   
 27  23  26  ar  
 28  24  25  1   
 29  26  27  1   
 30  26  28  ar  
 31  28  29  1   
@<TRIPOS>SUBSTRUCTURE
  1 <1>   0 RESIDUE 1 * * 1
# MOE 2007.09 (io_trps.svl 2007.09)
