@<TRIPOS>MOLECULE
J18_07
51 54 1 0 0 
SMALL
USER_CHARGES


@<TRIPOS>ATOM
  1 C        0.5097     0.5009    -1.1588 C.ar  1 <1>   0.0825 
  2 C       -0.6803     0.5228    -1.8898 C.ar  1 <1>  -0.1500 
  3 H       -0.8080     1.2642    -2.6726 H     1 <1>   0.1500 
  4 C       -1.6827    -0.3946    -1.5934 C.ar  1 <1>   0.0825 
  5 O       -2.8609    -0.4041    -2.2826 O.3   1 <1>  -0.5325 
  6 H       -2.8224     0.2848    -2.9671 H     1 <1>   0.4500 
  7 C       -1.5151    -1.3308    -0.5799 C.ar  1 <1>  -0.1500 
  8 H       -2.3177    -2.0291    -0.3652 H     1 <1>   0.1500 
  9 C       -0.3179    -1.3514     0.1343 C.ar  1 <1>   0.0825 
 10 O       -0.1314    -2.2588     1.1397 O.3   1 <1>  -0.5325 
 11 H       -0.9461    -2.7768     1.2535 H     1 <1>   0.4500 
 12 C        0.7171    -0.4530    -0.1544 C.ar  1 <1>  -0.1435 
 13 C        2.0116    -0.4997     0.6160 C.3   1 <1>   0.1435 
 14 H1       2.3482    -1.5387     0.7130 H     1 <1>   0.0000 
 15 H2       1.8228    -0.0978     1.6190 H     1 <1>   0.0000 
 16 C        3.0993     0.3270    -0.0674 C.3   1 <1>   0.2800 
 17 H        3.9061     0.5318     0.6471 H     1 <1>   0.0000 
 18 O        3.6004    -0.4285    -1.1984 O.3   1 <1>  -0.4300 
 19 C        2.4842     1.6490    -0.5544 C.3   1 <1>   0.4235 
 20 H        2.0324     2.1830     0.2945 H     1 <1>   0.0000 
 21 C        3.5404     2.5627    -1.1563 C.ar  1 <1>  -0.1435 
 22 O        1.4379     1.4421    -1.5163 O.3   1 <1>  -0.3625 
 23 C        3.8757     2.4854    -2.5196 C.ar  1 <1>  -0.1500 
 24 H        3.3622     1.7733    -3.1601 H     1 <1>   0.1500 
 25 C        4.8629     3.3175    -3.0357 C.ar  1 <1>   0.0825 
 26 O        5.2203     3.2825    -4.3569 O.3   1 <1>  -0.5325 
 27 H        4.6645     2.6162    -4.7990 H     1 <1>   0.4500 
 28 C        5.5303     4.2239    -2.2162 C.ar  1 <1>   0.0825 
 29 O        6.4911     5.0239    -2.7742 O.3   1 <1>  -0.5325 
 30 H        6.5139     4.7470    -3.7121 H     1 <1>   0.4500 
 31 C        5.2162     4.3037    -0.8650 C.ar  1 <1>   0.0825 
 32 O        5.8839     5.1888    -0.0672 O.3   1 <1>  -0.5325 
 33 H        5.5223     5.1465     0.8321 H     1 <1>   0.4500 
 34 C        4.2247     3.4774    -0.3318 C.ar  1 <1>  -0.1500 
 35 H        3.9792     3.5339     0.7258 H     1 <1>   0.1500 
 36 C        4.7866    -1.0646    -1.0431 C.2   1 <1>   0.6338 
 37 C        5.1336    -1.7944    -2.2731 C.ar  1 <1>   0.0862 
 38 O        5.5008    -1.0431    -0.0523 O.2   1 <1>  -0.5700 
 39 C        4.1648    -2.1298    -3.2296 C.ar  1 <1>  -0.1500 
 40 H        3.1247    -1.8511    -3.0863 H     1 <1>   0.1500 
 41 C        4.5521    -2.8416    -4.3603 C.ar  1 <1>   0.0825 
 42 O        3.6580    -3.2119    -5.3288 O.3   1 <1>  -0.5325 
 43 H        2.7684    -2.9198    -5.0632 H     1 <1>   0.4500 
 44 C        5.8817    -3.2168    -4.5494 C.ar  1 <1>   0.0825 
 45 O        6.2069    -3.9185    -5.6787 O.3   1 <1>  -0.5325 
 46 H        5.3537    -4.0468    -6.1398 H     1 <1>   0.4500 
 47 C        6.8436    -2.8855    -3.6018 C.ar  1 <1>   0.0825 
 48 O        8.1426    -3.2633    -3.7952 O.3   1 <1>  -0.5325 
 49 H        8.6866    -2.9091    -3.0736 H     1 <1>   0.4500 
 50 C        6.4733    -2.1765    -2.4579 C.ar  1 <1>  -0.1500 
 51 H        7.2158    -1.9182    -1.7061 H     1 <1>   0.1500 
@<TRIPOS>BOND
  1   1   2  ar  
  2   1  12  ar  
  3   1  22  1   
  4   2   3  1   
  5   2   4  ar  
  6   4   5  1   
  7   4   7  ar  
  8   5   6  1   
  9   7   8  1   
 10   7   9  ar  
 11   9  10  1   
 12   9  12  ar  
 13  10  11  1   
 14  12  13  1   
 15  13  14  1   
 16  13  15  1   
 17  13  16  1   
 18  16  17  1   
 19  16  18  1   
 20  16  19  1   
 21  18  36  1   
 22  19  20  1   
 23  19  21  1   
 24  19  22  1   
 25  21  23  ar  
 26  21  34  ar  
 27  23  24  1   
 28  23  25  ar  
 29  25  26  1   
 30  25  28  ar  
 31  26  27  1   
 32  28  29  1   
 33  28  31  ar  
 34  29  30  1   
 35  31  32  1   
 36  31  34  ar  
 37  32  33  1   
 38  34  35  1   
 39  36  37  1   
 40  36  38  2   
 41  37  39  ar  
 42  37  50  ar  
 43  39  40  1   
 44  39  41  ar  
 45  41  42  1   
 46  41  44  ar  
 47  42  43  1   
 48  44  45  1   
 49  44  47  ar  
 50  45  46  1   
 51  47  48  1   
 52  47  50  ar  
 53  48  49  1   
 54  50  51  1   
@<TRIPOS>SUBSTRUCTURE
  1 <1>   0 RESIDUE 1 * * 1
# MOE 2007.09 (io_trps.svl 2007.09)
