@<TRIPOS>MOLECULE
J18_09
29 30 1 0 0 
SMALL
USER_CHARGES


@<TRIPOS>ATOM
  1 C        1.1175     0.7116     0.1178 C.ar  1 <1>   0.0284 
  2 C        2.3647     1.4751     0.2544 C.2   1 <1>  -0.1784 
  3 H        2.3561     2.4701    -0.1832 H     1 <1>   0.1500 
  4 C        3.4436     1.0208     0.9061 C.2   1 <1>  -0.1784 
  5 H        3.4336     0.0478     1.3909 H     1 <1>   0.1500 
  6 C        4.6838     1.7916     1.0611 C.ar  1 <1>   0.0284 
  7 C       -0.1068     1.3918     0.2052 C.ar  1 <1>  -0.1500 
  8 H       -0.1168     2.4607     0.4008 H     1 <1>   0.1500 
  9 C       -1.3051     0.6930     0.0519 C.ar  1 <1>   0.0825 
 10 O       -2.5124     1.3248     0.1425 O.3   1 <1>  -0.5325 
 11 H       -2.3603     2.2655     0.3325 H     1 <1>   0.4500 
 12 C       -1.3117    -0.6742    -0.2004 C.ar  1 <1>  -0.1500 
 13 H       -2.2586    -1.1904    -0.3161 H     1 <1>   0.1500 
 14 C       -0.0975    -1.3429    -0.3032 C.ar  1 <1>   0.0825 
 15 O       -0.0442    -2.6827    -0.5601 O.3   1 <1>  -0.5325 
 16 H       -0.9514    -3.0203    -0.6422 H     1 <1>   0.4500 
 17 C        1.1106    -0.6638    -0.1515 C.ar  1 <1>  -0.1500 
 18 H        2.0393    -1.2182    -0.2574 H     1 <1>   0.1500 
 19 C        5.3798     1.7187     2.2775 C.ar  1 <1>  -0.1500 
 20 H        4.9881     1.1244     3.1005 H     1 <1>   0.1500 
 21 C        6.5796     2.4148     2.4585 C.ar  1 <1>  -0.1500 
 22 H        7.0929     2.3464     3.4125 H     1 <1>   0.1500 
 23 C        7.0918     3.1765     1.4134 C.ar  1 <1>   0.0825 
 24 O        8.2594     3.8706     1.5428 O.3   1 <1>  -0.5325 
 25 H        8.6104     3.7280     2.4372 H     1 <1>   0.4500 
 26 C        6.4262     3.2486     0.1951 C.ar  1 <1>  -0.1500 
 27 H        6.8414     3.8381    -0.6172 H     1 <1>   0.1500 
 28 C        5.2266     2.5534     0.0169 C.ar  1 <1>  -0.1500 
 29 H        4.7308     2.6060    -0.9492 H     1 <1>   0.1500 
@<TRIPOS>BOND
  1   1   2  1   
  2   1   7  ar  
  3   1  17  ar  
  4   2   3  1   
  5   2   4  2   
  6   4   5  1   
  7   4   6  1   
  8   6  19  ar  
  9   6  28  ar  
 10   7   8  1   
 11   7   9  ar  
 12   9  10  1   
 13   9  12  ar  
 14  10  11  1   
 15  12  13  1   
 16  12  14  ar  
 17  14  15  1   
 18  14  17  ar  
 19  15  16  1   
 20  17  18  1   
 21  19  20  1   
 22  19  21  ar  
 23  21  22  1   
 24  21  23  ar  
 25  23  24  1   
 26  23  26  ar  
 27  24  25  1   
 28  26  27  1   
 29  26  28  ar  
 30  28  29  1   
@<TRIPOS>SUBSTRUCTURE
  1 <1>   0 RESIDUE 1 * * 1
# MOE 2007.09 (io_trps.svl 2007.09)
