@<TRIPOS>MOLECULE
J18_26
49 51 1 0 0 
SMALL
USER_CHARGES


@<TRIPOS>ATOM
  1 C        1.1361     0.7164     1.8324 C.ar  1 <1>  -0.1500 
  2 H        2.0503     1.0439     2.3212 H     1 <1>   0.1500 
  3 C       -0.0421     1.4295     2.0600 C.ar  1 <1>  -0.1500 
  4 H       -0.0346     2.2904     2.7239 H     1 <1>   0.1500 
  5 C       -1.2294     1.0530     1.4278 C.ar  1 <1>  -0.1500 
  6 H       -2.1169     1.6485     1.6170 H     1 <1>   0.1500 
  7 C       -1.2439    -0.0397     0.5624 C.ar  1 <1>   0.0825 
  8 O       -2.3283    -0.5122    -0.1251 O.3   1 <1>  -0.3625 
  9 C       -3.6225     0.0245     0.2050 C.3   1 <1>   0.5600 
 10 H       -3.7451    -0.0186     1.2948 H     1 <1>   0.0000 
 11 C       -0.0569    -0.7446     0.3307 C.ar  1 <1>  -0.1500 
 12 H       -0.0750    -1.5900    -0.3543 H     1 <1>   0.1500 
 13 C        1.1376    -0.3866     0.9723 C.ar  1 <1>   0.0284 
 14 C        2.3558    -1.1471     0.6719 C.2   1 <1>  -0.1784 
 15 H        2.4692    -1.4540    -0.3647 H     1 <1>   0.1500 
 16 C        3.2758    -1.4693     1.5906 C.2   1 <1>  -0.1784 
 17 H        3.1624    -1.1620     2.6270 H     1 <1>   0.1500 
 18 C        4.4898    -2.2383     1.2903 C.ar  1 <1>   0.0284 
 19 C        5.6798    -1.9133     1.9591 C.ar  1 <1>  -0.1500 
 20 H        5.7057    -1.0851     2.6642 H     1 <1>   0.1500 
 21 C        6.8527    -2.6379     1.7247 C.ar  1 <1>  -0.1500 
 22 H        7.7612    -2.3602     2.2500 H     1 <1>   0.1500 
 23 C        6.8317    -3.6996     0.8262 C.ar  1 <1>   0.0825 
 24 O        7.9508    -4.4356     0.5665 O.3   1 <1>  -0.5325 
 25 H        8.6864    -4.0815     1.0927 H     1 <1>   0.4500 
 26 C        5.6590    -4.0476     0.1659 C.ar  1 <1>  -0.1500 
 27 H        5.6517    -4.8842    -0.5266 H     1 <1>   0.1500 
 28 C        4.4885    -3.3221     0.4014 C.ar  1 <1>  -0.1500 
 29 H        3.5765    -3.6220    -0.1090 H     1 <1>   0.1500 
 30 O       -3.7683     1.3579    -0.2789 O.3   1 <1>  -0.5600 
 31 C       -5.0617     1.9486    -0.0755 C.3   1 <1>   0.2800 
 32 H1      -5.0012     2.9193    -0.5825 H     1 <1>   0.0000 
 33 C       -5.3732     2.2123     1.4074 C.3   1 <1>   0.2800 
 34 O       -4.4104     3.1087     1.9522 O.3   1 <1>  -0.6800 
 35 H       -4.6693     3.2892     2.8727 H     1 <1>   0.4000 
 36 H2      -5.3529     1.2990     2.0072 H     1 <1>   0.0000 
 37 H3      -6.3610     2.6738     1.5096 H     1 <1>   0.0000 
 38 C       -6.1422     1.0986    -0.7553 C.3   1 <1>   0.2800 
 39 O       -5.9628     1.0949    -2.1852 O.3   1 <1>  -0.6800 
 40 H       -5.8410     2.0167    -2.4762 H     1 <1>   0.4000 
 41 H2      -7.1436     1.5048    -0.5744 H     1 <1>   0.0000 
 42 C       -6.0715    -0.3655    -0.3145 C.3   1 <1>   0.2800 
 43 O       -6.9721    -1.1115    -1.1472 O.3   1 <1>  -0.6800 
 44 H       -6.8343    -0.7461    -2.0465 H     1 <1>   0.4000 
 45 H2      -6.4200    -0.4833     0.7174 H     1 <1>   0.0000 
 46 C       -4.6472    -0.9180    -0.4547 C.3   1 <1>   0.2800 
 47 H1      -4.4069    -1.0681    -1.5147 H     1 <1>   0.0000 
 48 O       -4.5713    -2.2114     0.1660 O.3   1 <1>  -0.6800 
 49 H       -3.6574    -2.5264     0.0361 H     1 <1>   0.4000 
@<TRIPOS>BOND
  1   1   2  1   
  2   1   3  ar  
  3   1  13  ar  
  4   3   4  1   
  5   3   5  ar  
  6   5   6  1   
  7   5   7  ar  
  8   7   8  1   
  9   7  11  ar  
 10   8   9  1   
 11   9  10  1   
 12   9  30  1   
 13   9  46  1   
 14  11  12  1   
 15  11  13  ar  
 16  13  14  1   
 17  14  15  1   
 18  14  16  2   
 19  16  17  1   
 20  16  18  1   
 21  18  19  ar  
 22  18  28  ar  
 23  19  20  1   
 24  19  21  ar  
 25  21  22  1   
 26  21  23  ar  
 27  23  24  1   
 28  23  26  ar  
 29  24  25  1   
 30  26  27  1   
 31  26  28  ar  
 32  28  29  1   
 33  30  31  1   
 34  31  32  1   
 35  31  33  1   
 36  31  38  1   
 37  33  34  1   
 38  33  36  1   
 39  33  37  1   
 40  34  35  1   
 41  38  39  1   
 42  38  41  1   
 43  38  42  1   
 44  39  40  1   
 45  42  43  1   
 46  42  45  1   
 47  42  46  1   
 48  43  44  1   
 49  46  47  1   
 50  46  48  1   
 51  48  49  1   
@<TRIPOS>SUBSTRUCTURE
  1 <1>   0 RESIDUE 1 * * 1
# MOE 2007.09 (io_trps.svl 2007.09)
