@<TRIPOS>MOLECULE
J19_15
32 34 1 0 0 
SMALL
USER_CHARGES


@<TRIPOS>ATOM
  1 C        1.3960     0.5130    -0.4310 C.ar  1 <1>   0.2100 
  2 C        0.2290     1.1860    -0.8150 C.ar  1 <1>  -0.1500 
  3 H        0.2740     2.1540    -1.3100 H     1 <1>   0.1500 
  4 C       -1.0160     0.6130    -0.5660 C.ar  1 <1>   0.0820 
  5 O       -2.1170     1.3120    -0.9650 O.3   1 <1>  -0.5320 
  6 H       -2.9240     0.8100    -0.7530 H     1 <1>   0.4500 
  7 C       -1.1280    -0.6220     0.0650 C.ar  1 <1>  -0.1500 
  8 H       -2.1050    -1.0560     0.2560 H     1 <1>   0.1500 
  9 C        0.0340    -1.2900     0.4480 C.ar  1 <1>   0.0820 
 10 O       -0.0430    -2.5050     1.0720 O.3   1 <1>  -0.5320 
 11 H       -0.9740    -2.7650     1.1740 H     1 <1>   0.4500 
 12 C        2.5070    -1.3600     0.5600 C.ar  1 <1>  -0.1500 
 13 H        2.4990    -2.3270     1.0580 H     1 <1>   0.1500 
 14 C        3.6870    -0.7110     0.2600 C.ar  1 <1>   0.0820 
 15 O        4.8860    -1.2660     0.5960 O.3   1 <1>  -0.5320 
 16 H        4.7540    -2.1110     1.0610 H     1 <1>   0.4500 
 17 C        1.3090    -0.7400     0.2060 C.ar  1 <1>   0.0000 
 18 C        3.6390     0.5380    -0.3820 C.ar  1 <1>   0.2100 
 19 O        2.5160     1.0400    -0.6610 O.2   1 <1>   0.5800 
 20 C        4.8380     1.3090    -0.7510 C.ar  1 <1>   0.0000 
 21 C        5.8830     0.7240    -1.4900 C.ar  1 <1>  -0.1500 
 22 H        5.8300    -0.3220    -1.7930 H     1 <1>   0.1500 
 23 C        7.0180     1.4570    -1.8510 C.ar  1 <1>  -0.1500 
 24 H        7.8040     0.9680    -2.4190 H     1 <1>   0.1500 
 25 C        7.1210     2.7920    -1.4760 C.ar  1 <1>   0.0820 
 26 O        8.2240     3.5240    -1.8160 O.3   1 <1>  -0.5320 
 27 H        8.8460     2.9640    -2.3070 H     1 <1>   0.4500 
 28 C        6.0980     3.3930    -0.7440 C.ar  1 <1>   0.0820 
 29 O        6.2250     4.7040    -0.3740 O.3   1 <1>  -0.5320 
 30 H        5.4610     4.9690     0.1630 H     1 <1>   0.4500 
 31 C        4.9600     2.6630    -0.3870 C.ar  1 <1>  -0.1500 
 32 H        4.1800     3.1480     0.1950 H     1 <1>   0.1500 
@<TRIPOS>BOND
  1   1   2  ar  
  2   1  17  ar  
  3   1  19  ar  
  4   2   3  1   
  5   2   4  ar  
  6   4   5  1   
  7   4   7  ar  
  8   5   6  1   
  9   7   8  1   
 10   7   9  ar  
 11   9  10  1   
 12   9  17  ar  
 13  10  11  1   
 14  12  13  1   
 15  12  14  ar  
 16  12  17  ar  
 17  14  15  1   
 18  14  18  ar  
 19  15  16  1   
 20  18  19  ar  
 21  18  20  1   
 22  20  21  ar  
 23  20  31  ar  
 24  21  22  1   
 25  21  23  ar  
 26  23  24  1   
 27  23  25  ar  
 28  25  26  1   
 29  25  28  ar  
 30  26  27  1   
 31  28  29  1   
 32  28  31  ar  
 33  29  30  1   
 34  31  32  1   
@<TRIPOS>SUBSTRUCTURE
  1 <1>   0 RESIDUE 1 * * 1
# MOE 2007.09 (io_trps.svl 2007.09)
