@<TRIPOS>MOLECULE
J19_12
30 32 1 0 0 
SMALL
USER_CHARGES


@<TRIPOS>ATOM
  1 C        1.3310     0.7000    -0.1410 C.ar  1 <1>   0.0860 
  2 C        0.1260     1.4540    -0.5450 C.2   1 <1>   0.4690 
  3 O        0.1830     2.5900    -0.9990 O.2   1 <1>  -0.5700 
  4 C       -1.1870     0.7680    -0.3830 C.2   1 <1>  -0.0140 
  5 C       -2.4660     1.4190    -0.7200 C.ar  1 <1>   0.0280 
  6 C       -1.1730    -0.4730     0.1150 C.2   1 <1>  -0.0730 
  7 H       -2.0620    -1.0650     0.2960 H     1 <1>   0.1500 
  8 O       -0.0680    -1.1950     0.4820 O.3   1 <1>  -0.1590 
  9 C        1.1590    -0.5960     0.3520 C.ar  1 <1>   0.0820 
 10 C        2.2570    -1.3630     0.7460 C.ar  1 <1>  -0.1500 
 11 H        2.1160    -2.3710     1.1280 H     1 <1>   0.1500 
 12 C        3.5360    -0.8310     0.6490 C.ar  1 <1>   0.0820 
 13 O        4.5800    -1.6150     1.0460 O.3   1 <1>  -0.5320 
 14 H        5.4120    -1.1270     0.9280 H     1 <1>   0.4500 
 15 C        3.7350     0.4580     0.1640 C.ar  1 <1>  -0.1500 
 16 H        4.7380     0.8650     0.0930 H     1 <1>   0.1500 
 17 C        2.6300     1.2220    -0.2310 C.ar  1 <1>   0.0820 
 18 O        2.8460     2.4860    -0.7020 O.3   1 <1>  -0.5320 
 19 H        3.7940     2.6900    -0.7100 H     1 <1>   0.4500 
 20 C       -2.7740     2.6870    -0.2040 C.ar  1 <1>  -0.1500 
 21 H       -2.0680     3.2050     0.4420 H     1 <1>   0.1500 
 22 C       -3.9870     3.3110    -0.5120 C.ar  1 <1>  -0.1500 
 23 H       -4.1970     4.2920    -0.0980 H     1 <1>   0.1500 
 24 C       -4.8970     2.6640    -1.3420 C.ar  1 <1>   0.0820 
 25 O       -6.0930     3.2360    -1.6690 O.3   1 <1>  -0.5320 
 26 H       -6.1300     4.1190    -1.2680 H     1 <1>   0.4500 
 27 C       -4.6110     1.4100    -1.8680 C.ar  1 <1>  -0.1500 
 28 H       -5.3270     0.9180    -2.5200 H     1 <1>   0.1500 
 29 C       -3.3980     0.7890    -1.5600 C.ar  1 <1>  -0.1500 
 30 H       -3.1870    -0.1870    -1.9930 H     1 <1>   0.1500 
@<TRIPOS>BOND
  1   1   2  1   
  2   1   9  ar  
  3   1  17  ar  
  4   2   3  2   
  5   2   4  1   
  6   4   5  1   
  7   4   6  2   
  8   5  20  ar  
  9   5  29  ar  
 10   6   7  1   
 11   6   8  1   
 12   8   9  1   
 13   9  10  ar  
 14  10  11  1   
 15  10  12  ar  
 16  12  13  1   
 17  12  15  ar  
 18  13  14  1   
 19  15  16  1   
 20  15  17  ar  
 21  17  18  1   
 22  18  19  1   
 23  20  21  1   
 24  20  22  ar  
 25  22  23  1   
 26  22  24  ar  
 27  24  25  1   
 28  24  27  ar  
 29  25  26  1   
 30  27  28  1   
 31  27  29  ar  
 32  29  30  1   
@<TRIPOS>SUBSTRUCTURE
  1 <1>   0 RESIDUE 1 * * 1
# MOE 2007.09 (io_trps.svl 2007.09)
