@<TRIPOS>MOLECULE
J19_06
33 35 1 0 0 
SMALL
USER_CHARGES


@<TRIPOS>ATOM
  1 C        1.4152     0.5953    -0.5034 C.ar  1 <1>   0.0825 
  2 C        0.2716     1.2771    -0.9230 C.ar  1 <1>  -0.1500 
  3 H        0.3557     2.2292    -1.4396 H     1 <1>   0.1500 
  4 C       -0.9810     0.7318    -0.6770 C.ar  1 <1>   0.0825 
  5 O       -2.0698     1.4329    -1.1034 O.3   1 <1>  -0.5325 
  6 H       -2.8794     0.9437    -0.8799 H     1 <1>   0.4500 
  7 C       -1.1083    -0.4864    -0.0181 C.ar  1 <1>  -0.1500 
  8 H       -2.0919    -0.9049     0.1700 H     1 <1>   0.1500 
  9 C        0.0437    -1.1634     0.3996 C.ar  1 <1>   0.0825 
 10 O       -0.0967    -2.3572     1.0478 O.3   1 <1>  -0.5325 
 11 H       -1.0343    -2.5918     1.1324 H     1 <1>   0.4500 
 12 C        1.3154    -0.6274     0.1601 C.ar  1 <1>   0.0862 
 13 C        2.5642    -1.2907     0.5771 C.2   1 <1>   0.4694 
 14 O        2.5784    -2.3741     1.1494 O.2   1 <1>  -0.5700 
 15 C        3.8393    -0.5840     0.2733 C.2   1 <1>   0.0911 
 16 O        5.0109    -1.1824     0.7025 O.3   1 <1>  -0.5267 
 17 H        5.7581    -0.5763     0.5702 H     1 <1>   0.4500 
 18 C        3.7760     0.5828    -0.3888 C.2   1 <1>   0.0483 
 19 C        4.9704     1.3479    -0.7686 C.ar  1 <1>   0.0284 
 20 O        2.6093     1.2023    -0.7868 O.3   1 <1>  -0.1592 
 21 C        5.8626     0.8438    -1.7274 C.ar  1 <1>  -0.1500 
 22 H        5.6731    -0.1175    -2.1981 H     1 <1>   0.1500 
 23 C        6.9829     1.5918    -2.0711 C.ar  1 <1>   0.0825 
 24 O        7.8919     1.1531    -2.9956 O.3   1 <1>  -0.5325 
 25 H        7.5927     0.2929    -3.3396 H     1 <1>   0.4500 
 26 C        7.2238     2.8310    -1.4801 C.ar  1 <1>   0.0825 
 27 O        8.3434     3.5241    -1.8551 O.3   1 <1>  -0.5325 
 28 H        8.7735     2.9429    -2.5138 H     1 <1>   0.4500 
 29 C        6.3374     3.3398    -0.5381 C.ar  1 <1>   0.0825 
 30 O        6.5773     4.5578     0.0323 O.3   1 <1>  -0.5325 
 31 H        5.8320     4.7857     0.6113 H     1 <1>   0.4500 
 32 C        5.2079     2.6020    -0.1803 C.ar  1 <1>  -0.1500 
 33 H        4.5071     2.9900     0.5551 H     1 <1>   0.1500 
@<TRIPOS>BOND
  1   1   2  ar  
  2   1  12  ar  
  3   1  20  1   
  4   2   3  1   
  5   2   4  ar  
  6   4   5  1   
  7   4   7  ar  
  8   5   6  1   
  9   7   8  1   
 10   7   9  ar  
 11   9  10  1   
 12   9  12  ar  
 13  10  11  1   
 14  12  13  1   
 15  13  14  2   
 16  13  15  1   
 17  15  16  1   
 18  15  18  2   
 19  16  17  1   
 20  18  19  1   
 21  18  20  1   
 22  19  21  ar  
 23  19  32  ar  
 24  21  22  1   
 25  21  23  ar  
 26  23  24  1   
 27  23  26  ar  
 28  24  25  1   
 29  26  27  1   
 30  26  29  ar  
 31  27  28  1   
 32  29  30  1   
 33  29  32  ar  
 34  30  31  1   
 35  32  33  1   
@<TRIPOS>SUBSTRUCTURE
  1 <1>   0 RESIDUE 1 * * 1
# MOE 2007.09 (io_trps.svl 2007.09)
