@<TRIPOS>MOLECULE
J19_10
31 33 1 0 0 
SMALL
USER_CHARGES


@<TRIPOS>ATOM
  1 C        1.3800     0.5684    -0.3540 C.ar  1 <1>   0.0825 
  2 C        0.2028     1.2665    -0.6252 C.ar  1 <1>  -0.1500 
  3 H        0.2391     2.2620    -1.0587 H     1 <1>   0.1500 
  4 C       -1.0224     0.6801    -0.3376 C.ar  1 <1>   0.0825 
  5 O       -2.1464     1.3993    -0.6183 O.3   1 <1>  -0.5325 
  6 H       -2.9300     0.8818    -0.3699 H     1 <1>   0.4500 
  7 C       -1.0903    -0.5954     0.2156 C.ar  1 <1>  -0.1500 
  8 H       -2.0537    -1.0444     0.4342 H     1 <1>   0.1500 
  9 C        0.0942    -1.2903     0.4854 C.ar  1 <1>   0.0825 
 10 O        0.0157    -2.5427     1.0250 O.3   1 <1>  -0.5325 
 11 H       -0.9109    -2.7959     1.1615 H     1 <1>   0.4500 
 12 C        1.3374    -0.7119     0.2047 C.ar  1 <1>   0.0862 
 13 C        2.6181    -1.3846     0.4693 C.2   1 <1>   0.4694 
 14 O        2.7231    -2.5005     0.9601 O.2   1 <1>  -0.5700 
 15 C        3.8399    -0.6494     0.1101 C.2   1 <1>  -0.1356 
 16 H        4.7792    -1.1467     0.3172 H     1 <1>   0.1500 
 17 C        3.7447     0.5672    -0.4335 C.2   1 <1>   0.0483 
 18 C        4.9375     1.3436    -0.8161 C.ar  1 <1>   0.0284 
 19 O        2.5478     1.2163    -0.6700 O.3   1 <1>  -0.1592 
 20 C        6.0118     0.7424    -1.4939 C.ar  1 <1>  -0.1500 
 21 H        5.9787    -0.3131    -1.7480 H     1 <1>   0.1500 
 22 C        7.1137     1.5117    -1.8541 C.ar  1 <1>   0.0825 
 23 O        8.1893     0.9804    -2.5121 O.3   1 <1>  -0.5325 
 24 H        8.0234     0.0319    -2.6536 H     1 <1>   0.4500 
 25 C        7.1582     2.8701    -1.5565 C.ar  1 <1>   0.0825 
 26 O        8.2523     3.6017    -1.9228 O.3   1 <1>  -0.5325 
 27 H        8.8366     2.9472    -2.3572 H     1 <1>   0.4500 
 28 C        6.1065     3.4859    -0.8983 C.ar  1 <1>  -0.1500 
 29 H        6.1439     4.5467    -0.6727 H     1 <1>   0.1500 
 30 C        4.9955     2.7217    -0.5310 C.ar  1 <1>  -0.1500 
 31 H        4.1727     3.2115    -0.0133 H     1 <1>   0.1500 
@<TRIPOS>BOND
  1   1   2  ar  
  2   1  12  ar  
  3   1  19  1   
  4   2   3  1   
  5   2   4  ar  
  6   4   5  1   
  7   4   7  ar  
  8   5   6  1   
  9   7   8  1   
 10   7   9  ar  
 11   9  10  1   
 12   9  12  ar  
 13  10  11  1   
 14  12  13  1   
 15  13  14  2   
 16  13  15  1   
 17  15  16  1   
 18  15  17  2   
 19  17  18  1   
 20  17  19  1   
 21  18  20  ar  
 22  18  30  ar  
 23  20  21  1   
 24  20  22  ar  
 25  22  23  1   
 26  22  25  ar  
 27  23  24  1   
 28  25  26  1   
 29  25  28  ar  
 30  26  27  1   
 31  28  29  1   
 32  28  30  ar  
 33  30  31  1   
@<TRIPOS>SUBSTRUCTURE
  1 <1>   0 RESIDUE 1 * * 1
# MOE 2007.09 (io_trps.svl 2007.09)
