JBB20_0030.mol
  ChemDraw04102412202D

 22 24  0  0  0  0  0  0  0  0999 V2000
   -1.7834   -0.4218    0.0000 C   0  0  0  0  0  0  0  0  0  0  0  0
   -1.7834    0.3998    0.0000 C   0  0  0  0  0  0  0  0  0  0  0  0
   -1.0718    0.8106    0.0000 C   0  0  0  0  0  0  0  0  0  0  0  0
   -0.3603    0.3998    0.0000 C   0  0  0  0  0  0  0  0  0  0  0  0
   -0.3603   -0.4218    0.0000 C   0  0  0  0  0  0  0  0  0  0  0  0
   -1.0718   -0.8326    0.0000 O   0  0  0  0  0  0  0  0  0  0  0  0
   -2.4949    0.8106    0.0000 C   0  0  0  0  0  0  0  0  0  0  0  0
   -3.2064    0.3998    0.0000 C   0  0  0  0  0  0  0  0  0  0  0  0
   -3.2064   -0.4218    0.0000 C   0  0  0  0  0  0  0  0  0  0  0  0
   -2.4949   -0.8326    0.0000 C   0  0  0  0  0  0  0  0  0  0  0  0
   -1.0718    1.6322    0.0000 O   0  0  0  0  0  0  0  0  0  0  0  0
   -2.4949    1.6322    0.0000 O   0  0  0  0  0  0  0  0  0  0  0  0
    0.3513   -0.8326    0.0000 C   0  0  0  0  0  0  0  0  0  0  0  0
    1.7834   -0.8073    0.0000 C   0  0  0  0  0  0  0  0  0  0  0  0
    1.0718   -0.3965    0.0000 C   0  0  0  0  0  0  0  0  0  0  0  0
    1.0718    0.4252    0.0000 C   0  0  0  0  0  0  0  0  0  0  0  0
    1.7834    0.8360    0.0000 C   0  0  0  0  0  0  0  0  0  0  0  0
    2.4949    0.4252    0.0000 C   0  0  0  0  0  0  0  0  0  0  0  0
    2.4949   -0.3965    0.0000 C   0  0  0  0  0  0  0  0  0  0  0  0
    3.2064    0.8360    0.0000 O   0  0  0  0  0  0  0  0  0  0  0  0
    1.7834    1.6576    0.0000 O   0  0  0  0  0  0  0  0  0  0  0  0
    0.3598   -1.6576    0.0000 C   0  0  0  0  0  0  0  0  0  0  0  0
  1  2  1  0      
  2  3  1  0      
  3  4  1  0      
  4  5  2  0      
  5  6  1  0      
  1  6  1  0      
  7  8  1  0      
  8  9  2  0      
  9 10  1  0      
 10  1  2  0      
  7  2  2  0      
  3 11  2  0      
  7 12  1  0      
  5 13  1  0      
 14 15  2  0      
 15 16  1  0      
 16 17  2  0      
 17 18  1  0      
 18 19  2  0      
 19 14  1  0      
 18 20  1  0      
 17 21  1  0      
 13 15  1  0      
 13 22  1  0      
M  END
