JBB41_0024.mol
  ChemDraw04092412442D

 41 45  0  0  1  0  0  0  0  0999 V2000
    0.6253    1.4750    0.0000 C   0  0  0  0  0  0  0  0  0  0  0  0
    0.6253    0.6500    0.0000 C   0  0  0  0  0  0  0  0  0  0  0  0
   -0.0892    0.2375    0.0000 C   0  0  0  0  0  0  0  0  0  0  0  0
   -0.8036    0.6500    0.0000 C   0  0  0  0  0  0  0  0  0  0  0  0
   -1.5181    0.2375    0.0000 C   0  0  0  0  0  0  0  0  0  0  0  0
   -1.5181   -0.5875    0.0000 O   0  0  0  0  0  0  0  0  0  0  0  0
   -2.2326    0.6500    0.0000 C   0  0  0  0  0  0  0  0  0  0  0  0
   -2.2326    1.4750    0.0000 C   0  0  0  0  0  0  0  0  0  0  0  0
   -1.5181    1.8875    0.0000 C   0  0  0  0  0  0  0  0  0  0  0  0
   -0.8036    1.4750    0.0000 C   0  0  0  0  0  0  0  0  0  0  0  0
   -0.0892    1.8875    0.0000 O   0  0  0  0  0  0  0  0  0  0  0  0
    1.3398    1.8875    0.0000 C   0  0  0  0  0  0  0  0  0  0  0  0
    2.0542    1.4750    0.0000 C   0  0  0  0  0  0  0  0  0  0  0  0
    2.7687    1.8875    0.0000 C   0  0  0  0  0  0  0  0  0  0  0  0
    3.4832    1.4750    0.0000 O   0  0  0  0  0  0  0  0  0  0  0  0
    2.7687    2.7125    0.0000 C   0  0  0  0  0  0  0  0  0  0  0  0
    3.4832    3.1250    0.0000 O   0  0  0  0  0  0  0  0  0  0  0  0
    2.0542    3.1250    0.0000 C   0  0  0  0  0  0  0  0  0  0  0  0
    1.3398    2.7125    0.0000 C   0  0  0  0  0  0  0  0  0  0  0  0
    1.3398   -0.5875    0.0000 C   0  0  0  0  0  0  0  0  0  0  0  0
    2.1093   -1.0625    0.0000 C   0  0  0  0  0  0  0  0  0  0  0  0
    2.8238   -0.6500    0.0000 C   0  0  0  0  0  0  0  0  0  0  0  0
    3.5383   -1.0625    0.0000 C   0  0  0  0  0  0  0  0  0  0  0  0
    4.2528   -0.6500    0.0000 O   0  0  0  0  0  0  0  0  0  0  0  0
    3.5383   -1.8875    0.0000 C   0  0  0  0  0  0  0  0  0  0  0  0
    4.2528   -2.3000    0.0000 O   0  0  0  0  0  0  0  0  0  0  0  0
    2.8238   -2.3000    0.0000 C   0  0  0  0  0  0  0  0  0  0  0  0
    2.1093   -1.8875    0.0000 C   0  0  0  0  0  0  0  0  0  0  0  0
    0.6253   -1.0000    0.0000 O   0  0  0  0  0  0  0  0  0  0  0  0
    1.3398    0.2375    0.0000 O   0  0  0  0  0  0  0  0  0  0  0  0
    2.8238   -3.1250    0.0000 O   0  0  0  0  0  0  0  0  0  0  0  0
   -2.9471    1.8875    0.0000 O   0  0  0  0  0  0  0  0  0  0  0  0
   -2.9471    0.2375    0.0000 C   0  0  0  0  0  0  0  0  0  0  0  0
   -3.7007    0.5730    0.0000 C   0  0  0  0  0  0  0  0  0  0  0  0
   -4.2528   -0.0400    0.0000 C   0  0  0  0  0  0  0  0  0  0  0  0
   -3.8403   -0.7545    0.0000 C   0  0  0  0  0  0  0  0  0  0  0  0
   -3.0333   -0.5830    0.0000 N   0  0  0  0  0  0  0  0  0  0  0  0
   -2.4202   -1.1350    0.0000 C   0  0  0  0  0  0  0  0  0  0  0  0
   -2.4202   -1.9600    0.0000 C   0  0  0  0  0  0  0  0  0  0  0  0
   -4.1758   -1.5082    0.0000 O   0  0  0  0  0  0  0  0  0  0  0  0
   -3.1606    1.0344    0.0000 H   0  0  0  0  0  0  0  0  0  0  0  0
  1  2  1  0      
  2  3  1  0      
  3  4  1  0      
  4  5  1  0      
  5  6  1  0      
  5  7  2  0      
  7  8  1  0      
  8  9  2  0      
  9 10  1  0      
  4 10  2  0      
 10 11  1  0      
  1 11  1  0      
  1 12  1  6      
 12 13  1  0      
 13 14  2  0      
 14 15  1  0      
 14 16  1  0      
 16 17  1  0      
 16 18  2  0      
 18 19  1  0      
 12 19  2  0      
 21 22  1  0      
 22 23  2  0      
 23 24  1  0      
 23 25  1  0      
 25 26  1  0      
 25 27  2  0      
 27 28  1  0      
 21 28  2  0      
 20 29  2  0      
 20 30  1  0      
  2 30  1  6      
 20 21  1  0      
 27 31  1  0      
 32  8  1  0      
  7 33  1  0      
 33 34  1  0      
 34 35  1  0      
 35 36  1  0      
 36 37  1  0      
 37 33  1  0      
 37 38  1  0      
 38 39  1  0      
 36 40  2  0      
 33 41  1  1      
M  END
