JBB43_0003.mol
  ChemDraw04112415472D

 29 32  0  0  1  0  0  0  0  0999 V2000
   -1.3877   -1.6979    0.0000 C   0  0  0  0  0  0  0  0  0  0  0  0
   -1.3877   -2.5229    0.0000 C   0  0  0  0  0  0  0  0  0  0  0  0
   -0.6733   -2.9354    0.0000 O   0  0  0  0  0  0  0  0  0  0  0  0
    0.0412   -2.5229    0.0000 C   0  0  0  0  0  0  0  0  0  0  0  0
    0.0412   -1.6979    0.0000 C   0  0  0  0  0  0  0  0  0  0  0  0
   -0.6733   -1.2854    0.0000 C   0  0  0  0  0  0  0  0  0  0  0  0
   -0.6733   -0.4604    0.0000 C   0  0  0  0  0  0  0  0  0  0  0  0
   -1.3877   -0.0479    0.0000 C   0  0  0  0  0  0  0  0  0  0  0  0
   -2.1022   -0.4604    0.0000 C   0  0  0  0  0  0  0  0  0  0  0  0
   -2.1022   -1.2854    0.0000 C   0  0  0  0  0  0  0  0  0  0  0  0
   -1.3877    0.7771    0.0000 C   0  0  0  0  0  0  0  0  0  0  0  0
    0.0412   -0.8729    0.0000 H   0  0  0  0  0  0  0  0  0  0  0  0
   -2.1022   -2.1104    0.0000 H   0  0  0  0  0  0  0  0  0  0  0  0
   -1.8002   -3.2374    0.0000 C   0  0  0  0  0  0  0  0  0  0  0  0
   -2.1846   -2.7364    0.0000 C   0  0  0  0  0  0  0  0  0  0  0  0
    0.7557   -2.9354    0.0000 C   0  0  0  0  0  0  0  0  0  0  0  0
    1.4702   -2.5229    0.0000 C   0  0  0  0  0  0  0  0  0  0  0  0
    1.4702   -1.6979    0.0000 C   0  0  0  0  0  0  0  0  0  0  0  0
    0.7557   -1.2854    0.0000 C   0  0  0  0  0  0  0  0  0  0  0  0
    2.1846   -2.9354    0.0000 O   0  0  0  0  0  0  0  0  0  0  0  0
    0.7567   -0.4766    0.0000 C   0  0  0  0  0  0  0  0  0  0  0  0
    1.4703   -0.0626    0.0000 C   0  0  0  0  0  0  0  0  0  0  0  0
    1.4687    0.7624    0.0000 C   0  0  0  0  0  0  0  0  0  0  0  0
    0.7534    1.1734    0.0000 C   0  0  0  0  0  0  0  0  0  0  0  0
    0.7517    1.9984    0.0000 C   0  0  0  0  0  0  0  0  0  0  0  0
    1.4653    2.4124    0.0000 C   0  0  0  0  0  0  0  0  0  0  0  0
    2.1806    2.0013    0.0000 C   0  0  0  0  0  0  0  0  0  0  0  0
    2.1823    1.1763    0.0000 C   0  0  0  0  0  0  0  0  0  0  0  0
    1.4636    3.2374    0.0000 O   0  0  0  0  0  0  0  0  0  0  0  0
  1  2  1  0      
  2  3  1  0      
  3  4  1  0      
  4  5  1  0      
  5  6  1  0      
  6  1  1  0      
  6  7  1  0      
  7  8  1  0      
  8  9  2  0      
  9 10  1  0      
 10  1  1  0      
  8 11  1  0      
  6 12  1  6      
  1 13  1  1      
  2 14  1  0      
  2 15  1  0      
  4 16  2  0      
 16 17  1  0      
 17 18  2  0      
 18 19  1  0      
 19  5  2  0      
 17 20  1  0      
 21 22  2  0      
 22 23  1  0      
 23 24  2  0      
 24 25  1  0      
 25 26  2  0      
 26 27  1  0      
 27 28  2  0      
 28 23  1  0      
 26 29  1  0      
 19 21  1  0      
M  END
