MCSJ51_0024
  -OEChem-07172407072D

 62 65  0     1  0  0  0  0  0999 V2000
    7.0360   -0.2699    0.0000 O   0  0  0  0  0  0  0  0  0  0  0  0
   10.5560   -0.2699    0.0000 O   0  0  0  0  0  0  0  0  0  0  0  0
    2.6200    2.8285    0.0000 O   0  0  0  0  0  0  0  0  0  0  0  0
    8.7960    2.7648    0.0000 O   0  0  0  0  0  0  0  0  0  0  0  0
   10.5444    2.7994    0.0000 O   0  0  0  0  0  0  0  0  0  0  0  0
   13.1825   -2.7627    0.0000 O   0  0  0  0  0  0  0  0  0  0  0  0
   14.9184   -1.7694    0.0000 O   0  0  0  0  0  0  0  0  0  0  0  0
    6.1300    0.2440    0.0000 C   0  0  3  0  0  0  0  0  0  0  0  0
    6.1300    1.2856    0.0000 C   0  0  0  0  0  0  0  0  0  0  0  0
    5.1300    0.2401    0.0000 C   0  0  0  0  0  0  0  0  0  0  0  0
    7.0360    1.7994    0.0000 C   0  0  0  0  0  0  0  0  0  0  0  0
    4.6267    1.1042    0.0000 C   0  0  0  0  0  0  0  0  0  0  0  0
    7.9300    1.2648    0.0000 C   0  0  0  0  0  0  0  0  0  0  0  0
    5.6333   -0.6240    0.0000 C   0  0  0  0  0  0  0  0  0  0  0  0
    7.9300    0.2648    0.0000 C   0  0  0  0  0  0  0  0  0  0  0  0
    3.6267    1.1003    0.0000 C   0  0  0  0  0  0  0  0  0  0  0  0
    3.1233    1.9644    0.0000 C   0  0  0  0  0  0  0  0  0  0  0  0
    8.7960    1.7648    0.0000 C   0  0  0  0  0  0  0  0  0  0  0  0
    8.7960   -0.2352    0.0000 C   0  0  0  0  0  0  0  0  0  0  0  0
    9.6620    1.2648    0.0000 C   0  0  0  0  0  0  0  0  0  0  0  0
    9.6620    0.2648    0.0000 C   0  0  0  0  0  0  0  0  0  0  0  0
   11.4621    0.2440    0.0000 C   0  0  1  0  0  0  0  0  0  0  0  0
   11.4621    1.2856    0.0000 C   0  0  0  0  0  0  0  0  0  0  0  0
    2.2592    1.4611    0.0000 C   0  0  0  0  0  0  0  0  0  0  0  0
    3.9874    2.4678    0.0000 C   0  0  0  0  0  0  0  0  0  0  0  0
   10.5560    1.7994    0.0000 C   0  0  0  0  0  0  0  0  0  0  0  0
   12.3261   -0.2594    0.0000 C   0  0  0  0  0  0  0  0  0  0  0  0
   12.3223   -1.2594    0.0000 C   0  0  0  0  0  0  0  0  0  0  0  0
   13.1941    0.2373    0.0000 C   0  0  0  0  0  0  0  0  0  0  0  0
   13.1864   -1.7627    0.0000 C   0  0  0  0  0  0  0  0  0  0  0  0
   14.0582   -0.2661    0.0000 C   0  0  0  0  0  0  0  0  0  0  0  0
   14.0543   -1.2660    0.0000 C   0  0  0  0  0  0  0  0  0  0  0  0
    5.9209    1.8693    0.0000 H   0  0  0  0  0  0  0  0  0  0  0  0
    5.5191    1.1795    0.0000 H   0  0  0  0  0  0  0  0  0  0  0  0
    4.5482    0.0258    0.0000 H   0  0  0  0  0  0  0  0  0  0  0  0
    5.2400   -0.3701    0.0000 H   0  0  0  0  0  0  0  0  0  0  0  0
    7.4406    2.2692    0.0000 H   0  0  0  0  0  0  0  0  0  0  0  0
    6.6424    2.2784    0.0000 H   0  0  0  0  0  0  0  0  0  0  0  0
    5.2084    1.3185    0.0000 H   0  0  0  0  0  0  0  0  0  0  0  0
    4.5166    1.7144    0.0000 H   0  0  0  0  0  0  0  0  0  0  0  0
    5.0952   -0.3161    0.0000 H   0  0  0  0  0  0  0  0  0  0  0  0
    5.3254   -1.1621    0.0000 H   0  0  0  0  0  0  0  0  0  0  0  0
    6.1714   -0.9319    0.0000 H   0  0  0  0  0  0  0  0  0  0  0  0
    3.0449    0.8860    0.0000 H   0  0  0  0  0  0  0  0  0  0  0  0
    3.7367    0.4902    0.0000 H   0  0  0  0  0  0  0  0  0  0  0  0
    8.7960   -0.8552    0.0000 H   0  0  0  0  0  0  0  0  0  0  0  0
   11.4585   -0.3760    0.0000 H   0  0  0  0  0  0  0  0  0  0  0  0
   12.0729    1.1795    0.0000 H   0  0  0  0  0  0  0  0  0  0  0  0
   11.6711    1.8693    0.0000 H   0  0  0  0  0  0  0  0  0  0  0  0
    1.9472    1.9968    0.0000 H   0  0  0  0  0  0  0  0  0  0  0  0
    1.7235    1.1490    0.0000 H   0  0  0  0  0  0  0  0  0  0  0  0
    2.5713    0.9254    0.0000 H   0  0  0  0  0  0  0  0  0  0  0  0
    4.2995    1.9320    0.0000 H   0  0  0  0  0  0  0  0  0  0  0  0
    4.5232    2.7798    0.0000 H   0  0  0  0  0  0  0  0  0  0  0  0
    3.6754    3.0035    0.0000 H   0  0  0  0  0  0  0  0  0  0  0  0
    2.0000    2.8261    0.0000 H   0  0  0  0  0  0  0  0  0  0  0  0
    8.2591    3.0748    0.0000 H   0  0  0  0  0  0  0  0  0  0  0  0
   11.7842   -1.5673    0.0000 H   0  0  0  0  0  0  0  0  0  0  0  0
   13.1965    0.8573    0.0000 H   0  0  0  0  0  0  0  0  0  0  0  0
   14.5963    0.0419    0.0000 H   0  0  0  0  0  0  0  0  0  0  0  0
   13.7183   -3.0748    0.0000 H   0  0  0  0  0  0  0  0  0  0  0  0
   15.4565   -1.4615    0.0000 H   0  0  0  0  0  0  0  0  0  0  0  0
  1  8  1  0  0  0  0
  1 15  1  0  0  0  0
  2 21  1  0  0  0  0
  2 22  1  0  0  0  0
  3 17  1  0  0  0  0
  3 56  1  0  0  0  0
  4 18  1  0  0  0  0
  4 57  1  0  0  0  0
  5 26  2  0  0  0  0
  6 30  1  0  0  0  0
  6 61  1  0  0  0  0
  7 32  1  0  0  0  0
  7 62  1  0  0  0  0
  8  9  1  0  0  0  0
  8 10  1  0  0  0  0
  8 14  1  0  0  0  0
  9 11  1  0  0  0  0
  9 33  1  0  0  0  0
  9 34  1  0  0  0  0
 10 12  1  0  0  0  0
 10 35  1  0  0  0  0
 10 36  1  0  0  0  0
 11 13  1  0  0  0  0
 11 37  1  0  0  0  0
 11 38  1  0  0  0  0
 12 16  1  0  0  0  0
 12 39  1  0  0  0  0
 12 40  1  0  0  0  0
 13 15  1  0  0  0  0
 13 18  2  0  0  0  0
 14 41  1  0  0  0  0
 14 42  1  0  0  0  0
 14 43  1  0  0  0  0
 15 19  2  0  0  0  0
 16 17  1  0  0  0  0
 16 44  1  0  0  0  0
 16 45  1  0  0  0  0
 17 24  1  0  0  0  0
 17 25  1  0  0  0  0
 18 20  1  0  0  0  0
 19 21  1  0  0  0  0
 19 46  1  0  0  0  0
 20 21  2  0  0  0  0
 20 26  1  0  0  0  0
 22 23  1  0  0  0  0
 22 27  1  1  0  0  0
 22 47  1  0  0  0  0
 23 26  1  0  0  0  0
 23 48  1  0  0  0  0
 23 49  1  0  0  0  0
 24 50  1  0  0  0  0
 24 51  1  0  0  0  0
 24 52  1  0  0  0  0
 25 53  1  0  0  0  0
 25 54  1  0  0  0  0
 25 55  1  0  0  0  0
 27 28  2  0  0  0  0
 27 29  1  0  0  0  0
 28 30  1  0  0  0  0
 28 58  1  0  0  0  0
 29 31  2  0  0  0  0
 29 59  1  0  0  0  0
 30 32  2  0  0  0  0
 31 32  1  0  0  0  0
 31 60  1  0  0  0  0
M  END
> <PUBCHEM_COMPOUND_CID>
71659627

> <PUBCHEM_COMPOUND_CANONICALIZED>
1

> <PUBCHEM_CACTVS_COMPLEXITY>
681

> <PUBCHEM_CACTVS_HBOND_ACCEPTOR>
7

> <PUBCHEM_CACTVS_HBOND_DONOR>
4

> <PUBCHEM_CACTVS_ROTATABLE_BOND>
5

> <PUBCHEM_CACTVS_SUBSKEYS>
AAADceB4OAAAAAAAAAAAAAAAAAAAAAAAAAA0aIEAAAAAAACRQAAAGgAACAAADFSgmAIyBoAABgCIAqBSAAACCAAkIAAIiAEGiMgNJzaGNRqCeWGl4BUJuQfI7PzOIAADCAAIQABAAAYQABCAAAAAAAAAAA==

> <PUBCHEM_IUPAC_OPENEYE_NAME>
(8S)-8-(3,4-dihydroxyphenyl)-5-hydroxy-2-(4-hydroxy-4-methyl-pentyl)-2-methyl-3,4,7,8-tetrahydropyrano[3,2-g]chromen-6-one

> <PUBCHEM_IUPAC_CAS_NAME>
(8S)-8-(3,4-dihydroxyphenyl)-5-hydroxy-2-(4-hydroxy-4-methylpentyl)-2-methyl-3,4,7,8-tetrahydropyrano[3,2-g][1]benzopyran-6-one

> <PUBCHEM_IUPAC_NAME_MARKUP>
(8<I>S</I>)-8-(3,4-dihydroxyphenyl)-5-hydroxy-2-(4-hydroxy-4-methylpentyl)-2-methyl-3,4,7,8-tetrahydropyrano[3,2-g]chromen-6-one

> <PUBCHEM_IUPAC_NAME>
(8S)-8-(3,4-dihydroxyphenyl)-5-hydroxy-2-(4-hydroxy-4-methylpentyl)-2-methyl-3,4,7,8-tetrahydropyrano[3,2-g]chromen-6-one

> <PUBCHEM_IUPAC_SYSTEMATIC_NAME>
(8S)-8-[3,4-bis(oxidanyl)phenyl]-2-methyl-2-(4-methyl-4-oxidanyl-pentyl)-5-oxidanyl-3,4,7,8-tetrahydropyrano[3,2-g]chromen-6-one

> <PUBCHEM_IUPAC_TRADITIONAL_NAME>
(8S)-8-(3,4-dihydroxyphenyl)-5-hydroxy-2-(4-hydroxy-4-methyl-pentyl)-2-methyl-3,4,7,8-tetrahydropyrano[3,2-g]chromen-6-one

> <PUBCHEM_IUPAC_INCHI>
InChI=1S/C25H30O7/c1-24(2,30)8-4-9-25(3)10-7-15-20(32-25)13-21-22(23(15)29)18(28)12-19(31-21)14-5-6-16(26)17(27)11-14/h5-6,11,13,19,26-27,29-30H,4,7-10,12H2,1-3H3/t19-,25?/m0/s1

> <PUBCHEM_IUPAC_INCHIKEY>
CMJDNOOYGNOVCM-UBDBMELISA-N

> <PUBCHEM_XLOGP3_AA>
4

> <PUBCHEM_EXACT_MASS>
442.19915329

> <PUBCHEM_MOLECULAR_FORMULA>
C25H30O7

> <PUBCHEM_MOLECULAR_WEIGHT>
442.5

> <PUBCHEM_OPENEYE_CAN_SMILES>
CC1(CCC2=C(C3=C(C=C2O1)OC(CC3=O)C4=CC(=C(C=C4)O)O)O)CCCC(C)(C)O

> <PUBCHEM_OPENEYE_ISO_SMILES>
CC1(CCC2=C(C3=C(C=C2O1)O[C@@H](CC3=O)C4=CC(=C(C=C4)O)O)O)CCCC(C)(C)O

> <PUBCHEM_CACTVS_TPSA>
116

> <PUBCHEM_MONOISOTOPIC_WEIGHT>
442.19915329

> <PUBCHEM_TOTAL_CHARGE>
0

> <PUBCHEM_HEAVY_ATOM_COUNT>
32

> <PUBCHEM_ATOM_DEF_STEREO_COUNT>
1

> <PUBCHEM_ATOM_UDEF_STEREO_COUNT>
1

> <PUBCHEM_BOND_DEF_STEREO_COUNT>
0

> <PUBCHEM_BOND_UDEF_STEREO_COUNT>
0

> <PUBCHEM_ISOTOPIC_ATOM_COUNT>
0

> <PUBCHEM_COMPONENT_COUNT>
1

> <PUBCHEM_CACTVS_TAUTO_COUNT>
-1

> <PUBCHEM_COORDINATE_TYPE>
1
5
255

> <PUBCHEM_BONDANNOTATIONS>
13  15  8
13  18  8
15  19  8
18  20  8
19  21  8
20  21  8
22  27  5
27  28  8
27  29  8
28  30  8
29  31  8
30  32  8
31  32  8
8  14  3

$$$$
