MCSJ51_0026
  -OEChem-07172407072D

 69 72  0     1  0  0  0  0  0999 V2000
    7.0360   -0.2720    0.0000 O   0  0  0  0  0  0  0  0  0  0  0  0
   10.5560   -0.2720    0.0000 O   0  0  0  0  0  0  0  0  0  0  0  0
    2.6200    2.8264    0.0000 O   0  0  0  0  0  0  0  0  0  0  0  0
    8.7960    2.7627    0.0000 O   0  0  0  0  0  0  0  0  0  0  0  0
   10.5444    2.7973    0.0000 O   0  0  0  0  0  0  0  0  0  0  0  0
   14.9261    0.2285    0.0000 O   0  0  0  0  0  0  0  0  0  0  0  0
   13.1825   -2.7648    0.0000 O   0  0  0  0  0  0  0  0  0  0  0  0
   14.9184   -1.7714    0.0000 O   0  0  0  0  0  0  0  0  0  0  0  0
    6.1300    0.2419    0.0000 C   0  0  3  0  0  0  0  0  0  0  0  0
    6.1300    1.2835    0.0000 C   0  0  0  0  0  0  0  0  0  0  0  0
    5.1300    0.2380    0.0000 C   0  0  0  0  0  0  0  0  0  0  0  0
    7.0360    1.7974    0.0000 C   0  0  0  0  0  0  0  0  0  0  0  0
    4.6267    1.1021    0.0000 C   0  0  0  0  0  0  0  0  0  0  0  0
    7.9300    1.2627    0.0000 C   0  0  0  0  0  0  0  0  0  0  0  0
    5.6333   -0.6261    0.0000 C   0  0  0  0  0  0  0  0  0  0  0  0
    7.9300    0.2627    0.0000 C   0  0  0  0  0  0  0  0  0  0  0  0
    3.6267    1.0983    0.0000 C   0  0  0  0  0  0  0  0  0  0  0  0
    3.1233    1.9624    0.0000 C   0  0  0  0  0  0  0  0  0  0  0  0
    8.7960    1.7627    0.0000 C   0  0  0  0  0  0  0  0  0  0  0  0
    8.7960   -0.2373    0.0000 C   0  0  0  0  0  0  0  0  0  0  0  0
    9.6620    1.2627    0.0000 C   0  0  0  0  0  0  0  0  0  0  0  0
    9.6620    0.2627    0.0000 C   0  0  0  0  0  0  0  0  0  0  0  0
   11.4621    0.2419    0.0000 C   0  0  1  0  0  0  0  0  0  0  0  0
   11.4621    1.2835    0.0000 C   0  0  0  0  0  0  0  0  0  0  0  0
   10.5560    1.7974    0.0000 C   0  0  0  0  0  0  0  0  0  0  0  0
    2.2592    1.4590    0.0000 C   0  0  0  0  0  0  0  0  0  0  0  0
    3.9874    2.4657    0.0000 C   0  0  0  0  0  0  0  0  0  0  0  0
   12.3261   -0.2615    0.0000 C   0  0  0  0  0  0  0  0  0  0  0  0
   13.1941    0.2352    0.0000 C   0  0  0  0  0  0  0  0  0  0  0  0
   12.3223   -1.2614    0.0000 C   0  0  0  0  0  0  0  0  0  0  0  0
   14.0582   -0.2681    0.0000 C   0  0  0  0  0  0  0  0  0  0  0  0
   13.1864   -1.7648    0.0000 C   0  0  0  0  0  0  0  0  0  0  0  0
   14.0543   -1.2681    0.0000 C   0  0  0  0  0  0  0  0  0  0  0  0
   14.9300    1.2285    0.0000 C   0  0  0  0  0  0  0  0  0  0  0  0
   15.7864   -1.2748    0.0000 C   0  0  0  0  0  0  0  0  0  0  0  0
    5.9209    1.8672    0.0000 H   0  0  0  0  0  0  0  0  0  0  0  0
    5.5191    1.1774    0.0000 H   0  0  0  0  0  0  0  0  0  0  0  0
    4.5482    0.0237    0.0000 H   0  0  0  0  0  0  0  0  0  0  0  0
    5.2400   -0.3721    0.0000 H   0  0  0  0  0  0  0  0  0  0  0  0
    7.4406    2.2672    0.0000 H   0  0  0  0  0  0  0  0  0  0  0  0
    6.6424    2.2764    0.0000 H   0  0  0  0  0  0  0  0  0  0  0  0
    5.2084    1.3164    0.0000 H   0  0  0  0  0  0  0  0  0  0  0  0
    4.5166    1.7123    0.0000 H   0  0  0  0  0  0  0  0  0  0  0  0
    5.0952   -0.3181    0.0000 H   0  0  0  0  0  0  0  0  0  0  0  0
    5.3254   -1.1642    0.0000 H   0  0  0  0  0  0  0  0  0  0  0  0
    6.1714   -0.9340    0.0000 H   0  0  0  0  0  0  0  0  0  0  0  0
    3.0449    0.8840    0.0000 H   0  0  0  0  0  0  0  0  0  0  0  0
    3.7367    0.4881    0.0000 H   0  0  0  0  0  0  0  0  0  0  0  0
    8.7960   -0.8573    0.0000 H   0  0  0  0  0  0  0  0  0  0  0  0
   11.4585   -0.3781    0.0000 H   0  0  0  0  0  0  0  0  0  0  0  0
   12.0729    1.1774    0.0000 H   0  0  0  0  0  0  0  0  0  0  0  0
   11.6711    1.8672    0.0000 H   0  0  0  0  0  0  0  0  0  0  0  0
    1.9472    1.9948    0.0000 H   0  0  0  0  0  0  0  0  0  0  0  0
    1.7235    1.1470    0.0000 H   0  0  0  0  0  0  0  0  0  0  0  0
    2.5713    0.9233    0.0000 H   0  0  0  0  0  0  0  0  0  0  0  0
    4.2995    1.9300    0.0000 H   0  0  0  0  0  0  0  0  0  0  0  0
    4.5232    2.7778    0.0000 H   0  0  0  0  0  0  0  0  0  0  0  0
    3.6754    3.0014    0.0000 H   0  0  0  0  0  0  0  0  0  0  0  0
    2.0000    2.8241    0.0000 H   0  0  0  0  0  0  0  0  0  0  0  0
    8.2591    3.0727    0.0000 H   0  0  0  0  0  0  0  0  0  0  0  0
   13.1965    0.8552    0.0000 H   0  0  0  0  0  0  0  0  0  0  0  0
   11.7842   -1.5694    0.0000 H   0  0  0  0  0  0  0  0  0  0  0  0
   12.6444   -3.0727    0.0000 H   0  0  0  0  0  0  0  0  0  0  0  0
   15.5500    1.2261    0.0000 H   0  0  0  0  0  0  0  0  0  0  0  0
   14.9324    1.8485    0.0000 H   0  0  0  0  0  0  0  0  0  0  0  0
   14.3100    1.2309    0.0000 H   0  0  0  0  0  0  0  0  0  0  0  0
   16.0943   -1.8129    0.0000 H   0  0  0  0  0  0  0  0  0  0  0  0
   16.3245   -0.9669    0.0000 H   0  0  0  0  0  0  0  0  0  0  0  0
   15.4784   -0.7367    0.0000 H   0  0  0  0  0  0  0  0  0  0  0  0
  1  9  1  0  0  0  0
  1 16  1  0  0  0  0
  2 22  1  0  0  0  0
  2 23  1  0  0  0  0
  3 18  1  0  0  0  0
  3 59  1  0  0  0  0
  4 19  1  0  0  0  0
  4 60  1  0  0  0  0
  5 25  2  0  0  0  0
  6 31  1  0  0  0  0
  6 34  1  0  0  0  0
  7 32  1  0  0  0  0
  7 63  1  0  0  0  0
  8 33  1  0  0  0  0
  8 35  1  0  0  0  0
  9 10  1  0  0  0  0
  9 11  1  0  0  0  0
  9 15  1  0  0  0  0
 10 12  1  0  0  0  0
 10 36  1  0  0  0  0
 10 37  1  0  0  0  0
 11 13  1  0  0  0  0
 11 38  1  0  0  0  0
 11 39  1  0  0  0  0
 12 14  1  0  0  0  0
 12 40  1  0  0  0  0
 12 41  1  0  0  0  0
 13 17  1  0  0  0  0
 13 42  1  0  0  0  0
 13 43  1  0  0  0  0
 14 16  1  0  0  0  0
 14 19  2  0  0  0  0
 15 44  1  0  0  0  0
 15 45  1  0  0  0  0
 15 46  1  0  0  0  0
 16 20  2  0  0  0  0
 17 18  1  0  0  0  0
 17 47  1  0  0  0  0
 17 48  1  0  0  0  0
 18 26  1  0  0  0  0
 18 27  1  0  0  0  0
 19 21  1  0  0  0  0
 20 22  1  0  0  0  0
 20 49  1  0  0  0  0
 21 22  2  0  0  0  0
 21 25  1  0  0  0  0
 23 24  1  0  0  0  0
 23 28  1  1  0  0  0
 23 50  1  0  0  0  0
 24 25  1  0  0  0  0
 24 51  1  0  0  0  0
 24 52  1  0  0  0  0
 26 53  1  0  0  0  0
 26 54  1  0  0  0  0
 26 55  1  0  0  0  0
 27 56  1  0  0  0  0
 27 57  1  0  0  0  0
 27 58  1  0  0  0  0
 28 29  1  0  0  0  0
 28 30  2  0  0  0  0
 29 31  2  0  0  0  0
 29 61  1  0  0  0  0
 30 32  1  0  0  0  0
 30 62  1  0  0  0  0
 31 33  1  0  0  0  0
 32 33  2  0  0  0  0
 34 64  1  0  0  0  0
 34 65  1  0  0  0  0
 34 66  1  0  0  0  0
 35 67  1  0  0  0  0
 35 68  1  0  0  0  0
 35 69  1  0  0  0  0
M  END
> <PUBCHEM_COMPOUND_CID>
71659765

> <PUBCHEM_COMPOUND_CANONICALIZED>
1

> <PUBCHEM_CACTVS_COMPLEXITY>
743

> <PUBCHEM_CACTVS_HBOND_ACCEPTOR>
8

> <PUBCHEM_CACTVS_HBOND_DONOR>
3

> <PUBCHEM_CACTVS_ROTATABLE_BOND>
7

> <PUBCHEM_CACTVS_SUBSKEYS>
AAADcfB4PAAAAAAAAAAAAAAAAAAAAAAAAAA0aIEAAAAAAACRQAAAGgAACAAADFSgmAIyBoAABgCIAqBSAAACCAAkIAAAiAEGiMgNJzaGNRqCeWOl4BULuQfI7PzOIAADCAAIQABAAAYQABCAAAAAAAAAAA==

> <PUBCHEM_IUPAC_OPENEYE_NAME>
(8S)-5-hydroxy-8-(3-hydroxy-4,5-dimethoxy-phenyl)-2-(4-hydroxy-4-methyl-pentyl)-2-methyl-3,4,7,8-tetrahydropyrano[3,2-g]chromen-6-one

> <PUBCHEM_IUPAC_CAS_NAME>
(8S)-5-hydroxy-8-(3-hydroxy-4,5-dimethoxyphenyl)-2-(4-hydroxy-4-methylpentyl)-2-methyl-3,4,7,8-tetrahydropyrano[3,2-g][1]benzopyran-6-one

> <PUBCHEM_IUPAC_NAME_MARKUP>
(8<I>S</I>)-5-hydroxy-8-(3-hydroxy-4,5-dimethoxyphenyl)-2-(4-hydroxy-4-methylpentyl)-2-methyl-3,4,7,8-tetrahydropyrano[3,2-g]chromen-6-one

> <PUBCHEM_IUPAC_NAME>
(8S)-5-hydroxy-8-(3-hydroxy-4,5-dimethoxyphenyl)-2-(4-hydroxy-4-methylpentyl)-2-methyl-3,4,7,8-tetrahydropyrano[3,2-g]chromen-6-one

> <PUBCHEM_IUPAC_SYSTEMATIC_NAME>
(8S)-8-(3,4-dimethoxy-5-oxidanyl-phenyl)-2-methyl-2-(4-methyl-4-oxidanyl-pentyl)-5-oxidanyl-3,4,7,8-tetrahydropyrano[3,2-g]chromen-6-one

> <PUBCHEM_IUPAC_TRADITIONAL_NAME>
(8S)-5-hydroxy-8-(3-hydroxy-4,5-dimethoxy-phenyl)-2-(4-hydroxy-4-methyl-pentyl)-2-methyl-3,4,7,8-tetrahydropyrano[3,2-g]chromen-6-one

> <PUBCHEM_IUPAC_INCHI>
InChI=1S/C27H34O8/c1-26(2,31)8-6-9-27(3)10-7-16-20(35-27)14-21-23(24(16)30)17(28)13-19(34-21)15-11-18(29)25(33-5)22(12-15)32-4/h11-12,14,19,29-31H,6-10,13H2,1-5H3/t19-,27?/m0/s1

> <PUBCHEM_IUPAC_INCHIKEY>
ZMYCAMWWCDPOSK-JDEXWRGDSA-N

> <PUBCHEM_XLOGP3_AA>
4.3

> <PUBCHEM_EXACT_MASS>
486.22536804

> <PUBCHEM_MOLECULAR_FORMULA>
C27H34O8

> <PUBCHEM_MOLECULAR_WEIGHT>
486.6

> <PUBCHEM_OPENEYE_CAN_SMILES>
CC1(CCC2=C(C3=C(C=C2O1)OC(CC3=O)C4=CC(=C(C(=C4)OC)OC)O)O)CCCC(C)(C)O

> <PUBCHEM_OPENEYE_ISO_SMILES>
CC1(CCC2=C(C3=C(C=C2O1)O[C@@H](CC3=O)C4=CC(=C(C(=C4)OC)OC)O)O)CCCC(C)(C)O

> <PUBCHEM_CACTVS_TPSA>
115

> <PUBCHEM_MONOISOTOPIC_WEIGHT>
486.22536804

> <PUBCHEM_TOTAL_CHARGE>
0

> <PUBCHEM_HEAVY_ATOM_COUNT>
35

> <PUBCHEM_ATOM_DEF_STEREO_COUNT>
1

> <PUBCHEM_ATOM_UDEF_STEREO_COUNT>
1

> <PUBCHEM_BOND_DEF_STEREO_COUNT>
0

> <PUBCHEM_BOND_UDEF_STEREO_COUNT>
0

> <PUBCHEM_ISOTOPIC_ATOM_COUNT>
0

> <PUBCHEM_COMPONENT_COUNT>
1

> <PUBCHEM_CACTVS_TAUTO_COUNT>
-1

> <PUBCHEM_COORDINATE_TYPE>
1
5
255

> <PUBCHEM_BONDANNOTATIONS>
14  16  8
14  19  8
16  20  8
19  21  8
20  22  8
21  22  8
23  28  5
28  29  8
28  30  8
29  31  8
30  32  8
31  33  8
32  33  8
9  15  3

$$$$
