MCSJ41_0001.mol
  ChemDraw04182412132D

 31 35  0  0  1  0  0  0  0  0999 V2000
   -1.2639    0.1981    0.0000 C   0  0  0  0  0  0  0  0  0  0  0  0
   -1.2639   -0.6269    0.0000 C   0  0  0  0  0  0  0  0  0  0  0  0
   -0.5494   -1.0394    0.0000 C   0  0  0  0  0  0  0  0  0  0  0  0
    0.1650   -0.6269    0.0000 C   0  0  0  0  0  0  0  0  0  0  0  0
    0.1650    0.1981    0.0000 C   0  0  0  0  0  0  0  0  0  0  0  0
   -0.5494    0.6106    0.0000 C   0  0  0  0  0  0  0  0  0  0  0  0
    0.8795    0.6106    0.0000 C   0  0  0  0  0  0  0  0  0  0  0  0
    0.8795    1.4356    0.0000 C   0  0  0  0  0  0  0  0  0  0  0  0
    0.1650    1.8481    0.0000 C   0  0  0  0  0  0  0  0  0  0  0  0
   -0.5494    1.4356    0.0000 C   0  0  0  0  0  0  0  0  0  0  0  0
   -2.2260    0.5545    0.0000 C   0  0  0  0  0  0  0  0  0  0  0  0
   -2.5334   -0.2144    0.0000 C   0  0  0  0  0  0  0  0  0  0  0  0
   -2.0485   -0.8818    0.0000 C   0  0  0  0  0  0  0  0  0  0  0  0
   -0.9565    0.9670    0.0000 C   0  0  0  0  0  0  0  0  0  0  0  0
   -1.4414    1.6344    0.0000 O   0  0  0  0  0  0  0  0  0  0  0  0
   -2.2260    1.3795    0.0000 C   0  0  0  0  0  0  0  0  0  0  0  0
   -1.2639   -1.4519    0.0000 H   0  0  0  0  0  0  0  0  0  0  0  0
   -0.5494   -1.8644    0.0000 O   0  0  0  0  0  0  0  0  0  0  0  0
    0.8795   -0.2144    0.0000 C   0  0  0  0  0  0  0  0  0  0  0  0
    1.5940    1.0231    0.0000 C   0  0  0  0  0  0  0  0  0  0  0  0
    1.5940   -0.6269    0.0000 O   0  0  0  0  0  0  0  0  0  0  0  0
    0.1650    1.0231    0.0000 H   0  0  0  0  0  0  0  0  0  0  0  0
   -3.0229    0.7680    0.0000 O   0  0  0  0  0  0  0  0  0  0  0  0
    2.3909    1.2366    0.0000 O   0  0  0  0  0  0  0  0  0  0  0  0
   -2.8935    1.8644    0.0000 O   0  0  0  0  0  0  0  0  0  0  0  0
    0.8795   -1.0394    0.0000 O   0  0  0  0  0  0  0  0  0  0  0  0
   -2.7630   -1.2943    0.0000 C   0  0  0  0  0  0  0  0  0  0  0  0
   -2.0485   -1.7068    0.0000 C   0  0  0  0  0  0  0  0  0  0  0  0
    2.3085   -0.2144    0.0000 C   0  0  0  0  0  0  0  0  0  0  0  0
    3.0229   -0.6269    0.0000 O   0  0  0  0  0  0  0  0  0  0  0  0
    2.3085    0.6106    0.0000 C   0  0  0  0  0  0  0  0  0  0  0  0
  1  2  1  0      
  2  3  1  0      
  3  4  1  0      
  4  5  1  0      
  5  6  1  0      
  6  1  1  0      
  5  7  1  6      
  7  8  1  0      
  8  9  1  0      
  9 10  1  0      
 10  6  1  0      
  1 11  1  0      
 11 12  1  0      
 12 13  1  0      
 13  2  1  0      
  1 14  1  6      
 14 15  1  0      
 15 16  1  0      
 16 11  1  0      
  2 17  1  1      
  3 18  1  1      
  5 19  1  0      
  8 20  1  1      
 20 19  1  0      
 19 21  1  1      
  6 22  1  1      
 11 23  1  1      
 20 24  2  0      
 16 25  2  0      
  4 26  2  0      
 13 27  1  0      
 13 28  1  0      
 21 29  1  0      
 29 30  2  0      
 29 31  1  0      
M  END
