MCSJ51_0004
  -OEChem-04162408212D

 49 50  0     1  0  0  0  0  0999 V2000
    7.1962    3.4050    0.0000 O   0  0  0  0  0  0  0  0  0  0  0  0
    7.1962    2.4050    0.0000 O   0  0  0  0  0  0  0  0  0  0  0  0
    3.7320    2.4050    0.0000 O   0  0  0  0  0  0  0  0  0  0  0  0
    8.0622    3.9050    0.0000 O   0  0  0  0  0  0  0  0  0  0  0  0
    2.8660    0.9050    0.0000 O   0  0  0  0  0  0  0  0  0  0  0  0
    2.8660   -5.0950    0.0000 O   0  0  0  0  0  0  0  0  0  0  0  0
    5.4641    3.4050    0.0000 C   0  0  0  0  0  0  0  0  0  0  0  0
    6.3301    3.9050    0.0000 C   0  0  3  0  0  0  0  0  0  0  0  0
    5.4641    2.4050    0.0000 C   0  0  0  0  0  0  0  0  0  0  0  0
    4.5981    1.9050    0.0000 C   0  0  0  0  0  0  0  0  0  0  0  0
    6.3301    1.9050    0.0000 C   0  0  0  0  0  0  0  0  0  0  0  0
    6.3301    4.9050    0.0000 C   0  0  0  0  0  0  0  0  0  0  0  0
    4.5981    0.9050    0.0000 C   0  0  0  0  0  0  0  0  0  0  0  0
    6.3301    0.9050    0.0000 C   0  0  0  0  0  0  0  0  0  0  0  0
    5.4641    0.4050    0.0000 C   0  0  0  0  0  0  0  0  0  0  0  0
    7.1962    5.4050    0.0000 C   0  0  0  0  0  0  0  0  0  0  0  0
    3.7320    0.4050    0.0000 C   0  0  0  0  0  0  0  0  0  0  0  0
    5.4641    5.4050    0.0000 C   0  0  0  0  0  0  0  0  0  0  0  0
    3.7320   -0.5950    0.0000 C   0  0  0  0  0  0  0  0  0  0  0  0
    8.0622    1.9050    0.0000 C   0  0  0  0  0  0  0  0  0  0  0  0
    2.8660   -1.0950    0.0000 C   0  0  0  0  0  0  0  0  0  0  0  0
    2.8660   -2.0950    0.0000 C   0  0  0  0  0  0  0  0  0  0  0  0
    2.0000   -2.5950    0.0000 C   0  0  0  0  0  0  0  0  0  0  0  0
    3.7320   -2.5950    0.0000 C   0  0  0  0  0  0  0  0  0  0  0  0
    2.0000   -3.5950    0.0000 C   0  0  0  0  0  0  0  0  0  0  0  0
    3.7320   -3.5950    0.0000 C   0  0  0  0  0  0  0  0  0  0  0  0
    2.8660   -4.0950    0.0000 C   0  0  0  0  0  0  0  0  0  0  0  0
    5.2520    3.9876    0.0000 H   0  0  0  0  0  0  0  0  0  0  0  0
    4.8535    3.2973    0.0000 H   0  0  0  0  0  0  0  0  0  0  0  0
    6.8671    4.2150    0.0000 H   0  0  0  0  0  0  0  0  0  0  0  0
    6.8671    0.5950    0.0000 H   0  0  0  0  0  0  0  0  0  0  0  0
    5.4641   -0.2150    0.0000 H   0  0  0  0  0  0  0  0  0  0  0  0
    7.5062    4.8681    0.0000 H   0  0  0  0  0  0  0  0  0  0  0  0
    7.7331    5.7150    0.0000 H   0  0  0  0  0  0  0  0  0  0  0  0
    6.8862    5.9419    0.0000 H   0  0  0  0  0  0  0  0  0  0  0  0
    5.4641    6.0250    0.0000 H   0  0  0  0  0  0  0  0  0  0  0  0
    4.9272    5.0950    0.0000 H   0  0  0  0  0  0  0  0  0  0  0  0
    3.7320    3.0250    0.0000 H   0  0  0  0  0  0  0  0  0  0  0  0
    4.2690   -0.9050    0.0000 H   0  0  0  0  0  0  0  0  0  0  0  0
    7.7522    1.3681    0.0000 H   0  0  0  0  0  0  0  0  0  0  0  0
    8.5991    1.5950    0.0000 H   0  0  0  0  0  0  0  0  0  0  0  0
    8.3722    2.4419    0.0000 H   0  0  0  0  0  0  0  0  0  0  0  0
    2.3291   -0.7850    0.0000 H   0  0  0  0  0  0  0  0  0  0  0  0
    8.5991    3.5950    0.0000 H   0  0  0  0  0  0  0  0  0  0  0  0
    1.4631   -2.2850    0.0000 H   0  0  0  0  0  0  0  0  0  0  0  0
    4.2690   -2.2850    0.0000 H   0  0  0  0  0  0  0  0  0  0  0  0
    1.4631   -3.9050    0.0000 H   0  0  0  0  0  0  0  0  0  0  0  0
    4.2690   -3.9050    0.0000 H   0  0  0  0  0  0  0  0  0  0  0  0
    2.3291   -5.4050    0.0000 H   0  0  0  0  0  0  0  0  0  0  0  0
  1  4  1  0  0  0  0
  1  8  1  0  0  0  0
  2 11  1  0  0  0  0
  2 20  1  0  0  0  0
  3 10  1  0  0  0  0
  3 38  1  0  0  0  0
  4 44  1  0  0  0  0
  5 17  2  0  0  0  0
  6 27  1  0  0  0  0
  6 49  1  0  0  0  0
  7  8  1  0  0  0  0
  7  9  1  0  0  0  0
  7 28  1  0  0  0  0
  7 29  1  0  0  0  0
  8 12  1  0  0  0  0
  8 30  1  0  0  0  0
  9 10  1  0  0  0  0
  9 11  2  0  0  0  0
 10 13  2  0  0  0  0
 11 14  1  0  0  0  0
 12 16  1  0  0  0  0
 12 18  2  0  0  0  0
 13 15  1  0  0  0  0
 13 17  1  0  0  0  0
 14 15  2  0  0  0  0
 14 31  1  0  0  0  0
 15 32  1  0  0  0  0
 16 33  1  0  0  0  0
 16 34  1  0  0  0  0
 16 35  1  0  0  0  0
 17 19  1  0  0  0  0
 18 36  1  0  0  0  0
 18 37  1  0  0  0  0
 19 21  2  0  0  0  0
 19 39  1  0  0  0  0
 20 40  1  0  0  0  0
 20 41  1  0  0  0  0
 20 42  1  0  0  0  0
 21 22  1  0  0  0  0
 21 43  1  0  0  0  0
 22 23  2  0  0  0  0
 22 24  1  0  0  0  0
 23 25  1  0  0  0  0
 23 45  1  0  0  0  0
 24 26  2  0  0  0  0
 24 46  1  0  0  0  0
 25 27  2  0  0  0  0
 25 47  1  0  0  0  0
 26 27  1  0  0  0  0
 26 48  1  0  0  0  0
M  END
> <PUBCHEM_COMPOUND_CID>
10022050

> <PUBCHEM_COMPOUND_CANONICALIZED>
1

> <PUBCHEM_CACTVS_COMPLEXITY>
523

> <PUBCHEM_CACTVS_HBOND_ACCEPTOR>
6

> <PUBCHEM_CACTVS_HBOND_DONOR>
3

> <PUBCHEM_CACTVS_ROTATABLE_BOND>
8

> <PUBCHEM_CACTVS_SUBSKEYS>
AAADceB4OAAAAAAAAAAAAAAAAAAAAAAAAAAwYAAAAAAAAAABQAAAGgAADAAADBSgmAIyBoAABgCIAqBSAAACCAAkIAAIiAEGCMgMJzaGNRqAcWAl4BUIuYfI7PzOIAACCAAIAABAAAQQABAAAAAAAAAAAA==

> <PUBCHEM_IUPAC_OPENEYE_NAME>
(E)-1-[3-(2-hydroperoxy-3-methyl-but-3-enyl)-2-hydroxy-4-methoxy-phenyl]-3-(4-hydroxyphenyl)prop-2-en-1-one

> <PUBCHEM_IUPAC_CAS_NAME>
(E)-1-[3-(2-hydroperoxy-3-methylbut-3-enyl)-2-hydroxy-4-methoxyphenyl]-3-(4-hydroxyphenyl)-2-propen-1-one

> <PUBCHEM_IUPAC_NAME_MARKUP>
(<I>E</I>)-1-[3-(2-hydroperoxy-3-methylbut-3-enyl)-2-hydroxy-4-methoxyphenyl]-3-(4-hydroxyphenyl)prop-2-en-1-one

> <PUBCHEM_IUPAC_NAME>
(E)-1-[3-(2-hydroperoxy-3-methylbut-3-enyl)-2-hydroxy-4-methoxyphenyl]-3-(4-hydroxyphenyl)prop-2-en-1-one

> <PUBCHEM_IUPAC_SYSTEMATIC_NAME>
(E)-1-[3-[2-(dioxidanyl)-3-methyl-but-3-enyl]-4-methoxy-2-oxidanyl-phenyl]-3-(4-hydroxyphenyl)prop-2-en-1-one

> <PUBCHEM_IUPAC_TRADITIONAL_NAME>
(E)-1-[3-(2-hydroperoxy-3-methyl-but-3-enyl)-2-hydroxy-4-methoxy-phenyl]-3-(4-hydroxyphenyl)prop-2-en-1-one

> <PUBCHEM_IUPAC_INCHI>
InChI=1S/C21H22O6/c1-13(2)20(27-25)12-17-19(26-3)11-9-16(21(17)24)18(23)10-6-14-4-7-15(22)8-5-14/h4-11,20,22,24-25H,1,12H2,2-3H3/b10-6+

> <PUBCHEM_IUPAC_INCHIKEY>
AJERVVHSERWGFL-UXBLZVDNSA-N

> <PUBCHEM_XLOGP3_AA>
4.4

> <PUBCHEM_EXACT_MASS>
370.14163842

> <PUBCHEM_MOLECULAR_FORMULA>
C21H22O6

> <PUBCHEM_MOLECULAR_WEIGHT>
370.4

> <PUBCHEM_REFERENCE_STANDARDIZATION>
Bypass - this structure was created from CID 10022050

> <PUBCHEM_OPENEYE_CAN_SMILES>
CC(=C)C(CC1=C(C=CC(=C1O)C(=O)C=CC2=CC=C(C=C2)O)OC)OO

> <PUBCHEM_OPENEYE_ISO_SMILES>
CC(=C)C(CC1=C(C=CC(=C1O)C(=O)/C=C/C2=CC=C(C=C2)O)OC)OO

> <PUBCHEM_CACTVS_TPSA>
96.2

> <PUBCHEM_MONOISOTOPIC_WEIGHT>
370.14163842

> <PUBCHEM_TOTAL_CHARGE>
0

> <PUBCHEM_HEAVY_ATOM_COUNT>
27

> <PUBCHEM_ATOM_DEF_STEREO_COUNT>
0

> <PUBCHEM_ATOM_UDEF_STEREO_COUNT>
1

> <PUBCHEM_BOND_DEF_STEREO_COUNT>
1

> <PUBCHEM_BOND_UDEF_STEREO_COUNT>
0

> <PUBCHEM_ISOTOPIC_ATOM_COUNT>
0

> <PUBCHEM_COMPONENT_COUNT>
1

> <PUBCHEM_CACTVS_TAUTO_COUNT>
-1

> <PUBCHEM_COORDINATE_TYPE>
1
5
255

> <PUBCHEM_BONDANNOTATIONS>
10  13  8
11  14  8
13  15  8
14  15  8
22  23  8
22  24  8
23  25  8
24  26  8
25  27  8
26  27  8
8  7  3
9  10  8
9  11  8

$$$$
