MCSJ40_0024
  ChemDraw04182412043D

 29 32  0  0  1  0  0  0  0  0999 V2000
   -4.5775    1.4522    0.0949 C   0  0  0  0  0  0  0  0  0  0  0  0
   -4.4735    2.9715    0.1191 C   0  0  0  0  0  0  0  0  0  0  0  0
   -3.1069    3.6421    0.0720 C   0  0  0  0  0  0  0  0  0  0  0  0
   -1.8443    2.7934    0.0006 C   0  0  0  0  0  0  0  0  0  0  0  0
   -1.9483    1.2742   -0.0236 C   0  0  0  0  0  0  0  0  0  0  0  0
   -3.3149    0.6036    0.0236 C   0  0  0  0  0  0  0  0  0  0  0  0
   -0.4777    3.4641   -0.0465 C   0  0  0  0  0  0  0  0  0  0  0  0
    0.7849    2.6154   -0.1179 C   0  0  0  0  0  0  0  0  0  0  0  0
    0.6810    1.0962   -0.1421 C   0  0  0  0  0  0  0  0  0  0  0  0
   -0.6856    0.4255   -0.0949 O   0  0  0  0  0  0  0  0  0  0  0  0
   -5.9441    0.7816    0.1421 O   0  0  0  0  0  0  0  0  0  0  0  0
   -0.3745    4.9836   -0.0465 O   0  0  0  0  0  0  0  0  0  0  0  0
    2.1528    3.2852   -0.1179 C   0  0  0  0  0  0  0  0  0  0  0  0
   -3.4180   -0.9159    0.0236 C   0  0  0  0  0  0  0  0  0  0  0  0
    3.4167    2.4355   -0.0970 C   0  0  0  0  0  0  0  0  0  0  0  0
    4.7845    3.1053   -0.0970 C   0  0  0  0  0  0  0  0  0  0  0  0
    4.8884    4.6247   -0.0970 C   0  0  0  0  0  0  0  0  0  0  0  0
    3.6244    5.4744   -0.0970 C   0  0  0  0  0  0  0  0  0  0  0  0
    2.2566    4.8046   -0.0970 C   0  0  0  0  0  0  0  0  0  0  0  0
   -4.7855   -1.5863   -0.0970 C   0  0  0  0  0  0  0  0  0  0  0  0
   -4.8887   -3.1058   -0.0970 C   0  0  0  0  0  0  0  0  0  0  0  0
   -3.6244   -3.9549   -0.0970 C   0  0  0  0  0  0  0  0  0  0  0  0
   -2.2568   -3.2845   -0.0970 C   0  0  0  0  0  0  0  0  0  0  0  0
   -2.1537   -1.7650   -0.0970 O   0  0  0  0  0  0  0  0  0  0  0  0
   -6.0499   -0.7372   -0.0970 O   0  0  0  0  0  0  0  0  0  0  0  0
   -3.7275   -5.4744   -0.0970 O   0  0  0  0  0  0  0  0  0  0  0  0
   -6.2562   -3.7762   -0.0970 O   0  0  0  0  0  0  0  0  0  0  0  0
   -0.9925   -4.1336   -0.0970 O   0  0  0  0  0  0  0  0  0  0  0  0
    6.2562    5.2945   -0.0970 O   0  0  0  0  0  0  0  0  0  0  0  0
  1  2  2  0      
  2  3  1  0      
  3  4  2  0      
  4  5  1  0      
  5  6  2  0      
  6  1  1  0      
  4  7  1  0      
  7  8  1  0      
  8  9  1  0      
  9 10  1  0      
 10  5  1  0      
  1 11  1  0      
  7 12  2  0      
  8 13  1  0      
  6 14  1  0      
 13 15  2  0      
 15 16  1  0      
 16 17  2  0      
 17 18  1  0      
 18 19  2  0      
 19 13  1  0      
 14 20  1  0      
 20 21  1  0      
 21 22  1  0      
 22 23  1  0      
 23 24  1  0      
 24 14  1  0      
 20 25  1  1      
 22 26  1  1      
 21 27  1  6      
 23 28  1  6      
 17 29  1  0      
M  END
