MCSJ51_0027
  -OEChem-07172407072D

 69 72  0     1  0  0  0  0  0999 V2000
    7.0360   -0.1776    0.0000 O   0  0  0  0  0  0  0  0  0  0  0  0
   10.5560   -0.1776    0.0000 O   0  0  0  0  0  0  0  0  0  0  0  0
    2.6200    2.9208    0.0000 O   0  0  0  0  0  0  0  0  0  0  0  0
    8.7960    2.8571    0.0000 O   0  0  0  0  0  0  0  0  0  0  0  0
   10.5444    2.8917    0.0000 O   0  0  0  0  0  0  0  0  0  0  0  0
   13.1825   -2.6704    0.0000 O   0  0  0  0  0  0  0  0  0  0  0  0
   14.9261    0.3229    0.0000 O   0  0  0  0  0  0  0  0  0  0  0  0
   14.9184   -1.6771    0.0000 O   0  0  0  0  0  0  0  0  0  0  0  0
    6.1300    0.3362    0.0000 C   0  0  3  0  0  0  0  0  0  0  0  0
    6.1300    1.3779    0.0000 C   0  0  0  0  0  0  0  0  0  0  0  0
    5.1300    0.3324    0.0000 C   0  0  0  0  0  0  0  0  0  0  0  0
    7.0360    1.8917    0.0000 C   0  0  0  0  0  0  0  0  0  0  0  0
    4.6267    1.1965    0.0000 C   0  0  0  0  0  0  0  0  0  0  0  0
    7.9300    1.3571    0.0000 C   0  0  0  0  0  0  0  0  0  0  0  0
    5.6333   -0.5317    0.0000 C   0  0  0  0  0  0  0  0  0  0  0  0
    7.9300    0.3571    0.0000 C   0  0  0  0  0  0  0  0  0  0  0  0
    3.6267    1.1926    0.0000 C   0  0  0  0  0  0  0  0  0  0  0  0
    3.1233    2.0567    0.0000 C   0  0  0  0  0  0  0  0  0  0  0  0
    8.7960    1.8571    0.0000 C   0  0  0  0  0  0  0  0  0  0  0  0
    8.7960   -0.1429    0.0000 C   0  0  0  0  0  0  0  0  0  0  0  0
    9.6620    1.3571    0.0000 C   0  0  0  0  0  0  0  0  0  0  0  0
    9.6620    0.3571    0.0000 C   0  0  0  0  0  0  0  0  0  0  0  0
   11.4621    0.3362    0.0000 C   0  0  1  0  0  0  0  0  0  0  0  0
   11.4621    1.3779    0.0000 C   0  0  0  0  0  0  0  0  0  0  0  0
   10.5560    1.8917    0.0000 C   0  0  0  0  0  0  0  0  0  0  0  0
    2.2592    1.5534    0.0000 C   0  0  0  0  0  0  0  0  0  0  0  0
    3.9874    2.5601    0.0000 C   0  0  0  0  0  0  0  0  0  0  0  0
   12.3261   -0.1671    0.0000 C   0  0  0  0  0  0  0  0  0  0  0  0
   13.1941    0.3296    0.0000 C   0  0  0  0  0  0  0  0  0  0  0  0
   12.3223   -1.1671    0.0000 C   0  0  0  0  0  0  0  0  0  0  0  0
   13.1864   -1.6704    0.0000 C   0  0  0  0  0  0  0  0  0  0  0  0
   14.0582   -0.1738    0.0000 C   0  0  0  0  0  0  0  0  0  0  0  0
   14.0543   -1.1738    0.0000 C   0  0  0  0  0  0  0  0  0  0  0  0
   12.3146   -3.1671    0.0000 C   0  0  0  0  0  0  0  0  0  0  0  0
   14.9300    1.3229    0.0000 C   0  0  0  0  0  0  0  0  0  0  0  0
    5.9209    1.9616    0.0000 H   0  0  0  0  0  0  0  0  0  0  0  0
    5.5191    1.2718    0.0000 H   0  0  0  0  0  0  0  0  0  0  0  0
    4.5482    0.1181    0.0000 H   0  0  0  0  0  0  0  0  0  0  0  0
    5.2400   -0.2778    0.0000 H   0  0  0  0  0  0  0  0  0  0  0  0
    7.4406    2.3615    0.0000 H   0  0  0  0  0  0  0  0  0  0  0  0
    6.6424    2.3707    0.0000 H   0  0  0  0  0  0  0  0  0  0  0  0
    5.2084    1.4108    0.0000 H   0  0  0  0  0  0  0  0  0  0  0  0
    4.5166    1.8066    0.0000 H   0  0  0  0  0  0  0  0  0  0  0  0
    5.0952   -0.2238    0.0000 H   0  0  0  0  0  0  0  0  0  0  0  0
    5.3254   -1.0698    0.0000 H   0  0  0  0  0  0  0  0  0  0  0  0
    6.1714   -0.8396    0.0000 H   0  0  0  0  0  0  0  0  0  0  0  0
    3.0449    0.9783    0.0000 H   0  0  0  0  0  0  0  0  0  0  0  0
    3.7367    0.5825    0.0000 H   0  0  0  0  0  0  0  0  0  0  0  0
    8.7960   -0.7629    0.0000 H   0  0  0  0  0  0  0  0  0  0  0  0
   11.4585   -0.2837    0.0000 H   0  0  0  0  0  0  0  0  0  0  0  0
   12.0729    1.2718    0.0000 H   0  0  0  0  0  0  0  0  0  0  0  0
   11.6711    1.9616    0.0000 H   0  0  0  0  0  0  0  0  0  0  0  0
    1.9472    2.0891    0.0000 H   0  0  0  0  0  0  0  0  0  0  0  0
    1.7235    1.2413    0.0000 H   0  0  0  0  0  0  0  0  0  0  0  0
    2.5713    1.0176    0.0000 H   0  0  0  0  0  0  0  0  0  0  0  0
    4.2995    2.0243    0.0000 H   0  0  0  0  0  0  0  0  0  0  0  0
    4.5232    2.8721    0.0000 H   0  0  0  0  0  0  0  0  0  0  0  0
    3.6754    3.0958    0.0000 H   0  0  0  0  0  0  0  0  0  0  0  0
    2.0000    2.9184    0.0000 H   0  0  0  0  0  0  0  0  0  0  0  0
    8.2591    3.1671    0.0000 H   0  0  0  0  0  0  0  0  0  0  0  0
   13.1965    0.9496    0.0000 H   0  0  0  0  0  0  0  0  0  0  0  0
   11.7842   -1.4750    0.0000 H   0  0  0  0  0  0  0  0  0  0  0  0
   15.4565   -1.3692    0.0000 H   0  0  0  0  0  0  0  0  0  0  0  0
   12.0067   -2.6289    0.0000 H   0  0  0  0  0  0  0  0  0  0  0  0
   11.7765   -3.4750    0.0000 H   0  0  0  0  0  0  0  0  0  0  0  0
   12.6225   -3.7052    0.0000 H   0  0  0  0  0  0  0  0  0  0  0  0
   15.5500    1.3205    0.0000 H   0  0  0  0  0  0  0  0  0  0  0  0
   14.9324    1.9429    0.0000 H   0  0  0  0  0  0  0  0  0  0  0  0
   14.3100    1.3253    0.0000 H   0  0  0  0  0  0  0  0  0  0  0  0
  1  9  1  0  0  0  0
  1 16  1  0  0  0  0
  2 22  1  0  0  0  0
  2 23  1  0  0  0  0
  3 18  1  0  0  0  0
  3 59  1  0  0  0  0
  4 19  1  0  0  0  0
  4 60  1  0  0  0  0
  5 25  2  0  0  0  0
  6 31  1  0  0  0  0
  6 34  1  0  0  0  0
  7 32  1  0  0  0  0
  7 35  1  0  0  0  0
  8 33  1  0  0  0  0
  8 63  1  0  0  0  0
  9 10  1  0  0  0  0
  9 11  1  0  0  0  0
  9 15  1  0  0  0  0
 10 12  1  0  0  0  0
 10 36  1  0  0  0  0
 10 37  1  0  0  0  0
 11 13  1  0  0  0  0
 11 38  1  0  0  0  0
 11 39  1  0  0  0  0
 12 14  1  0  0  0  0
 12 40  1  0  0  0  0
 12 41  1  0  0  0  0
 13 17  1  0  0  0  0
 13 42  1  0  0  0  0
 13 43  1  0  0  0  0
 14 16  1  0  0  0  0
 14 19  2  0  0  0  0
 15 44  1  0  0  0  0
 15 45  1  0  0  0  0
 15 46  1  0  0  0  0
 16 20  2  0  0  0  0
 17 18  1  0  0  0  0
 17 47  1  0  0  0  0
 17 48  1  0  0  0  0
 18 26  1  0  0  0  0
 18 27  1  0  0  0  0
 19 21  1  0  0  0  0
 20 22  1  0  0  0  0
 20 49  1  0  0  0  0
 21 22  2  0  0  0  0
 21 25  1  0  0  0  0
 23 24  1  0  0  0  0
 23 28  1  1  0  0  0
 23 50  1  0  0  0  0
 24 25  1  0  0  0  0
 24 51  1  0  0  0  0
 24 52  1  0  0  0  0
 26 53  1  0  0  0  0
 26 54  1  0  0  0  0
 26 55  1  0  0  0  0
 27 56  1  0  0  0  0
 27 57  1  0  0  0  0
 27 58  1  0  0  0  0
 28 29  2  0  0  0  0
 28 30  1  0  0  0  0
 29 32  1  0  0  0  0
 29 61  1  0  0  0  0
 30 31  2  0  0  0  0
 30 62  1  0  0  0  0
 31 33  1  0  0  0  0
 32 33  2  0  0  0  0
 34 64  1  0  0  0  0
 34 65  1  0  0  0  0
 34 66  1  0  0  0  0
 35 67  1  0  0  0  0
 35 68  1  0  0  0  0
 35 69  1  0  0  0  0
M  END
> <PUBCHEM_COMPOUND_CID>
71659766

> <PUBCHEM_COMPOUND_CANONICALIZED>
1

> <PUBCHEM_CACTVS_COMPLEXITY>
729

> <PUBCHEM_CACTVS_HBOND_ACCEPTOR>
8

> <PUBCHEM_CACTVS_HBOND_DONOR>
3

> <PUBCHEM_CACTVS_ROTATABLE_BOND>
7

> <PUBCHEM_CACTVS_SUBSKEYS>
AAADcfB4PAAAAAAAAAAAAAAAAAAAAAAAAAA0aIEAAAAAAACRQAAAGgAACAAADFSgmAIyBoAABgCIAqBSAAACCAAkIAAAiAEGiMgNJzaGNRqCeWOl4BULuQfI7PzOIAADCAAIQABAAAYQABCAAAAAAAAAAA==

> <PUBCHEM_IUPAC_OPENEYE_NAME>
(8S)-5-hydroxy-8-(4-hydroxy-3,5-dimethoxy-phenyl)-2-(4-hydroxy-4-methyl-pentyl)-2-methyl-3,4,7,8-tetrahydropyrano[3,2-g]chromen-6-one

> <PUBCHEM_IUPAC_CAS_NAME>
(8S)-5-hydroxy-8-(4-hydroxy-3,5-dimethoxyphenyl)-2-(4-hydroxy-4-methylpentyl)-2-methyl-3,4,7,8-tetrahydropyrano[3,2-g][1]benzopyran-6-one

> <PUBCHEM_IUPAC_NAME_MARKUP>
(8<I>S</I>)-5-hydroxy-8-(4-hydroxy-3,5-dimethoxyphenyl)-2-(4-hydroxy-4-methylpentyl)-2-methyl-3,4,7,8-tetrahydropyrano[3,2-g]chromen-6-one

> <PUBCHEM_IUPAC_NAME>
(8S)-5-hydroxy-8-(4-hydroxy-3,5-dimethoxyphenyl)-2-(4-hydroxy-4-methylpentyl)-2-methyl-3,4,7,8-tetrahydropyrano[3,2-g]chromen-6-one

> <PUBCHEM_IUPAC_SYSTEMATIC_NAME>
(8S)-8-(3,5-dimethoxy-4-oxidanyl-phenyl)-2-methyl-2-(4-methyl-4-oxidanyl-pentyl)-5-oxidanyl-3,4,7,8-tetrahydropyrano[3,2-g]chromen-6-one

> <PUBCHEM_IUPAC_TRADITIONAL_NAME>
(8S)-5-hydroxy-8-(4-hydroxy-3,5-dimethoxy-phenyl)-2-(4-hydroxy-4-methyl-pentyl)-2-methyl-3,4,7,8-tetrahydropyrano[3,2-g]chromen-6-one

> <PUBCHEM_IUPAC_INCHI>
InChI=1S/C27H34O8/c1-26(2,31)8-6-9-27(3)10-7-16-19(35-27)14-20-23(24(16)29)17(28)13-18(34-20)15-11-21(32-4)25(30)22(12-15)33-5/h11-12,14,18,29-31H,6-10,13H2,1-5H3/t18-,27?/m0/s1

> <PUBCHEM_IUPAC_INCHIKEY>
DHYMKZKAVOUQFT-HSYKDVHTSA-N

> <PUBCHEM_XLOGP3_AA>
4.3

> <PUBCHEM_EXACT_MASS>
486.22536804

> <PUBCHEM_MOLECULAR_FORMULA>
C27H34O8

> <PUBCHEM_MOLECULAR_WEIGHT>
486.6

> <PUBCHEM_OPENEYE_CAN_SMILES>
CC1(CCC2=C(C3=C(C=C2O1)OC(CC3=O)C4=CC(=C(C(=C4)OC)O)OC)O)CCCC(C)(C)O

> <PUBCHEM_OPENEYE_ISO_SMILES>
CC1(CCC2=C(C3=C(C=C2O1)O[C@@H](CC3=O)C4=CC(=C(C(=C4)OC)O)OC)O)CCCC(C)(C)O

> <PUBCHEM_CACTVS_TPSA>
115

> <PUBCHEM_MONOISOTOPIC_WEIGHT>
486.22536804

> <PUBCHEM_TOTAL_CHARGE>
0

> <PUBCHEM_HEAVY_ATOM_COUNT>
35

> <PUBCHEM_ATOM_DEF_STEREO_COUNT>
1

> <PUBCHEM_ATOM_UDEF_STEREO_COUNT>
1

> <PUBCHEM_BOND_DEF_STEREO_COUNT>
0

> <PUBCHEM_BOND_UDEF_STEREO_COUNT>
0

> <PUBCHEM_ISOTOPIC_ATOM_COUNT>
0

> <PUBCHEM_COMPONENT_COUNT>
1

> <PUBCHEM_CACTVS_TAUTO_COUNT>
-1

> <PUBCHEM_COORDINATE_TYPE>
1
5
255

> <PUBCHEM_BONDANNOTATIONS>
14  16  8
14  19  8
16  20  8
19  21  8
20  22  8
21  22  8
23  28  5
28  29  8
28  30  8
29  32  8
30  31  8
31  33  8
32  33  8
9  15  3

$$$$
