MCSJ51_0035
  -OEChem-07172407062D

 66 68  0     1  0  0  0  0  0999 V2000
   11.5542   -0.1776    0.0000 O   0  0  0  0  0  0  0  0  0  0  0  0
    9.7942    2.8571    0.0000 O   0  0  0  0  0  0  0  0  0  0  0  0
   11.5426    2.8917    0.0000 O   0  0  0  0  0  0  0  0  0  0  0  0
    8.0622   -0.1429    0.0000 O   0  0  0  0  0  0  0  0  0  0  0  0
   15.9243    0.3229    0.0000 O   0  0  0  0  0  0  0  0  0  0  0  0
   14.1807   -2.6704    0.0000 O   0  0  0  0  0  0  0  0  0  0  0  0
   15.9166   -1.6771    0.0000 O   0  0  0  0  0  0  0  0  0  0  0  0
   12.4603    0.3362    0.0000 C   0  0  3  0  0  0  0  0  0  0  0  0
   12.4603    1.3779    0.0000 C   0  0  0  0  0  0  0  0  0  0  0  0
   10.6603    1.3571    0.0000 C   0  0  0  0  0  0  0  0  0  0  0  0
   10.6603    0.3571    0.0000 C   0  0  0  0  0  0  0  0  0  0  0  0
   11.5542    1.8917    0.0000 C   0  0  0  0  0  0  0  0  0  0  0  0
   13.3244   -0.1671    0.0000 C   0  0  0  0  0  0  0  0  0  0  0  0
    8.9282    1.3571    0.0000 C   0  0  0  0  0  0  0  0  0  0  0  0
    9.7942    1.8571    0.0000 C   0  0  0  0  0  0  0  0  0  0  0  0
    9.7942   -0.1429    0.0000 C   0  0  0  0  0  0  0  0  0  0  0  0
    8.0622    1.8571    0.0000 C   0  0  0  0  0  0  0  0  0  0  0  0
    8.9282    0.3571    0.0000 C   0  0  0  0  0  0  0  0  0  0  0  0
   13.3205   -1.1671    0.0000 C   0  0  0  0  0  0  0  0  0  0  0  0
   14.1923    0.3296    0.0000 C   0  0  0  0  0  0  0  0  0  0  0  0
    7.1962    1.3571    0.0000 C   0  0  0  0  0  0  0  0  0  0  0  0
    6.3301    1.8571    0.0000 C   0  0  0  0  0  0  0  0  0  0  0  0
   15.0564   -0.1738    0.0000 C   0  0  0  0  0  0  0  0  0  0  0  0
   14.1846   -1.6704    0.0000 C   0  0  0  0  0  0  0  0  0  0  0  0
    5.4641    1.3571    0.0000 C   0  0  0  0  0  0  0  0  0  0  0  0
   15.0525   -1.1738    0.0000 C   0  0  0  0  0  0  0  0  0  0  0  0
    4.5981    1.8571    0.0000 C   0  0  0  0  0  0  0  0  0  0  0  0
    6.3301    2.8571    0.0000 C   0  0  0  0  0  0  0  0  0  0  0  0
    3.7320    1.3571    0.0000 C   0  0  0  0  0  0  0  0  0  0  0  0
    2.8660    1.8571    0.0000 C   0  0  0  0  0  0  0  0  0  0  0  0
   15.9282    1.3229    0.0000 C   0  0  0  0  0  0  0  0  0  0  0  0
   13.3128   -3.1671    0.0000 C   0  0  0  0  0  0  0  0  0  0  0  0
    2.0000    1.3571    0.0000 C   0  0  0  0  0  0  0  0  0  0  0  0
    2.8660    2.8571    0.0000 C   0  0  0  0  0  0  0  0  0  0  0  0
   12.9978    0.6452    0.0000 H   0  0  0  0  0  0  0  0  0  0  0  0
   13.0711    1.2718    0.0000 H   0  0  0  0  0  0  0  0  0  0  0  0
   12.6693    1.9616    0.0000 H   0  0  0  0  0  0  0  0  0  0  0  0
    9.7942   -0.7629    0.0000 H   0  0  0  0  0  0  0  0  0  0  0  0
    8.4607    2.3320    0.0000 H   0  0  0  0  0  0  0  0  0  0  0  0
    7.6636    2.3320    0.0000 H   0  0  0  0  0  0  0  0  0  0  0  0
   12.7824   -1.4750    0.0000 H   0  0  0  0  0  0  0  0  0  0  0  0
   14.1947    0.9496    0.0000 H   0  0  0  0  0  0  0  0  0  0  0  0
    7.1962    0.7371    0.0000 H   0  0  0  0  0  0  0  0  0  0  0  0
    5.0656    0.8821    0.0000 H   0  0  0  0  0  0  0  0  0  0  0  0
    5.8626    0.8821    0.0000 H   0  0  0  0  0  0  0  0  0  0  0  0
    4.9966    2.3320    0.0000 H   0  0  0  0  0  0  0  0  0  0  0  0
    4.1996    2.3320    0.0000 H   0  0  0  0  0  0  0  0  0  0  0  0
    9.2573    3.1671    0.0000 H   0  0  0  0  0  0  0  0  0  0  0  0
    6.9501    2.8571    0.0000 H   0  0  0  0  0  0  0  0  0  0  0  0
    6.3301    3.4771    0.0000 H   0  0  0  0  0  0  0  0  0  0  0  0
    5.7101    2.8571    0.0000 H   0  0  0  0  0  0  0  0  0  0  0  0
    8.0622   -0.7629    0.0000 H   0  0  0  0  0  0  0  0  0  0  0  0
    3.7320    0.7371    0.0000 H   0  0  0  0  0  0  0  0  0  0  0  0
   16.4548   -1.3692    0.0000 H   0  0  0  0  0  0  0  0  0  0  0  0
   16.5482    1.3205    0.0000 H   0  0  0  0  0  0  0  0  0  0  0  0
   15.9306    1.9429    0.0000 H   0  0  0  0  0  0  0  0  0  0  0  0
   15.3082    1.3253    0.0000 H   0  0  0  0  0  0  0  0  0  0  0  0
   13.0049   -2.6289    0.0000 H   0  0  0  0  0  0  0  0  0  0  0  0
   12.7747   -3.4750    0.0000 H   0  0  0  0  0  0  0  0  0  0  0  0
   13.6207   -3.7052    0.0000 H   0  0  0  0  0  0  0  0  0  0  0  0
    1.6900    1.8940    0.0000 H   0  0  0  0  0  0  0  0  0  0  0  0
    1.4631    1.0471    0.0000 H   0  0  0  0  0  0  0  0  0  0  0  0
    2.3100    0.8201    0.0000 H   0  0  0  0  0  0  0  0  0  0  0  0
    3.4860    2.8571    0.0000 H   0  0  0  0  0  0  0  0  0  0  0  0
    2.8660    3.4771    0.0000 H   0  0  0  0  0  0  0  0  0  0  0  0
    2.2460    2.8571    0.0000 H   0  0  0  0  0  0  0  0  0  0  0  0
  1  8  1  0  0  0  0
  1 11  1  0  0  0  0
  2 15  1  0  0  0  0
  2 48  1  0  0  0  0
  3 12  2  0  0  0  0
  4 18  1  0  0  0  0
  4 52  1  0  0  0  0
  5 23  1  0  0  0  0
  5 31  1  0  0  0  0
  6 24  1  0  0  0  0
  6 32  1  0  0  0  0
  7 26  1  0  0  0  0
  7 54  1  0  0  0  0
  8  9  1  0  0  0  0
  8 13  1  0  0  0  0
  8 35  1  0  0  0  0
  9 12  1  0  0  0  0
  9 36  1  0  0  0  0
  9 37  1  0  0  0  0
 10 11  2  0  0  0  0
 10 12  1  0  0  0  0
 10 15  1  0  0  0  0
 11 16  1  0  0  0  0
 13 19  2  0  0  0  0
 13 20  1  0  0  0  0
 14 15  2  0  0  0  0
 14 17  1  0  0  0  0
 14 18  1  0  0  0  0
 16 18  2  0  0  0  0
 16 38  1  0  0  0  0
 17 21  1  0  0  0  0
 17 39  1  0  0  0  0
 17 40  1  0  0  0  0
 19 24  1  0  0  0  0
 19 41  1  0  0  0  0
 20 23  2  0  0  0  0
 20 42  1  0  0  0  0
 21 22  2  0  0  0  0
 21 43  1  0  0  0  0
 22 25  1  0  0  0  0
 22 28  1  0  0  0  0
 23 26  1  0  0  0  0
 24 26  2  0  0  0  0
 25 27  1  0  0  0  0
 25 44  1  0  0  0  0
 25 45  1  0  0  0  0
 27 29  1  0  0  0  0
 27 46  1  0  0  0  0
 27 47  1  0  0  0  0
 28 49  1  0  0  0  0
 28 50  1  0  0  0  0
 28 51  1  0  0  0  0
 29 30  2  0  0  0  0
 29 53  1  0  0  0  0
 30 33  1  0  0  0  0
 30 34  1  0  0  0  0
 31 55  1  0  0  0  0
 31 56  1  0  0  0  0
 31 57  1  0  0  0  0
 32 58  1  0  0  0  0
 32 59  1  0  0  0  0
 32 60  1  0  0  0  0
 33 61  1  0  0  0  0
 33 62  1  0  0  0  0
 33 63  1  0  0  0  0
 34 64  1  0  0  0  0
 34 65  1  0  0  0  0
 34 66  1  0  0  0  0
M  END
> <PUBCHEM_COMPOUND_CID>
70689406

> <PUBCHEM_COMPOUND_CANONICALIZED>
1

> <PUBCHEM_CACTVS_COMPLEXITY>
729

> <PUBCHEM_CACTVS_HBOND_ACCEPTOR>
7

> <PUBCHEM_CACTVS_HBOND_DONOR>
3

> <PUBCHEM_CACTVS_ROTATABLE_BOND>
8

> <PUBCHEM_CACTVS_SUBSKEYS>
AAADcfB4OAAAAAAAAAAAAAAAAAAAAAAAAAA0YIAAAAAAAACRQAAAGgAACAAADBSgmAIyBoAABgCIAqBSAAACCAAkIAAAiAEGiMgNJzaGNRqCeWOl4BULuQfI7PzOIAADCAAIQABAAAYQABCAAAAAAAAAAA==

> <PUBCHEM_IUPAC_OPENEYE_NAME>
6-[(2E)-3,7-dimethylocta-2,6-dienyl]-5,7-dihydroxy-2-(4-hydroxy-3,5-dimethoxy-phenyl)chroman-4-one

> <PUBCHEM_IUPAC_CAS_NAME>
6-[(2E)-3,7-dimethylocta-2,6-dienyl]-5,7-dihydroxy-2-(4-hydroxy-3,5-dimethoxyphenyl)-3,4-dihydro-2H-1-benzopyran-4-one

> <PUBCHEM_IUPAC_NAME_MARKUP>
6-[(2<I>E</I>)-3,7-dimethylocta-2,6-dienyl]-5,7-dihydroxy-2-(4-hydroxy-3,5-dimethoxyphenyl)-2,3-dihydrochromen-4-one

> <PUBCHEM_IUPAC_NAME>
6-[(2E)-3,7-dimethylocta-2,6-dienyl]-5,7-dihydroxy-2-(4-hydroxy-3,5-dimethoxyphenyl)-2,3-dihydrochromen-4-one

> <PUBCHEM_IUPAC_SYSTEMATIC_NAME>
2-(3,5-dimethoxy-4-oxidanyl-phenyl)-6-[(2E)-3,7-dimethylocta-2,6-dienyl]-5,7-bis(oxidanyl)-2,3-dihydrochromen-4-one

> <PUBCHEM_IUPAC_TRADITIONAL_NAME>
6-[(2E)-3,7-dimethylocta-2,6-dienyl]-5,7-dihydroxy-2-(4-hydroxy-3,5-dimethoxy-phenyl)chroman-4-one

> <PUBCHEM_IUPAC_INCHI>
InChI=1S/C27H32O7/c1-15(2)7-6-8-16(3)9-10-18-19(28)13-22-25(26(18)30)20(29)14-21(34-22)17-11-23(32-4)27(31)24(12-17)33-5/h7,9,11-13,21,28,30-31H,6,8,10,14H2,1-5H3/b16-9+

> <PUBCHEM_IUPAC_INCHIKEY>
UPBJEHBYZUPVDF-CXUHLZMHSA-N

> <PUBCHEM_XLOGP3_AA>
6.1

> <PUBCHEM_EXACT_MASS>
468.21480336

> <PUBCHEM_MOLECULAR_FORMULA>
C27H32O7

> <PUBCHEM_MOLECULAR_WEIGHT>
468.5

> <PUBCHEM_OPENEYE_CAN_SMILES>
CC(=CCCC(=CCC1=C(C2=C(C=C1O)OC(CC2=O)C3=CC(=C(C(=C3)OC)O)OC)O)C)C

> <PUBCHEM_OPENEYE_ISO_SMILES>
CC(=CCC/C(=C/CC1=C(C2=C(C=C1O)OC(CC2=O)C3=CC(=C(C(=C3)OC)O)OC)O)/C)C

> <PUBCHEM_CACTVS_TPSA>
105

> <PUBCHEM_MONOISOTOPIC_WEIGHT>
468.21480336

> <PUBCHEM_TOTAL_CHARGE>
0

> <PUBCHEM_HEAVY_ATOM_COUNT>
34

> <PUBCHEM_ATOM_DEF_STEREO_COUNT>
0

> <PUBCHEM_ATOM_UDEF_STEREO_COUNT>
1

> <PUBCHEM_BOND_DEF_STEREO_COUNT>
1

> <PUBCHEM_BOND_UDEF_STEREO_COUNT>
0

> <PUBCHEM_ISOTOPIC_ATOM_COUNT>
0

> <PUBCHEM_COMPONENT_COUNT>
1

> <PUBCHEM_CACTVS_TAUTO_COUNT>
-1

> <PUBCHEM_COORDINATE_TYPE>
1
5
255

> <PUBCHEM_BONDANNOTATIONS>
10  11  8
10  15  8
11  16  8
13  19  8
13  20  8
14  15  8
14  18  8
16  18  8
19  24  8
20  23  8
23  26  8
24  26  8
8  13  3

$$$$
