Phosphonoacetic Acid, 3TMS derivative
  -OEChem-12152007083D

 49 48  0     0  0  0  0  0  0999 V2000
    1.0859    0.0005    0.3253 P   0  0  0  0  0  0  0  0  0  0  0  0
    2.3227   -2.4805   -0.2464 Si  0  0  0  0  0  0  0  0  0  0  0  0
    2.3187    2.5044   -0.1509 Si  0  0  0  0  0  0  0  0  0  0  0  0
   -4.3543    0.0871   -0.1677 Si  0  0  0  0  0  0  0  0  0  0  0  0
    1.0603   -1.4092   -0.4733 O   0  0  0  0  0  0  0  0  0  0  0  0
    2.2357    0.8589   -0.4213 O   0  0  0  0  0  0  0  0  0  0  0  0
   -2.7715    0.5982   -0.3623 O   0  0  0  0  0  0  0  0  0  0  0  0
    1.1417   -0.1138    1.8230 O   0  0  0  0  0  0  0  0  0  0  0  0
   -1.6497   -1.0649    0.7920 O   0  0  0  0  0  0  0  0  0  0  0  0
   -0.4401    0.7388   -0.2579 C   0  0  0  0  0  0  0  0  0  0  0  0
    2.0184   -4.0219   -1.2993 C   0  0  0  0  0  0  0  0  0  0  0  0
    2.4980   -3.0480    1.5360 C   0  0  0  0  0  0  0  0  0  0  0  0
    3.9639   -1.7439   -0.7992 C   0  0  0  0  0  0  0  0  0  0  0  0
    2.6032    2.8690    1.6746 C   0  0  0  0  0  0  0  0  0  0  0  0
    0.7825    3.4232   -0.7143 C   0  0  0  0  0  0  0  0  0  0  0  0
    3.7878    3.2173   -1.1012 C   0  0  0  0  0  0  0  0  0  0  0  0
   -1.6688   -0.0335    0.1331 C   0  0  0  0  0  0  0  0  0  0  0  0
   -4.8178    0.0076    1.6530 C   0  0  0  0  0  0  0  0  0  0  0  0
   -5.5491    1.2454   -1.0431 C   0  0  0  0  0  0  0  0  0  0  0  0
   -4.5676   -1.6345   -0.9003 C   0  0  0  0  0  0  0  0  0  0  0  0
   -0.5927    1.6909    0.2415 H   0  0  0  0  0  0  0  0  0  0  0  0
   -0.4288    0.8351   -1.3470 H   0  0  0  0  0  0  0  0  0  0  0  0
    1.9468   -3.7517   -2.3568 H   0  0  0  0  0  0  0  0  0  0  0  0
    2.8374   -4.7366   -1.1772 H   0  0  0  0  0  0  0  0  0  0  0  0
    1.0849   -4.5076   -1.0007 H   0  0  0  0  0  0  0  0  0  0  0  0
    2.8317   -2.2278    2.1777 H   0  0  0  0  0  0  0  0  0  0  0  0
    1.5420   -3.4187    1.9172 H   0  0  0  0  0  0  0  0  0  0  0  0
    3.2331   -3.8551    1.6105 H   0  0  0  0  0  0  0  0  0  0  0  0
    4.2724   -0.9345   -0.1316 H   0  0  0  0  0  0  0  0  0  0  0  0
    4.7474   -2.5075   -0.7894 H   0  0  0  0  0  0  0  0  0  0  0  0
    3.8843   -1.3461   -1.8150 H   0  0  0  0  0  0  0  0  0  0  0  0
    2.7863    3.9367    1.8271 H   0  0  0  0  0  0  0  0  0  0  0  0
    1.7296    2.5854    2.2681 H   0  0  0  0  0  0  0  0  0  0  0  0
    3.4697    2.3140    2.0456 H   0  0  0  0  0  0  0  0  0  0  0  0
    1.0784    4.4330   -1.0221 H   0  0  0  0  0  0  0  0  0  0  0  0
    0.3139    2.9632   -1.5872 H   0  0  0  0  0  0  0  0  0  0  0  0
    0.0552    3.5657    0.0884 H   0  0  0  0  0  0  0  0  0  0  0  0
    3.8773    4.2923   -0.9200 H   0  0  0  0  0  0  0  0  0  0  0  0
    4.7163    2.7332   -0.7848 H   0  0  0  0  0  0  0  0  0  0  0  0
    3.6609    3.0550   -2.1755 H   0  0  0  0  0  0  0  0  0  0  0  0
   -4.1807   -0.7044    2.1855 H   0  0  0  0  0  0  0  0  0  0  0  0
   -4.7017    0.9895    2.1209 H   0  0  0  0  0  0  0  0  0  0  0  0
   -5.8583   -0.3090    1.7713 H   0  0  0  0  0  0  0  0  0  0  0  0
   -5.3258    1.2903   -2.1131 H   0  0  0  0  0  0  0  0  0  0  0  0
   -6.5802    0.9011   -0.9205 H   0  0  0  0  0  0  0  0  0  0  0  0
   -5.4727    2.2568   -0.6331 H   0  0  0  0  0  0  0  0  0  0  0  0
   -4.2973   -1.6350   -1.9603 H   0  0  0  0  0  0  0  0  0  0  0  0
   -3.9324   -2.3588   -0.3823 H   0  0  0  0  0  0  0  0  0  0  0  0
   -5.6070   -1.9634   -0.8095 H   0  0  0  0  0  0  0  0  0  0  0  0
  1  5  1  0  0  0  0
  1  6  1  0  0  0  0
  1  8  2  0  0  0  0
  1 10  1  0  0  0  0
  2  5  1  0  0  0  0
  2 11  1  0  0  0  0
  2 12  1  0  0  0  0
  2 13  1  0  0  0  0
  3  6  1  0  0  0  0
  3 14  1  0  0  0  0
  3 15  1  0  0  0  0
  3 16  1  0  0  0  0
  4  7  1  0  0  0  0
  4 18  1  0  0  0  0
  4 19  1  0  0  0  0
  4 20  1  0  0  0  0
  7 17  1  0  0  0  0
  9 17  2  0  0  0  0
 10 17  1  0  0  0  0
 10 21  1  0  0  0  0
 10 22  1  0  0  0  0
 11 23  1  0  0  0  0
 11 24  1  0  0  0  0
 11 25  1  0  0  0  0
 12 26  1  0  0  0  0
 12 27  1  0  0  0  0
 12 28  1  0  0  0  0
 13 29  1  0  0  0  0
 13 30  1  0  0  0  0
 13 31  1  0  0  0  0
 14 32  1  0  0  0  0
 14 33  1  0  0  0  0
 14 34  1  0  0  0  0
 15 35  1  0  0  0  0
 15 36  1  0  0  0  0
 15 37  1  0  0  0  0
 16 38  1  0  0  0  0
 16 39  1  0  0  0  0
 16 40  1  0  0  0  0
 18 41  1  0  0  0  0
 18 42  1  0  0  0  0
 18 43  1  0  0  0  0
 19 44  1  0  0  0  0
 19 45  1  0  0  0  0
 19 46  1  0  0  0  0
 20 47  1  0  0  0  0
 20 48  1  0  0  0  0
 20 49  1  0  0  0  0
M  END
> <PUBCHEM_COMPOUND_CID>
631032

> <PUBCHEM_CONFORMER_RMSD>
0.8

> <PUBCHEM_CONFORMER_DIVERSEORDER>
1
30
91
71
73
63
17
69
120
104
12
68
29
125
118
39
46
16
78
74
18
103
67
66
42
59
105
58
26
97
102
27
111
5
76
107
13
53
65
11
62
114
28
6
72
32
90
45
115
64
61
79
31
24
85
122
101
113
83
50
9
7
10
82
57
116
98
80
119
109
77
88
92
100
93
8
4
75
19
81
106
95
34
99
33
87
96
37
56
94
55
21
3
43
20
47
110
36
84
126
89
23
70
60
112
40
108
15
54
86
124
25
117
48
14
22
123
41
2
49
44
38
121
52
51
35

> <PUBCHEM_MMFF94_PARTIAL_CHARGES>
20
1 1.24
10 0.06
11 -0.08
12 -0.08
13 -0.08
14 -0.08
15 -0.08
16 -0.08
17 0.66
18 -0.08
19 -0.08
2 0.54
20 -0.08
3 0.54
4 0.54
5 -0.57
6 -0.57
7 -0.45
8 -0.7
9 -0.57

> <PUBCHEM_EFFECTIVE_ROTOR_COUNT>
8

> <PUBCHEM_PHARMACOPHORE_FEATURES>
2
1 8 acceptor
1 9 acceptor

> <PUBCHEM_HEAVY_ATOM_COUNT>
20

> <PUBCHEM_ATOM_DEF_STEREO_COUNT>
0

> <PUBCHEM_ATOM_UDEF_STEREO_COUNT>
0

> <PUBCHEM_BOND_DEF_STEREO_COUNT>
0

> <PUBCHEM_BOND_UDEF_STEREO_COUNT>
0

> <PUBCHEM_ISOTOPIC_ATOM_COUNT>
0

> <PUBCHEM_COMPONENT_COUNT>
1

> <PUBCHEM_CACTVS_TAUTO_COUNT>
1

> <PUBCHEM_CONFORMER_ID>
0009A0F800000001

> <PUBCHEM_MMFF94_ENERGY>
23.5226

> <PUBCHEM_FEATURE_SELFOVERLAP>
10.149

> <PUBCHEM_SHAPE_FINGERPRINT>
11405975 8 18337388250088333617
12553582 1 18267307521389979055
12730499 353 18337402654976062689
12788726 201 17830744153565265122
13533116 47 18342739624857424867
13681431 1 18339369543955309978
13955234 65 18342458157785048355
14251757 5 17615693929509582733
15502722 9 18410014368250933221
15664445 248 18198357164940362678
17818456 19 17486785077909641801
1813 80 18197497316149693499
18785283 64 18334864952021734396
20369508 70 18262515884007076867
20600515 1 17615104608942383616
20645477 70 18409724058890628111
20671657 1 18273214226776607419
20832881 197 17970909956092985867
21054139 6 17982721171854469423
21524375 3 18047184430347001592
2255824 54 18412545414016989270
23419403 2 17679834087035555438
23557571 272 17619331118912889002
23559900 14 18271516525215820619
23598291 2 18202006521036004285
3060560 45 18339644554969576988
314173 41 18265897951915313535
46194498 28 18335699412817533943
474 4 18264209295439204701
495365 180 18341325682019654520
5104073 3 18410573981869386435
59755656 215 18333448738238300852
633830 44 18187357710945761879
7364860 26 18412544314589432640
81228 2 17546733651627431114
90127 26 18041000614476926561
9709674 26 18334294310093356163
9841814 1 18261951826041719002

> <PUBCHEM_SHAPE_MULTIPOLES>
440.73
9.83
4.89
1.5
16.41
0.39
0.56
-0.42
-1.35
-7.94
-0.98
-0.16
0.1
0.15

> <PUBCHEM_SHAPE_SELFOVERLAP>
772.821

> <PUBCHEM_SHAPE_VOLUME>
290.3

> <PUBCHEM_COORDINATE_TYPE>
2
5
10

$$$$
