SA4_0002
  -OEChem-07172407072D

 42 44  0     0  0  0  0  0  0999 V2000
    6.0682   -1.5600    0.0000 O   0  0  0  0  0  0  0  0  0  0  0  0
   10.3984    1.9400    0.0000 O   0  0  0  0  0  0  0  0  0  0  0  0
    6.0682    1.4400    0.0000 O   0  0  0  0  0  0  0  0  0  0  0  0
    2.5381   -1.5842    0.0000 O   0  0  0  0  0  0  0  0  0  0  0  0
    7.8003    0.4400    0.0000 C   0  0  0  0  0  0  0  0  0  0  0  0
    9.5323    0.4400    0.0000 C   0  0  0  0  0  0  0  0  0  0  0  0
    6.9343   -0.0600    0.0000 C   0  0  0  0  0  0  0  0  0  0  0  0
   10.3984   -0.0600    0.0000 C   0  0  0  0  0  0  0  0  0  0  0  0
    8.6663   -0.0600    0.0000 C   0  0  0  0  0  0  0  0  0  0  0  0
    5.2022   -0.0600    0.0000 C   0  0  0  0  0  0  0  0  0  0  0  0
    6.0682    0.4400    0.0000 C   0  0  0  0  0  0  0  0  0  0  0  0
    9.5323    1.4400    0.0000 C   0  0  0  0  0  0  0  0  0  0  0  0
    7.8003    1.4400    0.0000 C   0  0  0  0  0  0  0  0  0  0  0  0
    5.2022   -1.0600    0.0000 C   0  0  0  0  0  0  0  0  0  0  0  0
    8.6663    1.9400    0.0000 C   0  0  0  0  0  0  0  0  0  0  0  0
    6.9343   -1.0600    0.0000 C   0  0  0  0  0  0  0  0  0  0  0  0
   10.3984   -1.0600    0.0000 C   0  0  0  0  0  0  0  0  0  0  0  0
    4.3083    0.4747    0.0000 C   0  0  0  0  0  0  0  0  0  0  0  0
   11.2644   -1.5600    0.0000 C   0  0  0  0  0  0  0  0  0  0  0  0
    4.3083   -1.5947    0.0000 C   0  0  0  0  0  0  0  0  0  0  0  0
    3.4022   -0.0392    0.0000 C   0  0  0  0  0  0  0  0  0  0  0  0
    3.4022   -1.0808    0.0000 C   0  0  0  0  0  0  0  0  0  0  0  0
   11.2644   -2.5600    0.0000 C   0  0  0  0  0  0  0  0  0  0  0  0
   12.1304   -1.0600    0.0000 C   0  0  0  0  0  0  0  0  0  0  0  0
   11.0090   -0.1677    0.0000 H   0  0  0  0  0  0  0  0  0  0  0  0
   10.6104    0.5226    0.0000 H   0  0  0  0  0  0  0  0  0  0  0  0
    8.6663   -0.6800    0.0000 H   0  0  0  0  0  0  0  0  0  0  0  0
    7.2634    1.7500    0.0000 H   0  0  0  0  0  0  0  0  0  0  0  0
    8.6663    2.5600    0.0000 H   0  0  0  0  0  0  0  0  0  0  0  0
    7.4712   -1.3700    0.0000 H   0  0  0  0  0  0  0  0  0  0  0  0
    9.8614   -1.3700    0.0000 H   0  0  0  0  0  0  0  0  0  0  0  0
    4.3154    1.0946    0.0000 H   0  0  0  0  0  0  0  0  0  0  0  0
    4.3154   -2.2146    0.0000 H   0  0  0  0  0  0  0  0  0  0  0  0
    2.8665    0.2729    0.0000 H   0  0  0  0  0  0  0  0  0  0  0  0
   10.6444   -2.5600    0.0000 H   0  0  0  0  0  0  0  0  0  0  0  0
   11.2644   -3.1800    0.0000 H   0  0  0  0  0  0  0  0  0  0  0  0
   11.8844   -2.5600    0.0000 H   0  0  0  0  0  0  0  0  0  0  0  0
   12.4404   -1.5969    0.0000 H   0  0  0  0  0  0  0  0  0  0  0  0
   12.6674   -0.7500    0.0000 H   0  0  0  0  0  0  0  0  0  0  0  0
   11.8204   -0.5231    0.0000 H   0  0  0  0  0  0  0  0  0  0  0  0
   10.3984    2.5600    0.0000 H   0  0  0  0  0  0  0  0  0  0  0  0
    2.0000   -1.2762    0.0000 H   0  0  0  0  0  0  0  0  0  0  0  0
  1 14  1  0  0  0  0
  1 16  1  0  0  0  0
  2 12  1  0  0  0  0
  2 41  1  0  0  0  0
  3 11  2  0  0  0  0
  4 22  1  0  0  0  0
  4 42  1  0  0  0  0
  5  7  1  0  0  0  0
  5  9  2  0  0  0  0
  5 13  1  0  0  0  0
  6  8  1  0  0  0  0
  6  9  1  0  0  0  0
  6 12  2  0  0  0  0
  7 11  1  0  0  0  0
  7 16  2  0  0  0  0
  8 17  1  0  0  0  0
  8 25  1  0  0  0  0
  8 26  1  0  0  0  0
  9 27  1  0  0  0  0
 10 11  1  0  0  0  0
 10 14  2  0  0  0  0
 10 18  1  0  0  0  0
 12 15  1  0  0  0  0
 13 15  2  0  0  0  0
 13 28  1  0  0  0  0
 14 20  1  0  0  0  0
 15 29  1  0  0  0  0
 16 30  1  0  0  0  0
 17 19  2  0  0  0  0
 17 31  1  0  0  0  0
 18 21  2  0  0  0  0
 18 32  1  0  0  0  0
 19 23  1  0  0  0  0
 19 24  1  0  0  0  0
 20 22  2  0  0  0  0
 20 33  1  0  0  0  0
 21 22  1  0  0  0  0
 21 34  1  0  0  0  0
 23 35  1  0  0  0  0
 23 36  1  0  0  0  0
 23 37  1  0  0  0  0
 24 38  1  0  0  0  0
 24 39  1  0  0  0  0
 24 40  1  0  0  0  0
M  END
> <PUBCHEM_COMPOUND_CID>
5320053

> <PUBCHEM_COMPOUND_CANONICALIZED>
1

> <PUBCHEM_CACTVS_COMPLEXITY>
532

> <PUBCHEM_CACTVS_HBOND_ACCEPTOR>
4

> <PUBCHEM_CACTVS_HBOND_DONOR>
2

> <PUBCHEM_CACTVS_ROTATABLE_BOND>
3

> <PUBCHEM_CACTVS_SUBSKEYS>
AAADceB4OAAAAAAAAAAAAAAAAAAAAAAAAAAwYIAAAAAAAACBQAAAGgAACAAADASgmAIyBoAABgCIAqBSAAACCAAkIAAIiAEGCMgMJzaGNRqAcWAl4BUIuYeI7PzOIAACCAAIAABAAAQQABAAAAAAAAAAAA==

> <PUBCHEM_IUPAC_OPENEYE_NAME>
7-hydroxy-3-[4-hydroxy-3-(3-methylbut-2-enyl)phenyl]chromen-4-one

> <PUBCHEM_IUPAC_CAS_NAME>
7-hydroxy-3-[4-hydroxy-3-(3-methylbut-2-enyl)phenyl]-1-benzopyran-4-one

> <PUBCHEM_IUPAC_NAME_MARKUP>
7-hydroxy-3-[4-hydroxy-3-(3-methylbut-2-enyl)phenyl]chromen-4-one

> <PUBCHEM_IUPAC_NAME>
7-hydroxy-3-[4-hydroxy-3-(3-methylbut-2-enyl)phenyl]chromen-4-one

> <PUBCHEM_IUPAC_SYSTEMATIC_NAME>
3-[3-(3-methylbut-2-enyl)-4-oxidanyl-phenyl]-7-oxidanyl-chromen-4-one

> <PUBCHEM_IUPAC_TRADITIONAL_NAME>
7-hydroxy-3-[4-hydroxy-3-(3-methylbut-2-enyl)phenyl]chromone

> <PUBCHEM_IUPAC_INCHI>
InChI=1S/C20H18O4/c1-12(2)3-4-14-9-13(5-8-18(14)22)17-11-24-19-10-15(21)6-7-16(19)20(17)23/h3,5-11,21-22H,4H2,1-2H3

> <PUBCHEM_IUPAC_INCHIKEY>
OBGPEBYHGIUFBN-UHFFFAOYSA-N

> <PUBCHEM_XLOGP3_AA>
4.4

> <PUBCHEM_EXACT_MASS>
322.12050905

> <PUBCHEM_MOLECULAR_FORMULA>
C20H18O4

> <PUBCHEM_MOLECULAR_WEIGHT>
322.4

> <PUBCHEM_OPENEYE_CAN_SMILES>
CC(=CCC1=C(C=CC(=C1)C2=COC3=C(C2=O)C=CC(=C3)O)O)C

> <PUBCHEM_OPENEYE_ISO_SMILES>
CC(=CCC1=C(C=CC(=C1)C2=COC3=C(C2=O)C=CC(=C3)O)O)C

> <PUBCHEM_CACTVS_TPSA>
66.8

> <PUBCHEM_MONOISOTOPIC_WEIGHT>
322.12050905

> <PUBCHEM_TOTAL_CHARGE>
0

> <PUBCHEM_HEAVY_ATOM_COUNT>
24

> <PUBCHEM_ATOM_DEF_STEREO_COUNT>
0

> <PUBCHEM_ATOM_UDEF_STEREO_COUNT>
0

> <PUBCHEM_BOND_DEF_STEREO_COUNT>
0

> <PUBCHEM_BOND_UDEF_STEREO_COUNT>
0

> <PUBCHEM_ISOTOPIC_ATOM_COUNT>
0

> <PUBCHEM_COMPONENT_COUNT>
1

> <PUBCHEM_CACTVS_TAUTO_COUNT>
15

> <PUBCHEM_COORDINATE_TYPE>
1
5
255

> <PUBCHEM_BONDANNOTATIONS>
1  14  8
1  16  8
10  11  8
10  14  8
10  18  8
12  15  8
13  15  8
14  20  8
18  21  8
20  22  8
21  22  8
5  13  8
5  9  8
6  12  8
6  9  8
7  11  8
7  16  8

$$$$
