SA50_0005.mol
  ChemDraw05292411392D

 45 49  0  0  1  0  0  0  0  0999 V2000
   -3.9124    1.7254    0.0000 C   0  0  0  0  0  0  0  0  0  0  0  0
   -3.9124    0.9004    0.0000 C   0  0  0  0  0  0  0  0  0  0  0  0
   -3.1979    0.4879    0.0000 C   0  0  0  0  0  0  0  0  0  0  0  0
   -2.4834    0.9004    0.0000 C   0  0  0  0  0  0  0  0  0  0  0  0
   -2.4834    1.7254    0.0000 C   0  0  0  0  0  0  0  0  0  0  0  0
   -3.1979    2.1379    0.0000 C   0  0  0  0  0  0  0  0  0  0  0  0
   -1.7690    0.4879    0.0000 C   0  0  0  0  0  0  0  0  0  0  0  0
   -1.0545    0.9004    0.0000 C   0  0  0  0  0  0  0  0  0  0  0  0
   -1.0545    1.7254    0.0000 C   0  0  0  0  0  0  0  0  0  0  0  0
   -1.7690    2.1379    0.0000 O   0  0  0  0  0  0  0  0  0  0  0  0
   -0.3400    0.4879    0.0000 O   0  0  0  0  0  0  0  0  0  0  0  0
   -4.6268    2.1379    0.0000 O   0  0  0  0  0  0  0  0  0  0  0  0
   -3.1979   -0.3371    0.0000 O   0  0  0  0  0  0  0  0  0  0  0  0
   -1.7690   -0.3371    0.0000 O   0  0  0  0  0  0  0  0  0  0  0  0
   -0.3745   -2.5504    0.0000 C   0  0  0  0  0  0  0  0  0  0  0  0
    0.3400   -2.1379    0.0000 C   0  0  0  0  0  0  0  0  0  0  0  0
    0.3400   -1.3129    0.0000 O   0  0  0  0  0  0  0  0  0  0  0  0
   -0.3745   -0.9004    0.0000 C   0  0  0  0  0  0  0  0  0  0  0  0
   -1.0889   -1.3129    0.0000 C   0  0  0  0  0  0  0  0  0  0  0  0
   -1.0889   -2.1379    0.0000 C   0  0  0  0  0  0  0  0  0  0  0  0
   -1.8034   -0.9004    0.0000 O   0  0  0  0  0  0  0  0  0  0  0  0
   -0.3745   -3.3754    0.0000 O   0  0  0  0  0  0  0  0  0  0  0  0
   -1.8034   -2.5504    0.0000 O   0  0  0  0  0  0  0  0  0  0  0  0
    1.0545   -2.5504    0.0000 C   0  0  0  0  0  0  0  0  0  0  0  0
    1.7690   -2.1379    0.0000 O   0  0  0  0  0  0  0  0  0  0  0  0
    2.4834   -2.5504    0.0000 C   0  0  0  0  0  0  0  0  0  0  0  0
    2.4834   -3.3754    0.0000 C   0  0  0  0  0  0  0  0  0  0  0  0
    3.1979   -3.7879    0.0000 C   0  0  0  0  0  0  0  0  0  0  0  0
    3.9124   -3.3754    0.0000 C   0  0  0  0  0  0  0  0  0  0  0  0
    3.9124   -2.5504    0.0000 C   0  0  0  0  0  0  0  0  0  0  0  0
    3.1979   -2.1379    0.0000 O   0  0  0  0  0  0  0  0  0  0  0  0
    1.7690   -3.7879    0.0000 O   0  0  0  0  0  0  0  0  0  0  0  0
    3.1979   -4.6129    0.0000 O   0  0  0  0  0  0  0  0  0  0  0  0
    4.6268   -2.1379    0.0000 C   0  0  0  0  0  0  0  0  0  0  0  0
    4.6268   -3.7879    0.0000 O   0  0  0  0  0  0  0  0  0  0  0  0
   -0.3400    2.1379    0.0000 C   0  0  0  0  0  0  0  0  0  0  0  0
    0.3745    1.7254    0.0000 C   0  0  0  0  0  0  0  0  0  0  0  0
    1.0889    2.1379    0.0000 C   0  0  0  0  0  0  0  0  0  0  0  0
    1.0889    2.9629    0.0000 C   0  0  0  0  0  0  0  0  0  0  0  0
    0.3745    3.3754    0.0000 C   0  0  0  0  0  0  0  0  0  0  0  0
   -0.3400    2.9629    0.0000 C   0  0  0  0  0  0  0  0  0  0  0  0
    0.3745    4.2004    0.0000 O   0  0  0  0  0  0  0  0  0  0  0  0
    1.8034    3.3754    0.0000 O   0  0  0  0  0  0  0  0  0  0  0  0
    1.8034    1.7254    0.0000 O   0  0  0  0  0  0  0  0  0  0  0  0
    1.0889    4.6129    0.0000 C   0  0  0  0  0  0  0  0  0  0  0  0
  1  2  2  0      
  2  3  1  0      
  3  4  2  0      
  4  5  1  0      
  5  6  2  0      
  6  1  1  0      
  4  7  1  0      
  7  8  1  0      
  8  9  2  0      
  9 10  1  0      
 10  5  1  0      
  8 11  1  0      
  1 12  1  0      
  3 13  1  0      
  7 14  2  0      
 15 16  1  0      
 16 17  1  0      
 17 18  1  0      
 18 19  1  0      
 19 20  1  0      
 20 15  1  0      
 19 21  1  1      
 15 22  1  1      
 20 23  1  6      
 16 24  1  6      
 24 25  1  0      
 26 25  1  6      
 26 27  1  0      
 27 28  1  0      
 28 29  1  0      
 29 30  1  0      
 30 31  1  0      
 31 26  1  0      
 27 32  1  1      
 28 33  1  1      
 30 34  1  1      
 29 35  1  6      
 18 11  1  6      
  9 36  1  0      
 36 37  1  0      
 37 38  2  0      
 38 39  1  0      
 39 40  2  0      
 40 41  1  0      
 41 36  2  0      
 40 42  1  0      
 39 43  1  0      
 38 44  1  0      
 42 45  1  0      
M  END
