128563
  -OEChem-07082406002D

 59 62  0     1  0  0  0  0  0999 V2000
    4.4455   -2.0398    0.0000 O   0  0  0  0  0  0  0  0  0  0  0  0
    7.9896    2.0503    0.0000 O   0  0  0  0  0  0  0  0  0  0  0  0
    6.2237    1.0125    0.0000 O   0  0  0  0  0  0  0  0  0  0  0  0
    5.3631   -3.5536    0.0000 O   0  0  0  0  0  0  0  0  0  0  0  0
   10.6195   -0.5322    0.0000 O   0  0  0  0  0  0  0  0  0  0  0  0
    9.7361   -2.0221    0.0000 O   0  0  0  0  0  0  0  0  0  0  0  0
    2.5033    0.7118    0.0000 O   0  0  0  0  0  0  0  0  0  0  0  0
    9.7216    2.0569    0.0000 O   0  0  0  0  0  0  0  0  0  0  0  0
    7.9775   -1.0190    0.0000 C   0  0  1  0  0  0  0  0  0  0  0  0
    6.2455   -1.0190    0.0000 C   0  0  2  0  0  0  0  0  0  0  0  0
    7.1115   -0.5190    0.0000 C   0  0  1  0  0  0  0  0  0  0  0  0
    6.2455   -2.0190    0.0000 C   0  0  1  0  0  0  0  0  0  0  0  0
    7.9775   -2.0190    0.0000 C   0  0  0  0  0  0  0  0  0  0  0  0
    8.8875   -0.5121    0.0000 C   0  0  1  0  0  0  0  0  0  0  0  0
    7.1115   -2.5190    0.0000 C   0  0  0  0  0  0  0  0  0  0  0  0
    5.3515   -0.4843    0.0000 C   0  0  0  0  0  0  0  0  0  0  0  0
    7.0954    0.5225    0.0000 C   0  0  0  0  0  0  0  0  0  0  0  0
    8.8956    0.5295    0.0000 C   0  0  0  0  0  0  0  0  0  0  0  0
    8.8435   -1.5190    0.0000 C   0  0  0  0  0  0  0  0  0  0  0  0
    6.2455   -0.0190    0.0000 C   0  0  0  0  0  0  0  0  0  0  0  0
    7.9935    1.0503    0.0000 C   0  0  2  0  0  0  0  0  0  0  0  0
    4.4455   -0.9982    0.0000 C   0  0  1  0  0  0  0  0  0  0  0  0
    5.3515   -2.5537    0.0000 C   0  0  0  0  0  0  0  0  0  0  0  0
    9.7477   -1.0221    0.0000 C   0  0  0  0  0  0  0  0  0  0  0  0
    3.5814   -0.4948    0.0000 C   0  0  0  0  0  0  0  0  0  0  0  0
    2.6663   -0.8981    0.0000 C   0  0  0  0  0  0  0  0  0  0  0  0
    3.4807    0.5001    0.0000 C   0  0  0  0  0  0  0  0  0  0  0  0
    8.8537    2.5536    0.0000 C   0  0  0  0  0  0  0  0  0  0  0  0
   11.4796   -1.0422    0.0000 C   0  0  0  0  0  0  0  0  0  0  0  0
    2.0000   -0.1523    0.0000 C   0  0  0  0  0  0  0  0  0  0  0  0
    8.8498    3.5536    0.0000 C   0  0  0  0  0  0  0  0  0  0  0  0
    7.8443   -0.0883    0.0000 H   0  0  0  0  0  0  0  0  0  0  0  0
    6.2520   -2.8690    0.0000 H   0  0  0  0  0  0  0  0  0  0  0  0
    8.1896   -2.6016    0.0000 H   0  0  0  0  0  0  0  0  0  0  0  0
    8.5881   -1.9113    0.0000 H   0  0  0  0  0  0  0  0  0  0  0  0
    9.4274   -0.2073    0.0000 H   0  0  0  0  0  0  0  0  0  0  0  0
    6.7130   -2.9939    0.0000 H   0  0  0  0  0  0  0  0  0  0  0  0
    7.5100   -2.9939    0.0000 H   0  0  0  0  0  0  0  0  0  0  0  0
    5.7561   -0.0145    0.0000 H   0  0  0  0  0  0  0  0  0  0  0  0
    4.9579   -0.0053    0.0000 H   0  0  0  0  0  0  0  0  0  0  0  0
    9.5056    0.4187    0.0000 H   0  0  0  0  0  0  0  0  0  0  0  0
    9.1091    1.1115    0.0000 H   0  0  0  0  0  0  0  0  0  0  0  0
    8.5335   -2.0559    0.0000 H   0  0  0  0  0  0  0  0  0  0  0  0
    9.3805   -1.8290    0.0000 H   0  0  0  0  0  0  0  0  0  0  0  0
    9.1535   -0.9821    0.0000 H   0  0  0  0  0  0  0  0  0  0  0  0
    6.8655   -0.0190    0.0000 H   0  0  0  0  0  0  0  0  0  0  0  0
    6.2455    0.6010    0.0000 H   0  0  0  0  0  0  0  0  0  0  0  0
    5.6255   -0.0190    0.0000 H   0  0  0  0  0  0  0  0  0  0  0  0
    7.4548    1.3572    0.0000 H   0  0  0  0  0  0  0  0  0  0  0  0
    3.9079   -1.3071    0.0000 H   0  0  0  0  0  0  0  0  0  0  0  0
    2.5350   -1.5040    0.0000 H   0  0  0  0  0  0  0  0  0  0  0  0
    3.9430    0.9132    0.0000 H   0  0  0  0  0  0  0  0  0  0  0  0
   11.1635   -1.5755    0.0000 H   0  0  0  0  0  0  0  0  0  0  0  0
   12.0130   -1.3583    0.0000 H   0  0  0  0  0  0  0  0  0  0  0  0
   11.7958   -0.5088    0.0000 H   0  0  0  0  0  0  0  0  0  0  0  0
    1.3832   -0.2148    0.0000 H   0  0  0  0  0  0  0  0  0  0  0  0
    9.4698    3.5560    0.0000 H   0  0  0  0  0  0  0  0  0  0  0  0
    8.8475    4.1736    0.0000 H   0  0  0  0  0  0  0  0  0  0  0  0
    8.2299    3.5512    0.0000 H   0  0  0  0  0  0  0  0  0  0  0  0
  1 22  1  0  0  0  0
  1 23  1  0  0  0  0
 21  2  1  1  0  0  0
  2 28  1  0  0  0  0
  3 17  2  0  0  0  0
  4 23  2  0  0  0  0
  5 24  1  0  0  0  0
  5 29  1  0  0  0  0
  6 24  2  0  0  0  0
  7 27  1  0  0  0  0
  7 30  1  0  0  0  0
  8 28  2  0  0  0  0
  9 11  1  0  0  0  0
  9 13  1  0  0  0  0
  9 14  1  0  0  0  0
  9 19  1  1  0  0  0
 10 11  1  0  0  0  0
 10 12  1  0  0  0  0
 10 16  1  0  0  0  0
 10 20  1  1  0  0  0
 11 17  1  0  0  0  0
 11 32  1  6  0  0  0
 12 15  1  0  0  0  0
 12 23  1  0  0  0  0
 12 33  1  6  0  0  0
 13 15  1  0  0  0  0
 13 34  1  0  0  0  0
 13 35  1  0  0  0  0
 14 18  1  0  0  0  0
 14 24  1  1  0  0  0
 14 36  1  0  0  0  0
 15 37  1  0  0  0  0
 15 38  1  0  0  0  0
 16 22  1  0  0  0  0
 16 39  1  0  0  0  0
 16 40  1  0  0  0  0
 17 21  1  0  0  0  0
 18 21  1  0  0  0  0
 18 41  1  0  0  0  0
 18 42  1  0  0  0  0
 19 43  1  0  0  0  0
 19 44  1  0  0  0  0
 19 45  1  0  0  0  0
 20 46  1  0  0  0  0
 20 47  1  0  0  0  0
 20 48  1  0  0  0  0
 21 49  1  0  0  0  0
 22 25  1  6  0  0  0
 22 50  1  0  0  0  0
 25 26  1  0  0  0  0
 25 27  2  0  0  0  0
 26 30  2  0  0  0  0
 26 51  1  0  0  0  0
 27 52  1  0  0  0  0
 28 31  1  0  0  0  0
 29 53  1  0  0  0  0
 29 54  1  0  0  0  0
 29 55  1  0  0  0  0
 30 56  1  0  0  0  0
 31 57  1  0  0  0  0
 31 58  1  0  0  0  0
 31 59  1  0  0  0  0
M  END
> <PUBCHEM_COMPOUND_CID>
128563

> <PUBCHEM_COMPOUND_CANONICALIZED>
1

> <PUBCHEM_CACTVS_COMPLEXITY>
792

> <PUBCHEM_CACTVS_HBOND_ACCEPTOR>
8

> <PUBCHEM_CACTVS_HBOND_DONOR>
0

> <PUBCHEM_CACTVS_ROTATABLE_BOND>
5

> <PUBCHEM_CACTVS_SUBSKEYS>
AAADceB4PAAAAAAAAAAAAAAAAAAAASAAAAA0YIAAAAAAAADRgAAAGgAAAAAADxSgmAIyDIAABECIAqjSiAICCAAkIAAIiAFGCMgMJxYENQ6CGSCl4BEIKYPKzvDvgAAAAAAAAADAAAYAACAAAAAAAAAAAA==

> <PUBCHEM_IUPAC_OPENEYE_NAME>
methyl (2S,4aR,6aR,7R,9S,10aS,10bR)-9-acetoxy-2-(3-furyl)-6a,10b-dimethyl-4,10-dioxo-2,4a,5,6,7,8,9,10a-octahydro-1H-benzo[f]isochromene-7-carboxylate

> <PUBCHEM_IUPAC_CAS_NAME>
(2S,4aR,6aR,7R,9S,10aS,10bR)-9-acetyloxy-2-(3-furanyl)-6a,10b-dimethyl-4,10-dioxo-2,4a,5,6,7,8,9,10a-octahydro-1H-benzo[f][2]benzopyran-7-carboxylic acid methyl ester

> <PUBCHEM_IUPAC_NAME_MARKUP>
methyl (2<I>S</I>,4<I>a</I><I>R</I>,6<I>a</I><I>R</I>,7<I>R</I>,9<I>S</I>,10<I>a</I><I>S</I>,10<I>b</I><I>R</I>)-9-acetyloxy-2-(furan-3-yl)-6<I>a</I>,10<I>b</I>-dimethyl-4,10-dioxo-2,4<I>a</I>,5,6,7,8,9,10<I>a</I>-octahydro-1<I>H</I>-benzo[f]isochromene-7-carboxylate

> <PUBCHEM_IUPAC_NAME>
methyl (2S,4aR,6aR,7R,9S,10aS,10bR)-9-acetyloxy-2-(furan-3-yl)-6a,10b-dimethyl-4,10-dioxo-2,4a,5,6,7,8,9,10a-octahydro-1H-benzo[f]isochromene-7-carboxylate

> <PUBCHEM_IUPAC_SYSTEMATIC_NAME>
methyl (2S,4aR,6aR,7R,9S,10aS,10bR)-9-acetyloxy-2-(furan-3-yl)-6a,10b-dimethyl-4,10-bis(oxidanylidene)-2,4a,5,6,7,8,9,10a-octahydro-1H-benzo[f]isochromene-7-carboxylate

> <PUBCHEM_IUPAC_TRADITIONAL_NAME>
(2S,4aR,6aR,7R,9S,10aS,10bR)-9-acetoxy-2-(3-furyl)-4,10-diketo-6a,10b-dimethyl-2,4a,5,6,7,8,9,10a-octahydro-1H-benz[f]isochromene-7-carboxylic acid methyl ester

> <PUBCHEM_IUPAC_INCHI>
InChI=1S/C23H28O8/c1-12(24)30-16-9-15(20(26)28-4)22(2)7-5-14-21(27)31-17(13-6-8-29-11-13)10-23(14,3)19(22)18(16)25/h6,8,11,14-17,19H,5,7,9-10H2,1-4H3/t14-,15-,16-,17-,19-,22-,23-/m0/s1

> <PUBCHEM_IUPAC_INCHIKEY>
OBSYBRPAKCASQB-AGQYDFLVSA-N

> <PUBCHEM_XLOGP3_AA>
2.5

> <PUBCHEM_EXACT_MASS>
432.17841785

> <PUBCHEM_MOLECULAR_FORMULA>
C23H28O8

> <PUBCHEM_MOLECULAR_WEIGHT>
432.5

> <PUBCHEM_OPENEYE_CAN_SMILES>
CC(=O)OC1CC(C2(CCC3C(=O)OC(CC3(C2C1=O)C)C4=COC=C4)C)C(=O)OC

> <PUBCHEM_OPENEYE_ISO_SMILES>
CC(=O)O[C@H]1C[C@H]([C@@]2(CC[C@H]3C(=O)O[C@@H](C[C@@]3([C@H]2C1=O)C)C4=COC=C4)C)C(=O)OC

> <PUBCHEM_CACTVS_TPSA>
109

> <PUBCHEM_MONOISOTOPIC_WEIGHT>
432.17841785

> <PUBCHEM_TOTAL_CHARGE>
0

> <PUBCHEM_HEAVY_ATOM_COUNT>
31

> <PUBCHEM_ATOM_DEF_STEREO_COUNT>
7

> <PUBCHEM_ATOM_UDEF_STEREO_COUNT>
0

> <PUBCHEM_BOND_DEF_STEREO_COUNT>
0

> <PUBCHEM_BOND_UDEF_STEREO_COUNT>
0

> <PUBCHEM_ISOTOPIC_ATOM_COUNT>
0

> <PUBCHEM_COMPONENT_COUNT>
1

> <PUBCHEM_CACTVS_TAUTO_COUNT>
-1

> <PUBCHEM_COORDINATE_TYPE>
1
5
255

> <PUBCHEM_BONDANNOTATIONS>
10  20  5
11  32  6
12  33  6
14  24  5
21  2  5
22  25  6
25  26  8
25  27  8
26  30  8
7  27  8
7  30  8
9  19  5

$$$$
