2-(aminomethyl)phenol
  -OEChem-01262104393D

 18 18  0     0  0  0  0  0  0999 V2000
    0.6719   -2.0922   -0.1127 O   0  0  0  0  0  0  0  0  0  0  0  0
    2.7152    0.5846    0.7195 N   0  0  0  0  0  0  0  0  0  0  0  0
    0.4806    0.2929   -0.2562 C   0  0  0  0  0  0  0  0  0  0  0  0
    1.9443    0.4339   -0.5150 C   0  0  0  0  0  0  0  0  0  0  0  0
   -0.0918   -0.9648   -0.0662 C   0  0  0  0  0  0  0  0  0  0  0  0
   -0.3161    1.4367   -0.2053 C   0  0  0  0  0  0  0  0  0  0  0  0
   -1.4609   -1.0787    0.1748 C   0  0  0  0  0  0  0  0  0  0  0  0
   -1.6853    1.3227    0.0356 C   0  0  0  0  0  0  0  0  0  0  0  0
   -2.2578    0.0650    0.2255 C   0  0  0  0  0  0  0  0  0  0  0  0
    2.3277   -0.4246   -1.0782 H   0  0  0  0  0  0  0  0  0  0  0  0
    2.1311    1.3045   -1.1554 H   0  0  0  0  0  0  0  0  0  0  0  0
    0.1165    2.4232   -0.3498 H   0  0  0  0  0  0  0  0  0  0  0  0
   -1.9203   -2.0521    0.3246 H   0  0  0  0  0  0  0  0  0  0  0  0
   -2.3058    2.2132    0.0757 H   0  0  0  0  0  0  0  0  0  0  0  0
   -3.3238   -0.0235    0.4132 H   0  0  0  0  0  0  0  0  0  0  0  0
    2.5653   -0.2240    1.3216 H   0  0  0  0  0  0  0  0  0  0  0  0
    2.3848    1.3979    1.2372 H   0  0  0  0  0  0  0  0  0  0  0  0
    0.1041   -2.8668    0.0411 H   0  0  0  0  0  0  0  0  0  0  0  0
  1  5  1  0  0  0  0
  1 18  1  0  0  0  0
  2  4  1  0  0  0  0
  2 16  1  0  0  0  0
  2 17  1  0  0  0  0
  3  4  1  0  0  0  0
  3  5  1  0  0  0  0
  3  6  2  0  0  0  0
  4 10  1  0  0  0  0
  4 11  1  0  0  0  0
  5  7  2  0  0  0  0
  6  8  1  0  0  0  0
  6 12  1  0  0  0  0
  7  9  1  0  0  0  0
  7 13  1  0  0  0  0
  8  9  2  0  0  0  0
  8 14  1  0  0  0  0
  9 15  1  0  0  0  0
M  END
> <PUBCHEM_COMPOUND_CID>
70267

> <PUBCHEM_CONFORMER_RMSD>
0.4

> <PUBCHEM_CONFORMER_DIVERSEORDER>
2
3
1
4

> <PUBCHEM_MMFF94_PARTIAL_CHARGES>
16
1 -0.53
12 0.15
13 0.15
14 0.15
15 0.15
16 0.36
17 0.36
18 0.45
2 -0.99
3 -0.14
4 0.41
5 0.08
6 -0.15
7 -0.15
8 -0.15
9 -0.15

> <PUBCHEM_EFFECTIVE_ROTOR_COUNT>
1

> <PUBCHEM_PHARMACOPHORE_FEATURES>
4
1 1 donor
1 2 cation
1 2 donor
6 3 5 6 7 8 9 rings

> <PUBCHEM_HEAVY_ATOM_COUNT>
9

> <PUBCHEM_ATOM_DEF_STEREO_COUNT>
0

> <PUBCHEM_ATOM_UDEF_STEREO_COUNT>
0

> <PUBCHEM_BOND_DEF_STEREO_COUNT>
0

> <PUBCHEM_BOND_UDEF_STEREO_COUNT>
0

> <PUBCHEM_ISOTOPIC_ATOM_COUNT>
0

> <PUBCHEM_COMPONENT_COUNT>
1

> <PUBCHEM_CACTVS_TAUTO_COUNT>
3

> <PUBCHEM_CONFORMER_ID>
0001127B00000002

> <PUBCHEM_MMFF94_ENERGY>
18.9723

> <PUBCHEM_FEATURE_SELFOVERLAP>
20.297

> <PUBCHEM_SHAPE_FINGERPRINT>
10857977 72 18338796839682877073
12423570 1 14744967531537821277
16945 1 18409175419536069813
18185500 45 17184757333555911958
20645464 45 18060134397021570936
20871998 184 17983864659573352014
21040471 1 18337680719390187045
23552423 10 18188220796733562422
2748010 2 18192159187586795973
29004967 10 18261126165976391401
369184 2 18131063870264128560
5084963 1 18201734971480885556

> <PUBCHEM_SHAPE_MULTIPOLES>
174.37
2.96
1.72
0.7
0.99
0.5
-0.02
-0.6
-0.47
-0.19
0.06
0.17
-0.06
0.09

> <PUBCHEM_SHAPE_SELFOVERLAP>
359.378

> <PUBCHEM_SHAPE_VOLUME>
100.5

> <PUBCHEM_COORDINATE_TYPE>
2
5
10

$$$$
