Indoximod
  -OEChem-01262104453D

 30 31  0     1  0  0  0  0  0999 V2000
    2.1805    0.7602    1.6680 O   0  0  0  0  0  0  0  0  0  0  0  0
    3.9209    0.9254    0.2241 O   0  0  0  0  0  0  0  0  0  0  0  0
   -1.1870    1.6748   -0.3279 N   0  0  0  0  0  0  0  0  0  0  0  0
    3.5910   -1.7428   -0.4082 N   0  0  0  0  0  0  0  0  0  0  0  0
    0.2285    0.0138   -0.7336 C   0  0  0  0  0  0  0  0  0  0  0  0
    1.4478   -0.7289   -1.1120 C   0  0  0  0  0  0  0  0  0  0  0  0
   -1.0030   -0.5483   -0.2950 C   0  0  0  0  0  0  0  0  0  0  0  0
   -1.8738    0.5150   -0.0473 C   0  0  0  0  0  0  0  0  0  0  0  0
    0.0842    1.3821   -0.7434 C   0  0  0  0  0  0  0  0  0  0  0  0
    2.4225   -0.9924    0.0592 C   0  0  2  0  0  0  0  0  0  0  0  0
   -1.4619   -1.8638   -0.0844 C   0  0  0  0  0  0  0  0  0  0  0  0
   -3.1857    0.3279    0.4025 C   0  0  0  0  0  0  0  0  0  0  0  0
   -1.7175    3.0160   -0.2080 C   0  0  0  0  0  0  0  0  0  0  0  0
   -2.7718   -2.0662    0.3652 C   0  0  0  0  0  0  0  0  0  0  0  0
   -3.6186   -0.9857    0.6043 C   0  0  0  0  0  0  0  0  0  0  0  0
    2.9438    0.3129    0.6365 C   0  0  0  0  0  0  0  0  0  0  0  0
    1.9705   -0.1690   -1.9007 H   0  0  0  0  0  0  0  0  0  0  0  0
    1.1640   -1.6867   -1.5679 H   0  0  0  0  0  0  0  0  0  0  0  0
    0.7804    2.1658   -1.0119 H   0  0  0  0  0  0  0  0  0  0  0  0
    1.9330   -1.5660    0.8549 H   0  0  0  0  0  0  0  0  0  0  0  0
   -0.8145   -2.7174   -0.2642 H   0  0  0  0  0  0  0  0  0  0  0  0
   -3.8500    1.1647    0.5906 H   0  0  0  0  0  0  0  0  0  0  0  0
   -2.0088    3.1796    0.8326 H   0  0  0  0  0  0  0  0  0  0  0  0
   -0.9521    3.7410   -0.4963 H   0  0  0  0  0  0  0  0  0  0  0  0
   -2.5812    3.1057   -0.8719 H   0  0  0  0  0  0  0  0  0  0  0  0
   -3.1311   -3.0786    0.5298 H   0  0  0  0  0  0  0  0  0  0  0  0
   -4.6322   -1.1659    0.9534 H   0  0  0  0  0  0  0  0  0  0  0  0
    3.2870   -2.6272   -0.8138 H   0  0  0  0  0  0  0  0  0  0  0  0
    4.1820   -1.9841    0.3868 H   0  0  0  0  0  0  0  0  0  0  0  0
    2.5125    1.6109    2.0262 H   0  0  0  0  0  0  0  0  0  0  0  0
  1 16  1  0  0  0  0
  1 30  1  0  0  0  0
  2 16  2  0  0  0  0
  3  8  1  0  0  0  0
  3  9  1  0  0  0  0
  3 13  1  0  0  0  0
  4 10  1  0  0  0  0
  4 28  1  0  0  0  0
  4 29  1  0  0  0  0
  5  6  1  0  0  0  0
  5  7  1  0  0  0  0
  5  9  2  0  0  0  0
  6 10  1  0  0  0  0
  6 17  1  0  0  0  0
  6 18  1  0  0  0  0
  7  8  1  0  0  0  0
  7 11  2  0  0  0  0
  8 12  2  0  0  0  0
  9 19  1  0  0  0  0
 10 16  1  0  0  0  0
 10 20  1  0  0  0  0
 11 14  1  0  0  0  0
 11 21  1  0  0  0  0
 12 15  1  0  0  0  0
 12 22  1  0  0  0  0
 13 23  1  0  0  0  0
 13 24  1  0  0  0  0
 13 25  1  0  0  0  0
 14 15  2  0  0  0  0
 14 26  1  0  0  0  0
 15 27  1  0  0  0  0
M  END
> <PUBCHEM_COMPOUND_CID>
405012

> <PUBCHEM_CONFORMER_RMSD>
0.6

> <PUBCHEM_CONFORMER_DIVERSEORDER>
2
5
18
16
8
4
20
13
12
3
7
6
17
1
14
9
11
10
19
15

> <PUBCHEM_MMFF94_PARTIAL_CHARGES>
23
1 -0.65
10 0.33
11 -0.15
12 -0.15
13 0.26
14 -0.15
15 -0.15
16 0.66
19 0.15
2 -0.57
21 0.15
22 0.15
26 0.15
27 0.15
28 0.36
29 0.36
3 0.05
30 0.5
4 -0.99
5 -0.18
6 0.18
8 -0.15
9 -0.3

> <PUBCHEM_EFFECTIVE_ROTOR_COUNT>
3

> <PUBCHEM_PHARMACOPHORE_FEATURES>
8
1 1 acceptor
1 2 acceptor
1 3 cation
1 4 cation
1 4 donor
3 1 2 16 anion
5 3 5 7 8 9 rings
6 7 8 11 12 14 15 rings

> <PUBCHEM_HEAVY_ATOM_COUNT>
16

> <PUBCHEM_ATOM_DEF_STEREO_COUNT>
1

> <PUBCHEM_ATOM_UDEF_STEREO_COUNT>
0

> <PUBCHEM_BOND_DEF_STEREO_COUNT>
0

> <PUBCHEM_BOND_UDEF_STEREO_COUNT>
0

> <PUBCHEM_ISOTOPIC_ATOM_COUNT>
0

> <PUBCHEM_COMPONENT_COUNT>
1

> <PUBCHEM_CACTVS_TAUTO_COUNT>
1

> <PUBCHEM_CONFORMER_ID>
00062E1400000002

> <PUBCHEM_MMFF94_ENERGY>
23.5105

> <PUBCHEM_FEATURE_SELFOVERLAP>
40.745

> <PUBCHEM_SHAPE_FINGERPRINT>
10366900 7 18201148949063325138
10608611 8 18342172220379573204
10618630 7 18260831522382265071
11132069 177 18411697716120999346
11578080 2 17023723728309774868
12251169 10 18271528709705515675
12382932 28 18411139177273161763
12500047 106 18046343028989307292
12633257 1 18131351907829717850
12644460 14 17828792834142808497
13083527 12 17548966115435546239
13296908 3 18334857220764350406
15219456 202 18272650121630055294
15309172 13 16917350350519707310
15375462 189 17677328436778494539
15653759 3 18339923723464271442
16752209 62 18040992891682357055
16945 1 18336276656311359109
17804303 29 18268158560706734678
17844478 74 18342457049588514120
19049666 15 18055919783851999886
200 152 14418127422567291250
20361792 2 16588023523898406190
20388701 513 18409729560469336605
20510252 161 18340487772802921521
20528008 55 18343860022199212679
20871998 184 18342177760824140399
21501925 9 18265617761381360911
21524375 3 17693368941618522173
21650355 55 18335976575362365707
23175994 123 17345758452503555030
232386 152 18188217627195462575
23388829 49 17552344892897096287
23402539 116 18342733006254864719
23419403 2 16767278137847402991
23559900 14 18410292471989663470
2748010 2 17758977921760843357
5902787 121 17970069061462583763
598444 67 18269556035574197131
6049 1 18201728293123147726
7364860 26 17832991920341108857
81228 2 18263095344247086397
84936 182 16897915073892678037
90316 7 18333731312594789601

> <PUBCHEM_SHAPE_MULTIPOLES>
307.57
6.09
2.43
0.98
2.99
1.05
0.14
-1.7
1.5
-1.4
-0.16
0.45
0.07
0.66

> <PUBCHEM_SHAPE_SELFOVERLAP>
659.168

> <PUBCHEM_SHAPE_VOLUME>
171.9

> <PUBCHEM_COORDINATE_TYPE>
2
5
10

$$$$
