@<TRIPOS>MOLECULE
J01_06
126 132 1 0 0 
SMALL
USER_CHARGES


@<TRIPOS>ATOM
  1 C        0.2397     1.0619     0.3382 C.3   1 <1>   0.0000 
  2 H1       0.8422     1.5745     1.0991 H     1 <1>   0.0000 
  3 H2       0.6055     1.4248    -0.6307 H     1 <1>   0.0000 
  4 C       -1.2468     1.4230     0.5071 C.3   1 <1>   0.0000 
  5 C       -1.4230     2.9307     0.2402 C.3   1 <1>   0.0000 
  6 H1      -2.4722     3.2312     0.3398 H     1 <1>   0.0000 
  7 H2      -1.0968     3.1966    -0.7716 H     1 <1>   0.0000 
  8 H3      -0.8359     3.5283     0.9467 H     1 <1>   0.0000 
  9 C       -1.7362     1.1314     1.9398 C.3   1 <1>   0.0000 
 10 H1      -1.6819     0.0686     2.1947 H     1 <1>   0.0000 
 11 H2      -2.7804     1.4401     2.0661 H     1 <1>   0.0000 
 12 H3      -1.1379     1.6787     2.6770 H     1 <1>   0.0000 
 13 C       -2.0776     0.6268    -0.5208 C.3   1 <1>   0.1382 
 14 H1      -1.8028     0.9489    -1.5349 H     1 <1>   0.0000 
 15 H2      -3.1222     0.9244    -0.4090 H     1 <1>   0.0000 
 16 C       -1.8779    -0.8857    -0.4585 C.2   1 <1>  -0.2764 
 17 C       -0.3982    -1.3177    -0.5011 C.3   1 <1>   0.1382 
 18 C        0.1038    -1.1923    -1.9702 C.3   1 <1>   0.2800 
 19 H1      -0.5851    -1.6803    -2.6687 H     1 <1>   0.0000 
 20 O        1.3828    -1.8184    -2.1247 O.3   1 <1>  -0.6800 
 21 H        1.6797    -1.6187    -3.0330 H     1 <1>   0.4000 
 22 H3       0.2020    -0.1467    -2.2789 H     1 <1>   0.0000 
 23 C        0.4913    -0.4403     0.4356 C.3   1 <1>   0.0000 
 24 H1       1.5542    -0.6269     0.2350 H     1 <1>   0.0000 
 25 H2       0.3379    -0.7383     1.4811 H     1 <1>   0.0000 
 26 C       -2.8873    -1.7935    -0.4107 C.2   1 <1>  -0.1382 
 27 C       -2.6702    -3.3184    -0.5121 C.3   1 <1>   0.1382 
 28 C       -3.2240    -3.6946    -1.7734 C.3   1 <1>   0.0000 
 29 H1      -3.1061    -4.7688    -1.9161 H     1 <1>   0.0000 
 30 H2      -2.7052    -3.1630    -2.5711 H     1 <1>   0.0000 
 31 H3      -4.2834    -3.4393    -1.7958 H     1 <1>   0.0000 
 32 C       -1.1970    -3.7412    -0.6411 C.3   1 <1>   0.0000 
 33 H1      -0.9417    -3.8097    -1.7081 H     1 <1>   0.0000 
 34 H2      -1.0117    -4.7536    -0.2732 H     1 <1>   0.0000 
 35 C       -0.2353    -2.7777     0.0268 C.3   1 <1>   0.2800 
 36 O        1.0933    -3.2778    -0.1522 O.3   1 <1>  -0.6800 
 37 H        1.4404    -2.8449    -0.9728 H     1 <1>   0.4000 
 38 H2      -0.4141    -2.7996     1.1065 H     1 <1>   0.0000 
 39 C       -4.2953    -1.4254    -0.2644 C.2   1 <1>  -0.1500 
 40 H       -4.5933    -0.3886    -0.3659 H     1 <1>   0.1500 
 41 C       -5.2687    -2.3035     0.0245 C.2   1 <1>  -0.2882 
 42 H       -6.2826    -1.9221     0.0988 H     1 <1>   0.1500 
 43 C       -5.0376    -3.7908     0.1906 C.3   1 <1>   0.1382 
 44 H       -5.1550    -4.1676    -0.8408 H     1 <1>   0.0000 
 45 C       -3.5342    -4.0891     0.5742 C.3   1 <1>   0.0000 
 46 C       -3.1210    -3.6094     1.9890 C.3   1 <1>   0.0000 
 47 H1      -3.3582    -2.5577     2.1719 H     1 <1>   0.0000 
 48 H2      -2.0459    -3.7379     2.1431 H     1 <1>   0.0000 
 49 H3      -3.5861    -4.1838     2.7888 H     1 <1>   0.0000 
 50 C       -6.1418    -4.5984     0.9984 C.3   1 <1>   0.0000 
 51 C       -6.2233    -4.1041     2.4604 C.3   1 <1>   0.0000 
 52 H1      -5.5586    -4.6510     3.1300 H     1 <1>   0.0000 
 53 H2      -7.2225    -4.2016     2.8903 H     1 <1>   0.0000 
 54 H3      -5.9796    -3.0398     2.5423 H     1 <1>   0.0000 
 55 C       -5.8029    -6.1255     0.8413 C.3   1 <1>   0.0000 
 56 H       -5.7910    -6.2901    -0.2501 H     1 <1>   0.0000 
 57 C       -4.3581    -6.4273     1.2977 C.3   1 <1>   0.0000 
 58 H1      -4.1119    -7.4820     1.1455 H     1 <1>   0.0000 
 59 H2      -4.2359    -6.2507     2.3696 H     1 <1>   0.0000 
 60 C       -3.3239    -5.6199     0.5057 C.3   1 <1>   0.0000 
 61 H1      -3.3530    -5.9480    -0.5417 H     1 <1>   0.0000 
 62 H2      -2.3344    -5.8930     0.8902 H     1 <1>   0.0000 
 63 C       -7.5276    -4.3855     0.3260 C.3   1 <1>   0.0000 
 64 H1      -7.4472    -4.5536    -0.7562 H     1 <1>   0.0000 
 65 H2      -7.8658    -3.3510     0.4536 H     1 <1>   0.0000 
 66 C       -8.6182    -5.2953     0.8707 C.3   1 <1>   0.0000 
 67 H1      -9.5428    -5.1087     0.3066 H     1 <1>   0.0000 
 68 H2      -8.8784    -5.0182     1.8989 H     1 <1>   0.0000 
 69 C       -8.3012    -6.7936     0.7950 C.3   1 <1>   0.2800 
 70 H1      -8.3636    -7.0780    -0.2637 H     1 <1>   0.0000 
 71 O       -9.3942    -7.3832     1.5236 O.3   1 <1>  -0.5600 
 72 C       -9.7052    -8.7468     1.2463 C.3   1 <1>   0.5600 
 73 H       -8.8676    -9.3714     1.5708 H     1 <1>   0.0000 
 74 C       -6.8794    -7.1696     1.3623 C.3   1 <1>   0.0000 
 75 C       -6.4722    -8.5712     0.7632 C.3   1 <1>   0.2800 
 76 O       -5.9970    -9.4934     1.7364 O.3   1 <1>  -0.6800 
 77 H       -5.1369    -9.1668     2.0549 H     1 <1>   0.4000 
 78 H2      -5.7048    -8.4849    -0.0143 H     1 <1>   0.0000 
 79 H3      -7.3013    -9.0570     0.2469 H     1 <1>   0.0000 
 80 C       -6.9368    -7.2399     2.9044 C.3   1 <1>   0.0000 
 81 H1      -7.3855    -6.3473     3.3438 H     1 <1>   0.0000 
 82 H2      -5.9458    -7.3670     3.3496 H     1 <1>   0.0000 
 83 H3      -7.5472    -8.0849     3.2428 H     1 <1>   0.0000 
 84 C      -10.9331    -9.0954     2.1023 C.3   1 <1>   0.2800 
 85 H1     -11.7830    -8.4491     1.8506 H     1 <1>   0.0000 
 86 O      -10.6317    -8.8628     3.4818 O.3   1 <1>  -0.6800 
 87 H      -10.2377    -7.9681     3.5172 H     1 <1>   0.4000 
 88 C      -11.3010   -10.5657     1.8705 C.3   1 <1>   0.2800 
 89 O      -12.5169   -10.8741     2.5949 O.3   1 <1>  -0.3625 
 90 C      -12.5220   -12.2033     2.9802 C.3   1 <1>   0.2925 
 91 H      -11.7123   -12.4049     2.2789 H     1 <1>   0.0000 
 92 H2     -10.4716   -11.1901     2.2328 H     1 <1>   0.0000 
 93 C      -11.5134   -10.8223     0.3652 C.3   1 <1>   0.2800 
 94 H1     -12.4189   -10.2937     0.0415 H     1 <1>   0.0000 
 95 O2     -11.6752   -12.2196     0.1192 O.3   1 <1>   0.0000 
 96 C2     -11.8670   -12.3914    -1.2854 C.3   1 <1>   0.0000 
 97 H21    -11.9942   -13.4508    -1.5078 H     1 <1>   0.0000 
 98 H22    -10.9974   -12.0097    -1.8203 H     1 <1>   0.0000 
 99 H23    -12.7560   -11.8448    -1.6002 H     1 <1>   0.0000 
100 C      -10.2824   -10.3358    -0.4231 C.3   1 <1>   0.2800 
101 C      -10.4883   -10.4385    -1.9307 C.3   1 <1>   0.0000 
102 H1      -9.6257   -10.0200    -2.4611 H     1 <1>   0.0000 
103 H2     -11.3620    -9.8578    -2.2464 H     1 <1>   0.0000 
104 H3     -10.6189   -11.4748    -2.2546 H     1 <1>   0.0000 
105 H2      -9.4034   -10.9416    -0.1660 H     1 <1>   0.0000 
106 O      -10.0078    -8.9631    -0.1279 O.3   1 <1>  -0.5600 
107 O      -13.2501   -13.0314     2.3687 O.3   1 <1>   0.5800 
108 C      -13.2526   -14.2745     2.5791 C.3   1 <1>   0.0665 
109 H      -12.4530   -14.3853     1.8467 H     1 <1>   0.0000 
110 C      -14.1267   -15.1402     1.7306 C.3   1 <1>   0.4235 
111 O      -15.0337   -14.3070     1.0240 O.3   1 <1>  -0.6800 
112 H      -15.6332   -14.8939     0.5252 H     1 <1>   0.4000 
113 H2     -14.7069   -15.8300     2.3512 H     1 <1>   0.0000 
114 H3     -13.5238   -15.6997     1.0093 H     1 <1>   0.0000 
115 C      -12.4133   -14.8239     3.5534 C.3   1 <1>   0.0825 
116 H      -11.6073   -14.8772     2.8215 H     1 <1>   0.0000 
117 O      -12.3480   -16.1732     3.7136 O.3   1 <1>  -0.5325 
118 H      -11.4219   -16.4136     3.9102 H     1 <1>   0.4500 
119 C      -11.6530   -13.9716     4.3185 C.3   1 <1>   0.0825 
120 H      -10.8257   -14.0843     3.6179 H     1 <1>   0.0000 
121 O      -10.8459   -14.3791     5.3327 O.3   1 <1>  -0.5325 
122 H      -11.2335   -15.1789     5.7316 H     1 <1>   0.4500 
123 C      -11.7088   -12.6285     4.0322 C.3   1 <1>   0.0825 
124 H      -10.8808   -12.7501     3.3339 H     1 <1>   0.0000 
125 O      -10.9553   -11.7591     4.7606 O.3   1 <1>  -0.5325 
126 H      -10.4579   -12.2992     5.4082 H     1 <1>   0.4500 
@<TRIPOS>BOND
  1   1   2  1   
  2   1   3  1   
  3   1   4  1   
  4   1  23  1   
  5   4   5  1   
  6   4   9  1   
  7   4  13  1   
  8   5   6  1   
  9   5   7  1   
 10   5   8  1   
 11   9  10  1   
 12   9  11  1   
 13   9  12  1   
 14  13  14  1   
 15  13  15  1   
 16  13  16  1   
 17  16  17  1   
 18  16  26  2   
 19  17  18  1   
 20  17  23  1   
 21  17  35  1   
 22  18  19  1   
 23  18  20  1   
 24  18  22  1   
 25  20  21  1   
 26  23  24  1   
 27  23  25  1   
 28  26  27  1   
 29  26  39  1   
 30  27  28  1   
 31  27  32  1   
 32  27  45  1   
 33  28  29  1   
 34  28  30  1   
 35  28  31  1   
 36  32  33  1   
 37  32  34  1   
 38  32  35  1   
 39  35  36  1   
 40  35  38  1   
 41  36  37  1   
 42  39  40  1   
 43  39  41  2   
 44  41  42  1   
 45  41  43  1   
 46  43  44  1   
 47  43  45  1   
 48  43  50  1   
 49  45  46  1   
 50  45  60  1   
 51  46  47  1   
 52  46  48  1   
 53  46  49  1   
 54  50  51  1   
 55  50  55  1   
 56  50  63  1   
 57  51  52  1   
 58  51  53  1   
 59  51  54  1   
 60  55  56  1   
 61  55  57  1   
 62  55  74  1   
 63  57  58  1   
 64  57  59  1   
 65  57  60  1   
 66  60  61  1   
 67  60  62  1   
 68  63  64  1   
 69  63  65  1   
 70  63  66  1   
 71  66  67  1   
 72  66  68  1   
 73  66  69  1   
 74  69  70  1   
 75  69  71  1   
 76  69  74  1   
 77  71  72  1   
 78  72  73  1   
 79  72  84  1   
 80  72 106  1   
 81  74  75  1   
 82  74  80  1   
 83  75  76  1   
 84  75  78  1   
 85  75  79  1   
 86  76  77  1   
 87  80  81  1   
 88  80  82  1   
 89  80  83  1   
 90  84  85  1   
 91  84  86  1   
 92  84  88  1   
 93  86  87  1   
 94  88  89  1   
 95  88  92  1   
 96  88  93  1   
 97  89  90  1   
 98  90  91  1   
 99  90 107  1   
100  90 123  1   
101  93  94  1   
102  93  95  1   
103  93 100  1   
104  95  96  1   
105  96  97  1   
106  96  98  1   
107  96  99  1   
108 100 101  1   
109 100 105  1   
110 100 106  1   
111 101 102  1   
112 101 103  1   
113 101 104  1   
114 107 108  1   
115 108 109  1   
116 108 110  1   
117 108 115  1   
118 110 111  1   
119 110 113  1   
120 110 114  1   
121 111 112  1   
122 115 116  1   
123 115 117  1   
124 115 119  1   
125 117 118  1   
126 119 120  1   
127 119 121  1   
128 119 123  1   
129 121 122  1   
130 123 124  1   
131 123 125  1   
132 125 126  1   
@<TRIPOS>SUBSTRUCTURE
  1 ****  74 GROUP 4 **** **** 0

# MOE 2015.10 (io_trps.svl 2015.10)
