@<TRIPOS>MOLECULE
J01_14
59 62 1 0 0 
SMALL
USER_CHARGES


@<TRIPOS>ATOM
  1 C        1.1143     0.7226    -0.3275 C.ar  1 <1>   0.0862 
  2 C       -0.0772     1.4181    -0.1061 C.ar  1 <1>  -0.1500 
  3 H       -0.0582     2.4957     0.0472 H     1 <1>   0.1500 
  4 C       -1.2993     0.7316    -0.0977 C.ar  1 <1>  -0.1435 
  5 C       -1.3043    -0.6532    -0.2939 C.ar  1 <1>   0.0825 
  6 C       -0.1095    -1.3399    -0.5235 C.ar  1 <1>  -0.1500 
  7 H       -0.1279    -2.4143    -0.6867 H     1 <1>   0.1500 
  8 C        1.1036    -0.6553    -0.5223 C.ar  1 <1>   0.0825 
  9 C       -2.5766     1.4792     0.1438 C.3   1 <1>   0.1435 
 10 H1      -2.5753     2.4229    -0.4146 H     1 <1>   0.0000 
 11 H2      -2.6514     1.7278     1.2086 H     1 <1>   0.0000 
 12 C       -3.7716     0.6458    -0.2955 C.3   1 <1>   0.0000 
 13 H1      -3.8091     0.6659    -1.3939 H     1 <1>   0.0000 
 14 H2      -4.6998     1.1051     0.0648 H     1 <1>   0.0000 
 15 C       -3.6525    -0.8169     0.1767 C.3   1 <1>   0.2800 
 16 C       -4.8196    -1.6186    -0.4623 C.3   1 <1>   0.0000 
 17 C       -4.8065    -3.1252    -0.1668 C.3   1 <1>   0.0000 
 18 C       -5.9152    -3.8481    -0.9313 C.3   1 <1>   0.0000 
 19 C       -5.8952    -5.3458    -0.6611 C.3   1 <1>   0.2800 
 20 O       -6.9498    -5.9580    -1.3906 O.3   1 <1>  -0.6800 
 21 H2      -6.0427    -5.5534     0.4036 H     1 <1>   0.0000 
 22 H3      -4.9468    -5.7882    -0.9825 H     1 <1>   0.0000 
 23 H2      -5.8110    -3.6740    -2.0096 H     1 <1>   0.0000 
 24 H3      -6.8955    -3.4402    -0.6547 H     1 <1>   0.0000 
 25 H2      -4.9456    -3.2997     0.9056 H     1 <1>   0.0000 
 26 H3      -3.8376    -3.5553    -0.4455 H     1 <1>   0.0000 
 27 H2      -4.7674    -1.4975    -1.5530 H     1 <1>   0.0000 
 28 H3      -5.7797    -1.1953    -0.1400 H     1 <1>   0.0000 
 29 C       -3.7015    -0.9323     1.7104 C.3   1 <1>   0.0000 
 30 H1      -2.9038    -0.3568     2.1909 H     1 <1>   0.0000 
 31 H2      -3.5435    -1.9653     2.0376 H     1 <1>   0.0000 
 32 H3      -4.6596    -0.5803     2.1061 H     1 <1>   0.0000 
 33 O       -2.4353    -1.4210    -0.2983 O.3   1 <1>  -0.3625 
 34 O        2.2277    -1.4016    -0.7451 O.3   1 <1>  -0.3625 
 35 C        3.4343    -0.8039    -0.2382 C.3   1 <1>   0.4235 
 36 H2       3.3753    -0.8127     0.8602 H     1 <1>   0.0000 
 37 C        3.6123     0.6257    -0.7561 C.3   1 <1>   0.3410 
 38 H1       3.7214     0.6631    -1.8464 H     1 <1>   0.0000 
 39 O        4.7434     1.2580    -0.1568 O.3   1 <1>  -0.6800 
 40 H        4.6131     2.2208    -0.2726 H     1 <1>   0.4000 
 41 C        2.3910     1.4390    -0.3849 C.2   1 <1>   0.4228 
 42 C        4.6008    -1.6862    -0.6554 C.ar  1 <1>  -0.1435 
 43 O        2.4605     2.6475    -0.1702 O.2   1 <1>  -0.5700 
 44 H       -6.9050    -6.9122    -1.2088 H     1 <1>   0.4000 
 45 C        4.6991    -2.2047    -1.9574 C.ar  1 <1>  -0.1500 
 46 H        3.9138    -1.9964    -2.6825 H     1 <1>   0.1500 
 47 C        5.7937    -2.9862    -2.3613 C.ar  1 <1>   0.0825 
 48 O        5.7075    -3.3869    -3.6677 O.3   1 <1>  -0.3625 
 49 C        6.8314    -4.0287    -4.2493 C.3   1 <1>   0.2800 
 50 H1       6.6167    -4.1674    -5.3138 H     1 <1>   0.0000 
 51 H2       6.9833    -5.0236    -3.8198 H     1 <1>   0.0000 
 52 H3       7.7308    -3.4083    -4.1802 H     1 <1>   0.0000 
 53 C        6.8017    -3.2615    -1.4318 C.ar  1 <1>   0.0825 
 54 O        7.8830    -4.0346    -1.7563 O.3   1 <1>  -0.5325 
 55 H        8.4756    -4.0919    -0.9892 H     1 <1>   0.4500 
 56 C        6.7201    -2.7499    -0.1318 C.ar  1 <1>  -0.1500 
 57 H        7.4979    -2.9481     0.6004 H     1 <1>   0.1500 
 58 C        5.6305    -1.9646     0.2509 C.ar  1 <1>  -0.1500 
 59 H        5.5983    -1.5637     1.2620 H     1 <1>   0.1500 
@<TRIPOS>BOND
  1   1   2  ar  
  2   1   8  ar  
  3   1  41  1   
  4   2   3  1   
  5   2   4  ar  
  6   4   5  ar  
  7   4   9  1   
  8   5   6  ar  
  9   5  33  1   
 10   6   7  1   
 11   6   8  ar  
 12   8  34  1   
 13   9  10  1   
 14   9  11  1   
 15   9  12  1   
 16  12  13  1   
 17  12  14  1   
 18  12  15  1   
 19  15  16  1   
 20  15  29  1   
 21  15  33  1   
 22  16  17  1   
 23  16  27  1   
 24  16  28  1   
 25  17  18  1   
 26  17  25  1   
 27  17  26  1   
 28  18  19  1   
 29  18  23  1   
 30  18  24  1   
 31  19  20  1   
 32  19  21  1   
 33  19  22  1   
 34  20  44  1   
 35  29  30  1   
 36  29  31  1   
 37  29  32  1   
 38  34  35  1   
 39  35  36  1   
 40  35  37  1   
 41  35  42  1   
 42  37  38  1   
 43  37  39  1   
 44  37  41  1   
 45  39  40  1   
 46  41  43  2   
 47  42  45  ar  
 48  42  58  ar  
 49  45  46  1   
 50  45  47  ar  
 51  47  48  1   
 52  47  53  ar  
 53  48  49  1   
 54  49  50  1   
 55  49  51  1   
 56  49  52  1   
 57  53  54  1   
 58  53  56  ar  
 59  54  55  1   
 60  56  57  1   
 61  56  58  ar  
 62  58  59  1   
@<TRIPOS>SUBSTRUCTURE
  1 <1>   0 RESIDUE 1 * * 1
# MOE 2007.09 (io_trps.svl 2007.09)
