@<TRIPOS>MOLECULE
J01_03
85 89 1 0 0 
SMALL
USER_CHARGES


@<TRIPOS>ATOM
  1 C        1.1896     0.4021    -0.6032 C.3   1 <1>   0.1382 
  2 H        1.1113    -0.5046    -1.2131 H     1 <1>   0.0000 
  3 C        1.3501    -0.0191     0.8917 C.3   1 <1>   0.0000 
  4 C        1.5186     1.2288     1.8231 C.3   1 <1>   0.2800 
  5 H1       2.5284     1.6462     1.7758 H     1 <1>   0.0000 
  6 O        1.2402     0.8983     3.1898 O.3   1 <1>  -0.6800 
  7 H        1.6016     1.6303     3.7264 H     1 <1>   0.4000 
  8 H3       0.8242     2.0303     1.5611 H     1 <1>   0.0000 
  9 C        2.6043    -0.9434     1.0017 C.3   1 <1>   0.2800 
 10 O        2.8744    -1.3212     2.3517 O.3   1 <1>  -0.6800 
 11 H        2.0201    -1.6136     2.7359 H     1 <1>   0.4000 
 12 C        3.8911    -0.3322     0.4091 C.3   1 <1>   0.0000 
 13 H1       4.6514    -1.1242     0.4366 H     1 <1>   0.0000 
 14 H2       4.2644     0.4405     1.0912 H     1 <1>   0.0000 
 15 C        3.7521     0.2265    -1.0449 C.3   1 <1>   0.1382 
 16 C        3.5473    -0.9936    -1.9933 C.3   1 <1>   0.0000 
 17 H1       3.1937    -0.6836    -2.9829 H     1 <1>   0.0000 
 18 H2       2.8132    -1.7146    -1.6242 H     1 <1>   0.0000 
 19 H3       4.4768    -1.5588    -2.1190 H     1 <1>   0.0000 
 20 C        2.4770     1.1109    -1.0386 C.2   1 <1>  -0.2764 
 21 H1       2.3996    -1.8831     0.4755 H     1 <1>   0.0000 
 22 C        5.0764     1.0618    -1.5321 C.3   1 <1>   0.0000 
 23 C        5.0938     1.1401    -3.0895 C.3   1 <1>   0.0000 
 24 H1       4.1497     1.5109    -3.4996 H     1 <1>   0.0000 
 25 H2       5.2779     0.1580    -3.5393 H     1 <1>   0.0000 
 26 H3       5.8864     1.7765    -3.4759 H     1 <1>   0.0000 
 27 C        5.0224     2.5064    -0.9035 C.3   1 <1>   0.0000 
 28 H        4.8533     2.3435     0.1722 H     1 <1>   0.0000 
 29 C        3.7665     3.2506    -1.4042 C.3   1 <1>   0.1382 
 30 H1       3.8429     3.5583    -2.4501 H     1 <1>   0.0000 
 31 H2       3.6268     4.1642    -0.8162 H     1 <1>   0.0000 
 32 C        2.5178     2.4385    -1.2571 C.2   1 <1>  -0.2882 
 33 H        1.6097     3.0341    -1.2489 H     1 <1>   0.1500 
 34 C        6.3857     0.3435    -1.0950 C.3   1 <1>   0.0000 
 35 H1       6.5238    -0.5838    -1.6636 H     1 <1>   0.0000 
 36 H2       6.3268     0.0452    -0.0441 H     1 <1>   0.0000 
 37 C        7.6578     1.1863    -1.2093 C.3   1 <1>   0.0000 
 38 H1       7.8941     1.3890    -2.2568 H     1 <1>   0.0000 
 39 H2       8.4800     0.5702    -0.8322 H     1 <1>   0.0000 
 40 C        7.5177     2.4769    -0.3783 C.3   1 <1>   0.0000 
 41 H        7.1557     2.1388     0.6074 H     1 <1>   0.0000 
 42 C        6.3597     3.3774    -0.9465 C.3   1 <1>   0.0000 
 43 C        6.6531     3.9377    -2.3617 C.3   1 <1>   0.0000 
 44 H1       7.2483     3.2629    -2.9781 H     1 <1>   0.0000 
 45 H2       7.2024     4.8813    -2.3354 H     1 <1>   0.0000 
 46 H3       5.7439     4.1730    -2.9178 H     1 <1>   0.0000 
 47 C        8.8721     3.2056    -0.0452 C.3   1 <1>   0.0000 
 48 C        9.6629     3.6520    -1.2910 C.3   1 <1>   0.0000 
 49 H1       9.1972     4.4782    -1.8266 H     1 <1>   0.0000 
 50 H2       9.8037     2.8269    -1.9966 H     1 <1>   0.0000 
 51 H3      10.6621     4.0044    -1.0062 H     1 <1>   0.0000 
 52 C        9.8094     2.2367     0.7286 C.3   1 <1>   0.0000 
 53 H1      10.6566     2.7785     1.1658 H     1 <1>   0.0000 
 54 H2      10.2326     1.4677     0.0737 H     1 <1>   0.0000 
 55 H3       9.2852     1.7261     1.5438 H     1 <1>   0.0000 
 56 C        8.5769     4.4343     0.8673 C.3   1 <1>   0.2800 
 57 H1       9.4886     5.0266     1.0160 H     1 <1>   0.0000 
 58 O        8.1408     4.0103     2.1642 O.3   1 <1>  -0.6800 
 59 H        8.9318     3.7496     2.6666 H     1 <1>   0.4000 
 60 C        7.4868     5.3512     0.3181 C.3   1 <1>   0.0000 
 61 H1       7.8494     5.8831    -0.5664 H     1 <1>   0.0000 
 62 H2       7.2556     6.1235     1.0633 H     1 <1>   0.0000 
 63 C        6.1867     4.6014     0.0070 C.3   1 <1>   0.0000 
 64 H1       5.4776     5.3202    -0.4212 H     1 <1>   0.0000 
 65 H2       5.7476     4.2687     0.9567 H     1 <1>   0.0000 
 66 C       -0.1478     1.1484    -0.8526 C.3   1 <1>   0.0000 
 67 H1      -0.2361     1.3758    -1.9239 H     1 <1>   0.0000 
 68 H2      -0.1465     2.1180    -0.3414 H     1 <1>   0.0000 
 69 C       -1.4011     0.3575    -0.3888 C.3   1 <1>   0.0000 
 70 C       -1.6596    -0.8394    -1.3304 C.3   1 <1>   0.0000 
 71 H1      -0.8554    -1.5795    -1.2991 H     1 <1>   0.0000 
 72 H2      -1.7541    -0.5046    -2.3700 H     1 <1>   0.0000 
 73 H3      -2.5896    -1.3583    -1.0718 H     1 <1>   0.0000 
 74 C       -2.6323     1.2842    -0.4840 C.3   1 <1>   0.0000 
 75 H1      -3.5504     0.7642    -0.1886 H     1 <1>   0.0000 
 76 H2      -2.7724     1.6504    -1.5075 H     1 <1>   0.0000 
 77 H3      -2.5219     2.1582     0.1679 H     1 <1>   0.0000 
 78 C       -1.2180    -0.0977     1.0804 C.3   1 <1>   0.2800 
 79 O       -2.2902    -0.9540     1.4869 O.3   1 <1>  -0.6800 
 80 H       -1.9770    -1.3862     2.3070 H     1 <1>   0.4000 
 81 H2      -1.2659     0.7706     1.7490 H     1 <1>   0.0000 
 82 C        0.1047    -0.8457     1.3120 C.3   1 <1>   0.2800 
 83 H1       0.0780    -1.7970     0.7679 H     1 <1>   0.0000 
 84 O        0.1794    -1.2177     2.7016 O.3   1 <1>  -0.6800 
 85 H        0.4575    -0.3839     3.1732 H     1 <1>   0.4000 
@<TRIPOS>BOND
  1   1   2  1   
  2   1   3  1   
  3   1  20  1   
  4   1  66  1   
  5   3   4  1   
  6   3   9  1   
  7   3  82  1   
  8   4   5  1   
  9   4   6  1   
 10   4   8  1   
 11   6   7  1   
 12   9  10  1   
 13   9  12  1   
 14   9  21  1   
 15  10  11  1   
 16  12  13  1   
 17  12  14  1   
 18  12  15  1   
 19  15  16  1   
 20  15  20  1   
 21  15  22  1   
 22  16  17  1   
 23  16  18  1   
 24  16  19  1   
 25  20  32  2   
 26  22  23  1   
 27  22  27  1   
 28  22  34  1   
 29  23  24  1   
 30  23  25  1   
 31  23  26  1   
 32  27  28  1   
 33  27  29  1   
 34  27  42  1   
 35  29  30  1   
 36  29  31  1   
 37  29  32  1   
 38  32  33  1   
 39  34  35  1   
 40  34  36  1   
 41  34  37  1   
 42  37  38  1   
 43  37  39  1   
 44  37  40  1   
 45  40  41  1   
 46  40  42  1   
 47  40  47  1   
 48  42  43  1   
 49  42  63  1   
 50  43  44  1   
 51  43  45  1   
 52  43  46  1   
 53  47  48  1   
 54  47  52  1   
 55  47  56  1   
 56  48  49  1   
 57  48  50  1   
 58  48  51  1   
 59  52  53  1   
 60  52  54  1   
 61  52  55  1   
 62  56  57  1   
 63  56  58  1   
 64  56  60  1   
 65  58  59  1   
 66  60  61  1   
 67  60  62  1   
 68  60  63  1   
 69  63  64  1   
 70  63  65  1   
 71  66  67  1   
 72  66  68  1   
 73  66  69  1   
 74  69  70  1   
 75  69  74  1   
 76  69  78  1   
 77  70  71  1   
 78  70  72  1   
 79  70  73  1   
 80  74  75  1   
 81  74  76  1   
 82  74  77  1   
 83  78  79  1   
 84  78  81  1   
 85  78  82  1   
 86  79  80  1   
 87  82  83  1   
 88  82  84  1   
 89  84  85  1   
@<TRIPOS>SUBSTRUCTURE
  1 <1>   0 RESIDUE 1 * * 1
# MOE 2007.09 (io_trps.svl 2007.09)
