@<TRIPOS>MOLECULE
J02_35
72 72 1 0 0 
SMALL
USER_CHARGES


@<TRIPOS>ATOM
  1 C        1.2440     0.3740    -0.0260 C.ar  1 <1>  -0.1440 
  2 C        2.1490     1.5480    -0.3110 C.3   1 <1>   0.2040 
  3 H1       1.5410     2.4600    -0.3630 H     1 <1>   0.0000 
  4 C        2.9530     1.4140    -1.5960 C.2   1 <1>   0.5690 
  5 N        3.6770     2.5280    -1.9480 N.am  1 <1>  -0.3250 
  6 C        4.4680     2.6810    -3.1620 C.3   1 <1>   0.3000 
  7 C        5.9600     2.5110    -2.8900 C.3   1 <1>   0.0000 
  8 C        6.7760     2.6860    -4.1700 C.3   1 <1>   0.0000 
  9 C        8.2720     2.5720    -3.8890 C.3   1 <1>   0.0000 
 10 C        9.0970     2.8180    -5.1480 C.3   1 <1>   0.3000 
 11 N       10.5140     2.7980    -4.8300 N.am  1 <1>  -0.7300 
 12 C       11.4660     1.8720    -5.1360 C.2   1 <1>   0.5690 
 13 O       12.6190     2.0330    -4.7360 O.2   1 <1>  -0.5700 
 14 C       11.0840     0.6620    -5.9560 C.3   1 <1>   0.0610 
 15 H1      10.4900     0.9720    -6.8210 H     1 <1>   0.0000 
 16 C       10.3540    -0.3770    -5.1160 C.3   1 <1>   0.0610 
 17 C       10.7490    -1.7730    -5.5380 C.2   1 <1>   0.5690 
 18 N       10.1250    -2.3130    -6.6290 N.am  1 <1>  -0.3250 
 19 O       10.5480    -3.6160    -6.9810 O.3   1 <1>  -0.4360 
 20 H       11.2280    -3.7910    -6.2950 H     1 <1>   0.4000 
 21 C        9.0780    -1.8100    -7.5090 C.3   1 <1>   0.3000 
 22 C        7.7340    -2.4730    -7.2100 C.3   1 <1>   0.0000 
 23 C        6.6330    -1.9220    -8.1150 C.3   1 <1>   0.0000 
 24 C        5.3120    -2.6620    -7.9010 C.3   1 <1>   0.0000 
 25 C        4.2190    -2.1160    -8.8170 C.3   1 <1>   0.3000 
 26 N        2.9970    -2.8870    -8.7090 N.am  1 <1>  -0.7300 
 27 H        2.2600    -2.5510    -8.1000 H     1 <1>   0.3700 
 28 H2       4.5500    -2.1320    -9.8620 H     1 <1>   0.0000 
 29 H3       3.9760    -1.0820    -8.5510 H     1 <1>   0.0000 
 30 H2       4.9950    -2.5710    -6.8550 H     1 <1>   0.0000 
 31 H3       5.4600    -3.7320    -8.0920 H     1 <1>   0.0000 
 32 H2       6.9380    -2.0200    -9.1650 H     1 <1>   0.0000 
 33 H3       6.4940    -0.8520    -7.9170 H     1 <1>   0.0000 
 34 H2       7.4650    -2.3110    -6.1590 H     1 <1>   0.0000 
 35 H3       7.8200    -3.5580    -7.3490 H     1 <1>   0.0000 
 36 H2       9.3860    -2.0070    -8.5420 H     1 <1>   0.0000 
 37 H3       8.9860    -0.7280    -7.3880 H     1 <1>   0.0000 
 38 O       11.6240    -2.4040    -4.9370 O.2   1 <1>  -0.5700 
 39 H2       9.2680    -0.2560    -5.1860 H     1 <1>   0.0000 
 40 H3      10.6030    -0.2750    -4.0520 H     1 <1>   0.0000 
 41 H3      12.0140     0.2490    -6.3690 H     1 <1>   0.0000 
 42 H2      10.8790     3.5790    -4.2970 H     1 <1>   0.3700 
 43 H2       8.8830     3.8120    -5.5540 H     1 <1>   0.0000 
 44 H3       8.8570     2.0820    -5.9180 H     1 <1>   0.0000 
 45 H2       8.5010     1.5810    -3.4800 H     1 <1>   0.0000 
 46 H3       8.5580     3.3000    -3.1190 H     1 <1>   0.0000 
 47 H2       6.5590     3.6660    -4.6110 H     1 <1>   0.0000 
 48 H3       6.4800     1.9270    -4.9050 H     1 <1>   0.0000 
 49 H2       6.1480     1.5200    -2.4590 H     1 <1>   0.0000 
 50 H3       6.2860     3.2450    -2.1420 H     1 <1>   0.0000 
 51 H2       4.2570     3.6720    -3.5790 H     1 <1>   0.0000 
 52 H3       4.1420     1.9310    -3.8920 H     1 <1>   0.0000 
 53 O        3.6720     3.6650    -1.1270 O.3   1 <1>  -0.4360 
 54 H        4.5110     3.5760    -0.6400 H     1 <1>   0.4000 
 55 O        2.9770     0.3830    -2.2710 O.2   1 <1>  -0.5700 
 56 H3       2.8490     1.6820     0.5230 H     1 <1>   0.0000 
 57 C       -0.0640     0.3460    -0.5300 C.ar  1 <1>  -0.1500 
 58 H       -0.4400     1.1720    -1.1290 H     1 <1>   0.1500 
 59 C       -0.8990    -0.7430    -0.2740 C.ar  1 <1>  -0.1500 
 60 H       -1.9120    -0.7540    -0.6650 H     1 <1>   0.1500 
 61 C       -0.4330    -1.8190     0.4810 C.ar  1 <1>  -0.1500 
 62 H       -1.0830    -2.6660     0.6810 H     1 <1>   0.1500 
 63 C        0.8700    -1.8060     0.9780 C.ar  1 <1>  -0.1500 
 64 H        1.2360    -2.6470     1.5610 H     1 <1>   0.1500 
 65 C        1.7060    -0.7170     0.7250 C.ar  1 <1>  -0.1500 
 66 H        2.7210    -0.7260     1.1150 H     1 <1>   0.1500 
 67 C        2.8130    -4.0620    -9.4130 C.2   1 <1>   0.5690 
 68 C        1.4760    -4.7040    -9.1590 C.3   1 <1>   0.0610 
 69 H1       1.2290    -5.3730    -9.9870 H     1 <1>   0.0000 
 70 H2       0.6910    -3.9460    -9.0790 H     1 <1>   0.0000 
 71 H3       1.5230    -5.2770    -8.2290 H     1 <1>   0.0000 
 72 O        3.6550    -4.5670   -10.1500 O.2   1 <1>  -0.5700 
@<TRIPOS>BOND
  1   1   2  1   
  2   1  57  ar  
  3   1  65  ar  
  4   2   3  1   
  5   2   4  1   
  6   2  56  1   
  7   4   5  am  
  8   4  55  2   
  9   5   6  1   
 10   5  53  1   
 11   6   7  1   
 12   6  51  1   
 13   6  52  1   
 14   7   8  1   
 15   7  49  1   
 16   7  50  1   
 17   8   9  1   
 18   8  47  1   
 19   8  48  1   
 20   9  10  1   
 21   9  45  1   
 22   9  46  1   
 23  10  11  1   
 24  10  43  1   
 25  10  44  1   
 26  11  12  am  
 27  11  42  1   
 28  12  13  2   
 29  12  14  1   
 30  14  15  1   
 31  14  16  1   
 32  14  41  1   
 33  16  17  1   
 34  16  39  1   
 35  16  40  1   
 36  17  18  am  
 37  17  38  2   
 38  18  19  1   
 39  18  21  1   
 40  19  20  1   
 41  21  22  1   
 42  21  36  1   
 43  21  37  1   
 44  22  23  1   
 45  22  34  1   
 46  22  35  1   
 47  23  24  1   
 48  23  32  1   
 49  23  33  1   
 50  24  25  1   
 51  24  30  1   
 52  24  31  1   
 53  25  26  1   
 54  25  28  1   
 55  25  29  1   
 56  26  27  1   
 57  26  67  am  
 58  53  54  1   
 59  57  58  1   
 60  57  59  ar  
 61  59  60  1   
 62  59  61  ar  
 63  61  62  1   
 64  61  63  ar  
 65  63  64  1   
 66  63  65  ar  
 67  65  66  1   
 68  67  68  1   
 69  67  72  2   
 70  68  69  1   
 71  68  70  1   
 72  68  71  1   
@<TRIPOS>SUBSTRUCTURE
  1 <1>   0 RESIDUE 1 * * 1
# MOE 2007.09 (io_trps.svl 2007.09)
