@<TRIPOS>MOLECULE
J02_16
84 88 1 0 0 
SMALL
USER_CHARGES


@<TRIPOS>ATOM
  1 C        0.6880     0.7830     0.0850 C.3   1 <1>   0.0530 
  2 C        1.5810     1.6680     0.9810 C.2   1 <1>   0.6670 
  3 O        2.8850     1.6250     0.5690 O.3   1 <1>  -0.4300 
  4 C        3.7900     2.4950     1.2740 C.3   1 <1>   0.3410 
  5 C        5.2160     2.0730     0.8930 C.3   1 <1>   0.1440 
  6 C        6.2460     2.4930     1.9140 C.ar  1 <1>  -0.1440 
  7 H2       5.4850     2.4700    -0.0950 H     1 <1>   0.0000 
  8 H3       5.2650     0.9810     0.7790 H     1 <1>   0.0000 
  9 H2       3.6250     2.3650     2.3510 H     1 <1>   0.0000 
 10 C        3.5790     3.9660     0.9270 C.2   1 <1>   0.6590 
 11 O        3.8770     4.9180     1.6330 O.2   1 <1>  -0.5700 
 12 O        3.0780     4.1730    -0.3100 O.3   1 <1>  -0.6500 
 13 H        3.0180     5.1480    -0.3960 H     1 <1>   0.5000 
 14 O        1.2050     2.3530     1.9290 O.2   1 <1>  -0.5700 
 15 H2       0.7490     1.1560    -0.9520 H     1 <1>   0.0000 
 16 C       -0.7990     0.5590     0.5110 C.3   1 <1>   0.1080 
 17 C       -1.8560     1.6280    -0.0230 C.ar  1 <1>  -0.1080 
 18 H2      -0.8970     0.4850     1.6070 H     1 <1>   0.0000 
 19 C       -0.6830    -0.8680    -0.1350 C.3   1 <1>   0.1080 
 20 H1      -0.8730    -0.8440    -1.2200 H     1 <1>   0.0000 
 21 C       -1.5010    -2.0850     0.4880 C.ar  1 <1>  -0.1080 
 22 C        0.8590    -0.7630     0.1160 C.3   1 <1>   0.0530 
 23 H1       1.4210    -1.1000    -0.7700 H     1 <1>   0.0000 
 24 C        1.4630    -1.4630     1.3570 C.2   1 <1>   0.6670 
 25 O        1.1290    -0.8540     2.5320 O.3   1 <1>  -0.4300 
 26 C        1.6400    -1.4250     3.7560 C.3   1 <1>   0.3410 
 27 C        3.1650    -1.2250     3.8430 C.3   1 <1>   0.1440 
 28 C        3.6280    -0.8800     5.2420 C.ar  1 <1>  -0.1440 
 29 H2       3.4790    -0.4170     3.1690 H     1 <1>   0.0000 
 30 H3       3.7060    -2.1140     3.4970 H     1 <1>   0.0000 
 31 C        1.2130    -2.8790     3.9820 C.2   1 <1>   0.6590 
 32 O       -0.0950    -3.0800     3.7030 O.3   1 <1>  -0.6500 
 33 H       -0.2630    -4.0360     3.8550 H     1 <1>   0.5000 
 34 O        1.9010    -3.7940     4.4080 O.2   1 <1>  -0.5700 
 35 H3       1.1530    -0.8530     4.5560 H     1 <1>   0.0000 
 36 O        2.1850    -2.4570     1.3030 O.2   1 <1>  -0.5700 
 37 C       -2.7060    -1.8970     1.1970 C.ar  1 <1>  -0.1500 
 38 H       -3.0950    -0.8900     1.3400 H     1 <1>   0.1500 
 39 C       -3.4330    -2.9660     1.7330 C.ar  1 <1>  -0.1500 
 40 H       -4.3500    -2.7590     2.2770 H     1 <1>   0.1500 
 41 C       -2.9710    -4.2660     1.5670 C.ar  1 <1>   0.0820 
 42 O       -3.6690    -5.3220     2.0850 O.3   1 <1>  -0.5320 
 43 H       -4.5130    -4.9990     2.4400 H     1 <1>   0.4500 
 44 C       -1.7910    -4.4960     0.8680 C.ar  1 <1>   0.0820 
 45 O       -1.3420    -5.7800     0.7120 O.3   1 <1>  -0.5320 
 46 H       -0.4900    -5.7630     0.2470 H     1 <1>   0.4500 
 47 C       -1.0720    -3.4220     0.3310 C.ar  1 <1>  -0.1500 
 48 H       -0.1550    -3.6110    -0.2230 H     1 <1>   0.1500 
 49 C        6.9900     3.6700     1.7370 C.ar  1 <1>  -0.1500 
 50 H        6.8410     4.2790     0.8490 H     1 <1>   0.1500 
 51 C        7.9080     4.0520     2.7100 C.ar  1 <1>   0.0820 
 52 O        8.6620     5.1880     2.5980 O.3   1 <1>  -0.5320 
 53 H        8.4260     5.6320     1.7640 H     1 <1>   0.4500 
 54 C        8.0880     3.2770     3.8520 C.ar  1 <1>   0.0820 
 55 O        8.9880     3.6740     4.7990 O.3   1 <1>  -0.5320 
 56 H        9.3590     4.5070     4.4430 H     1 <1>   0.4500 
 57 C        7.3640     2.1110     4.0440 C.ar  1 <1>  -0.1500 
 58 H        7.5120     1.5120     4.9380 H     1 <1>   0.1500 
 59 C        6.4430     1.7170     3.0720 C.ar  1 <1>  -0.1500 
 60 H        5.8780     0.8000     3.2220 H     1 <1>   0.1500 
 61 C        3.7080     0.4620     5.6500 C.ar  1 <1>  -0.1500 
 62 H        3.4540     1.2580     4.9560 H     1 <1>   0.1500 
 63 C        4.1110     0.7590     6.9480 C.ar  1 <1>   0.0820 
 64 O        4.2200     2.0450     7.4000 O.3   1 <1>  -0.5320 
 65 H        4.0320     2.6510     6.6620 H     1 <1>   0.4500 
 66 C        4.4180    -0.2620     7.8440 C.ar  1 <1>   0.0820 
 67 O        4.7960     0.0450     9.1200 O.3   1 <1>  -0.5320 
 68 H        4.7960     1.0240     9.1460 H     1 <1>   0.4500 
 69 C        4.3440    -1.5910     7.4580 C.ar  1 <1>  -0.1500 
 70 H        4.5850    -2.3810     8.1630 H     1 <1>   0.1500 
 71 C        3.9520    -1.8990     6.1540 C.ar  1 <1>  -0.1500 
 72 H        3.8950    -2.9440     5.8550 H     1 <1>   0.1500 
 73 C       -1.9710     2.8800     0.6200 C.ar  1 <1>  -0.1500 
 74 H       -1.3430     3.0880     1.4870 H     1 <1>   0.1500 
 75 C       -2.8560     3.8710     0.1850 C.ar  1 <1>  -0.1500 
 76 H       -2.8950     4.8150     0.7190 H     1 <1>   0.1500 
 77 C       -3.6600     3.6300    -0.9210 C.ar  1 <1>   0.0820 
 78 O       -4.5260     4.5870    -1.3680 O.3   1 <1>  -0.5320 
 79 H       -4.4460     5.3740    -0.8070 H     1 <1>   0.4500 
 80 C       -3.5880     2.4050    -1.5770 C.ar  1 <1>   0.0820 
 81 O       -4.3870     2.1810    -2.6650 O.3   1 <1>  -0.5320 
 82 H       -4.3290     1.2460    -2.9190 H     1 <1>   0.4500 
 83 C       -2.7020     1.4170    -1.1320 C.ar  1 <1>  -0.1500 
 84 H       -2.6560     0.4680    -1.6590 H     1 <1>   0.1500 
@<TRIPOS>BOND
  1   1   2  1   
  2   1  15  1   
  3   1  16  1   
  4   1  22  1   
  5   2   3  1   
  6   2  14  2   
  7   3   4  1   
  8   4   5  1   
  9   4   9  1   
 10   4  10  1   
 11   5   6  1   
 12   5   7  1   
 13   5   8  1   
 14   6  49  ar  
 15   6  59  ar  
 16  10  11  2   
 17  10  12  1   
 18  12  13  1   
 19  16  17  1   
 20  16  18  1   
 21  16  19  1   
 22  17  73  ar  
 23  17  83  ar  
 24  19  20  1   
 25  19  21  1   
 26  19  22  1   
 27  21  37  ar  
 28  21  47  ar  
 29  22  23  1   
 30  22  24  1   
 31  24  25  1   
 32  24  36  2   
 33  25  26  1   
 34  26  27  1   
 35  26  31  1   
 36  26  35  1   
 37  27  28  1   
 38  27  29  1   
 39  27  30  1   
 40  28  61  ar  
 41  28  71  ar  
 42  31  32  1   
 43  31  34  2   
 44  32  33  1   
 45  37  38  1   
 46  37  39  ar  
 47  39  40  1   
 48  39  41  ar  
 49  41  42  1   
 50  41  44  ar  
 51  42  43  1   
 52  44  45  1   
 53  44  47  ar  
 54  45  46  1   
 55  47  48  1   
 56  49  50  1   
 57  49  51  ar  
 58  51  52  1   
 59  51  54  ar  
 60  52  53  1   
 61  54  55  1   
 62  54  57  ar  
 63  55  56  1   
 64  57  58  1   
 65  57  59  ar  
 66  59  60  1   
 67  61  62  1   
 68  61  63  ar  
 69  63  64  1   
 70  63  66  ar  
 71  64  65  1   
 72  66  67  1   
 73  66  69  ar  
 74  67  68  1   
 75  69  70  1   
 76  69  71  ar  
 77  71  72  1   
 78  73  74  1   
 79  73  75  ar  
 80  75  76  1   
 81  75  77  ar  
 82  77  78  1   
 83  77  80  ar  
 84  78  79  1   
 85  80  81  1   
 86  80  83  ar  
 87  81  82  1   
 88  83  84  1   
@<TRIPOS>SUBSTRUCTURE
  1 <1>   0 RESIDUE 1 * * 1
# MOE 2007.09 (io_trps.svl 2007.09)
