@<TRIPOS>MOLECULE
J02_40
88 92 1 0 0 
SMALL
USER_CHARGES


@<TRIPOS>ATOM
  1 C        2.7620     1.3201    -0.9567 C.ar  1 <1>   0.0825 
  2 O        2.6685     0.8498    -2.2363 O.3   1 <1>  -0.5325 
  3 H        2.5229     1.5881    -2.8498 H     1 <1>   0.4500 
  4 C        2.6140     2.6959    -0.7424 C.ar  1 <1>  -0.1500 
  5 H        2.4437     3.3777    -1.5710 H     1 <1>   0.1500 
  6 C        2.6818     3.2141     0.5504 C.ar  1 <1>  -0.1500 
  7 H        2.5734     4.2825     0.7176 H     1 <1>   0.1500 
  8 C        2.8871     2.3601     1.6292 C.ar  1 <1>  -0.1500 
  9 H        2.9466     2.7586     2.6398 H     1 <1>   0.1500 
 10 C        3.0301     0.9877     1.4158 C.ar  1 <1>  -0.1500 
 11 H        3.1895     0.3445     2.2789 H     1 <1>   0.1500 
 12 C        2.9818     0.4518     0.1190 C.ar  1 <1>   0.0862 
 13 C        3.1626    -0.9982    -0.0099 C.2   1 <1>   0.5138 
 14 N        3.1519    -1.8439     0.9782 N.2   1 <1>  -0.6960 
 15 C        3.2906    -3.1488     0.3001 C.3   1 <1>   0.3070 
 16 H1       2.2721    -3.5639     0.2646 H     1 <1>   0.0000 
 17 C        4.1194    -4.1855     1.0512 C.2   1 <1>   0.5690 
 18 N        5.1898    -3.8483     1.8782 N.am  1 <1>  -0.6602 
 19 C        5.8171    -4.9463     2.6306 C.3   1 <1>   0.3001 
 20 H1       6.8216    -4.6373     2.9424 H     1 <1>   0.0000 
 21 H2       5.9458    -5.8034     1.9583 H     1 <1>   0.0000 
 22 C        4.9869    -5.3693     3.8457 C.3   1 <1>   0.0000 
 23 C        5.6821    -6.4711     4.6372 C.3   1 <1>   0.3001 
 24 N        4.9691    -6.7608     5.8639 N.am  1 <1>  -0.7301 
 25 C        4.9930    -7.9904     6.4841 C.2   1 <1>   0.5438 
 26 C        4.2144    -8.1074     7.7478 C.ar  1 <1>   0.0862 
 27 O        5.6140    -8.9600     6.0571 O.2   1 <1>  -0.5700 
 28 H2       4.4281    -6.0207     6.3197 H     1 <1>   0.3700 
 29 H2       6.6922    -6.1612     4.9266 H     1 <1>   0.0000 
 30 H3       5.7680    -7.3846     4.0389 H     1 <1>   0.0000 
 31 H2       3.9954    -5.7169     3.5308 H     1 <1>   0.0000 
 32 H3       4.8053    -4.5079     4.4978 H     1 <1>   0.0000 
 33 C        5.7661    -2.5079     2.0745 C.3   1 <1>   0.3001 
 34 H1       5.4798    -1.8413     1.2632 H     1 <1>   0.0000 
 35 H2       6.8551    -2.6114     1.9865 H     1 <1>   0.0000 
 36 C        5.4162    -1.8791     3.4249 C.3   1 <1>   0.0000 
 37 C        6.0469    -0.4959     3.5728 C.3   1 <1>   0.3001 
 38 N        5.7814     0.0694     4.8805 N.am  1 <1>  -0.7301 
 39 H1       5.9697    -0.4707     5.7263 H     1 <1>   0.3700 
 40 C        5.2982     1.3384     5.1083 C.2   1 <1>   0.5690 
 41 C        5.0991     1.6521     6.5863 C.3   1 <1>   0.3070 
 42 H        4.0179     1.6912     6.7717 H     1 <1>   0.0000 
 43 O        5.0246     2.1498     4.2281 O.2   1 <1>  -0.5700 
 44 H2       5.6876     0.1827     2.7934 H     1 <1>   0.0000 
 45 H3       7.1361    -0.5654     3.4800 H     1 <1>   0.0000 
 46 H2       5.7793    -2.5168     4.2387 H     1 <1>   0.0000 
 47 H3       4.3286    -1.8131     3.5459 H     1 <1>   0.0000 
 48 O        3.8272    -5.3760     0.8519 O.2   1 <1>  -0.5700 
 49 C        3.7319    -2.8405    -1.1181 C.3   1 <1>   0.2800 
 50 H1       3.1266    -3.4120    -1.8314 H     1 <1>   0.0000 
 51 C        5.2012    -3.0335    -1.4611 C.3   1 <1>   0.0000 
 52 H1       5.3762    -2.7526    -2.5060 H     1 <1>   0.0000 
 53 H2       5.5146    -4.0735    -1.3340 H     1 <1>   0.0000 
 54 H3       5.8503    -2.3855    -0.8664 H     1 <1>   0.0000 
 55 O        3.4063    -1.4585    -1.2618 O.3   1 <1>  -0.4300 
 56 C        3.4989    -7.0542     8.3199 C.ar  1 <1>   0.0825 
 57 O        3.4461    -5.8098     7.7391 O.3   1 <1>  -0.5325 
 58 H        2.9050    -5.2773     8.3635 H     1 <1>   0.4500 
 59 C        2.8052    -7.2331     9.5198 C.ar  1 <1>   0.0825 
 60 O        2.1393    -6.1464    10.0221 O.3   1 <1>  -0.5325 
 61 H        1.6932    -6.4136    10.8458 H     1 <1>   0.4500 
 62 C        2.8021    -8.4623    10.1670 C.ar  1 <1>  -0.1500 
 63 H        2.2658    -8.6135    11.0987 H     1 <1>   0.1500 
 64 C        3.5079    -9.5245     9.6020 C.ar  1 <1>  -0.1500 
 65 H        3.5164   -10.4944    10.0944 H     1 <1>   0.1500 
 66 C        4.2095    -9.3491     8.4029 C.ar  1 <1>  -0.1500 
 67 H        4.7543   -10.1930     7.9824 H     1 <1>   0.1500 
 68 C        5.7790     2.9224     7.0727 C.3   1 <1>   0.2800 
 69 H1       5.0764     3.7625     7.0836 H     1 <1>   0.0000 
 70 C        7.0596     3.3293     6.3518 C.3   1 <1>   0.0000 
 71 H1       7.5539     4.1433     6.8939 H     1 <1>   0.0000 
 72 H2       6.8608     3.6728     5.3331 H     1 <1>   0.0000 
 73 H3       7.7775     2.5025     6.3122 H     1 <1>   0.0000 
 74 O        6.1264     2.5910     8.4179 O.3   1 <1>  -0.4300 
 75 C        6.1268     1.2348     8.4617 C.2   1 <1>   0.5138 
 76 C        6.7379     0.6465     9.6518 C.ar  1 <1>   0.0862 
 77 N        5.6604     0.5688     7.4452 N.2   1 <1>  -0.6960 
 78 C        6.7775     1.2786    10.8993 C.ar  1 <1>   0.0825 
 79 O        6.1913     2.4997    11.0868 O.3   1 <1>  -0.5325 
 80 H        6.3642     2.8124    11.9902 H     1 <1>   0.4500 
 81 C        7.3921     0.6512    11.9880 C.ar  1 <1>  -0.1500 
 82 H        7.4293     1.1285    12.9629 H     1 <1>   0.1500 
 83 C        7.9601    -0.6148    11.8377 C.ar  1 <1>  -0.1500 
 84 H        8.4352    -1.1020    12.6857 H     1 <1>   0.1500 
 85 C        7.9116    -1.2578    10.6033 C.ar  1 <1>  -0.1500 
 86 H        8.3471    -2.2469    10.4860 H     1 <1>   0.1500 
 87 C        7.3011    -0.6315     9.5155 C.ar  1 <1>  -0.1500 
 88 H        7.2724    -1.1498     8.5590 H     1 <1>   0.1500 
@<TRIPOS>BOND
  1   1   2  1   
  2   1   4  ar  
  3   1  12  ar  
  4   2   3  1   
  5   4   5  1   
  6   4   6  ar  
  7   6   7  1   
  8   6   8  ar  
  9   8   9  1   
 10   8  10  ar  
 11  10  11  1   
 12  10  12  ar  
 13  12  13  1   
 14  13  14  2   
 15  13  55  1   
 16  14  15  1   
 17  15  16  1   
 18  15  17  1   
 19  15  49  1   
 20  17  18  am  
 21  17  48  2   
 22  18  19  1   
 23  18  33  1   
 24  19  20  1   
 25  19  21  1   
 26  19  22  1   
 27  22  23  1   
 28  22  31  1   
 29  22  32  1   
 30  23  24  1   
 31  23  29  1   
 32  23  30  1   
 33  24  25  am  
 34  24  28  1   
 35  25  26  1   
 36  25  27  2   
 37  26  56  ar  
 38  26  66  ar  
 39  33  34  1   
 40  33  35  1   
 41  33  36  1   
 42  36  37  1   
 43  36  46  1   
 44  36  47  1   
 45  37  38  1   
 46  37  44  1   
 47  37  45  1   
 48  38  39  1   
 49  38  40  am  
 50  40  41  1   
 51  40  43  2   
 52  41  42  1   
 53  41  68  1   
 54  41  77  1   
 55  49  50  1   
 56  49  51  1   
 57  49  55  1   
 58  51  52  1   
 59  51  53  1   
 60  51  54  1   
 61  56  57  1   
 62  56  59  ar  
 63  57  58  1   
 64  59  60  1   
 65  59  62  ar  
 66  60  61  1   
 67  62  63  1   
 68  62  64  ar  
 69  64  65  1   
 70  64  66  ar  
 71  66  67  1   
 72  68  69  1   
 73  68  70  1   
 74  68  74  1   
 75  70  71  1   
 76  70  72  1   
 77  70  73  1   
 78  74  75  1   
 79  75  76  1   
 80  75  77  2   
 81  76  78  ar  
 82  76  87  ar  
 83  78  79  1   
 84  78  81  ar  
 85  79  80  1   
 86  81  82  1   
 87  81  83  ar  
 88  83  84  1   
 89  83  85  ar  
 90  85  86  1   
 91  85  87  ar  
 92  87  88  1   
@<TRIPOS>SUBSTRUCTURE
  1 <1>   0 RESIDUE 1 * * 1
# MOE 2007.09 (io_trps.svl 2007.09)
