@<TRIPOS>MOLECULE
J02_14
64 66 1 0 0 
SMALL
USER_CHARGES


@<TRIPOS>ATOM
  1 C        1.8350     0.4400     0.4020 C.ar  1 <1>   0.0280 
  2 C        3.0710     1.2210     0.2430 C.2   1 <1>  -0.1780 
  3 H        2.9610     2.3010     0.3210 H     1 <1>   0.1500 
  4 C        4.2680     0.6850    -0.0220 C.2   1 <1>  -0.1360 
  5 H        4.4220    -0.3810    -0.1400 H     1 <1>   0.1500 
  6 C        5.4420     1.5560    -0.2000 C.2   1 <1>   0.7060 
  7 O        6.5320     0.7680    -0.4000 O.3   1 <1>  -0.4300 
  8 C        7.7670     1.4720    -0.6590 C.3   1 <1>   0.3410 
  9 C        8.9070     0.4680    -0.4470 C.3   1 <1>   0.1440 
 10 C       10.1670     1.1050     0.0930 C.ar  1 <1>  -0.1440 
 11 H2       9.1330    -0.0680    -1.3780 H     1 <1>   0.0000 
 12 H3       8.5980    -0.3150     0.2600 H     1 <1>   0.0000 
 13 H2       7.8420     2.3250     0.0270 H     1 <1>   0.0000 
 14 C        7.7590     1.9790    -2.0960 C.2   1 <1>   0.6590 
 15 O        8.7800     2.8190    -2.3650 O.3   1 <1>  -0.6500 
 16 H        8.6330     3.1070    -3.2910 H     1 <1>   0.5000 
 17 O        6.9420     1.7020    -2.9610 O.2   1 <1>  -0.5700 
 18 O        5.4290     2.7770    -0.1700 O.2   1 <1>  -0.5700 
 19 C        0.6190     1.0070    -0.0070 C.ar  1 <1>  -0.1500 
 20 H        0.6090     2.0010    -0.4460 H     1 <1>   0.1500 
 21 C       -0.5730     0.2890     0.1300 C.ar  1 <1>   0.0820 
 22 O       -1.7600     0.8310    -0.2900 O.3   1 <1>  -0.5320 
 23 H       -1.5920     1.7080    -0.6700 H     1 <1>   0.4500 
 24 C       -0.5760    -0.9990     0.6730 C.ar  1 <1>   0.0820 
 25 O       -1.7870    -1.6340     0.7400 O.3   1 <1>  -0.3620 
 26 C       -1.7970    -3.0500     0.5310 C.3   1 <1>   0.3410 
 27 H       -1.3030    -3.5400     1.3800 H     1 <1>   0.0000 
 28 C       -3.2860    -3.4610     0.5240 C.3   1 <1>   0.4240 
 29 O       -4.0060    -2.7580    -0.4970 O.3   1 <1>  -0.6800 
 30 H       -3.6370    -1.8530    -0.5200 H     1 <1>   0.4000 
 31 H2      -3.7420    -3.1180     1.4620 H     1 <1>   0.0000 
 32 C       -3.5150    -4.9530     0.4170 C.ar  1 <1>  -0.1440 
 33 C       -1.1080    -3.5150    -0.7500 C.2   1 <1>   0.6590 
 34 O       -1.3680    -2.7430    -1.8250 O.3   1 <1>  -0.6500 
 35 H       -0.7850    -3.0800    -2.5370 H     1 <1>   0.5000 
 36 O       -0.3650    -4.4810    -0.8390 O.2   1 <1>  -0.5700 
 37 C        0.6230    -1.5470     1.1280 C.ar  1 <1>  -0.1500 
 38 H        0.6600    -2.5230     1.6030 H     1 <1>   0.1500 
 39 C        1.8190    -0.8310     0.9930 C.ar  1 <1>  -0.1500 
 40 H        2.7350    -1.2830     1.3670 H     1 <1>   0.1500 
 41 C       11.2400     1.4070    -0.7610 C.ar  1 <1>  -0.1500 
 42 H       11.1700     1.1770    -1.8200 H     1 <1>   0.1500 
 43 C       12.3800     2.0090    -0.2390 C.ar  1 <1>   0.0820 
 44 O       13.4570     2.3330    -1.0190 O.3   1 <1>  -0.5320 
 45 H       13.2560     2.0800    -1.9360 H     1 <1>   0.4500 
 46 C       12.4640     2.3090     1.1170 C.ar  1 <1>   0.0820 
 47 O       13.5930     2.9020     1.6050 O.3   1 <1>  -0.5320 
 48 H       14.1650     3.0070     0.8170 H     1 <1>   0.4500 
 49 C       11.4160     2.0170     1.9760 C.ar  1 <1>  -0.1500 
 50 H       11.4910     2.2560     3.0320 H     1 <1>   0.1500 
 51 C       10.2660     1.4150     1.4620 C.ar  1 <1>  -0.1500 
 52 H        9.4430     1.1880     2.1370 H     1 <1>   0.1500 
 53 C       -3.8530    -5.5570    -0.8050 C.ar  1 <1>  -0.1500 
 54 H       -3.9730    -4.9490    -1.7000 H     1 <1>   0.1500 
 55 C       -4.0440    -6.9380    -0.8940 C.ar  1 <1>  -0.1500 
 56 H       -4.3060    -7.3710    -1.8550 H     1 <1>   0.1500 
 57 C       -3.8980    -7.7300     0.2420 C.ar  1 <1>   0.0820 
 58 O       -4.0860    -9.0820     0.1710 O.3   1 <1>  -0.5320 
 59 H       -4.3170    -9.3220    -0.7400 H     1 <1>   0.4500 
 60 C       -3.5610    -7.1460     1.4630 C.ar  1 <1>   0.0820 
 61 O       -3.4210    -7.9350     2.5710 O.3   1 <1>  -0.5320 
 62 H       -3.1900    -7.3760     3.3300 H     1 <1>   0.4500 
 63 C       -3.3670    -5.7660     1.5540 C.ar  1 <1>  -0.1500 
 64 H       -3.1060    -5.3130     2.5070 H     1 <1>   0.1500 
@<TRIPOS>BOND
  1   1   2  1   
  2   1  19  ar  
  3   1  39  ar  
  4   2   3  1   
  5   2   4  2   
  6   4   5  1   
  7   4   6  1   
  8   6   7  1   
  9   6  18  2   
 10   7   8  1   
 11   8   9  1   
 12   8  13  1   
 13   8  14  1   
 14   9  10  1   
 15   9  11  1   
 16   9  12  1   
 17  10  41  ar  
 18  10  51  ar  
 19  14  15  1   
 20  14  17  2   
 21  15  16  1   
 22  19  20  1   
 23  19  21  ar  
 24  21  22  1   
 25  21  24  ar  
 26  22  23  1   
 27  24  25  1   
 28  24  37  ar  
 29  25  26  1   
 30  26  27  1   
 31  26  28  1   
 32  26  33  1   
 33  28  29  1   
 34  28  31  1   
 35  28  32  1   
 36  29  30  1   
 37  32  53  ar  
 38  32  63  ar  
 39  33  34  1   
 40  33  36  2   
 41  34  35  1   
 42  37  38  1   
 43  37  39  ar  
 44  39  40  1   
 45  41  42  1   
 46  41  43  ar  
 47  43  44  1   
 48  43  46  ar  
 49  44  45  1   
 50  46  47  1   
 51  46  49  ar  
 52  47  48  1   
 53  49  50  1   
 54  49  51  ar  
 55  51  52  1   
 56  53  54  1   
 57  53  55  ar  
 58  55  56  1   
 59  55  57  ar  
 60  57  58  1   
 61  57  60  ar  
 62  58  59  1   
 63  60  61  1   
 64  60  63  ar  
 65  61  62  1   
 66  63  64  1   
@<TRIPOS>SUBSTRUCTURE
  1 <1>   0 RESIDUE 1 * * 1
# MOE 2007.09 (io_trps.svl 2007.09)
