@<TRIPOS>MOLECULE
J02_10
65 66 1 0 0 
SMALL
USER_CHARGES


@<TRIPOS>ATOM
  1 C        1.1170     0.6400    -0.1780 C.ar  1 <1>   0.0280 
  2 C        2.4310     1.2820    -0.3130 C.2   1 <1>  -0.1780 
  3 H        2.4160     2.3610    -0.4590 H     1 <1>   0.1500 
  4 C        3.5970     0.6280    -0.2460 C.2   1 <1>  -0.1360 
  5 H        3.6490    -0.4400    -0.0760 H     1 <1>   0.1500 
  6 C        4.8660     1.3780    -0.3910 C.2   1 <1>   0.6160 
  7 N        5.9810     0.5710    -0.2970 N.am  1 <1>  -0.7300 
  8 C        7.3150     1.1260    -0.4210 C.3   1 <1>   0.3000 
  9 C        8.3900     0.0850    -0.1220 C.3   1 <1>   0.0000 
 10 C        9.7940     0.6760    -0.2610 C.3   1 <1>   0.0000 
 11 C       10.8710    -0.3700     0.0420 C.3   1 <1>   0.2700 
 12 N       12.1970     0.2250    -0.1230 N.3   1 <1>  -0.9000 
 13 C       13.2530    -0.7460     0.1630 C.3   1 <1>   0.2700 
 14 C       14.6200    -0.0950    -0.0470 C.3   1 <1>   0.0000 
 15 C       15.7470    -1.0860     0.2240 C.3   1 <1>   0.3000 
 16 N       17.0480    -0.4810     0.0200 N.am  1 <1>  -0.7300 
 17 C       18.1980    -1.0900     0.4760 C.2   1 <1>   0.6160 
 18 C       19.4220    -0.3130     0.1700 C.2   1 <1>  -0.1360 
 19 H       19.3220     0.5990    -0.4040 H     1 <1>   0.1500 
 20 C       20.6100    -0.7620     0.5930 C.2   1 <1>  -0.1780 
 21 H       20.6700    -1.6970     1.1470 H     1 <1>   0.1500 
 22 C       21.8900    -0.0870     0.3440 C.ar  1 <1>   0.0280 
 23 O       18.2260    -2.1600     1.0720 O.2   1 <1>  -0.5700 
 24 H2      17.1000     0.3990    -0.4790 H     1 <1>   0.3700 
 25 H2      15.6780    -1.9470    -0.4510 H     1 <1>   0.0000 
 26 H3      15.6930    -1.4610     1.2520 H     1 <1>   0.0000 
 27 H2      14.7310     0.7740     0.6150 H     1 <1>   0.0000 
 28 H3      14.7020     0.2810    -1.0750 H     1 <1>   0.0000 
 29 H2      13.1570    -1.6100    -0.5050 H     1 <1>   0.0000 
 30 H3      13.1700    -1.1040     1.1960 H     1 <1>   0.0000 
 31 H2      12.2910     1.0300     0.4980 H     1 <1>   0.3600 
 32 H2      10.7540    -1.2190    -0.6410 H     1 <1>   0.0000 
 33 H3      10.7440    -0.7380     1.0680 H     1 <1>   0.0000 
 34 H2       9.9010     1.5280     0.4220 H     1 <1>   0.0000 
 35 H3       9.9280     1.0600    -1.2810 H     1 <1>   0.0000 
 36 H2       8.2760    -0.7670    -0.8040 H     1 <1>   0.0000 
 37 H3       8.2500    -0.3050     0.8940 H     1 <1>   0.0000 
 38 H2       7.3970     1.9760     0.2660 H     1 <1>   0.0000 
 39 H3       7.4200     1.5110    -1.4420 H     1 <1>   0.0000 
 40 H2       5.8810    -0.4250    -0.1460 H     1 <1>   0.3700 
 41 O        4.9030     2.5880    -0.5780 O.2   1 <1>  -0.5700 
 42 C        0.0870     1.3370     0.4730 C.ar  1 <1>  -0.1500 
 43 H        0.2860     2.3200     0.8930 H     1 <1>   0.1500 
 44 C       -1.1840     0.7680     0.5900 C.ar  1 <1>   0.0820 
 45 O       -2.1870     1.4410     1.2310 O.3   1 <1>  -0.5320 
 46 H       -1.8540     2.2980     1.5390 H     1 <1>   0.4500 
 47 C       -1.4420    -0.4920     0.0500 C.ar  1 <1>   0.0820 
 48 O       -2.6910    -1.0360     0.1700 O.3   1 <1>  -0.5320 
 49 H       -2.6920    -1.9070    -0.2560 H     1 <1>   0.4500 
 50 C       -0.4330    -1.1870    -0.6130 C.ar  1 <1>  -0.1500 
 51 H       -0.6170    -2.1640    -1.0500 H     1 <1>   0.1500 
 52 C        0.8400    -0.6190    -0.7300 C.ar  1 <1>  -0.1500 
 53 H        1.6050    -1.1690    -1.2730 H     1 <1>   0.1500 
 54 C       23.0420    -0.8740     0.1730 C.ar  1 <1>  -0.1500 
 55 H       22.9670    -1.9580     0.1940 H     1 <1>   0.1500 
 56 C       24.2740    -0.2580    -0.0310 C.ar  1 <1>   0.0820 
 57 O       25.4290    -0.9700    -0.2110 O.3   1 <1>  -0.5320 
 58 H       25.2160    -1.9190    -0.1670 H     1 <1>   0.4500 
 59 C       24.3750     1.1290    -0.0560 C.ar  1 <1>   0.0820 
 60 O       25.5970     1.7080    -0.2550 O.3   1 <1>  -0.5320 
 61 H       26.2030     0.9460    -0.3470 H     1 <1>   0.4500 
 62 C       23.2550     1.9240     0.1240 C.ar  1 <1>  -0.1500 
 63 H       23.3450     3.0060     0.1140 H     1 <1>   0.1500 
 64 C       22.0120     1.3140     0.3300 C.ar  1 <1>  -0.1500 
 65 H       21.1450     1.9500     0.4940 H     1 <1>   0.1500 
@<TRIPOS>BOND
  1   1   2  1   
  2   1  42  ar  
  3   1  52  ar  
  4   2   3  1   
  5   2   4  2   
  6   4   5  1   
  7   4   6  1   
  8   6   7  am  
  9   6  41  2   
 10   7   8  1   
 11   7  40  1   
 12   8   9  1   
 13   8  38  1   
 14   8  39  1   
 15   9  10  1   
 16   9  36  1   
 17   9  37  1   
 18  10  11  1   
 19  10  34  1   
 20  10  35  1   
 21  11  12  1   
 22  11  32  1   
 23  11  33  1   
 24  12  13  1   
 25  12  31  1   
 26  13  14  1   
 27  13  29  1   
 28  13  30  1   
 29  14  15  1   
 30  14  27  1   
 31  14  28  1   
 32  15  16  1   
 33  15  25  1   
 34  15  26  1   
 35  16  17  am  
 36  16  24  1   
 37  17  18  1   
 38  17  23  2   
 39  18  19  1   
 40  18  20  2   
 41  20  21  1   
 42  20  22  1   
 43  22  54  ar  
 44  22  64  ar  
 45  42  43  1   
 46  42  44  ar  
 47  44  45  1   
 48  44  47  ar  
 49  45  46  1   
 50  47  48  1   
 51  47  50  ar  
 52  48  49  1   
 53  50  51  1   
 54  50  52  ar  
 55  52  53  1   
 56  54  55  1   
 57  54  56  ar  
 58  56  57  1   
 59  56  59  ar  
 60  57  58  1   
 61  59  60  1   
 62  59  62  ar  
 63  60  61  1   
 64  62  63  1   
 65  62  64  ar  
 66  64  65  1   
@<TRIPOS>SUBSTRUCTURE
  1 <1>   0 RESIDUE 1 * * 1
# MOE 2007.09 (io_trps.svl 2007.09)
