@<TRIPOS>MOLECULE
J02_21
32 34 1 0 0 
SMALL
USER_CHARGES


@<TRIPOS>ATOM
  1 C        1.3870     0.6060    -0.4450 C.ar  1 <1>   0.0860 
  2 C        0.2550     1.3550    -0.7770 C.ar  1 <1>  -0.1500 
  3 H        0.3470     2.3540    -1.1950 H     1 <1>   0.1500 
  4 C       -1.0060     0.8070    -0.5670 C.ar  1 <1>   0.0820 
  5 O       -2.0910     1.5630    -0.9010 O.3   1 <1>  -0.5320 
  6 H       -2.9000     1.0630    -0.7030 H     1 <1>   0.4500 
  7 C       -1.1480    -0.4710    -0.0320 C.ar  1 <1>  -0.1500 
  8 H       -2.1270    -0.9080     0.1360 H     1 <1>   0.1500 
  9 C       -0.0050    -1.2060     0.2940 C.ar  1 <1>  -0.1500 
 10 H       -0.1040    -2.2050     0.7120 H     1 <1>   0.1500 
 11 C        1.2690    -0.6690     0.0890 C.ar  1 <1>   0.1790 
 12 N        2.3930    -1.4220     0.4210 N.2   1 <1>  -0.6290 
 13 C        3.5480    -0.8840     0.2140 C.2   1 <1>   0.5860 
 14 C        4.8040    -1.5920     0.5280 C.2   1 <1>  -0.1360 
 15 H        4.6670    -2.5940     0.9200 H     1 <1>   0.1500 
 16 C        6.0210    -1.0700     0.3370 C.2   1 <1>  -0.1780 
 17 H        6.1450    -0.0740    -0.0810 H     1 <1>   0.1500 
 18 C        7.2740    -1.7770     0.6340 C.ar  1 <1>   0.0280 
 19 O        3.7730     0.3500    -0.2980 O.3   1 <1>  -0.3000 
 20 C        2.7250     1.1400    -0.6490 C.2   1 <1>   0.6340 
 21 O        2.8950     2.2590    -1.1180 O.2   1 <1>  -0.5700 
 22 C        7.4210    -2.6220     1.7440 C.ar  1 <1>  -0.1500 
 23 H        6.5910    -2.7950     2.4260 H     1 <1>   0.1500 
 24 C        8.6440    -3.2480     2.0090 C.ar  1 <1>  -0.1500 
 25 H        8.7300    -3.8980     2.8750 H     1 <1>   0.1500 
 26 C        9.7270    -3.0190     1.1670 C.ar  1 <1>   0.0820 
 27 O       10.9380    -3.6070     1.3900 O.3   1 <1>  -0.5320 
 28 H       10.8610    -4.1730     2.1760 H     1 <1>   0.4500 
 29 C        9.6080    -2.1740     0.0710 C.ar  1 <1>  -0.1500 
 30 H       10.4610    -1.9970    -0.5770 H     1 <1>   0.1500 
 31 C        8.3860    -1.5500    -0.1920 C.ar  1 <1>  -0.1500 
 32 H        8.3100    -0.8890    -1.0530 H     1 <1>   0.1500 
@<TRIPOS>BOND
  1   1   2  ar  
  2   1  11  ar  
  3   1  20  1   
  4   2   3  1   
  5   2   4  ar  
  6   4   5  1   
  7   4   7  ar  
  8   5   6  1   
  9   7   8  1   
 10   7   9  ar  
 11   9  10  1   
 12   9  11  ar  
 13  11  12  1   
 14  12  13  2   
 15  13  14  1   
 16  13  19  1   
 17  14  15  1   
 18  14  16  2   
 19  16  17  1   
 20  16  18  1   
 21  18  22  ar  
 22  18  31  ar  
 23  19  20  1   
 24  20  21  2   
 25  22  23  1   
 26  22  24  ar  
 27  24  25  1   
 28  24  26  ar  
 29  26  27  1   
 30  26  29  ar  
 31  27  28  1   
 32  29  30  1   
 33  29  31  ar  
 34  31  32  1   
@<TRIPOS>SUBSTRUCTURE
  1 <1>   0 RESIDUE 1 * * 1
# MOE 2007.09 (io_trps.svl 2007.09)
