@<TRIPOS>MOLECULE
J02_25
84 87 1 0 0 
SMALL
USER_CHARGES


@<TRIPOS>ATOM
  1 C        1.0270    -0.2080     0.0540 C.ar  1 <1>  -0.1440 
  2 C        1.8460     0.8160    -0.6880 C.3   1 <1>   0.1440 
  3 C        2.0620     2.0700     0.1570 C.3   1 <1>   0.3000 
  4 N        2.7450     3.1140    -0.5910 N.am  1 <1>  -0.7300 
  5 C        2.8940     4.4280    -0.2490 C.2   1 <1>   0.5690 
  6 O        3.5000     5.1890    -1.0030 O.2   1 <1>  -0.5700 
  7 C        2.2740     4.9200     1.0360 C.3   1 <1>   0.0610 
  8 H1       2.8770     5.7610     1.3990 H     1 <1>   0.0000 
  9 H2       2.3400     4.1430     1.8040 H     1 <1>   0.0000 
 10 C        0.8340     5.3630     0.7860 C.3   1 <1>   0.1440 
 11 C        0.1820     5.9550     2.0110 C.ar  1 <1>  -0.1440 
 12 H2       0.2170     4.5270     0.4380 H     1 <1>   0.0000 
 13 H3       0.8240     6.0950    -0.0330 H     1 <1>   0.0000 
 14 H2       3.1900     2.8760    -1.4720 H     1 <1>   0.3700 
 15 H2       2.6730     1.8470     1.0390 H     1 <1>   0.0000 
 16 H3       1.1040     2.4620     0.5130 H     1 <1>   0.0000 
 17 H2       1.3470     1.0780    -1.6300 H     1 <1>   0.0000 
 18 H3       2.8110     0.3800    -0.9770 H     1 <1>   0.0000 
 19 C       -0.3590    -0.2890    -0.1480 C.ar  1 <1>  -0.1500 
 20 H       -0.8510     0.3720    -0.8580 H     1 <1>   0.1500 
 21 C       -1.1270    -1.2180     0.5590 C.ar  1 <1>  -0.1500 
 22 H       -2.1970    -1.2620     0.3860 H     1 <1>   0.1500 
 23 C       -0.5050    -2.0630     1.4720 C.ar  1 <1>   0.0820 
 24 O       -1.2130    -2.9850     2.1860 O.3   1 <1>  -0.5320 
 25 H       -2.1400    -2.9720     1.8940 H     1 <1>   0.4500 
 26 C        0.8670    -1.9920     1.6900 C.ar  1 <1>  -0.1500 
 27 H        1.3390    -2.6530     2.4100 H     1 <1>   0.1500 
 28 C        1.6330    -1.0660     0.9820 C.ar  1 <1>  -0.1500 
 29 H        2.7050    -1.0160     1.1630 H     1 <1>   0.1500 
 30 C       -0.3760     7.2400     1.9570 C.ar  1 <1>  -0.1500 
 31 H       -0.3300     7.8230     1.0390 H     1 <1>   0.1500 
 32 C       -0.9980     7.7850     3.0830 C.ar  1 <1>   0.0820 
 33 O       -1.5150     9.0530     3.0190 O.3   1 <1>  -0.3620 
 34 C       -2.7970     9.0310     2.3900 C.3   1 <1>   0.2800 
 35 H1      -3.2210    10.0380     2.4600 H     1 <1>   0.0000 
 36 H2      -3.4800     8.3410     2.8980 H     1 <1>   0.0000 
 37 H3      -2.7120     8.7730     1.3290 H     1 <1>   0.0000 
 38 C       -1.0280     7.0760     4.2850 C.ar  1 <1>   0.0820 
 39 O       -1.6620     7.6400     5.3710 O.3   1 <1>  -0.1650 
 40 C       -0.9010     7.7300     6.5130 C.ar  1 <1>   0.0820 
 41 C       -0.5060     5.7820     4.3380 C.ar  1 <1>  -0.1500 
 42 H       -0.5740     5.1930     5.2480 H     1 <1>   0.1500 
 43 C        0.0920     5.2250     3.2050 C.ar  1 <1>  -0.1500 
 44 H        0.4840     4.2120     3.2680 H     1 <1>   0.1500 
 45 C        0.0800     8.7190     6.6240 C.ar  1 <1>  -0.1500 
 46 H        0.2650     9.3820     5.7820 H     1 <1>   0.1500 
 47 C        0.8120     8.8480     7.8130 C.ar  1 <1>   0.0280 
 48 C        1.8260     9.9020     7.9190 C.2   1 <1>  -0.1780 
 49 H        1.4700    10.8970     7.6600 H     1 <1>   0.1500 
 50 C        3.0940     9.7680     8.3200 C.2   1 <1>  -0.1360 
 51 H        3.7180    10.6500     8.4320 H     1 <1>   0.1500 
 52 C        3.7680     8.5140     8.6990 C.2   1 <1>   0.6160 
 53 N        3.6360     7.5030     7.7740 N.am  1 <1>  -0.7300 
 54 H1       3.1170     7.6750     6.9190 H     1 <1>   0.3700 
 55 C        4.2150     6.1900     7.9760 C.3   1 <1>   0.3000 
 56 C        3.3620     5.3430     8.9200 C.3   1 <1>   0.1440 
 57 C        3.9100     3.9480     9.0720 C.ar  1 <1>  -0.1440 
 58 H2       2.3300     5.2930     8.5490 H     1 <1>   0.0000 
 59 H3       3.2950     5.8170     9.9080 H     1 <1>   0.0000 
 60 H2       5.2300     6.3110     8.3720 H     1 <1>   0.0000 
 61 H3       4.2930     5.7190     6.9900 H     1 <1>   0.0000 
 62 O        4.4180     8.4430     9.7340 O.2   1 <1>  -0.5700 
 63 C        0.5250     8.0040     8.9000 C.ar  1 <1>  -0.1500 
 64 H        1.0820     8.1340     9.8240 H     1 <1>   0.1500 
 65 C       -0.4580     7.0180     8.7910 C.ar  1 <1>   0.0820 
 66 O       -0.8230     6.1210     9.7630 O.3   1 <1>  -0.3620 
 67 C       -0.1600     6.2340    11.0170 C.3   1 <1>   0.2800 
 68 H1      -0.5700     5.4670    11.6810 H     1 <1>   0.0000 
 69 H2      -0.3480     7.2090    11.4780 H     1 <1>   0.0000 
 70 H3       0.9140     6.0450    10.9140 H     1 <1>   0.0000 
 71 C       -1.1670     6.8920     7.5930 C.ar  1 <1>   0.0820 
 72 O       -2.1220     5.9140     7.4830 O.3   1 <1>  -0.5320 
 73 H       -2.1230     5.4660     8.3530 H     1 <1>   0.4500 
 74 C        4.9120     3.6770    10.0160 C.ar  1 <1>  -0.1500 
 75 H        5.2920     4.4730    10.6520 H     1 <1>   0.1500 
 76 C        5.4290     2.3870    10.1510 C.ar  1 <1>  -0.1500 
 77 H        6.2030     2.1990    10.8890 H     1 <1>   0.1500 
 78 C        4.9430     1.3690     9.3360 C.ar  1 <1>   0.0820 
 79 O        5.4140     0.0930     9.4310 O.3   1 <1>  -0.5320 
 80 H        6.0780     0.0530    10.1390 H     1 <1>   0.4500 
 81 C        3.9560     1.6220     8.3890 C.ar  1 <1>  -0.1500 
 82 H        3.5890     0.8180     7.7590 H     1 <1>   0.1500 
 83 C        3.4400     2.9100     8.2550 C.ar  1 <1>  -0.1500 
 84 H        2.6690     3.0980     7.5110 H     1 <1>   0.1500 
@<TRIPOS>BOND
  1   1   2  1   
  2   1  19  ar  
  3   1  28  ar  
  4   2   3  1   
  5   2  17  1   
  6   2  18  1   
  7   3   4  1   
  8   3  15  1   
  9   3  16  1   
 10   4   5  am  
 11   4  14  1   
 12   5   6  2   
 13   5   7  1   
 14   7   8  1   
 15   7   9  1   
 16   7  10  1   
 17  10  11  1   
 18  10  12  1   
 19  10  13  1   
 20  11  30  ar  
 21  11  43  ar  
 22  19  20  1   
 23  19  21  ar  
 24  21  22  1   
 25  21  23  ar  
 26  23  24  1   
 27  23  26  ar  
 28  24  25  1   
 29  26  27  1   
 30  26  28  ar  
 31  28  29  1   
 32  30  31  1   
 33  30  32  ar  
 34  32  33  1   
 35  32  38  ar  
 36  33  34  1   
 37  34  35  1   
 38  34  36  1   
 39  34  37  1   
 40  38  39  1   
 41  38  41  ar  
 42  39  40  1   
 43  40  45  ar  
 44  40  71  ar  
 45  41  42  1   
 46  41  43  ar  
 47  43  44  1   
 48  45  46  1   
 49  45  47  ar  
 50  47  48  1   
 51  47  63  ar  
 52  48  49  1   
 53  48  50  2   
 54  50  51  1   
 55  50  52  1   
 56  52  53  am  
 57  52  62  2   
 58  53  54  1   
 59  53  55  1   
 60  55  56  1   
 61  55  60  1   
 62  55  61  1   
 63  56  57  1   
 64  56  58  1   
 65  56  59  1   
 66  57  74  ar  
 67  57  83  ar  
 68  63  64  1   
 69  63  65  ar  
 70  65  66  1   
 71  65  71  ar  
 72  66  67  1   
 73  67  68  1   
 74  67  69  1   
 75  67  70  1   
 76  71  72  1   
 77  72  73  1   
 78  74  75  1   
 79  74  76  ar  
 80  76  77  1   
 81  76  78  ar  
 82  78  79  1   
 83  78  81  ar  
 84  79  80  1   
 85  81  82  1   
 86  81  83  ar  
 87  83  84  1   
@<TRIPOS>SUBSTRUCTURE
  1 <1>   0 RESIDUE 1 * * 1
# MOE 2007.09 (io_trps.svl 2007.09)
