@<TRIPOS>MOLECULE
J02_11
42 43 1 0 0 
SMALL
USER_CHARGES


@<TRIPOS>ATOM
  1 C        1.1600     0.6500     0.0950 C.ar  1 <1>   0.0280 
  2 C        2.4210     1.3670    -0.1370 C.2   1 <1>  -0.1780 
  3 H        2.3240     2.4290    -0.3600 H     1 <1>   0.1500 
  4 C        3.6340     0.8070    -0.0660 C.2   1 <1>  -0.1360 
  5 H        3.7900    -0.2370     0.1750 H     1 <1>   0.1500 
  6 C        4.8320     1.6280    -0.3030 C.2   1 <1>   0.7060 
  7 O        5.9270     0.8350    -0.1690 O.3   1 <1>  -0.4300 
  8 C        7.1930     1.4920    -0.3780 C.3   1 <1>   0.3410 
  9 C        8.2860     0.5120     0.0670 C.3   1 <1>   0.1440 
 10 C        9.6000     1.1810     0.3940 C.ar  1 <1>  -0.1440 
 11 H2       8.4390    -0.2610    -0.6970 H     1 <1>   0.0000 
 12 H3       7.9520    -0.0390     0.9570 H     1 <1>   0.0000 
 13 H2       7.2100     2.4020     0.2340 H     1 <1>   0.0000 
 14 C        7.4170     1.8870    -1.8350 C.2   1 <1>   0.6590 
 15 O        8.1390     2.7890    -2.2310 O.2   1 <1>  -0.5700 
 16 O        6.7600     1.0980    -2.7130 O.3   1 <1>  -0.6500 
 17 H        6.9810     1.4590    -3.5980 H     1 <1>   0.5000 
 18 O        4.8360     2.8210    -0.5670 O.2   1 <1>  -0.5700 
 19 C        0.0790     1.3520     0.6540 C.ar  1 <1>  -0.1500 
 20 H        0.2020     2.3960     0.9300 H     1 <1>   0.1500 
 21 C       -1.1460     0.7130     0.8620 C.ar  1 <1>   0.0820 
 22 O       -2.1970     1.3940     1.4130 O.3   1 <1>  -0.5320 
 23 H       -1.9260     2.3070     1.5970 H     1 <1>   0.4500 
 24 C       -1.3090    -0.6260     0.5080 C.ar  1 <1>   0.0820 
 25 O       -2.5140    -1.2390     0.7170 O.3   1 <1>  -0.5320 
 26 H       -2.4450    -2.1620     0.4260 H     1 <1>   0.4500 
 27 C       -0.2500    -1.3310    -0.0610 C.ar  1 <1>  -0.1500 
 28 H       -0.3630    -2.3710    -0.3530 H     1 <1>   0.1500 
 29 C        0.9770    -0.6920    -0.2710 C.ar  1 <1>  -0.1500 
 30 H        1.7810    -1.2570    -0.7370 H     1 <1>   0.1500 
 31 C       10.6650     1.1440    -0.5160 C.ar  1 <1>  -0.1500 
 32 H       10.5710     0.6370    -1.4720 H     1 <1>   0.1500 
 33 C       11.8620     1.7700    -0.1920 C.ar  1 <1>   0.0820 
 34 O       12.9040     1.7340    -1.0750 O.3   1 <1>  -0.5320 
 35 H       13.6110     2.2430    -0.6290 H     1 <1>   0.4500 
 36 C       12.0180     2.4360     1.0200 C.ar  1 <1>   0.0820 
 37 O       13.2280     3.0250     1.2600 O.3   1 <1>  -0.5320 
 38 H       13.1950     3.4510     2.1340 H     1 <1>   0.4500 
 39 C       10.9730     2.4850     1.9340 C.ar  1 <1>  -0.1500 
 40 H       11.0750     2.9980     2.8850 H     1 <1>   0.1500 
 41 C        9.7640     1.8560     1.6180 C.ar  1 <1>  -0.1500 
 42 H        8.9470     1.8930     2.3360 H     1 <1>   0.1500 
@<TRIPOS>BOND
  1   1   2  1   
  2   1  19  ar  
  3   1  29  ar  
  4   2   3  1   
  5   2   4  2   
  6   4   5  1   
  7   4   6  1   
  8   6   7  1   
  9   6  18  2   
 10   7   8  1   
 11   8   9  1   
 12   8  13  1   
 13   8  14  1   
 14   9  10  1   
 15   9  11  1   
 16   9  12  1   
 17  10  31  ar  
 18  10  41  ar  
 19  14  15  2   
 20  14  16  1   
 21  16  17  1   
 22  19  20  1   
 23  19  21  ar  
 24  21  22  1   
 25  21  24  ar  
 26  22  23  1   
 27  24  25  1   
 28  24  27  ar  
 29  25  26  1   
 30  27  28  1   
 31  27  29  ar  
 32  29  30  1   
 33  31  32  1   
 34  31  33  ar  
 35  33  34  1   
 36  33  36  ar  
 37  34  35  1   
 38  36  37  1   
 39  36  39  ar  
 40  37  38  1   
 41  39  40  1   
 42  39  41  ar  
 43  41  42  1   
@<TRIPOS>SUBSTRUCTURE
  1 <1>   0 RESIDUE 1 * * 1
# MOE 2007.09 (io_trps.svl 2007.09)
