@<TRIPOS>MOLECULE
J02_28
65 68 1 0 0 
SMALL
USER_CHARGES


@<TRIPOS>ATOM
  1 C        1.3350     0.8010    -1.2710 C.ar  1 <1>  -0.1080 
  2 C        2.8410     0.9830    -0.8060 C.3   1 <1>   0.3660 
  3 H        3.4720     1.2200    -1.6750 H     1 <1>   0.0000 
  4 C        0.3290     1.7390    -0.9430 C.ar  1 <1>  -0.1500 
  5 H        0.6260     2.5950    -0.3430 H     1 <1>   0.1500 
  6 C       -0.9930     1.5840    -1.3670 C.ar  1 <1>   0.0820 
  7 O       -2.0380     2.4330    -1.1040 O.3   1 <1>  -0.3620 
  8 C       -1.7410     3.5850    -0.3230 C.3   1 <1>   0.2800 
  9 H1      -2.6680     4.1540    -0.2030 H     1 <1>   0.0000 
 10 H2      -1.0180     4.2310    -0.8310 H     1 <1>   0.0000 
 11 H3      -1.3910     3.3050     0.6760 H     1 <1>   0.0000 
 12 C       -1.3260     0.4710    -2.1400 C.ar  1 <1>   0.0820 
 13 O       -2.6130     0.3030    -2.5760 O.3   1 <1>  -0.5320 
 14 H       -3.0970     1.0800    -2.2330 H     1 <1>   0.4500 
 15 C       -0.3760    -0.4770    -2.4840 C.ar  1 <1>  -0.1500 
 16 H       -0.6530    -1.3370    -3.0850 H     1 <1>   0.1500 
 17 C        0.9410    -0.3080    -2.0520 C.ar  1 <1>  -0.1500 
 18 H        1.6830    -1.0560    -2.3280 H     1 <1>   0.1500 
 19 C        3.4530    -0.0860     0.1390 C.3   1 <1>   0.1080 
 20 C        4.4990    -1.1290    -0.4450 C.ar  1 <1>  -0.1080 
 21 H2       2.6640    -0.5920     0.7150 H     1 <1>   0.0000 
 22 C        3.9610     1.1320     0.9230 C.3   1 <1>   0.2580 
 23 H1       5.0030     1.4260     0.7610 H     1 <1>   0.0000 
 24 H2       3.7510     1.1130     1.9970 H     1 <1>   0.0000 
 25 O        3.0570     2.0110     0.2110 O.3   1 <1>  -0.5160 
 26 C        4.4050    -2.5090    -0.2020 C.ar  1 <1>   0.0820 
 27 O        3.3690    -2.9730     0.5760 O.3   1 <1>  -0.5320 
 28 H        3.5160    -3.9400     0.6190 H     1 <1>   0.4500 
 29 C        5.3110    -3.4520    -0.7140 C.ar  1 <1>   0.0820 
 30 O        5.0360    -4.7500    -0.3640 O.3   1 <1>  -0.3620 
 31 C        5.9030    -5.7520    -0.8830 C.3   1 <1>   0.2800 
 32 H1       5.5450    -6.7210    -0.5230 H     1 <1>   0.0000 
 33 H2       6.9260    -5.6170    -0.5160 H     1 <1>   0.0000 
 34 H3       5.8730    -5.7710    -1.9770 H     1 <1>   0.0000 
 35 C        6.3710    -3.0170    -1.5030 C.ar  1 <1>  -0.1500 
 36 H        7.0770    -3.7210    -1.9300 H     1 <1>   0.1500 
 37 C        6.5260    -1.6510    -1.7640 C.ar  1 <1>   0.0280 
 38 C        7.6120    -1.1410    -2.6070 C.2   1 <1>  -0.1780 
 39 H        7.3360    -0.3760    -3.3310 H     1 <1>   0.1500 
 40 C        8.8810    -1.5470    -2.4920 C.2   1 <1>  -0.1360 
 41 H        9.1840    -2.2830    -1.7590 H     1 <1>   0.1500 
 42 C        9.9130    -0.9610    -3.3740 C.2   1 <1>   0.6160 
 43 N       11.1750    -1.4570    -3.1260 N.am  1 <1>  -0.7300 
 44 C       12.3240    -0.9930    -3.8800 C.3   1 <1>   0.3000 
 45 C       12.4210    -1.6680    -5.2490 C.3   1 <1>   0.1440 
 46 C       13.5520    -1.1010    -6.0690 C.ar  1 <1>  -0.1440 
 47 H2      11.4820    -1.5530    -5.8060 H     1 <1>   0.0000 
 48 H3      12.5530    -2.7500    -5.1240 H     1 <1>   0.0000 
 49 H2      13.2150    -1.2080    -3.2800 H     1 <1>   0.0000 
 50 H3      12.2510     0.0960    -3.9850 H     1 <1>   0.0000 
 51 H2      11.3270    -2.1550    -2.4080 H     1 <1>   0.3700 
 52 O        9.6580    -0.1270    -4.2360 O.2   1 <1>  -0.5700 
 53 C        5.5920    -0.7360    -1.2470 C.ar  1 <1>  -0.1500 
 54 H        5.7240     0.3240    -1.4660 H     1 <1>   0.1500 
 55 C       14.8160    -1.7070    -6.0620 C.ar  1 <1>  -0.1500 
 56 H       14.9920    -2.6070    -5.4770 H     1 <1>   0.1500 
 57 C       15.8650    -1.1640    -6.8080 C.ar  1 <1>  -0.1500 
 58 H       16.8350    -1.6500    -6.7910 H     1 <1>   0.1500 
 59 C       15.6470    -0.0100    -7.5560 C.ar  1 <1>   0.0820 
 60 O       16.6420     0.5570    -8.2970 O.3   1 <1>  -0.5320 
 61 H       17.4450     0.0180    -8.2100 H     1 <1>   0.4500 
 62 C       14.4010     0.6060    -7.5690 C.ar  1 <1>  -0.1500 
 63 H       14.2460     1.5070    -8.1550 H     1 <1>   0.1500 
 64 C       13.3540     0.0630    -6.8250 C.ar  1 <1>  -0.1500 
 65 H       12.3820     0.5520    -6.8370 H     1 <1>   0.1500 
@<TRIPOS>BOND
  1   1   2  1   
  2   1   4  ar  
  3   1  17  ar  
  4   2   3  1   
  5   2  19  1   
  6   2  25  1   
  7   4   5  1   
  8   4   6  ar  
  9   6   7  1   
 10   6  12  ar  
 11   7   8  1   
 12   8   9  1   
 13   8  10  1   
 14   8  11  1   
 15  12  13  1   
 16  12  15  ar  
 17  13  14  1   
 18  15  16  1   
 19  15  17  ar  
 20  17  18  1   
 21  19  20  1   
 22  19  21  1   
 23  19  22  1   
 24  20  26  ar  
 25  20  53  ar  
 26  22  23  1   
 27  22  24  1   
 28  22  25  1   
 29  26  27  1   
 30  26  29  ar  
 31  27  28  1   
 32  29  30  1   
 33  29  35  ar  
 34  30  31  1   
 35  31  32  1   
 36  31  33  1   
 37  31  34  1   
 38  35  36  1   
 39  35  37  ar  
 40  37  38  1   
 41  37  53  ar  
 42  38  39  1   
 43  38  40  2   
 44  40  41  1   
 45  40  42  1   
 46  42  43  am  
 47  42  52  2   
 48  43  44  1   
 49  43  51  1   
 50  44  45  1   
 51  44  49  1   
 52  44  50  1   
 53  45  46  1   
 54  45  47  1   
 55  45  48  1   
 56  46  55  ar  
 57  46  64  ar  
 58  53  54  1   
 59  55  56  1   
 60  55  57  ar  
 61  57  58  1   
 62  57  59  ar  
 63  59  60  1   
 64  59  62  ar  
 65  60  61  1   
 66  62  63  1   
 67  62  64  ar  
 68  64  65  1   
@<TRIPOS>SUBSTRUCTURE
  1 <1>   0 RESIDUE 1 * * 1
# MOE 2007.09 (io_trps.svl 2007.09)
