@<TRIPOS>MOLECULE
J03_17
52 54 1 0 0 
SMALL
USER_CHARGES


@<TRIPOS>ATOM
  1 C        1.2196     0.7064    -0.6980 C.3   1 <1>   0.2045 
  2 C        0.0805     1.4920     0.0275 C.3   1 <1>   0.0000 
  3 H1      -0.1597     2.4336    -0.4742 H     1 <1>   0.0000 
  4 H2       0.4211     1.7689     1.0352 H     1 <1>   0.0000 
  5 C       -1.2405     0.7268     0.1574 C.3   1 <1>   0.0000 
  6 H1      -1.7153     0.6075    -0.8214 H     1 <1>   0.0000 
  7 H2      -1.9384     1.3280     0.7534 H     1 <1>   0.0000 
  8 C       -1.0769    -0.6327     0.8162 C.3   1 <1>   0.0000 
  9 H1      -2.0441    -1.1517     0.8134 H     1 <1>   0.0000 
 10 H2      -0.8245    -0.4681     1.8730 H     1 <1>   0.0000 
 11 C        0.0106    -1.5160     0.1614 C.3   1 <1>   0.0000 
 12 C       -0.4817    -2.0667    -1.1889 C.3   1 <1>   0.0000 
 13 H1      -0.8348    -1.2868    -1.8650 H     1 <1>   0.0000 
 14 H2      -1.3279    -2.7494    -1.0438 H     1 <1>   0.0000 
 15 H3       0.3037    -2.6316    -1.7016 H     1 <1>   0.0000 
 16 C        0.2081    -2.7376     1.0958 C.3   1 <1>   0.0000 
 17 H1       0.8354    -3.5087     0.6374 H     1 <1>   0.0000 
 18 H2      -0.7525    -3.2120     1.3306 H     1 <1>   0.0000 
 19 H3       0.6692    -2.4434     2.0452 H     1 <1>   0.0000 
 20 C        1.3317    -0.6772     0.0616 C.3   1 <1>   0.0000 
 21 H        1.5527    -0.4116     1.1112 H     1 <1>   0.0000 
 22 C        2.5632    -1.4678    -0.3999 C.3   1 <1>   0.0000 
 23 H1       2.5398    -1.6611    -1.4755 H     1 <1>   0.0000 
 24 H2       2.6230    -2.4499     0.0781 H     1 <1>   0.0000 
 25 C        3.8272    -0.7053    -0.0244 C.3   1 <1>   0.1435 
 26 H1       4.6748    -1.1604    -0.5517 H     1 <1>   0.0000 
 27 H2       4.0110    -0.8253     1.0514 H     1 <1>   0.0000 
 28 C        3.7763     0.7731    -0.3195 C.ar  1 <1>  -0.1435 
 29 C        2.5779     1.4547    -0.6193 C.ar  1 <1>  -0.1435 
 30 C        5.0074     1.4721    -0.2594 C.ar  1 <1>  -0.1500 
 31 H        5.8957     0.9057     0.0157 H     1 <1>   0.1500 
 32 C        5.1174     2.8413    -0.5459 C.ar  1 <1>  -0.1435 
 33 C        6.4583     3.5551    -0.4850 C.3   1 <1>   0.1435 
 34 C        7.6612     2.6945    -0.8945 C.3   1 <1>   0.0000 
 35 H1       8.5612     3.3145    -0.9764 H     1 <1>   0.0000 
 36 H2       7.4938     2.2203    -1.8678 H     1 <1>   0.0000 
 37 H3       7.8773     1.9088    -0.1629 H     1 <1>   0.0000 
 38 C        6.6805     4.1405     0.9119 C.3   1 <1>   0.0000 
 39 H1       5.8712     4.8245     1.1903 H     1 <1>   0.0000 
 40 H2       7.6197     4.7026     0.9529 H     1 <1>   0.0000 
 41 H3       6.7251     3.3532     1.6731 H     1 <1>   0.0000 
 42 H3       6.4430     4.3802    -1.2078 H     1 <1>   0.0000 
 43 C        3.9323     3.4971    -0.8766 C.ar  1 <1>   0.0825 
 44 O        3.8504     4.8366    -1.1763 O.3   1 <1>  -0.5325 
 45 H        4.6810     5.2709    -0.9236 H     1 <1>   0.4500 
 46 C        2.7051     2.8148    -0.9348 C.ar  1 <1>   0.0825 
 47 O        1.6304     3.5545    -1.3575 O.3   1 <1>  -0.5325 
 48 H        2.0058     4.4474    -1.5102 H     1 <1>   0.4500 
 49 C        0.9353     0.5358    -2.2105 C.2   1 <1>   0.6590 
 50 O        1.6128    -0.0963    -3.0093 O.2   1 <1>  -0.5700 
 51 O       -0.1543     1.1867    -2.6649 O.3   1 <1>  -0.6500 
 52 H       -0.1499     1.0259    -3.6308 H     1 <1>   0.5000 
@<TRIPOS>BOND
  1   1   2  1   
  2   1  20  1   
  3   1  29  1   
  4   1  49  1   
  5   2   3  1   
  6   2   4  1   
  7   2   5  1   
  8   5   6  1   
  9   5   7  1   
 10   5   8  1   
 11   8   9  1   
 12   8  10  1   
 13   8  11  1   
 14  11  12  1   
 15  11  16  1   
 16  11  20  1   
 17  12  13  1   
 18  12  14  1   
 19  12  15  1   
 20  16  17  1   
 21  16  18  1   
 22  16  19  1   
 23  20  21  1   
 24  20  22  1   
 25  22  23  1   
 26  22  24  1   
 27  22  25  1   
 28  25  26  1   
 29  25  27  1   
 30  25  28  1   
 31  28  29  ar  
 32  28  30  ar  
 33  29  46  ar  
 34  30  31  1   
 35  30  32  ar  
 36  32  33  1   
 37  32  43  ar  
 38  33  34  1   
 39  33  38  1   
 40  33  42  1   
 41  34  35  1   
 42  34  36  1   
 43  34  37  1   
 44  38  39  1   
 45  38  40  1   
 46  38  41  1   
 47  43  44  1   
 48  43  46  ar  
 49  44  45  1   
 50  46  47  1   
 51  47  48  1   
 52  49  50  2   
 53  49  51  1   
 54  51  52  1   
@<TRIPOS>SUBSTRUCTURE
  1 <1>   0 RESIDUE 1 * * 1
# MOE 2007.09 (io_trps.svl 2007.09)
