@<TRIPOS>MOLECULE
J03_32
17 16 1 0 0 
SMALL
USER_CHARGES


@<TRIPOS>ATOM
  1 C        2.6129     1.6552     0.0811 C.2   1 <1>  -0.3000 
  2 H1       2.0325     2.4829    -0.3138 H     1 <1>   0.1500 
  3 H2       2.4029     0.6640    -0.3089 H     1 <1>   0.1500 
  4 C        3.5558     1.8348     1.0154 C.2   1 <1>  -0.2882 
  5 H        4.0996     0.9665     1.3827 H     1 <1>   0.1500 
  6 C        3.9034     3.1597     1.6186 C.3   1 <1>   0.3682 
  7 H1       3.7484     3.1063     2.7011 H     1 <1>   0.0000 
  8 H2       3.2716     3.9704     1.2407 H     1 <1>   0.0000 
  9 S        5.6498     3.5626     1.3229 S.3   1 <1>  -0.4600 
 10 C        5.5747     3.9127    -0.4606 C.3   1 <1>   0.3682 
 11 C        6.9131     4.4065    -0.9187 C.2   1 <1>  -0.2882 
 12 H        7.7507     3.7177    -0.8277 H     1 <1>   0.1500 
 13 C        7.1326     5.6191    -1.4439 C.2   1 <1>  -0.3000 
 14 H1       8.1283     5.9117    -1.7621 H     1 <1>   0.1500 
 15 H2       6.3338     6.3441    -1.5628 H     1 <1>   0.1500 
 16 H2       4.7928     4.6551    -0.6511 H     1 <1>   0.0000 
 17 H3       5.3282     2.9982    -1.0083 H     1 <1>   0.0000 
@<TRIPOS>BOND
  1   1   2  1   
  2   1   3  1   
  3   1   4  2   
  4   4   5  1   
  5   4   6  1   
  6   6   7  1   
  7   6   8  1   
  8   6   9  1   
  9   9  10  1   
 10  10  11  1   
 11  10  16  1   
 12  10  17  1   
 13  11  12  1   
 14  11  13  2   
 15  13  14  1   
 16  13  15  1   
@<TRIPOS>SUBSTRUCTURE
  1 <1>   0 RESIDUE 1 * * 1
# MOE 2007.09 (io_trps.svl 2007.09)
