@<TRIPOS>MOLECULE
J03_26
21 20 1 0 0 
SMALL
USER_CHARGES


@<TRIPOS>ATOM
  1 C       -0.3412    -0.2547     0.0802 C.2   1 <1>  -0.2882 
  2 H       -0.9652     0.0174    -0.7690 H     1 <1>   0.1500 
  3 C        1.1382    -0.2912    -0.1438 C.3   1 <1>   0.3682 
  4 H1       1.6751    -0.4999     0.7874 H     1 <1>   0.0000 
  5 H2       1.4717     0.6786    -0.5260 H     1 <1>   0.0000 
  6 S        1.5261    -1.5845    -1.3599 S.3   1 <1>  -0.4600 
  7 C        3.3471    -1.4481    -1.3267 C.3   1 <1>   0.2300 
  8 C        4.0106    -2.4587    -2.2719 C.3   1 <1>   0.3310 
  9 C        5.5174    -2.2668    -2.1755 C.2   1 <1>   0.6590 
 10 O        6.0810    -2.9633    -1.1609 O.3   1 <1>  -0.6500 
 11 H        7.0363    -2.7481    -1.2073 H     1 <1>   0.5000 
 12 O        6.1874    -1.5131    -2.8641 O.2   1 <1>  -0.5700 
 13 H2       3.7208    -2.2665    -3.3115 H     1 <1>   0.0000 
 14 N        3.6654    -3.8629    -1.9619 N.3   1 <1>  -0.9900 
 15 H1       2.6617    -3.9097    -1.7734 H     1 <1>   0.3600 
 16 H2       4.1331    -4.1193    -1.0887 H     1 <1>   0.3600 
 17 H2       3.6889    -1.6067    -0.2971 H     1 <1>   0.0000 
 18 H3       3.6264    -0.4288    -1.6163 H     1 <1>   0.0000 
 19 C       -0.9317    -0.5160     1.2537 C.2   1 <1>  -0.3000 
 20 H1      -2.0115    -0.4677     1.3512 H     1 <1>   0.1500 
 21 H2      -0.3599    -0.7877     2.1351 H     1 <1>   0.1500 
@<TRIPOS>BOND
  1   1   2  1   
  2   1   3  1   
  3   1  19  2   
  4   3   4  1   
  5   3   5  1   
  6   3   6  1   
  7   6   7  1   
  8   7   8  1   
  9   7  17  1   
 10   7  18  1   
 11   8   9  1   
 12   8  13  1   
 13   8  14  1   
 14   9  10  1   
 15   9  12  2   
 16  10  11  1   
 17  14  15  1   
 18  14  16  1   
 19  19  20  1   
 20  19  21  1   
@<TRIPOS>SUBSTRUCTURE
  1 <1>   0 RESIDUE 1 * * 1
# MOE 2007.09 (io_trps.svl 2007.09)
