@<TRIPOS>MOLECULE
J03_13
50 53 1 0 0 
SMALL
USER_CHARGES


@<TRIPOS>ATOM
  1 C        1.4473     0.8325    -0.0278 C.3   1 <1>   0.2800 
  2 O        2.2616     1.4017     1.0044 O.3   1 <1>  -0.6800 
  3 H        3.1174     0.9304     0.9469 H     1 <1>   0.4000 
  4 H2       1.8817     1.1553    -0.9824 H     1 <1>   0.0000 
  5 C       -0.0114     1.3134     0.0772 C.3   1 <1>   0.5600 
  6 O       -0.0227     2.7272    -0.1879 O.3   1 <1>  -0.3625 
  7 C       -1.2481     3.3330    -0.2615 C.ar  1 <1>   0.0825 
  8 H2      -0.3842     1.1449     1.0968 H     1 <1>   0.0000 
  9 O       -0.8110     0.6114    -0.8824 O.3   1 <1>  -0.5600 
 10 C       -0.8555    -0.7931    -0.6618 C.3   1 <1>   0.3410 
 11 C       -1.8273    -1.4422    -1.6332 C.2   1 <1>   0.6590 
 12 O       -3.0064    -0.7967    -1.7352 O.3   1 <1>  -0.6500 
 13 H       -3.5344    -1.3124    -2.3801 H     1 <1>   0.5000 
 14 O       -1.6237    -2.4862    -2.2384 O.2   1 <1>  -0.5700 
 15 H2      -1.2313    -1.0134     0.3459 H     1 <1>   0.0000 
 16 C        0.5466    -1.3748    -0.8690 C.3   1 <1>   0.2800 
 17 H1       0.8924    -1.2256    -1.9001 H     1 <1>   0.0000 
 18 O        0.5918    -2.7789    -0.6033 O.3   1 <1>  -0.6800 
 19 H        0.0055    -3.2083    -1.2639 H     1 <1>   0.4000 
 20 C        1.5149    -0.6891     0.0939 C.3   1 <1>   0.2800 
 21 O        2.8564    -1.1134    -0.1749 O.3   1 <1>  -0.6800 
 22 H        2.8099    -2.0891    -0.2356 H     1 <1>   0.4000 
 23 H2       1.3092    -0.9958     1.1276 H     1 <1>   0.0000 
 24 C       -1.2515     4.5843    -0.8737 C.ar  1 <1>   0.0825 
 25 O       -0.0811     5.1395    -1.3316 O.3   1 <1>  -0.5325 
 26 H        0.6117     4.4873    -1.0993 H     1 <1>   0.4500 
 27 C       -2.4290     5.3089    -1.0663 C.ar  1 <1>   0.0825 
 28 O       -2.3122     6.5193    -1.6916 O.3   1 <1>  -0.5325 
 29 H       -1.3568     6.5931    -1.8965 H     1 <1>   0.4500 
 30 C       -3.6430     4.7842    -0.6354 C.ar  1 <1>   0.0862 
 31 C       -3.6436     3.5431     0.0080 C.ar  1 <1>   0.0825 
 32 C       -2.4567     2.8216     0.2017 C.ar  1 <1>  -0.1500 
 33 H       -2.5175     1.8594     0.6999 H     1 <1>   0.1500 
 34 C       -4.9345     5.4520    -0.8343 C.2   1 <1>   0.4694 
 35 O       -5.0694     6.5197    -1.4149 O.2   1 <1>  -0.5700 
 36 C       -6.1263     4.7685    -0.3071 C.2   1 <1>  -0.1356 
 37 H       -7.0765     5.2641    -0.4662 H     1 <1>   0.1500 
 38 C       -5.9937     3.5886     0.3060 C.2   1 <1>   0.0483 
 39 C       -7.1523     2.8422     0.8301 C.ar  1 <1>   0.0284 
 40 O       -4.7845     2.9417     0.4801 O.3   1 <1>  -0.1592 
 41 C       -8.1949     3.4834     1.5155 C.ar  1 <1>  -0.1500 
 42 H       -8.1766     4.5584     1.6824 H     1 <1>   0.1500 
 43 C       -9.2759     2.7511     2.0147 C.ar  1 <1>  -0.1500 
 44 H      -10.0767     3.2610     2.5437 H     1 <1>   0.1500 
 45 C       -9.3264     1.3697     1.8408 C.ar  1 <1>  -0.1500 
 46 H      -10.1682     0.8035     2.2301 H     1 <1>   0.1500 
 47 C       -8.2944     0.7166     1.1717 C.ar  1 <1>  -0.1500 
 48 H       -8.3303    -0.3611     1.0378 H     1 <1>   0.1500 
 49 C       -7.2126     1.4473     0.6730 C.ar  1 <1>  -0.1500 
 50 H       -6.4166     0.9164     0.1539 H     1 <1>   0.1500 
@<TRIPOS>BOND
  1   1   2  1   
  2   1   4  1   
  3   1   5  1   
  4   1  20  1   
  5   2   3  1   
  6   5   6  1   
  7   5   8  1   
  8   5   9  1   
  9   6   7  1   
 10   7  24  ar  
 11   7  32  ar  
 12   9  10  1   
 13  10  11  1   
 14  10  15  1   
 15  10  16  1   
 16  11  12  1   
 17  11  14  2   
 18  12  13  1   
 19  16  17  1   
 20  16  18  1   
 21  16  20  1   
 22  18  19  1   
 23  20  21  1   
 24  20  23  1   
 25  21  22  1   
 26  24  25  1   
 27  24  27  ar  
 28  25  26  1   
 29  27  28  1   
 30  27  30  ar  
 31  28  29  1   
 32  30  31  ar  
 33  30  34  1   
 34  31  32  ar  
 35  31  40  1   
 36  32  33  1   
 37  34  35  2   
 38  34  36  1   
 39  36  37  1   
 40  36  38  2   
 41  38  39  1   
 42  38  40  1   
 43  39  41  ar  
 44  39  49  ar  
 45  41  42  1   
 46  41  43  ar  
 47  43  44  1   
 48  43  45  ar  
 49  45  46  1   
 50  45  47  ar  
 51  47  48  1   
 52  47  49  ar  
 53  49  50  1   
@<TRIPOS>SUBSTRUCTURE
  1 <1>   0 RESIDUE 1 * * 1
# MOE 2007.09 (io_trps.svl 2007.09)
