@<TRIPOS>MOLECULE
J03_05
34 36 1 0 0 
SMALL
USER_CHARGES


@<TRIPOS>ATOM
  1 C        1.0448     0.6591     0.3029 C.ar  1 <1>   0.0825 
  2 O        2.0640     1.3279     0.9279 O.3   1 <1>  -0.5325 
  3 H        1.8501     2.2773     0.9494 H     1 <1>   0.4500 
  4 C       -0.1169     1.3273    -0.0834 C.ar  1 <1>  -0.1500 
  5 H       -0.2261     2.3926     0.0870 H     1 <1>   0.1500 
  6 C       -1.1400     0.5983    -0.6830 C.ar  1 <1>   0.0825 
  7 O       -2.3020     1.1924    -1.0812 O.3   1 <1>  -0.5325 
  8 H       -2.2660     2.1407    -0.8737 H     1 <1>   0.4500 
  9 C       -1.0150    -0.7709    -0.8920 C.ar  1 <1>  -0.1500 
 10 H       -1.8254    -1.3258    -1.3557 H     1 <1>   0.1500 
 11 C        0.1539    -1.4239    -0.5001 C.ar  1 <1>   0.0825 
 12 C        1.2012    -0.7175     0.0958 C.ar  1 <1>  -0.1435 
 13 O        0.2036    -2.7777    -0.7254 O.3   1 <1>  -0.1592 
 14 C        1.3392    -3.4791    -0.3522 C.2   1 <1>   0.0483 
 15 C        1.2519    -4.9080    -0.6716 C.ar  1 <1>   0.0284 
 16 C        2.4168    -2.9141     0.2261 C.2   1 <1>  -0.0615 
 17 O        3.5560    -3.6122     0.5960 O.3   1 <1>  -0.5267 
 18 H        3.3624    -4.5652     0.5943 H     1 <1>   0.4500 
 19 C        2.4665    -1.4332     0.4896 C.3   1 <1>   0.5617 
 20 H1       3.3037    -1.0116    -0.0809 H     1 <1>   0.0000 
 21 O        2.7225    -1.2120     1.8775 O.3   1 <1>  -0.6800 
 22 H        2.6583    -0.2441     1.9932 H     1 <1>   0.4000 
 23 C        0.2945    -5.7080    -0.0327 C.ar  1 <1>  -0.1500 
 24 H       -0.3810    -5.2738     0.7021 H     1 <1>   0.1500 
 25 C        0.1967    -7.0693    -0.3304 C.ar  1 <1>  -0.1500 
 26 H       -0.5539    -7.6657     0.1789 H     1 <1>   0.1500 
 27 C        1.0557    -7.6320    -1.2731 C.ar  1 <1>   0.0825 
 28 O        0.9721    -8.9641    -1.5724 O.3   1 <1>  -0.5325 
 29 H        0.2797    -9.3639    -1.0234 H     1 <1>   0.4500 
 30 C        2.0048    -6.8390    -1.9200 C.ar  1 <1>   0.0825 
 31 O        2.8383    -7.4038    -2.8450 O.3   1 <1>  -0.5325 
 32 H        3.4104    -6.7166    -3.2218 H     1 <1>   0.4500 
 33 C        2.1053    -5.4795    -1.6257 C.ar  1 <1>  -0.1500 
 34 H        2.8379    -4.8581    -2.1344 H     1 <1>   0.1500 
@<TRIPOS>BOND
  1   1   2  1   
  2   1   4  ar  
  3   1  12  ar  
  4   2   3  1   
  5   4   5  1   
  6   4   6  ar  
  7   6   7  1   
  8   6   9  ar  
  9   7   8  1   
 10   9  10  1   
 11   9  11  ar  
 12  11  12  ar  
 13  11  13  1   
 14  12  19  1   
 15  13  14  1   
 16  14  15  1   
 17  14  16  2   
 18  15  23  ar  
 19  15  33  ar  
 20  16  17  1   
 21  16  19  1   
 22  17  18  1   
 23  19  20  1   
 24  19  21  1   
 25  21  22  1   
 26  23  24  1   
 27  23  25  ar  
 28  25  26  1   
 29  25  27  ar  
 30  27  28  1   
 31  27  30  ar  
 32  28  29  1   
 33  30  31  1   
 34  30  33  ar  
 35  31  32  1   
 36  33  34  1   
@<TRIPOS>SUBSTRUCTURE
  1 <1>   0 RESIDUE 1 * * 1
# MOE 2007.09 (io_trps.svl 2007.09)
