@<TRIPOS>MOLECULE
J04_08
46 51 1 0 0 
SMALL
USER_CHARGES


@<TRIPOS>ATOM
  1 C        1.4338     0.7551     0.0058 C.ar  1 <1>  -0.1435 
  2 C        0.1559     1.6206    -0.0693 C.3   1 <1>   0.4135 
  3 C        0.1182     2.7477    -1.1619 C.3   1 <1>   0.4235 
  4 H        0.3039     2.3333    -2.1608 H     1 <1>   0.0000 
  5 H2       0.1564     2.1716     0.8850 H     1 <1>   0.0000 
  6 N       -1.0675     0.7687    -0.0759 N.3   1 <1>  -0.8100 
  7 C       -1.2279    -0.0383    -1.2881 C.3   1 <1>   0.2700 
  8 H1      -1.3093     0.5955    -2.1768 H     1 <1>   0.0000 
  9 H2      -2.1628    -0.6082    -1.2368 H     1 <1>   0.0000 
 10 H3      -0.4127    -0.7478    -1.4601 H     1 <1>   0.0000 
 11 C       -1.0974    -0.0479     1.1443 C.3   1 <1>   0.2700 
 12 H1      -2.0398    -0.6063     1.2074 H     1 <1>   0.0000 
 13 H2      -1.1113     0.6251     2.0126 H     1 <1>   0.0000 
 14 C        0.0834    -1.0111     1.2800 C.3   1 <1>   0.1435 
 15 H1      -0.1505    -1.9352     0.7354 H     1 <1>   0.0000 
 16 H2       0.2101    -1.2738     2.3372 H     1 <1>   0.0000 
 17 C        1.3875    -0.4748     0.7334 C.ar  1 <1>  -0.1435 
 18 C        2.5381    -1.2706     0.8856 C.ar  1 <1>  -0.1500 
 19 H        2.5074    -2.2121     1.4237 H     1 <1>   0.1500 
 20 C        3.7096    -0.8346     0.3141 C.ar  1 <1>   0.0825 
 21 C        3.7679     0.3395    -0.3911 C.ar  1 <1>   0.0825 
 22 C        2.6609     1.1504    -0.5593 C.ar  1 <1>  -0.1500 
 23 H        2.7820     2.0689    -1.1197 H     1 <1>   0.1500 
 24 O        4.9059    -1.4792     0.3571 O.3   1 <1>  -0.3625 
 25 C        5.7298    -0.5716    -0.4025 C.3   1 <1>   0.5600 
 26 H1       6.1432    -1.1096    -1.2634 H     1 <1>   0.0000 
 27 H2       6.5576    -0.2343     0.2319 H     1 <1>   0.0000 
 28 O        5.0142     0.5857    -0.8816 O.3   1 <1>  -0.3625 
 29 O        1.1876     3.7084    -0.8888 O.3   1 <1>  -0.5600 
 30 C        0.8236     5.0150    -1.3644 C.3   1 <1>   0.7035 
 31 H        1.2095     5.1430    -2.3808 H     1 <1>   0.0000 
 32 O        1.3723     6.0029    -0.5157 O.3   1 <1>  -0.6800 
 33 H        0.6607     6.3138     0.0665 H     1 <1>   0.4000 
 34 C       -0.6546     4.9693    -1.3408 C.ar  1 <1>  -0.1435 
 35 C       -1.0879     3.6503    -1.2104 C.ar  1 <1>  -0.1435 
 36 C       -1.5759     5.9774    -1.4536 C.ar  1 <1>   0.0825 
 37 C       -2.9192     5.6900    -1.4327 C.ar  1 <1>   0.0825 
 38 C       -3.3895     4.3952    -1.3075 C.ar  1 <1>  -0.1500 
 39 H       -4.4543     4.1895    -1.2976 H     1 <1>   0.1500 
 40 C       -2.4547     3.3562    -1.2011 C.ar  1 <1>  -0.1500 
 41 H       -2.8148     2.3364    -1.1149 H     1 <1>   0.1500 
 42 O       -1.3272     7.3042    -1.5834 O.3   1 <1>  -0.3625 
 43 C       -2.6710     7.8263    -1.6559 C.3   1 <1>   0.5600 
 44 H1      -2.7937     8.3482    -2.6120 H     1 <1>   0.0000 
 45 H2      -2.8116     8.5461    -0.8413 H     1 <1>   0.0000 
 46 O       -3.6873     6.8070    -1.5517 O.3   1 <1>  -0.3625 
@<TRIPOS>BOND
  1   1   2  1   
  2   1  17  ar  
  3   1  22  ar  
  4   2   3  1   
  5   2   5  1   
  6   2   6  1   
  7   3   4  1   
  8   3  29  1   
  9   3  35  1   
 10   6   7  1   
 11   6  11  1   
 12   7   8  1   
 13   7   9  1   
 14   7  10  1   
 15  11  12  1   
 16  11  13  1   
 17  11  14  1   
 18  14  15  1   
 19  14  16  1   
 20  14  17  1   
 21  17  18  ar  
 22  18  19  1   
 23  18  20  ar  
 24  20  21  ar  
 25  20  24  1   
 26  21  22  ar  
 27  21  28  1   
 28  22  23  1   
 29  24  25  1   
 30  25  26  1   
 31  25  27  1   
 32  25  28  1   
 33  29  30  1   
 34  30  31  1   
 35  30  32  1   
 36  30  34  1   
 37  32  33  1   
 38  34  35  ar  
 39  34  36  ar  
 40  35  40  ar  
 41  36  37  ar  
 42  36  42  1   
 43  37  38  ar  
 44  37  46  1   
 45  38  39  1   
 46  38  40  ar  
 47  40  41  1   
 48  42  43  1   
 49  43  44  1   
 50  43  45  1   
 51  43  46  1   
@<TRIPOS>SUBSTRUCTURE
  1 <1>   0 RESIDUE 1 * * 1
# MOE 2007.09 (io_trps.svl 2007.09)
