@<TRIPOS>MOLECULE
J04_09
52 58 1 0 0 
SMALL
USER_CHARGES


@<TRIPOS>ATOM
  1 C        1.0181     0.0988     0.9980 C.ar  1 <1>  -0.1435 
  2 C        0.1211     0.1804     2.0513 C.ar  1 <1>  -0.1500 
  3 H        0.1860     1.0070     2.7519 H     1 <1>   0.1500 
  4 C       -0.8684    -0.8075     2.1749 C.ar  1 <1>   0.0825 
  5 O       -1.7432    -0.7050     3.2245 O.3   1 <1>  -0.5325 
  6 H       -1.5036     0.0632     3.7682 H     1 <1>   0.4500 
  7 C       -0.9590    -1.8709     1.2512 C.ar  1 <1>   0.0825 
  8 O       -1.8637    -2.9019     1.2374 O.3   1 <1>  -0.3625 
  9 C       -2.9271    -2.8856     2.1772 C.3   1 <1>   0.2800 
 10 H1      -3.5749    -3.7398     1.9551 H     1 <1>   0.0000 
 11 H2      -3.5387    -1.9835     2.0760 H     1 <1>   0.0000 
 12 H3      -2.5554    -3.0214     3.1974 H     1 <1>   0.0000 
 13 C       -0.0309    -1.9537     0.1983 C.ar  1 <1>  -0.1500 
 14 H       -0.0793    -2.7827    -0.5013 H     1 <1>   0.1500 
 15 C        0.9393    -0.9753     0.0752 C.ar  1 <1>   0.1170 
 16 N        1.9970    -0.9320    -0.8480 N.am  1 <1>  -0.4771 
 17 C        2.7710     0.2400    -0.5710 C.3   1 <1>   0.3001 
 18 H        2.7374     0.8772    -1.4675 H     1 <1>   0.0000 
 19 C        2.0951     1.0838     0.6484 C.3   1 <1>   0.1435 
 20 C        2.4079    -1.8271    -1.8392 C.2   1 <1>   0.5690 
 21 O        1.7106    -2.7481    -2.2660 O.2   1 <1>  -0.5700 
 22 C        3.9165    -1.6839    -2.3476 C.3   1 <1>   0.0610 
 23 H1       3.8910    -1.5956    -3.4398 H     1 <1>   0.0000 
 24 H2       4.4135    -2.6350    -2.1185 H     1 <1>   0.0000 
 25 C        4.7635    -0.5202    -1.7582 C.3   1 <1>   0.2800 
 26 H        4.5888     0.3628    -2.3876 H     1 <1>   0.0000 
 27 C        4.2159    -0.3682    -0.3521 C.3   1 <1>   0.0000 
 28 H        4.1877    -1.3559     0.1359 H     1 <1>   0.0000 
 29 C        5.0949     0.5147     0.5137 C.3   1 <1>   0.1382 
 30 H        4.6947     1.1578    -0.2972 H     1 <1>   0.0000 
 31 C        4.3423     0.5558     1.8653 C.3   1 <1>   0.0000 
 32 H1       4.9851     0.8694     2.6968 H     1 <1>   0.0000 
 33 H2       3.9326    -0.4186     2.1565 H     1 <1>   0.0000 
 34 C        3.2435     1.5532     1.5702 C.3   1 <1>   0.2700 
 35 H        3.5652     1.7528     0.5932 H     1 <1>   0.0000 
 36 N        3.7032     2.9830     1.5720 N.3   1 <1>  -0.8100 
 37 C        5.2521     3.0313     1.1603 C.3   1 <1>   0.4082 
 38 H1       5.4296     3.9512     0.5926 H     1 <1>   0.0000 
 39 H2       5.7891     3.1198     2.1125 H     1 <1>   0.0000 
 40 C        2.7680     3.5732     0.5343 C.3   1 <1>   0.2700 
 41 H1       3.2923     3.7303    -0.4166 H     1 <1>   0.0000 
 42 H2       2.3772     4.5344     0.8809 H     1 <1>   0.0000 
 43 C        1.5769     2.5324     0.2894 C.3   1 <1>   0.0000 
 44 H1       1.2103     2.5951    -0.7403 H     1 <1>   0.0000 
 45 H2       0.7545     2.8098     0.9606 H     1 <1>   0.0000 
 46 O        6.1874    -0.6803    -1.6201 O.3   1 <1>  -0.5600 
 47 C        6.9924     0.5494    -1.6509 C.3   1 <1>   0.4182 
 48 H1       6.8841     0.9667    -2.6593 H     1 <1>   0.0000 
 49 H2       8.0324     0.2183    -1.5548 H     1 <1>   0.0000 
 50 C        6.7952     1.7224    -0.6326 C.2   1 <1>  -0.2882 
 51 H        7.3384     2.6310    -0.8841 H     1 <1>   0.1500 
 52 C        5.9029     1.7639     0.3870 C.2   1 <1>  -0.2764 
@<TRIPOS>BOND
  1   1   2  ar  
  2   1  15  ar  
  3   1  19  1   
  4   2   3  1   
  5   2   4  ar  
  6   4   5  1   
  7   4   7  ar  
  8   5   6  1   
  9   7   8  1   
 10   7  13  ar  
 11   8   9  1   
 12   9  10  1   
 13   9  11  1   
 14   9  12  1   
 15  13  14  1   
 16  13  15  ar  
 17  15  16  1   
 18  16  17  1   
 19  16  20  am  
 20  17  18  1   
 21  17  19  1   
 22  17  27  1   
 23  19  34  1   
 24  19  43  1   
 25  20  21  2   
 26  20  22  1   
 27  22  23  1   
 28  22  24  1   
 29  22  25  1   
 30  25  26  1   
 31  25  27  1   
 32  25  46  1   
 33  27  28  1   
 34  27  29  1   
 35  29  30  1   
 36  29  31  1   
 37  29  52  1   
 38  31  32  1   
 39  31  33  1   
 40  31  34  1   
 41  34  35  1   
 42  34  36  1   
 43  36  37  1   
 44  36  40  1   
 45  37  38  1   
 46  37  39  1   
 47  37  52  1   
 48  40  41  1   
 49  40  42  1   
 50  40  43  1   
 51  43  44  1   
 52  43  45  1   
 53  46  47  1   
 54  47  48  1   
 55  47  49  1   
 56  47  50  1   
 57  50  51  1   
 58  50  52  2   
@<TRIPOS>SUBSTRUCTURE
  1 <1>   0 RESIDUE 1 * * 1
# MOE 2007.09 (io_trps.svl 2007.09)
