@<TRIPOS>MOLECULE
J04_07
51 57 1 0 0 
SMALL
USER_CHARGES


@<TRIPOS>ATOM
  1 C        1.0038     0.0868     0.9724 C.ar  1 <1>  -0.1435 
  2 C        0.1044     0.1550     2.0223 C.ar  1 <1>  -0.1500 
  3 H        0.1416     0.9668     2.7427 H     1 <1>   0.1500 
  4 C       -0.8741    -0.8402     2.1334 C.ar  1 <1>  -0.1500 
  5 H       -1.5717    -0.7654     2.9615 H     1 <1>   0.1500 
  6 C       -0.9500    -1.8935     1.2030 C.ar  1 <1>   0.0825 
  7 O       -1.8718    -2.9087     1.2267 O.3   1 <1>  -0.3625 
  8 C       -2.8398    -2.8796     2.2680 C.3   1 <1>   0.2800 
  9 H1      -3.4966    -3.7450     2.1372 H     1 <1>   0.0000 
 10 H2      -3.4601    -1.9794     2.2063 H     1 <1>   0.0000 
 11 H3      -2.3652    -2.9685     3.2508 H     1 <1>   0.0000 
 12 C       -0.0301    -1.9686     0.1490 C.ar  1 <1>  -0.1500 
 13 H       -0.0742    -2.7933    -0.5547 H     1 <1>   0.1500 
 14 C        0.9335    -0.9821     0.0394 C.ar  1 <1>   0.1170 
 15 N        1.9973    -0.9278    -0.8756 N.am  1 <1>  -0.4771 
 16 C        2.7667     0.2432    -0.5812 C.3   1 <1>   0.3001 
 17 H        2.7430     0.8871    -1.4732 H     1 <1>   0.0000 
 18 C        2.0790     1.0775     0.6377 C.3   1 <1>   0.1435 
 19 C        2.4175    -1.8147    -1.8698 C.2   1 <1>   0.5690 
 20 O        1.7244    -2.7316    -2.3122 O.2   1 <1>  -0.5700 
 21 C        3.9311    -1.6692    -2.3590 C.3   1 <1>   0.0610 
 22 H1       3.9188    -1.5731    -3.4507 H     1 <1>   0.0000 
 23 H2       4.4249    -2.6221    -2.1306 H     1 <1>   0.0000 
 24 C        4.7707    -0.5103    -1.7510 C.3   1 <1>   0.2800 
 25 H        4.6042     0.3773    -2.3764 H     1 <1>   0.0000 
 26 C        4.2083    -0.3670    -0.3502 C.3   1 <1>   0.0000 
 27 H        4.1745    -1.3579     0.1311 H     1 <1>   0.0000 
 28 C        5.0787     0.5099     0.5304 C.3   1 <1>   0.1382 
 29 H        4.6871     1.1584    -0.2804 H     1 <1>   0.0000 
 30 C        4.3129     0.5426     1.8744 C.3   1 <1>   0.0000 
 31 H1       4.9474     0.8513     2.7143 H     1 <1>   0.0000 
 32 H2       3.9006    -0.4335     2.1556 H     1 <1>   0.0000 
 33 C        3.2173     1.5418     1.5742 C.3   1 <1>   0.2700 
 34 H        3.5487     1.7485     0.6017 H     1 <1>   0.0000 
 35 N        3.6766     2.9717     1.5902 N.3   1 <1>  -0.8100 
 36 C        5.2289     3.0231     1.1935 C.3   1 <1>   0.4082 
 37 H1       5.4111     3.9457     0.6317 H     1 <1>   0.0000 
 38 H2       5.7569     3.1073     2.1510 H     1 <1>   0.0000 
 39 C        2.7494     3.5681     0.5488 C.3   1 <1>   0.2700 
 40 H1       3.2819     3.7331    -0.3962 H     1 <1>   0.0000 
 41 H2       2.3540     4.5260     0.8992 H     1 <1>   0.0000 
 42 C        1.5617     2.5274     0.2852 C.3   1 <1>   0.0000 
 43 H1       1.2042     2.5975    -0.7472 H     1 <1>   0.0000 
 44 H2       0.7329     2.7982     0.9513 H     1 <1>   0.0000 
 45 O        6.1920    -0.6729    -1.5964 O.3   1 <1>  -0.5600 
 46 C        6.9981     0.5560    -1.6118 C.3   1 <1>   0.4182 
 47 H1       6.9014     0.9788    -2.6191 H     1 <1>   0.0000 
 48 H2       8.0367     0.2234    -1.5063 H     1 <1>   0.0000 
 49 C        6.7913     1.7237    -0.5896 C.2   1 <1>  -0.2882 
 50 H        7.3371     2.6336    -0.8304 H     1 <1>   0.1500 
 51 C        5.8880     1.7597     0.4203 C.2   1 <1>  -0.2764 
@<TRIPOS>BOND
  1   1   2  ar  
  2   1  14  ar  
  3   1  18  1   
  4   2   3  1   
  5   2   4  ar  
  6   4   5  1   
  7   4   6  ar  
  8   6   7  1   
  9   6  12  ar  
 10   7   8  1   
 11   8   9  1   
 12   8  10  1   
 13   8  11  1   
 14  12  13  1   
 15  12  14  ar  
 16  14  15  1   
 17  15  16  1   
 18  15  19  am  
 19  16  17  1   
 20  16  18  1   
 21  16  26  1   
 22  18  33  1   
 23  18  42  1   
 24  19  20  2   
 25  19  21  1   
 26  21  22  1   
 27  21  23  1   
 28  21  24  1   
 29  24  25  1   
 30  24  26  1   
 31  24  45  1   
 32  26  27  1   
 33  26  28  1   
 34  28  29  1   
 35  28  30  1   
 36  28  51  1   
 37  30  31  1   
 38  30  32  1   
 39  30  33  1   
 40  33  34  1   
 41  33  35  1   
 42  35  36  1   
 43  35  39  1   
 44  36  37  1   
 45  36  38  1   
 46  36  51  1   
 47  39  40  1   
 48  39  41  1   
 49  39  42  1   
 50  42  43  1   
 51  42  44  1   
 52  45  46  1   
 53  46  47  1   
 54  46  48  1   
 55  46  49  1   
 56  49  50  1   
 57  49  51  2   
@<TRIPOS>SUBSTRUCTURE
  1 <1>   0 RESIDUE 1 * * 1
# MOE 2007.09 (io_trps.svl 2007.09)
