@<TRIPOS>MOLECULE
J04_06
48 54 1 0 0 
SMALL
USER_CHARGES


@<TRIPOS>ATOM
  1 C        0.9916     0.0735     0.9460 C.ar  1 <1>  -0.1435 
  2 C        0.0924     0.1244     1.9991 C.ar  1 <1>  -0.1500 
  3 H        0.1225     0.9275     2.7295 H     1 <1>   0.1500 
  4 C       -0.8714    -0.8824     2.0986 C.ar  1 <1>  -0.1500 
  5 H       -1.5872    -0.8605     2.9167 H     1 <1>   0.1500 
  6 C       -0.9313    -1.9232     1.1560 C.ar  1 <1>  -0.1500 
  7 H       -1.6886    -2.6967     1.2584 H     1 <1>   0.1500 
  8 C       -0.0215    -1.9855     0.0981 C.ar  1 <1>  -0.1500 
  9 H       -0.0595    -2.8061    -0.6101 H     1 <1>   0.1500 
 10 C        0.9300    -0.9873     0.0014 C.ar  1 <1>   0.1170 
 11 N        1.9970    -0.9199    -0.9061 N.am  1 <1>  -0.4771 
 12 C        2.7637     0.2490    -0.5932 C.3   1 <1>   0.3001 
 13 H        2.7522     0.9005    -1.4798 H     1 <1>   0.0000 
 14 C        2.0657     1.0728     0.6231 C.3   1 <1>   0.1435 
 15 C        2.4191    -1.8014    -1.9036 C.2   1 <1>   0.5690 
 16 O        1.7240    -2.7088    -2.3626 O.2   1 <1>  -0.5700 
 17 C        3.9348    -1.6653    -2.3698 C.3   1 <1>   0.0610 
 18 H1       3.9387    -1.5625    -3.4610 H     1 <1>   0.0000 
 19 H2       4.4181    -2.6235    -2.1409 H     1 <1>   0.0000 
 20 C        4.7739    -0.5180    -1.7437 C.3   1 <1>   0.2800 
 21 H        4.6313     0.3737    -2.3691 H     1 <1>   0.0000 
 22 C        4.1982    -0.3640    -0.3510 C.3   1 <1>   0.0000 
 23 H        4.1569    -1.3519     0.1354 H     1 <1>   0.0000 
 24 C        5.0548     0.5173     0.5329 C.3   1 <1>   0.1382 
 25 H        4.6570     1.1853    -0.2596 H     1 <1>   0.0000 
 26 C        4.3027     0.5447     1.8901 C.3   1 <1>   0.0000 
 27 H1       4.9445     0.8787     2.7137 H     1 <1>   0.0000 
 28 H2       3.9184    -0.4406     2.1772 H     1 <1>   0.0000 
 29 C        3.1786     1.5148     1.6042 C.3   1 <1>   0.2560 
 30 H        3.5326     1.7546     0.6492 H     1 <1>   0.0000 
 31 N        3.6436     2.9705     1.5975 N.4   1 <1>  -0.0180 
 32 C        5.2801     3.0092     1.1683 C.3   1 <1>   0.3942 
 33 H1       5.3853     3.9252     0.5808 H     1 <1>   0.0000 
 34 H2       5.7794     3.1223     2.1364 H     1 <1>   0.0000 
 35 C        2.6996     3.5595     0.5006 C.3   1 <1>   0.2560 
 36 H1       3.3021     3.6613    -0.4079 H     1 <1>   0.0000 
 37 H2       2.3475     4.5350     0.8457 H     1 <1>   0.0000 
 38 C        1.5276     2.5164     0.2812 C.3   1 <1>   0.0000 
 39 H1       1.1308     2.5821    -0.7369 H     1 <1>   0.0000 
 40 H2       0.7168     2.7840     0.9703 H     1 <1>   0.0000 
 41 O        6.1859    -0.7123    -1.5671 O.3   1 <1>  -0.5600 
 42 C        7.0177     0.4944    -1.5874 C.3   1 <1>   0.4182 
 43 H1       6.9447     0.9087    -2.6002 H     1 <1>   0.0000 
 44 H2       8.0476     0.1420    -1.4634 H     1 <1>   0.0000 
 45 C        6.8171     1.6708    -0.5807 C.2   1 <1>  -0.2882 
 46 H        7.3912     2.5646    -0.8174 H     1 <1>   0.1500 
 47 C        5.9044     1.7348     0.4175 C.2   1 <1>  -0.2764 
 48 O        3.4113     3.5372     2.8044 O.2   1 <1>  -0.7500 
@<TRIPOS>BOND
  1   1   2  ar  
  2   1  10  ar  
  3   1  14  1   
  4   2   3  1   
  5   2   4  ar  
  6   4   5  1   
  7   4   6  ar  
  8   6   7  1   
  9   6   8  ar  
 10   8   9  1   
 11   8  10  ar  
 12  10  11  1   
 13  11  12  1   
 14  11  15  am  
 15  12  13  1   
 16  12  14  1   
 17  12  22  1   
 18  14  29  1   
 19  14  38  1   
 20  15  16  2   
 21  15  17  1   
 22  17  18  1   
 23  17  19  1   
 24  17  20  1   
 25  20  21  1   
 26  20  22  1   
 27  20  41  1   
 28  22  23  1   
 29  22  24  1   
 30  24  25  1   
 31  24  26  1   
 32  24  47  1   
 33  26  27  1   
 34  26  28  1   
 35  26  29  1   
 36  29  30  1   
 37  29  31  1   
 38  31  32  1   
 39  31  35  1   
 40  31  48  2   
 41  32  33  1   
 42  32  34  1   
 43  32  47  1   
 44  35  36  1   
 45  35  37  1   
 46  35  38  1   
 47  38  39  1   
 48  38  40  1   
 49  41  42  1   
 50  42  43  1   
 51  42  44  1   
 52  42  45  1   
 53  45  46  1   
 54  45  47  2   
@<TRIPOS>SUBSTRUCTURE
  1 <1>   0 RESIDUE 1 * * 1
# MOE 2007.09 (io_trps.svl 2007.09)
