@<TRIPOS>MOLECULE
J06_01
71 74 1 0 0 
SMALL
USER_CHARGES


@<TRIPOS>ATOM
  1 C        4.3359     0.2718     1.4120 C.ar  1 <1>   0.0284 
  2 C        4.4788     1.2981     0.3729 C.2   1 <1>  -0.1784 
  3 H        3.6567     2.0060     0.2862 H     1 <1>   0.1500 
  4 C        5.5588     1.4022    -0.4088 C.2   1 <1>  -0.1356 
  5 H        6.4068     0.7312    -0.3294 H     1 <1>   0.1500 
  6 C        5.6461     2.4751    -1.4074 C.2   1 <1>   0.7056 
  7 O        6.8201     2.3362    -2.0737 O.3   1 <1>  -0.4300 
  8 C        7.0773     3.2830    -3.1482 C.3   1 <1>   0.2800 
  9 H        6.2102     3.2469    -3.8211 H     1 <1>   0.0000 
 10 O        4.8191     3.3595    -1.5931 O.2   1 <1>  -0.5700 
 11 C        3.7320     0.6206     2.6282 C.ar  1 <1>  -0.1500 
 12 H        3.3917     1.6384     2.8074 H     1 <1>   0.1500 
 13 C        3.5637    -0.3322     3.6359 C.ar  1 <1>  -0.1500 
 14 H        3.1022    -0.0495     4.5784 H     1 <1>   0.1500 
 15 C        3.9807    -1.6458     3.4325 C.ar  1 <1>  -0.1500 
 16 H        3.8422    -2.3870     4.2151 H     1 <1>   0.1500 
 17 C        4.5652    -2.0099     2.2214 C.ar  1 <1>  -0.1500 
 18 H        4.8803    -3.0378     2.0597 H     1 <1>   0.1500 
 19 C        4.7397    -1.0564     1.2139 C.ar  1 <1>  -0.1500 
 20 H        5.1854    -1.3693     0.2727 H     1 <1>   0.1500 
 21 C        7.2652     4.6887    -2.5310 C.3   1 <1>   0.2800 
 22 H1       7.5440     4.6187    -1.4725 H     1 <1>   0.0000 
 23 O        6.0212     5.4111    -2.6005 O.3   1 <1>  -0.6800 
 24 H        5.3435     4.8274    -2.1791 H     1 <1>   0.4000 
 25 C        8.3088     5.5143    -3.2779 C.3   1 <1>   0.2800 
 26 H1       8.4360     6.4979    -2.8111 H     1 <1>   0.0000 
 27 O        7.8014     5.7799    -4.5939 O.3   1 <1>  -0.6800 
 28 H        6.8815     6.0838    -4.4400 H     1 <1>   0.4000 
 29 C        9.6586     4.7740    -3.3093 C.3   1 <1>   0.2800 
 30 H1      10.1945     5.0053    -2.3807 H     1 <1>   0.0000 
 31 C       10.5400     5.1808    -4.4947 C.3   1 <1>   0.2800 
 32 O       11.8769     4.7267    -4.2762 O.3   1 <1>  -0.6800 
 33 H       12.3636     4.8779    -5.1039 H     1 <1>   0.4000 
 34 H2      10.5743     6.2693    -4.6034 H     1 <1>   0.0000 
 35 H3      10.1871     4.7308    -5.4278 H     1 <1>   0.0000 
 36 O        9.5128     3.3382    -3.2767 O.3   1 <1>  -0.5600 
 37 C        8.3380     2.8529    -3.9360 C.3   1 <1>   0.4235 
 38 C        8.3975     1.3484    -4.2076 C.ar  1 <1>  -0.1435 
 39 H2       8.3333     3.3434    -4.9170 H     1 <1>   0.0000 
 40 C        7.6952     0.8369    -5.3214 C.ar  1 <1>   0.0825 
 41 O        6.9906     1.7540    -6.0621 O.3   1 <1>  -0.3625 
 42 C        6.2068     1.2772    -7.1499 C.3   1 <1>   0.2800 
 43 H1       5.6940     2.1367    -7.5923 H     1 <1>   0.0000 
 44 H2       5.4412     0.5734    -6.8073 H     1 <1>   0.0000 
 45 H3       6.8394     0.8326    -7.9248 H     1 <1>   0.0000 
 46 C        7.7410    -0.5307    -5.6094 C.ar  1 <1>  -0.1500 
 47 H        7.2178    -0.9304    -6.4738 H     1 <1>   0.1500 
 48 C        8.4586    -1.4280    -4.8000 C.ar  1 <1>  -0.1435 
 49 C        8.4556    -2.8835    -5.1858 C.3   1 <1>   0.1435 
 50 H1       8.0228    -3.4922    -4.3857 H     1 <1>   0.0000 
 51 H2       9.4711    -3.2216    -5.4144 H     1 <1>   0.0000 
 52 H3       7.8512    -3.0626    -6.0821 H     1 <1>   0.0000 
 53 C        9.1322    -0.9299    -3.6700 C.ar  1 <1>   0.0862 
 54 C        9.0917     0.4424    -3.3718 C.ar  1 <1>   0.0825 
 55 C        9.8952    -1.8068    -2.7633 C.2   1 <1>   0.4694 
 56 O       10.0731    -3.0009    -2.9639 O.2   1 <1>  -0.5700 
 57 C       10.4713    -1.1946    -1.5654 C.2   1 <1>  -0.1356 
 58 H       10.9855    -1.8554    -0.8780 H     1 <1>   0.1500 
 59 C       10.3644     0.1229    -1.3669 C.2   1 <1>  -0.0615 
 60 C       10.9428     0.8217    -0.1538 C.3   1 <1>   0.7592 
 61 O       11.0920    -0.1055     0.9207 O.3   1 <1>  -0.6800 
 62 H       12.0318    -0.0415     1.1896 H     1 <1>   0.4000 
 63 O       10.0706     1.8229     0.3168 O.3   1 <1>  -0.6800 
 64 H       10.2822     1.8968     1.2626 H     1 <1>   0.4000 
 65 C       12.3475     1.3863    -0.4735 C.2   1 <1>   0.4480 
 66 C       12.4638     2.4814    -1.5002 C.3   1 <1>   0.0610 
 67 H1      13.4820     2.8806    -1.4913 H     1 <1>   0.0000 
 68 H2      11.7753     3.2931    -1.2555 H     1 <1>   0.0000 
 69 H3      12.2510     2.0870    -2.4960 H     1 <1>   0.0000 
 70 O       13.3384     0.9395     0.1194 O.2   1 <1>  -0.5700 
 71 O        9.7050     0.9611    -2.2521 O.3   1 <1>  -0.1592 
@<TRIPOS>BOND
  1   1   2  1   
  2   1  11  ar  
  3   1  19  ar  
  4   2   3  1   
  5   2   4  2   
  6   4   5  1   
  7   4   6  1   
  8   6   7  1   
  9   6  10  2   
 10   7   8  1   
 11   8   9  1   
 12   8  21  1   
 13   8  37  1   
 14  11  12  1   
 15  11  13  ar  
 16  13  14  1   
 17  13  15  ar  
 18  15  16  1   
 19  15  17  ar  
 20  17  18  1   
 21  17  19  ar  
 22  19  20  1   
 23  21  22  1   
 24  21  23  1   
 25  21  25  1   
 26  23  24  1   
 27  25  26  1   
 28  25  27  1   
 29  25  29  1   
 30  27  28  1   
 31  29  30  1   
 32  29  31  1   
 33  29  36  1   
 34  31  32  1   
 35  31  34  1   
 36  31  35  1   
 37  32  33  1   
 38  36  37  1   
 39  37  38  1   
 40  37  39  1   
 41  38  40  ar  
 42  38  54  ar  
 43  40  41  1   
 44  40  46  ar  
 45  41  42  1   
 46  42  43  1   
 47  42  44  1   
 48  42  45  1   
 49  46  47  1   
 50  46  48  ar  
 51  48  49  1   
 52  48  53  ar  
 53  49  50  1   
 54  49  51  1   
 55  49  52  1   
 56  53  54  ar  
 57  53  55  1   
 58  54  71  1   
 59  55  56  2   
 60  55  57  1   
 61  57  58  1   
 62  57  59  2   
 63  59  60  1   
 64  59  71  1   
 65  60  61  1   
 66  60  63  1   
 67  60  65  1   
 68  61  62  1   
 69  63  64  1   
 70  65  66  1   
 71  65  70  2   
 72  66  67  1   
 73  66  68  1   
 74  66  69  1   
@<TRIPOS>SUBSTRUCTURE
  1 <1>   0 RESIDUE 1 * * 1
# MOE 2007.09 (io_trps.svl 2007.09)
