@<TRIPOS>MOLECULE
J06_05
77 83 1 0 0 
SMALL
USER_CHARGES


@<TRIPOS>ATOM
  1 C        3.7611     1.0400    -0.7260 C.ar  1 <1>  -0.1435 
  2 C        2.7152     1.7346    -1.3532 C.ar  1 <1>  -0.1500 
  3 H        2.6798     2.8172    -1.3935 H     1 <1>   0.1500 
  4 C        1.6372     1.0567    -1.9360 C.ar  1 <1>  -0.1500 
  5 H        0.8407     1.6255    -2.4121 H     1 <1>   0.1500 
  6 C        1.5688    -0.3337    -1.9019 C.ar  1 <1>  -0.1500 
  7 H        0.7162    -0.8312    -2.3538 H     1 <1>   0.1500 
  8 C        2.5730    -1.0532    -1.2639 C.ar  1 <1>   0.0825 
  9 O        2.4742    -2.4132    -1.1780 O.3   1 <1>  -0.5325 
 10 C        3.6509    -0.3762    -0.6785 C.ar  1 <1>   0.0862 
 11 C        4.6930    -1.1128     0.0629 C.2   1 <1>   0.3976 
 12 O        5.1401    -2.1832    -0.3300 O.2   1 <1>  -0.5700 
 13 C        4.8862     3.3072     0.1114 C.3   1 <1>   0.2800 
 14 H        5.6876     3.6446     0.7762 H     1 <1>   0.0000 
 15 C        5.4870    -1.1828     2.4377 C.ar  1 <1>   0.0825 
 16 C        5.1769    -0.4495     1.2853 C.ar  1 <1>   0.0862 
 17 C        5.2462     0.9645     1.2674 C.ar  1 <1>  -0.1435 
 18 C        5.0433     1.7159    -0.1057 C.3   1 <1>   0.4305 
 19 O        5.4066    -2.5470     2.4419 O.3   1 <1>  -0.5325 
 20 H        5.9900    -2.9014     3.1325 H     1 <1>   0.4500 
 21 C        5.8410    -0.5234     3.6117 C.ar  1 <1>  -0.1500 
 22 H        6.0672    -1.0824     4.5132 H     1 <1>   0.1500 
 23 C        5.8672     0.8656     3.6152 C.ar  1 <1>   0.0825 
 24 O        6.1933     1.5724     4.7345 O.3   1 <1>  -0.5325 
 25 H        6.2784     0.9600     5.4824 H     1 <1>   0.4500 
 26 C        5.5726     1.6045     2.4716 C.ar  1 <1>  -0.1500 
 27 H        5.6365     2.6831     2.5580 H     1 <1>   0.1500 
 28 H        1.7148    -2.7319    -1.6929 H     1 <1>   0.4500 
 29 O        3.6388     3.5631     0.8015 O.3   1 <1>  -0.5600 
 30 C        3.4165     4.9317     1.1766 C.3   1 <1>   0.2800 
 31 H1       4.2224     5.2386     1.8563 H     1 <1>   0.0000 
 32 C        2.0867     5.0171     1.9340 C.3   1 <1>   0.2800 
 33 O        1.8784     6.3347     2.4347 O.3   1 <1>  -0.6800 
 34 H        0.9865     6.3583     2.8250 H     1 <1>   0.4000 
 35 H2       2.0916     4.3206     2.7798 H     1 <1>   0.0000 
 36 H3       1.2446     4.7378     1.2913 H     1 <1>   0.0000 
 37 C        3.4258     5.8443    -0.0538 C.3   1 <1>   0.2800 
 38 H1       3.2795     6.8932     0.2272 H     1 <1>   0.0000 
 39 O        2.3661     5.5073    -0.9595 O.3   1 <1>  -0.6800 
 40 H        2.5866     5.9937    -1.7800 H     1 <1>   0.4000 
 41 C        4.7438     5.6811    -0.7960 C.3   1 <1>   0.2800 
 42 H1       5.5667     6.0941    -0.1995 H     1 <1>   0.0000 
 43 O        4.6861     6.4477    -2.0102 O.3   1 <1>  -0.6800 
 44 H        5.4445     6.1254    -2.5399 H     1 <1>   0.4000 
 45 C        5.0312     4.2121    -1.1460 C.3   1 <1>   0.2800 
 46 O        6.3475     4.2038    -1.7155 O.3   1 <1>  -0.6800 
 47 H        6.9968     4.2990    -0.9929 H     1 <1>   0.4000 
 48 H2       4.3631     3.8999    -1.9512 H     1 <1>   0.0000 
 49 C        8.7868     1.3590    -1.2623 C.ar  1 <1>   0.0862 
 50 C        7.6383     1.7262    -0.5279 C.ar  1 <1>   0.0825 
 51 O        7.7897     2.4413     0.6377 O.3   1 <1>  -0.5325 
 52 H        8.7657     2.4993     0.8264 H     1 <1>   0.4500 
 53 C        6.3320     1.4276    -0.9810 C.ar  1 <1>  -0.1435 
 54 C        6.2393     0.8265    -2.2549 C.ar  1 <1>  -0.1500 
 55 H        5.2785     0.6082    -2.7159 H     1 <1>   0.1500 
 56 C        7.3774     0.4573    -2.9828 C.ar  1 <1>  -0.1500 
 57 H        7.2539    -0.0351    -3.9460 H     1 <1>   0.1500 
 58 C        8.6505     0.7063    -2.4752 C.ar  1 <1>   0.0862 
 59 C        9.8352     0.2821    -3.2306 C.2   1 <1>   0.3976 
 60 O        9.7104    -0.3602    -4.2677 O.2   1 <1>  -0.5700 
 61 C       11.1740     0.6268    -2.7245 C.ar  1 <1>   0.0862 
 62 C       11.3343     1.3005    -1.5118 C.ar  1 <1>   0.0862 
 63 C       10.1343     1.6763    -0.7418 C.2   1 <1>   0.3976 
 64 O       10.1794     2.2627     0.3379 O.2   1 <1>  -0.5700 
 65 C       12.2888     0.2550    -3.4902 C.ar  1 <1>  -0.1500 
 66 H       12.1484    -0.2778    -4.4308 H     1 <1>   0.1500 
 67 C       13.5840     0.5619    -3.0600 C.ar  1 <1>  -0.1435 
 68 C       14.7695     0.1230    -3.8780 C.3   1 <1>   0.4235 
 69 O       15.8589     1.0211    -3.7124 O.3   1 <1>  -0.6800 
 70 H       16.5772     0.7020    -4.2853 H     1 <1>   0.4000 
 71 H2      14.5145     0.1011    -4.9427 H     1 <1>   0.0000 
 72 H3      15.0842    -0.8767    -3.5615 H     1 <1>   0.0000 
 73 C       13.7431     1.2211    -1.8353 C.ar  1 <1>  -0.1500 
 74 H       14.7494     1.4475    -1.4896 H     1 <1>   0.1500 
 75 C       12.6317     1.5904    -1.0698 C.ar  1 <1>   0.0825 
 76 O       12.8503     2.2351     0.1165 O.3   1 <1>  -0.5325 
 77 H       13.8055     2.3356     0.2697 H     1 <1>   0.4500 
@<TRIPOS>BOND
  1   1   2  ar  
  2   1  10  ar  
  3   1  18  1   
  4   2   3  1   
  5   2   4  ar  
  6   4   5  1   
  7   4   6  ar  
  8   6   7  1   
  9   6   8  ar  
 10   8   9  1   
 11   8  10  ar  
 12   9  28  1   
 13  10  11  1   
 14  11  12  2   
 15  11  16  1   
 16  13  14  1   
 17  13  18  1   
 18  13  29  1   
 19  13  45  1   
 20  15  16  ar  
 21  15  19  1   
 22  15  21  ar  
 23  16  17  ar  
 24  17  18  1   
 25  17  26  ar  
 26  18  53  1   
 27  19  20  1   
 28  21  22  1   
 29  21  23  ar  
 30  23  24  1   
 31  23  26  ar  
 32  24  25  1   
 33  26  27  1   
 34  29  30  1   
 35  30  31  1   
 36  30  32  1   
 37  30  37  1   
 38  32  33  1   
 39  32  35  1   
 40  32  36  1   
 41  33  34  1   
 42  37  38  1   
 43  37  39  1   
 44  37  41  1   
 45  39  40  1   
 46  41  42  1   
 47  41  43  1   
 48  41  45  1   
 49  43  44  1   
 50  45  46  1   
 51  45  48  1   
 52  46  47  1   
 53  49  50  ar  
 54  49  58  ar  
 55  49  63  1   
 56  50  51  1   
 57  50  53  ar  
 58  51  52  1   
 59  53  54  ar  
 60  54  55  1   
 61  54  56  ar  
 62  56  57  1   
 63  56  58  ar  
 64  58  59  1   
 65  59  60  2   
 66  59  61  1   
 67  61  62  ar  
 68  61  65  ar  
 69  62  63  1   
 70  62  75  ar  
 71  63  64  2   
 72  65  66  1   
 73  65  67  ar  
 74  67  68  1   
 75  67  73  ar  
 76  68  69  1   
 77  68  71  1   
 78  68  72  1   
 79  69  70  1   
 80  73  74  1   
 81  73  75  ar  
 82  75  76  1   
 83  76  77  1   
@<TRIPOS>SUBSTRUCTURE
  1 <1>   0 RESIDUE 1 * * 1
# MOE 2007.09 (io_trps.svl 2007.09)
