@<TRIPOS>MOLECULE
J08_68
68 70 1 0 0 
SMALL
USER_CHARGES


@<TRIPOS>ATOM
  1 C        1.3556    -0.9365     0.2451 C.ar  1 <1>  -0.1435 
  2 C        2.7310    -0.4260    -0.1149 C.3   1 <1>   0.1435 
  3 H1       2.7432    -0.1300    -1.1713 H     1 <1>   0.0000 
  4 H2       3.4464    -1.2508    -0.0187 H     1 <1>   0.0000 
  5 C        3.1381     0.7554     0.7708 C.3   1 <1>   0.0000 
  6 H1       2.3322     1.4981     0.7454 H     1 <1>   0.0000 
  7 H2       3.2065     0.4377     1.8198 H     1 <1>   0.0000 
  8 C        4.4556     1.4364     0.3538 C.3   1 <1>   0.2800 
  9 H1       4.3499     1.8641    -0.6515 H     1 <1>   0.0000 
 10 O        4.8079     2.4834     1.2697 O.3   1 <1>  -0.5600 
 11 C        3.9757     3.6444     1.2217 C.3   1 <1>   0.5600 
 12 H        3.6125     3.8017     0.1969 H     1 <1>   0.0000 
 13 C        5.6349     0.4448     0.3347 C.3   1 <1>   0.0000 
 14 H1       5.4436    -0.3543    -0.3894 H     1 <1>   0.0000 
 15 H2       5.7342    -0.0204     1.3237 H     1 <1>   0.0000 
 16 C        6.9670     1.1160    -0.0228 C.3   1 <1>   0.0000 
 17 H        6.8746     1.6252    -0.9896 H     1 <1>   0.0000 
 18 H1       7.2146     1.8770     0.7255 H     1 <1>   0.0000 
 19 C        8.1047     0.0948    -0.0843 C.3   1 <1>   0.0000 
 20 H1       7.8723    -0.6735    -0.8326 H     1 <1>   0.0000 
 21 H2       8.1844    -0.4195     0.8819 H     1 <1>   0.0000 
 22 C        9.4354     0.7684    -0.4281 C.3   1 <1>   0.1435 
 23 H1       9.3708     1.2538    -1.4102 H     1 <1>   0.0000 
 24 H2       9.6523     1.5699     0.2897 H     1 <1>   0.0000 
 25 C       10.5740    -0.2207    -0.4265 C.ar  1 <1>  -0.1435 
 26 C        0.2129    -0.3753    -0.3450 C.ar  1 <1>  -0.1500 
 27 H        0.3255     0.4187    -1.0778 H     1 <1>   0.1500 
 28 C       -1.0554    -0.8329     0.0152 C.ar  1 <1>   0.0825 
 29 O       -2.1732    -0.2889    -0.5555 O.3   1 <1>  -0.5325 
 30 H       -1.9067     0.3918    -1.1928 H     1 <1>   0.4500 
 31 C       -1.1942    -1.8480     0.9623 C.ar  1 <1>   0.0825 
 32 O       -2.4446    -2.2838     1.3038 O.3   1 <1>  -0.5325 
 33 H       -2.3645    -3.0170     1.9341 H     1 <1>   0.4500 
 34 C       -0.0662    -2.4095     1.5576 C.ar  1 <1>  -0.1500 
 35 H       -0.1541    -3.1973     2.2996 H     1 <1>   0.1500 
 36 C        1.2047    -1.9521     1.2007 C.ar  1 <1>  -0.1500 
 37 H        2.0791    -2.3925     1.6755 H     1 <1>   0.1500 
 38 C       11.2635    -0.4996     0.7629 C.ar  1 <1>  -0.1500 
 39 H       10.9883     0.0082     1.6852 H     1 <1>   0.1500 
 40 C       12.3051    -1.4300     0.7802 C.ar  1 <1>  -0.1500 
 41 H       12.8217    -1.6250     1.7148 H     1 <1>   0.1500 
 42 C       12.6589    -2.0898    -0.3951 C.ar  1 <1>   0.0825 
 43 O       13.6766    -3.0037    -0.3942 O.3   1 <1>  -0.5325 
 44 H       14.0420    -3.0695     0.5018 H     1 <1>   0.4500 
 45 C       11.9755    -1.8234    -1.5821 C.ar  1 <1>   0.0825 
 46 O       12.3339    -2.4824    -2.7260 O.3   1 <1>  -0.5325 
 47 H       11.7813    -2.1709    -3.4595 H     1 <1>   0.4500 
 48 C       10.9339    -0.8947    -1.6023 C.ar  1 <1>  -0.1500 
 49 H       10.3959    -0.6893    -2.5234 H     1 <1>   0.1500 
 50 C        4.8187     4.8563     1.6699 C.3   1 <1>   0.0000 
 51 C        6.0098     5.0941     0.7359 C.3   1 <1>   0.0000 
 52 H1       6.6786     4.2289     0.7188 H     1 <1>   0.0000 
 53 H2       6.6020     5.9552     1.0625 H     1 <1>   0.0000 
 54 H3       5.6751     5.2831    -0.2897 H     1 <1>   0.0000 
 55 H2       5.2337     4.6512     2.6669 H     1 <1>   0.0000 
 56 C        3.9329     6.1048     1.7612 C.3   1 <1>   0.2800 
 57 H1       3.6306     6.4320     0.7580 H     1 <1>   0.0000 
 58 O        4.6591     7.1914     2.3392 O.3   1 <1>  -0.6800 
 59 H        3.9904     7.8781     2.5329 H     1 <1>   0.4000 
 60 C        2.6948     5.8314     2.6105 C.3   1 <1>   0.2800 
 61 O        1.8332     6.9747     2.5611 O.3   1 <1>  -0.6800 
 62 H        1.0039     6.6861     2.9935 H     1 <1>   0.4000 
 63 H2       2.9823     5.7020     3.6616 H     1 <1>   0.0000 
 64 C        1.9829     4.5856     2.0875 C.3   1 <1>   0.5600 
 65 H1       1.5737     4.7466     1.0826 H     1 <1>   0.0000 
 66 O        0.8853     4.3224     2.9528 O.3   1 <1>  -0.6800 
 67 H        0.5067     3.4883     2.6255 H     1 <1>   0.4000 
 68 O        2.8599     3.4736     2.0999 O.3   1 <1>  -0.5600 
@<TRIPOS>BOND
  1   1   2  1   
  2   1  26  ar  
  3   1  36  ar  
  4   2   3  1   
  5   2   4  1   
  6   2   5  1   
  7   5   6  1   
  8   5   7  1   
  9   5   8  1   
 10   8   9  1   
 11   8  10  1   
 12   8  13  1   
 13  10  11  1   
 14  11  12  1   
 15  11  50  1   
 16  11  68  1   
 17  13  14  1   
 18  13  15  1   
 19  13  16  1   
 20  16  17  1   
 21  16  18  1   
 22  16  19  1   
 23  19  20  1   
 24  19  21  1   
 25  19  22  1   
 26  22  23  1   
 27  22  24  1   
 28  22  25  1   
 29  25  38  ar  
 30  25  48  ar  
 31  26  27  1   
 32  26  28  ar  
 33  28  29  1   
 34  28  31  ar  
 35  29  30  1   
 36  31  32  1   
 37  31  34  ar  
 38  32  33  1   
 39  34  35  1   
 40  34  36  ar  
 41  36  37  1   
 42  38  39  1   
 43  38  40  ar  
 44  40  41  1   
 45  40  42  ar  
 46  42  43  1   
 47  42  45  ar  
 48  43  44  1   
 49  45  46  1   
 50  45  48  ar  
 51  46  47  1   
 52  48  49  1   
 53  50  51  1   
 54  50  55  1   
 55  50  56  1   
 56  51  52  1   
 57  51  53  1   
 58  51  54  1   
 59  56  57  1   
 60  56  58  1   
 61  56  60  1   
 62  58  59  1   
 63  60  61  1   
 64  60  63  1   
 65  60  64  1   
 66  61  62  1   
 67  64  65  1   
 68  64  66  1   
 69  64  68  1   
 70  66  67  1   
@<TRIPOS>SUBSTRUCTURE
  1 <1>   0 RESIDUE 1 * * 1
# MOE 2007.09 (io_trps.svl 2007.09)
