@<TRIPOS>MOLECULE
J08_05
76 80 1 0 0 
SMALL
USER_CHARGES


@<TRIPOS>ATOM
  1 C        1.0893     0.6956    -0.4250 C.3   1 <1>   0.0000 
  2 C        0.2361     0.8634    -1.7071 C.3   1 <1>   0.0000 
  3 H1       0.4114     0.0744    -2.4400 H     1 <1>   0.0000 
  4 H2       0.4138     1.8145    -2.2126 H     1 <1>   0.0000 
  5 H3      -0.8375     0.8503    -1.5063 H     1 <1>   0.0000 
  6 C        0.2727     1.2478     0.7809 C.3   1 <1>   0.0000 
  7 H1      -0.0435     2.2798     0.5874 H     1 <1>   0.0000 
  8 H2       0.9189     1.2811     1.6686 H     1 <1>   0.0000 
  9 C       -0.9684     0.4358     1.1306 C.3   1 <1>   0.0610 
 10 C       -0.6723    -1.0339     1.3116 C.2   1 <1>   0.4480 
 11 H1      -1.7543     0.5366     0.3771 H     1 <1>   0.0000 
 12 H2      -1.3822     0.8190     2.0711 H     1 <1>   0.0000 
 13 O       -1.2305    -1.6577     2.2182 O.2   1 <1>  -0.5700 
 14 C        0.2115    -1.7314     0.2616 C.3   1 <1>   0.0610 
 15 C       -0.6829    -2.1249    -0.9233 C.3   1 <1>   0.0000 
 16 H1      -1.2566    -1.2857    -1.3199 H     1 <1>   0.0000 
 17 H2      -1.4283    -2.8688    -0.6143 H     1 <1>   0.0000 
 18 H3      -0.1057    -2.5673    -1.7408 H     1 <1>   0.0000 
 19 C        0.7346    -3.0468     0.8952 C.3   1 <1>   0.0000 
 20 H1      -0.0872    -3.6696     1.2693 H     1 <1>   0.0000 
 21 H2       1.3936    -2.8420     1.7467 H     1 <1>   0.0000 
 22 H3       1.2839    -3.6611     0.1756 H     1 <1>   0.0000 
 23 C        1.4275    -0.8050    -0.0979 C.3   1 <1>   0.0000 
 24 H        2.0180    -0.7640     0.8333 H     1 <1>   0.0000 
 25 C        2.3837    -1.3949    -1.1548 C.3   1 <1>   0.0000 
 26 H1       1.9145    -1.4469    -2.1407 H     1 <1>   0.0000 
 27 H2       2.6486    -2.4256    -0.8987 H     1 <1>   0.0000 
 28 C        3.6967    -0.6093    -1.2302 C.3   1 <1>   0.0000 
 29 H1       4.3309    -1.0740    -1.9956 H     1 <1>   0.0000 
 30 H2       4.2029    -0.7574    -0.2683 H     1 <1>   0.0000 
 31 C        3.5453     0.9095    -1.5090 C.3   1 <1>   0.0000 
 32 C        3.1287     1.0765    -2.9966 C.3   1 <1>   0.0000 
 33 H1       2.8908     2.1154    -3.2425 H     1 <1>   0.0000 
 34 H2       2.2747     0.4643    -3.2806 H     1 <1>   0.0000 
 35 H3       3.9421     0.7616    -3.6627 H     1 <1>   0.0000 
 36 C        2.4718     1.4917    -0.5196 C.3   1 <1>   0.0000 
 37 H        2.9232     1.3516     0.4769 H     1 <1>   0.0000 
 38 C        4.9389     1.6926    -1.3617 C.3   1 <1>   0.0000 
 39 H        5.2300     1.9829    -2.3792 H     1 <1>   0.0000 
 40 C        4.8351     3.0023    -0.5363 C.3   1 <1>   0.0000 
 41 H        4.6946     2.7184     0.5162 H     1 <1>   0.0000 
 42 C        3.5944     3.7866    -0.9527 C.3   1 <1>   0.0000 
 43 H1       3.5560     4.7519    -0.4350 H     1 <1>   0.0000 
 44 H2       3.6329     4.0085    -2.0254 H     1 <1>   0.0000 
 45 C        2.3026     3.0253    -0.6519 C.3   1 <1>   0.0000 
 46 H1       1.5664     3.3005    -1.4114 H     1 <1>   0.0000 
 47 H2       1.9071     3.4110     0.2963 H     1 <1>   0.0000 
 48 C        6.1344     0.8792    -0.8307 C.3   1 <1>   0.0000 
 49 H1       6.2602    -0.0412    -1.4107 H     1 <1>   0.0000 
 50 H2       5.9691     0.5922     0.2144 H     1 <1>   0.0000 
 51 C        7.4422     1.6682    -0.9460 C.3   1 <1>   0.0000 
 52 H1       7.6593     1.8164    -2.0118 H     1 <1>   0.0000 
 53 H2       8.2602     1.0465    -0.5609 H     1 <1>   0.0000 
 54 C        7.4012     3.0240    -0.2174 C.3   1 <1>   0.0610 
 55 C        6.1379     3.8537    -0.5681 C.3   1 <1>   0.0000 
 56 H        6.0253     4.6335     0.1960 H     1 <1>   0.0000 
 57 C        8.5328     3.9527    -0.6890 C.3   1 <1>   0.0000 
 58 H1       9.4713     3.4183    -0.8747 H     1 <1>   0.0000 
 59 H2       8.7472     4.7176     0.0695 H     1 <1>   0.0000 
 60 C        8.0242     4.6380    -1.9511 C.3   1 <1>   0.0000 
 61 H1       8.4189     4.1294    -2.8394 H     1 <1>   0.0000 
 62 H2       8.3855     5.6720    -1.9931 H     1 <1>   0.0000 
 63 C        6.4885     4.5216    -1.9314 C.3   1 <1>   0.1382 
 64 H1       6.2122     3.8199    -2.7279 H     1 <1>   0.0000 
 65 C        5.8444     5.8539    -2.2859 C.2   1 <1>  -0.2764 
 66 C        5.6426     6.0921    -3.7606 C.3   1 <1>   0.1382 
 67 H1       5.2073     7.0757    -3.9669 H     1 <1>   0.0000 
 68 H2       6.5994     6.0355    -4.2898 H     1 <1>   0.0000 
 69 H3       4.9679     5.3371    -4.1774 H     1 <1>   0.0000 
 70 C        5.4809     6.7919    -1.3953 C.2   1 <1>  -0.3000 
 71 H1       5.0292     7.7268    -1.7138 H     1 <1>   0.1500 
 72 H2       5.6290     6.6739    -0.3283 H     1 <1>   0.1500 
 73 C        7.5478     2.8147     1.2868 C.2   1 <1>   0.6590 
 74 O        6.7063     3.0315     2.1430 O.2   1 <1>  -0.5700 
 75 O        8.7572     2.3256     1.6336 O.3   1 <1>  -0.6500 
 76 H        8.7204     2.2331     2.6086 H     1 <1>   0.5000 
@<TRIPOS>BOND
  1   1   2  1   
  2   1   6  1   
  3   1  23  1   
  4   1  36  1   
  5   2   3  1   
  6   2   4  1   
  7   2   5  1   
  8   6   7  1   
  9   6   8  1   
 10   6   9  1   
 11   9  10  1   
 12   9  11  1   
 13   9  12  1   
 14  10  13  2   
 15  10  14  1   
 16  14  15  1   
 17  14  19  1   
 18  14  23  1   
 19  15  16  1   
 20  15  17  1   
 21  15  18  1   
 22  19  20  1   
 23  19  21  1   
 24  19  22  1   
 25  23  24  1   
 26  23  25  1   
 27  25  26  1   
 28  25  27  1   
 29  25  28  1   
 30  28  29  1   
 31  28  30  1   
 32  28  31  1   
 33  31  32  1   
 34  31  36  1   
 35  31  38  1   
 36  32  33  1   
 37  32  34  1   
 38  32  35  1   
 39  36  37  1   
 40  36  45  1   
 41  38  39  1   
 42  38  40  1   
 43  38  48  1   
 44  40  41  1   
 45  40  42  1   
 46  40  55  1   
 47  42  43  1   
 48  42  44  1   
 49  42  45  1   
 50  45  46  1   
 51  45  47  1   
 52  48  49  1   
 53  48  50  1   
 54  48  51  1   
 55  51  52  1   
 56  51  53  1   
 57  51  54  1   
 58  54  55  1   
 59  54  57  1   
 60  54  73  1   
 61  55  56  1   
 62  55  63  1   
 63  57  58  1   
 64  57  59  1   
 65  57  60  1   
 66  60  61  1   
 67  60  62  1   
 68  60  63  1   
 69  63  64  1   
 70  63  65  1   
 71  65  66  1   
 72  65  70  2   
 73  66  67  1   
 74  66  68  1   
 75  66  69  1   
 76  70  71  1   
 77  70  72  1   
 78  73  74  2   
 79  73  75  1   
 80  75  76  1   
@<TRIPOS>SUBSTRUCTURE
  1 <1>   0 RESIDUE 1 * * 1
# MOE 2007.09 (io_trps.svl 2007.09)
