@<TRIPOS>MOLECULE
J08_52
53 57 1 0 0 
SMALL
USER_CHARGES


@<TRIPOS>ATOM
  1 C        1.2088     0.8125    -0.5754 C.ar  1 <1>  -0.1500 
  2 H        2.1345     1.3800    -0.6290 H     1 <1>   0.1500 
  3 C        0.0290     1.5434    -0.7086 C.ar  1 <1>  -0.1500 
  4 H        0.0733     2.6179    -0.8639 H     1 <1>   0.1500 
  5 C       -1.1925     0.9017    -0.6418 C.ar  1 <1>   0.0825 
  6 O       -2.2811     1.7170    -0.7851 O.3   1 <1>  -0.3625 
  7 C       -3.5650     1.1101    -0.7106 C.3   1 <1>   0.2800 
  8 H1      -4.3144     1.8970    -0.8400 H     1 <1>   0.0000 
  9 H2      -3.7292     0.6527     0.2707 H     1 <1>   0.0000 
 10 H3      -3.7048     0.3821    -1.5164 H     1 <1>   0.0000 
 11 C       -1.2086    -0.4793    -0.4365 C.ar  1 <1>  -0.1500 
 12 H       -2.1746    -0.9648    -0.3802 H     1 <1>   0.1500 
 13 C       -0.0237    -1.2655    -0.2927 C.ar  1 <1>   0.0000 
 14 C        1.2253    -0.5905    -0.3761 C.ar  1 <1>   0.0000 
 15 C       -0.0546    -2.6889    -0.0711 C.ar  1 <1>   0.0000 
 16 C        1.1584    -3.4056     0.1094 C.ar  1 <1>   0.0000 
 17 C        2.3988    -2.7105     0.0792 C.ar  1 <1>  -0.1435 
 18 C        2.4406    -1.3247    -0.2415 C.ar  1 <1>  -0.1435 
 19 C       -1.2642    -3.4397    -0.0083 C.ar  1 <1>  -0.1500 
 20 H       -2.2303    -2.9578    -0.1275 H     1 <1>   0.1500 
 21 C       -1.3065    -4.8182     0.2180 C.ar  1 <1>   0.0825 
 22 O       -2.5568    -5.3729     0.2533 O.3   1 <1>  -0.3625 
 23 C       -2.7550    -6.3007     1.3180 C.3   1 <1>   0.2800 
 24 H1      -3.8201    -6.2925     1.5694 H     1 <1>   0.0000 
 25 H2      -2.1987    -6.0293     2.2226 H     1 <1>   0.0000 
 26 H3      -2.5021    -7.3138     0.9931 H     1 <1>   0.0000 
 27 C       -0.1135    -5.5090     0.3244 C.ar  1 <1>   0.0825 
 28 O       -0.0567    -6.8677     0.4773 O.3   1 <1>  -0.3625 
 29 C       -0.0835    -7.5014    -0.8036 C.3   1 <1>   0.2800 
 30 H1      -0.0316    -8.5823    -0.6420 H     1 <1>   0.0000 
 31 H2       0.7814    -7.2075    -1.4087 H     1 <1>   0.0000 
 32 H3      -1.0146    -7.2839    -1.3382 H     1 <1>   0.0000 
 33 C        1.0928    -4.8097     0.3007 C.ar  1 <1>  -0.1500 
 34 H        1.9957    -5.4057     0.4103 H     1 <1>   0.1500 
 35 C        3.6963    -3.4738     0.3672 C.3   1 <1>   0.4135 
 36 H1       3.9246    -4.0985    -0.5067 H     1 <1>   0.0000 
 37 H2       3.5439    -4.1241     1.2359 H     1 <1>   0.0000 
 38 N        4.8123    -2.5963     0.7010 N.3   1 <1>  -0.8100 
 39 C        4.9838    -1.6110    -0.3584 C.3   1 <1>   0.2700 
 40 H        5.0870    -2.0987    -1.3409 H     1 <1>   0.0000 
 41 C        3.8054    -0.6290    -0.3828 C.3   1 <1>   0.4235 
 42 O        3.8682     0.0757    -1.6276 O.3   1 <1>  -0.6800 
 43 H        4.6934     0.5890    -1.6314 H     1 <1>   0.4000 
 44 H2       3.8935     0.0955     0.4372 H     1 <1>   0.0000 
 45 C        6.0984    -3.2786     0.8084 C.3   1 <1>   0.2700 
 46 H1       6.2439    -4.0112     0.0043 H     1 <1>   0.0000 
 47 H2       6.2125    -3.7906     1.7688 H     1 <1>   0.0000 
 48 C        7.1056    -2.1416     0.6512 C.3   1 <1>   0.0000 
 49 H1       7.9511    -2.4508     0.0276 H     1 <1>   0.0000 
 50 H2       7.5011    -1.8256     1.6231 H     1 <1>   0.0000 
 51 C        6.3290    -0.9925     0.0051 C.3   1 <1>   0.0000 
 52 H1       6.8491    -0.5985    -0.8741 H     1 <1>   0.0000 
 53 H2       6.2199    -0.1728     0.7255 H     1 <1>   0.0000 
@<TRIPOS>BOND
  1   1   2  1   
  2   1   3  ar  
  3   1  14  ar  
  4   3   4  1   
  5   3   5  ar  
  6   5   6  1   
  7   5  11  ar  
  8   6   7  1   
  9   7   8  1   
 10   7   9  1   
 11   7  10  1   
 12  11  12  1   
 13  11  13  ar  
 14  13  14  ar  
 15  13  15  ar  
 16  14  18  ar  
 17  15  16  ar  
 18  15  19  ar  
 19  16  17  ar  
 20  16  33  ar  
 21  17  18  ar  
 22  17  35  1   
 23  18  41  1   
 24  19  20  1   
 25  19  21  ar  
 26  21  22  1   
 27  21  27  ar  
 28  22  23  1   
 29  23  24  1   
 30  23  25  1   
 31  23  26  1   
 32  27  28  1   
 33  27  33  ar  
 34  28  29  1   
 35  29  30  1   
 36  29  31  1   
 37  29  32  1   
 38  33  34  1   
 39  35  36  1   
 40  35  37  1   
 41  35  38  1   
 42  38  39  1   
 43  38  45  1   
 44  39  40  1   
 45  39  41  1   
 46  39  51  1   
 47  41  42  1   
 48  41  44  1   
 49  42  43  1   
 50  45  46  1   
 51  45  47  1   
 52  45  48  1   
 53  48  49  1   
 54  48  50  1   
 55  48  51  1   
 56  51  52  1   
 57  51  53  1   
@<TRIPOS>SUBSTRUCTURE
  1 <1>   0 RESIDUE 1 * * 1
# MOE 2007.09 (io_trps.svl 2007.09)
