@<TRIPOS>MOLECULE
J08_55
60 64 1 0 0 
SMALL
USER_CHARGES


@<TRIPOS>ATOM
  1 C        1.1363     0.7723    -0.4218 C.ar  1 <1>  -0.1500 
  2 H        2.0596     1.3474    -0.4088 H     1 <1>   0.1500 
  3 C       -0.0471     1.5096    -0.5161 C.ar  1 <1>   0.0825 
  4 O        0.1352     2.8652    -0.6201 O.3   1 <1>  -0.3625 
  5 C       -0.7226     3.6430     0.2112 C.3   1 <1>   0.2800 
  6 H1      -0.1859     4.5602     0.4732 H     1 <1>   0.0000 
  7 H2      -0.9830     3.1337     1.1461 H     1 <1>   0.0000 
  8 H3      -1.6214     3.9353    -0.3394 H     1 <1>   0.0000 
  9 C       -1.2690     0.8483    -0.5584 C.ar  1 <1>   0.0825 
 10 O       -2.3925     1.6102    -0.7369 O.3   1 <1>  -0.3625 
 11 C       -3.6520     0.9533    -0.7835 C.3   1 <1>   0.2800 
 12 H1      -4.4220     1.7180    -0.9240 H     1 <1>   0.0000 
 13 H2      -3.8641     0.4384     0.1592 H     1 <1>   0.0000 
 14 H3      -3.7078     0.2661    -1.6342 H     1 <1>   0.0000 
 15 C       -1.2641    -0.5491    -0.4415 C.ar  1 <1>  -0.1500 
 16 H       -2.2200    -1.0576    -0.4638 H     1 <1>   0.1500 
 17 C       -0.0758    -1.3322    -0.3064 C.ar  1 <1>   0.0000 
 18 C        1.1608    -0.6390    -0.3175 C.ar  1 <1>   0.0000 
 19 C       -0.0868    -2.7679    -0.1699 C.ar  1 <1>   0.0000 
 20 C        1.1353    -3.4812    -0.0375 C.ar  1 <1>   0.0000 
 21 C        2.3655    -2.7707    -0.0266 C.ar  1 <1>  -0.1435 
 22 C        2.3809    -1.3627    -0.2148 C.ar  1 <1>  -0.1435 
 23 C       -1.2837    -3.5348    -0.1448 C.ar  1 <1>  -0.1500 
 24 H       -2.2579    -3.0618    -0.2229 H     1 <1>   0.1500 
 25 C       -1.2956    -4.9262    -0.0009 C.ar  1 <1>   0.0825 
 26 O       -2.5140    -5.5490     0.0471 O.3   1 <1>  -0.3625 
 27 C       -2.9405    -5.6767     1.4058 C.3   1 <1>   0.2800 
 28 H1      -3.9032    -6.1966     1.4056 H     1 <1>   0.0000 
 29 H2      -3.0858    -4.6941     1.8680 H     1 <1>   0.0000 
 30 H3      -2.2335    -6.2735     1.9925 H     1 <1>   0.0000 
 31 C       -0.1024    -5.6232     0.0598 C.ar  1 <1>   0.0825 
 32 O        0.0401    -6.9791     0.1690 O.3   1 <1>  -0.3625 
 33 C       -0.8374    -7.7443    -0.6534 C.3   1 <1>   0.2800 
 34 H1      -0.3466    -8.7008    -0.8590 H     1 <1>   0.0000 
 35 H2      -1.0378    -7.2620    -1.6167 H     1 <1>   0.0000 
 36 H3      -1.7675    -7.9616    -0.1210 H     1 <1>   0.0000 
 37 C        1.0888    -4.8968     0.0707 C.ar  1 <1>  -0.1500 
 38 H        2.0027    -5.4815     0.1497 H     1 <1>   0.1500 
 39 C        3.6755    -3.5380     0.1480 C.3   1 <1>   0.3995 
 40 H1       3.9057    -4.0666    -0.7842 H     1 <1>   0.0000 
 41 H2       3.6233    -4.2444     0.9838 H     1 <1>   0.0000 
 42 N        4.8622    -2.6778     0.4690 N.4   1 <1>  -0.0180 
 43 O        4.8027    -2.2535     1.7761 O.2   1 <1>  -0.7500 
 44 C        4.8958    -1.5355    -0.4965 C.3   1 <1>   0.2560 
 45 H        4.8256    -1.9877    -1.4979 H     1 <1>   0.0000 
 46 C        3.7154    -0.6133    -0.2586 C.3   1 <1>   0.1435 
 47 H1       3.7094     0.1130    -1.0795 H     1 <1>   0.0000 
 48 H2       3.8323    -0.0655     0.6845 H     1 <1>   0.0000 
 49 C        6.1858    -3.3480     0.2399 C.3   1 <1>   0.2560 
 50 H1       6.0849    -3.9994    -0.6345 H     1 <1>   0.0000 
 51 H2       6.4407    -3.9360     1.1265 H     1 <1>   0.0000 
 52 C        7.1554    -2.1994    -0.0467 C.3   1 <1>   0.0000 
 53 H1       7.7837    -2.4382    -0.9114 H     1 <1>   0.0000 
 54 C2       8.0274    -1.9735     1.0613 C.3   1 <1>   0.0000 
 55 H21      8.6351    -2.8620     1.2325 H     1 <1>   0.0000 
 56 H22      7.4359    -1.7608     1.9518 H     1 <1>   0.0000 
 57 H23      8.6769    -1.1251     0.8454 H     1 <1>   0.0000 
 58 C        6.2893    -0.9629    -0.3078 C.3   1 <1>   0.0000 
 59 H1       6.6282    -0.4008    -1.1833 H     1 <1>   0.0000 
 60 H2       6.3304    -0.2908     0.5574 H     1 <1>   0.0000 
@<TRIPOS>BOND
  1   1   2  1   
  2   1   3  ar  
  3   1  18  ar  
  4   3   4  1   
  5   3   9  ar  
  6   4   5  1   
  7   5   6  1   
  8   5   7  1   
  9   5   8  1   
 10   9  10  1   
 11   9  15  ar  
 12  10  11  1   
 13  11  12  1   
 14  11  13  1   
 15  11  14  1   
 16  15  16  1   
 17  15  17  ar  
 18  17  18  ar  
 19  17  19  ar  
 20  18  22  ar  
 21  19  20  ar  
 22  19  23  ar  
 23  20  21  ar  
 24  20  37  ar  
 25  21  22  ar  
 26  21  39  1   
 27  22  46  1   
 28  23  24  1   
 29  23  25  ar  
 30  25  26  1   
 31  25  31  ar  
 32  26  27  1   
 33  27  28  1   
 34  27  29  1   
 35  27  30  1   
 36  31  32  1   
 37  31  37  ar  
 38  32  33  1   
 39  33  34  1   
 40  33  35  1   
 41  33  36  1   
 42  37  38  1   
 43  39  40  1   
 44  39  41  1   
 45  39  42  1   
 46  42  43  2   
 47  42  44  1   
 48  42  49  1   
 49  44  45  1   
 50  44  46  1   
 51  44  58  1   
 52  46  47  1   
 53  46  48  1   
 54  49  50  1   
 55  49  51  1   
 56  49  52  1   
 57  52  53  1   
 58  52  54  1   
 59  52  58  1   
 60  54  55  1   
 61  54  56  1   
 62  54  57  1   
 63  58  59  1   
 64  58  60  1   
@<TRIPOS>SUBSTRUCTURE
  1 ****  21 GROUP 4 **** **** 0

# MOE 2015.10 (io_trps.svl 2015.10)
