@<TRIPOS>MOLECULE
J08_36
80 83 1 0 0 
SMALL
USER_CHARGES


@<TRIPOS>ATOM
  1 C        1.2478     0.3534     0.5707 C.2   1 <1>  -0.2764 
  2 C       -0.0089     1.1170     0.1274 C.3   1 <1>   0.1382 
  3 C       -1.1379     0.8069     1.1401 C.3   1 <1>   0.0000 
  4 H1      -0.9295     1.2361     2.1256 H     1 <1>   0.0000 
  5 H2      -1.2807    -0.2686     1.2890 H     1 <1>   0.0000 
  6 H3      -2.1037     1.1957     0.8014 H     1 <1>   0.0000 
  7 C       -0.4345     0.6214    -1.2877 C.3   1 <1>   0.0000 
  8 H1       0.2680     1.0080    -2.0387 H     1 <1>   0.0000 
  9 H2      -1.4197     1.0236    -1.5524 H     1 <1>   0.0000 
 10 C       -0.4857    -0.8989    -1.4352 C.3   1 <1>   0.0000 
 11 H1      -0.7302    -1.1623    -2.4719 H     1 <1>   0.0000 
 12 H2      -1.2990    -1.3190    -0.8306 H     1 <1>   0.0000 
 13 C        0.8436    -1.5378    -1.0479 C.3   1 <1>   0.2800 
 14 H1       1.6194    -1.2296    -1.7597 H     1 <1>   0.0000 
 15 O        0.7065    -2.9536    -1.1419 O.3   1 <1>  -0.6800 
 16 H        1.5739    -3.3463    -0.9440 H     1 <1>   0.4000 
 17 C        1.2468    -1.1465     0.3735 C.3   1 <1>   0.1382 
 18 H1       2.2304    -1.5819     0.5929 H     1 <1>   0.0000 
 19 H2       0.5657    -1.6135     1.0961 H     1 <1>   0.0000 
 20 C        2.3194     0.9622     1.1085 C.2   1 <1>  -0.2882 
 21 H        3.1917     0.3750     1.3881 H     1 <1>   0.1500 
 22 C        2.4211     2.4309     1.3729 C.3   1 <1>   0.1382 
 23 H1       3.1470     2.8495     0.6646 H     1 <1>   0.0000 
 24 H2       2.8379     2.5765     2.3769 H     1 <1>   0.0000 
 25 C        1.0787     3.1742     1.2747 C.3   1 <1>   0.0000 
 26 H        0.5151     2.9612     2.1902 H     1 <1>   0.0000 
 27 C        0.2798     2.6701     0.0422 C.3   1 <1>   0.0000 
 28 H        0.9385     2.8255    -0.8280 H     1 <1>   0.0000 
 29 C        1.3026     4.6879     1.1586 C.3   1 <1>   0.0000 
 30 H        1.8772     4.8521     0.2310 H     1 <1>   0.0000 
 31 C        0.0005     5.5162     1.0593 C.3   1 <1>   0.0000 
 32 C       -0.9588     5.3009     2.2665 C.3   1 <1>   0.0000 
 33 H1      -1.2500     4.2574     2.4077 H     1 <1>   0.0000 
 34 H2      -1.8807     5.8769     2.1207 H     1 <1>   0.0000 
 35 H3      -0.5214     5.6381     3.2120 H     1 <1>   0.0000 
 36 C       -0.7126     5.0499    -0.2186 C.3   1 <1>   0.0000 
 37 H1      -0.1111     5.2967    -1.1016 H     1 <1>   0.0000 
 38 H2      -1.6804     5.5524    -0.3213 H     1 <1>   0.0000 
 39 C       -0.9764     3.5324    -0.2338 C.3   1 <1>   0.0000 
 40 H1      -1.3927     3.2746    -1.2144 H     1 <1>   0.0000 
 41 H2      -1.7626     3.3138     0.4942 H     1 <1>   0.0000 
 42 C        2.0733     5.3722     2.2711 C.3   1 <1>   0.0000 
 43 H1       3.1289     5.0840     2.2939 H     1 <1>   0.0000 
 44 H2       1.6503     5.1658     3.2592 H     1 <1>   0.0000 
 45 C        1.9130     6.8405     1.8888 C.3   1 <1>   0.0000 
 46 H1       2.7381     7.0940     1.2126 H     1 <1>   0.0000 
 47 H2       1.9872     7.4908     2.7665 H     1 <1>   0.0000 
 48 C        0.5335     6.9992     1.1675 C.3   1 <1>   0.0000 
 49 C        0.6406     7.8912    -0.1145 C.3   1 <1>   0.0000 
 50 C       -0.7393     8.1832    -0.7297 C.3   1 <1>   0.0000 
 51 H1      -1.1310     7.3325    -1.2857 H     1 <1>   0.0000 
 52 H2      -0.7061     8.9990    -1.4562 H     1 <1>   0.0000 
 53 H3      -1.4667     8.4583     0.0412 H     1 <1>   0.0000 
 54 H2       1.2548     7.3636    -0.8548 H     1 <1>   0.0000 
 55 C        1.3265     9.2554     0.2096 C.3   1 <1>   0.0000 
 56 H1       0.6422     9.8547     0.8222 H     1 <1>   0.0000 
 57 C        1.7449    10.0477    -1.0429 C.3   1 <1>   0.0000 
 58 C        2.7231    11.2251    -0.7496 C.3   1 <1>   0.0000 
 59 C        3.2888    11.7594    -2.1049 C.3   1 <1>   0.0000 
 60 C        4.6642    12.4207    -1.9665 C.3   1 <1>   0.0000 
 61 H1       5.1110    12.5701    -2.9562 H     1 <1>   0.0000 
 62 H2       5.3483    11.7877    -1.3920 H     1 <1>   0.0000 
 63 H3       4.6185    13.4004    -1.4884 H     1 <1>   0.0000 
 64 C        2.3286    12.6768    -2.8653 C.3   1 <1>   0.0000 
 65 H1       1.3563    12.1986    -3.0168 H     1 <1>   0.0000 
 66 H2       2.7330    12.9154    -3.8553 H     1 <1>   0.0000 
 67 H3       2.1664    13.6240    -2.3428 H     1 <1>   0.0000 
 68 H3       3.4622    10.8859    -2.7490 H     1 <1>   0.0000 
 69 H2       3.5669    10.7994    -0.1889 H     1 <1>   0.0000 
 70 C        2.0359    12.2698     0.1622 C.3   1 <1>   0.0000 
 71 C        2.9099    13.4283     0.6143 C.3   1 <1>   0.0000 
 72 H1       2.4195    13.9660     1.4331 H     1 <1>   0.0000 
 73 H2       3.0659    14.1527    -0.1881 H     1 <1>   0.0000 
 74 H3       3.8804    13.0777     0.9781 H     1 <1>   0.0000 
 75 H2       1.6960    11.7702     1.0765 H     1 <1>   0.0000 
 76 H3       1.1332    12.6635    -0.3198 H     1 <1>   0.0000 
 77 H2       0.8583    10.4396    -1.5515 H     1 <1>   0.0000 
 78 H3       2.2309     9.3506    -1.7370 H     1 <1>   0.0000 
 79 H3       2.2271     9.1040     0.8103 H     1 <1>   0.0000 
 80 H2      -0.1194     7.5541     1.8573 H     1 <1>   0.0000 
@<TRIPOS>BOND
  1   1   2  1   
  2   1  17  1   
  3   1  20  2   
  4   2   3  1   
  5   2   7  1   
  6   2  27  1   
  7   3   4  1   
  8   3   5  1   
  9   3   6  1   
 10   7   8  1   
 11   7   9  1   
 12   7  10  1   
 13  10  11  1   
 14  10  12  1   
 15  10  13  1   
 16  13  14  1   
 17  13  15  1   
 18  13  17  1   
 19  15  16  1   
 20  17  18  1   
 21  17  19  1   
 22  20  21  1   
 23  20  22  1   
 24  22  23  1   
 25  22  24  1   
 26  22  25  1   
 27  25  26  1   
 28  25  27  1   
 29  25  29  1   
 30  27  28  1   
 31  27  39  1   
 32  29  30  1   
 33  29  31  1   
 34  29  42  1   
 35  31  32  1   
 36  31  36  1   
 37  31  48  1   
 38  32  33  1   
 39  32  34  1   
 40  32  35  1   
 41  36  37  1   
 42  36  38  1   
 43  36  39  1   
 44  39  40  1   
 45  39  41  1   
 46  42  43  1   
 47  42  44  1   
 48  42  45  1   
 49  45  46  1   
 50  45  47  1   
 51  45  48  1   
 52  48  49  1   
 53  48  80  1   
 54  49  50  1   
 55  49  54  1   
 56  49  55  1   
 57  50  51  1   
 58  50  52  1   
 59  50  53  1   
 60  55  56  1   
 61  55  57  1   
 62  55  79  1   
 63  57  58  1   
 64  57  77  1   
 65  57  78  1   
 66  58  59  1   
 67  58  69  1   
 68  58  70  1   
 69  59  60  1   
 70  59  64  1   
 71  59  68  1   
 72  60  61  1   
 73  60  62  1   
 74  60  63  1   
 75  64  65  1   
 76  64  66  1   
 77  64  67  1   
 78  70  71  1   
 79  70  75  1   
 80  70  76  1   
 81  71  72  1   
 82  71  73  1   
 83  71  74  1   
@<TRIPOS>SUBSTRUCTURE
  1 <1>   0 RESIDUE 1 * * 1
# MOE 2007.09 (io_trps.svl 2007.09)
