@<TRIPOS>MOLECULE
J08_37
30 32 1 0 0 
SMALL
USER_CHARGES


@<TRIPOS>ATOM
  1 C        1.1620     0.7677     0.1256 C.ar  1 <1>   0.0862 
  2 C       -0.0212     1.5053     0.2764 C.ar  1 <1>   0.0825 
  3 O       -0.0418     2.8547     0.0597 O.3   1 <1>  -0.5325 
  4 H       -0.9477     3.1940     0.1373 H     1 <1>   0.4500 
  5 C       -1.2056     0.8800     0.6821 C.ar  1 <1>  -0.1500 
  6 H       -2.1263     1.4444     0.8041 H     1 <1>   0.1500 
  7 C       -1.2190    -0.4879     0.9442 C.ar  1 <1>  -0.1500 
  8 H       -2.1390    -0.9749     1.2588 H     1 <1>   0.1500 
  9 C       -0.0479    -1.2276     0.8122 C.ar  1 <1>  -0.1500 
 10 H       -0.0624    -2.2942     1.0290 H     1 <1>   0.1500 
 11 C        1.1380    -0.5980     0.4105 C.ar  1 <1>   0.0862 
 12 C        2.3613    -1.4037     0.3103 C.2   1 <1>   0.3976 
 13 O        2.3125    -2.6236     0.4230 O.2   1 <1>  -0.5700 
 14 C        3.6491    -0.7267     0.1103 C.ar  1 <1>   0.0862 
 15 C        3.6970     0.6364    -0.1767 C.ar  1 <1>   0.0862 
 16 C        2.4249     1.3745    -0.3571 C.2   1 <1>   0.3976 
 17 O        2.4085     2.4423    -0.9562 O.2   1 <1>  -0.5700 
 18 C        4.8268    -1.4792     0.2326 C.ar  1 <1>  -0.1500 
 19 H        4.7662    -2.5432     0.4597 H     1 <1>   0.1500 
 20 C        6.0788    -0.8756     0.0725 C.ar  1 <1>  -0.1435 
 21 C        7.3314    -1.6919     0.2533 C.3   1 <1>   0.4235 
 22 H1       7.6252    -1.6834     1.3079 H     1 <1>   0.0000 
 23 O        8.4010    -1.1685    -0.5238 O.3   1 <1>  -0.6800 
 24 H        9.1631    -1.7565    -0.3861 H     1 <1>   0.4000 
 25 H3       7.1631    -2.7258    -0.0661 H     1 <1>   0.0000 
 26 C        6.1281     0.5001    -0.1832 C.ar  1 <1>  -0.1500 
 27 H        7.0995     0.9810    -0.2796 H     1 <1>   0.1500 
 28 C        4.9504     1.2472    -0.3113 C.ar  1 <1>   0.0825 
 29 O        5.0570     2.5910    -0.5386 O.3   1 <1>  -0.5325 
 30 H        5.9840     2.8278    -0.7032 H     1 <1>   0.4500 
@<TRIPOS>BOND
  1   1   2  ar  
  2   1  11  ar  
  3   1  16  1   
  4   2   3  1   
  5   2   5  ar  
  6   3   4  1   
  7   5   6  1   
  8   5   7  ar  
  9   7   8  1   
 10   7   9  ar  
 11   9  10  1   
 12   9  11  ar  
 13  11  12  1   
 14  12  13  2   
 15  12  14  1   
 16  14  15  ar  
 17  14  18  ar  
 18  15  16  1   
 19  15  28  ar  
 20  16  17  2   
 21  18  19  1   
 22  18  20  ar  
 23  20  21  1   
 24  20  26  ar  
 25  21  22  1   
 26  21  23  1   
 27  21  25  1   
 28  23  24  1   
 29  26  27  1   
 30  26  28  ar  
 31  28  29  1   
 32  29  30  1   
@<TRIPOS>SUBSTRUCTURE
  1 <1>   0 RESIDUE 1 * * 1
# MOE 2007.09 (io_trps.svl 2007.09)
