@<TRIPOS>MOLECULE
J08_71
41 42 1 0 0 
SMALL
USER_CHARGES


@<TRIPOS>ATOM
  1 C        1.1347     0.8505     0.5298 C.ar  1 <1>   0.0284 
  2 C        2.5021     1.3676     0.6509 C.2   1 <1>  -0.1784 
  3 H        2.5912     2.4170     0.9250 H     1 <1>   0.1500 
  4 C        3.5895     0.6117     0.4607 C.2   1 <1>  -0.1356 
  5 H        3.5224    -0.4418     0.2152 H     1 <1>   0.1500 
  6 C        4.9290     1.2189     0.5914 C.2   1 <1>   0.5412 
  7 C        6.0684     0.2982     0.3847 C.2   1 <1>  -0.1356 
  8 H        5.8650    -0.7473     0.1871 H     1 <1>   0.1500 
  9 C        7.3210     0.7772     0.4401 C.2   1 <1>   0.0767 
 10 O        7.6020     2.1097     0.6885 O.3   1 <1>  -0.5267 
 11 H        6.7383     2.5725     0.8146 H     1 <1>   0.4500 
 12 C        8.4831    -0.0686     0.2430 C.2   1 <1>  -0.1500 
 13 H        8.2841    -1.1227     0.0647 H     1 <1>   0.1500 
 14 C        9.7512     0.3692     0.2492 C.2   1 <1>  -0.1784 
 15 H        9.9686     1.4252     0.3936 H     1 <1>   0.1500 
 16 C       10.9156    -0.4945     0.0319 C.ar  1 <1>   0.0284 
 17 O        5.1209     2.4059     0.8444 O.2   1 <1>  -0.5700 
 18 C        0.7563     0.0116    -0.5299 C.ar  1 <1>  -0.1500 
 19 H        1.4808    -0.2797    -1.2840 H     1 <1>   0.1500 
 20 C       -0.5593    -0.4305    -0.6151 C.ar  1 <1>   0.0825 
 21 O       -0.9880    -1.2526    -1.6206 O.3   1 <1>  -0.5325 
 22 H       -0.2381    -1.4325    -2.2139 H     1 <1>   0.4500 
 23 C       -1.5010    -0.0403     0.3324 C.ar  1 <1>   0.0825 
 24 O       -2.7865    -0.4892     0.2242 O.3   1 <1>  -0.5325 
 25 H       -2.7726    -1.0459    -0.5807 H     1 <1>   0.4500 
 26 C       -1.1508     0.8008     1.3763 C.ar  1 <1>  -0.1500 
 27 H       -1.8937     1.1050     2.1072 H     1 <1>   0.1500 
 28 C        0.1691     1.2517     1.4705 C.ar  1 <1>  -0.1500 
 29 H        0.4407     1.9136     2.2905 H     1 <1>   0.1500 
 30 C       11.0365    -1.7533     0.6464 C.ar  1 <1>  -0.1500 
 31 H       10.2499    -2.1250     1.2996 H     1 <1>   0.1500 
 32 C       12.1735    -2.5445     0.4458 C.ar  1 <1>  -0.1500 
 33 H       12.2418    -3.5128     0.9313 H     1 <1>   0.1500 
 34 C       13.1930    -2.0655    -0.3658 C.ar  1 <1>   0.0825 
 35 O       14.3324    -2.7814    -0.6069 O.3   1 <1>  -0.5325 
 36 H       14.2676    -3.6221    -0.1220 H     1 <1>   0.4500 
 37 C       13.0862    -0.8149    -0.9657 C.ar  1 <1>   0.0825 
 38 O       14.1033    -0.3602    -1.7564 O.3   1 <1>  -0.5325 
 39 H       14.7645    -1.0821    -1.7354 H     1 <1>   0.4500 
 40 C       11.9631    -0.0225    -0.7707 C.ar  1 <1>  -0.1500 
 41 H       11.9079     0.9510    -1.2500 H     1 <1>   0.1500 
@<TRIPOS>BOND
  1   1   2  1   
  2   1  18  ar  
  3   1  28  ar  
  4   2   3  1   
  5   2   4  2   
  6   4   5  1   
  7   4   6  1   
  8   6   7  1   
  9   6  17  2   
 10   7   8  1   
 11   7   9  2   
 12   9  10  1   
 13   9  12  1   
 14  10  11  1   
 15  12  13  1   
 16  12  14  2   
 17  14  15  1   
 18  14  16  1   
 19  16  30  ar  
 20  16  40  ar  
 21  18  19  1   
 22  18  20  ar  
 23  20  21  1   
 24  20  23  ar  
 25  21  22  1   
 26  23  24  1   
 27  23  26  ar  
 28  24  25  1   
 29  26  27  1   
 30  26  28  ar  
 31  28  29  1   
 32  30  31  1   
 33  30  32  ar  
 34  32  33  1   
 35  32  34  ar  
 36  34  35  1   
 37  34  37  ar  
 38  35  36  1   
 39  37  38  1   
 40  37  40  ar  
 41  38  39  1   
 42  40  41  1   
@<TRIPOS>SUBSTRUCTURE
  1 <1>   0 RESIDUE 1 * * 1
# MOE 2007.09 (io_trps.svl 2007.09)
