@<TRIPOS>MOLECULE
J08_35
39 39 1 0 0 
SMALL
USER_CHARGES


@<TRIPOS>ATOM
  1 C        1.7320    -0.6756    -0.6811 C.3   1 <1>   0.5100 
  2 S        3.5186    -0.4322    -0.9399 S.3   1 <1>  -0.3710 
  3 C        3.9532     0.2761     0.6062 C.2   1 <1>   0.5300 
  4 C        4.1455     1.7792     0.6275 C.3   1 <1>   0.1992 
  5 C        5.5882     2.1091     0.3702 C.2   1 <1>  -0.2882 
  6 H        5.9666     1.9215    -0.6333 H     1 <1>   0.1500 
  7 C        6.4174     2.6279     1.2851 C.2   1 <1>  -0.3000 
  8 H1       7.4512     2.8503     1.0375 H     1 <1>   0.1500 
  9 H2       6.0885     2.8336     2.2990 H     1 <1>   0.1500 
 10 H2       3.8053     2.1786     1.5892 H     1 <1>   0.0000 
 11 H3       3.5265     2.2542    -0.1419 H     1 <1>   0.0000 
 12 N        4.0989    -0.5476     1.5982 N.2   1 <1>  -0.5130 
 13 O        4.4642     0.1264     2.7657 O.3   1 <1>   0.0560 
 14 H2       1.3260    -0.7659    -1.6965 H     1 <1>   0.0000 
 15 O        1.1260     0.4657    -0.0635 O.3   1 <1>  -0.5600 
 16 C       -0.3142     0.4048    -0.0699 C.3   1 <1>   0.2800 
 17 H1      -0.6519     0.3994    -1.1150 H     1 <1>   0.0000 
 18 C       -0.8399     1.6842     0.5930 C.3   1 <1>   0.2800 
 19 O       -0.5777     2.8063    -0.2487 O.3   1 <1>  -0.6800 
 20 H       -0.8558     3.6014     0.2374 H     1 <1>   0.4000 
 21 H2      -0.3382     1.8590     1.5506 H     1 <1>   0.0000 
 22 H3      -1.9210     1.6398     0.7514 H     1 <1>   0.0000 
 23 C       -0.8154    -0.8553     0.6616 C.3   1 <1>   0.2800 
 24 O       -2.2292    -1.0290     0.5148 O.3   1 <1>  -0.6800 
 25 H       -2.6722    -0.4565     1.1657 H     1 <1>   0.4000 
 26 H2      -0.6003    -0.8014     1.7361 H     1 <1>   0.0000 
 27 C       -0.1420    -2.1019     0.0688 C.3   1 <1>   0.2800 
 28 H1      -0.4732    -2.2420    -0.9682 H     1 <1>   0.0000 
 29 O       -0.5786    -3.2656     0.7776 O.3   1 <1>  -0.6800 
 30 H       -1.5462    -3.1614     0.8632 H     1 <1>   0.4000 
 31 C        1.3859    -1.9571     0.1096 C.3   1 <1>   0.2800 
 32 H1       1.8577    -2.8479    -0.3197 H     1 <1>   0.0000 
 33 O        1.7838    -1.8734     1.4853 O.3   1 <1>  -0.6800 
 34 H        2.7357    -1.6374     1.5245 H     1 <1>   0.4000 
 35 S        4.6054    -1.0609     3.9212 S.3   1 <1>   0.0140 
 36 O        6.2541    -1.2277     3.7680 O.3   1 <1>  -0.0070 
 37 O        6.8190    -0.4537     4.8579 O.3   1 <1>   0.0000 
 38 O        7.4407    -1.4299     5.7352 O.3   1 <1>  -0.6550 
 39 K        5.7320    -2.2744     6.9799 K     1 <1>   0.6550 
@<TRIPOS>BOND
  1   1   2  1   
  2   1  14  1   
  3   1  15  1   
  4   1  31  1   
  5   2   3  1   
  6   3   4  1   
  7   3  12  2   
  8   4   5  1   
  9   4  10  1   
 10   4  11  1   
 11   5   6  1   
 12   5   7  2   
 13   7   8  1   
 14   7   9  1   
 15  12  13  1   
 16  13  35  1   
 17  15  16  1   
 18  16  17  1   
 19  16  18  1   
 20  16  23  1   
 21  18  19  1   
 22  18  21  1   
 23  18  22  1   
 24  19  20  1   
 25  23  24  1   
 26  23  26  1   
 27  23  27  1   
 28  24  25  1   
 29  27  28  1   
 30  27  29  1   
 31  27  31  1   
 32  29  30  1   
 33  31  32  1   
 34  31  33  1   
 35  33  34  1   
 36  35  36  1   
 37  36  37  1   
 38  37  38  1   
 39  38  39  1   
@<TRIPOS>SUBSTRUCTURE
  1 <1>   0 RESIDUE 1 * * 1
# MOE 2007.09 (io_trps.svl 2007.09)
