@<TRIPOS>MOLECULE
J12_04
27 27 1 0 0 
SMALL
USER_CHARGES


@<TRIPOS>ATOM
  1 C        1.2012     0.7711     0.0787 C.2   1 <1>  -0.1356 
  2 H        2.1302     1.3279     0.1230 H     1 <1>   0.1500 
  3 C        0.0242     1.3465    -0.1971 C.2   1 <1>  -0.2764 
  4 C       -0.0804     2.8143    -0.4974 C.3   1 <1>   0.1382 
  5 H1       0.8960     3.3100    -0.4798 H     1 <1>   0.0000 
  6 H2      -0.7191     3.3093     0.2413 H     1 <1>   0.0000 
  7 H3      -0.5138     2.9674    -1.4911 H     1 <1>   0.0000 
  8 C       -1.2686     0.5776    -0.2226 C.3   1 <1>   0.1382 
  9 H1      -1.5768     0.4426    -1.2667 H     1 <1>   0.0000 
 10 H2      -2.0570     1.1558     0.2744 H     1 <1>   0.0000 
 11 C       -1.1683    -0.7850     0.4662 C.3   1 <1>   0.0000 
 12 H1      -2.0829    -1.3410     0.2331 H     1 <1>   0.0000 
 13 H2      -1.1442    -0.6402     1.5546 H     1 <1>   0.0000 
 14 C        0.0799    -1.5602     0.0183 C.3   1 <1>   0.0610 
 15 H1       0.0406    -1.6858    -1.0726 H     1 <1>   0.0000 
 16 C        0.2134    -2.9646     0.6773 C.3   1 <1>   0.0000 
 17 C        1.1646    -3.8591    -0.1348 C.3   1 <1>   0.0000 
 18 H1       1.2983    -4.8285     0.3578 H     1 <1>   0.0000 
 19 H2       2.1564    -3.4129    -0.2451 H     1 <1>   0.0000 
 20 H3       0.7677    -4.0457    -1.1389 H     1 <1>   0.0000 
 21 C       -1.1193    -3.7060     0.8335 C.3   1 <1>   0.0000 
 22 H1      -1.7754    -3.1997     1.5484 H     1 <1>   0.0000 
 23 H2      -0.9589    -4.7202     1.2162 H     1 <1>   0.0000 
 24 H3      -1.6434    -3.7877    -0.1247 H     1 <1>   0.0000 
 25 H3       0.6411    -2.8489     1.6821 H     1 <1>   0.0000 
 26 C        1.3048    -0.6858     0.3216 C.2   1 <1>   0.4946 
 27 O        2.3819    -1.1307     0.7029 O.2   1 <1>  -0.5700 
@<TRIPOS>BOND
  1   1   2  1   
  2   1   3  2   
  3   1  26  1   
  4   3   4  1   
  5   3   8  1   
  6   4   5  1   
  7   4   6  1   
  8   4   7  1   
  9   8   9  1   
 10   8  10  1   
 11   8  11  1   
 12  11  12  1   
 13  11  13  1   
 14  11  14  1   
 15  14  15  1   
 16  14  16  1   
 17  14  26  1   
 18  16  17  1   
 19  16  21  1   
 20  16  25  1   
 21  17  18  1   
 22  17  19  1   
 23  17  20  1   
 24  21  22  1   
 25  21  23  1   
 26  21  24  1   
 27  26  27  2   
@<TRIPOS>SUBSTRUCTURE
  1 <1>   0 RESIDUE 1 * * 1
# MOE 2007.09 (io_trps.svl 2007.09)
