@<TRIPOS>MOLECULE
J13_05
46 49 1 0 0 
SMALL
USER_CHARGES


@<TRIPOS>ATOM
  1 C        1.2951     0.5973     0.7651 C.ar  1 <1>  -0.1435 
  2 C        0.0525     1.1550     1.1064 C.ar  1 <1>  -0.1500 
  3 H       -0.1831     2.1816     0.8357 H     1 <1>   0.1500 
  4 C       -0.8921     0.3983     1.8004 C.ar  1 <1>  -0.1500 
  5 H       -1.8504     0.8367     2.0675 H     1 <1>   0.1500 
  6 C       -0.6070    -0.9185     2.1550 C.ar  1 <1>  -0.1500 
  7 H       -1.3410    -1.5073     2.6992 H     1 <1>   0.1500 
  8 C        0.6244    -1.4806     1.8135 C.ar  1 <1>  -0.1500 
  9 H        0.8470    -2.5078     2.0900 H     1 <1>   0.1500 
 10 C        1.5845    -0.7358     1.1207 C.ar  1 <1>   0.1790 
 11 N        2.8171    -1.3540     0.8226 N.2   1 <1>  -0.6290 
 12 C        3.6895    -0.6115     0.2249 C.2   1 <1>   0.4390 
 13 N        3.5349     0.6921    -0.1642 N.pl3 1 <1>  -0.7882 
 14 C        2.3114     1.4264     0.0181 C.3   1 <1>   0.5126 
 15 H1       2.5147     2.3425     0.5844 H     1 <1>   0.0000 
 16 H2       1.9008     1.7025    -0.9597 H     1 <1>   0.0000 
 17 C        5.0817    -1.0957    -0.1289 C.3   1 <1>   0.2045 
 18 C        5.1611    -2.0113    -1.3330 C.ar  1 <1>  -0.1435 
 19 H2       5.5018    -1.6003     0.7500 H     1 <1>   0.0000 
 20 C        5.8017     0.2531    -0.3664 C.3   1 <1>   0.0000 
 21 H1       6.6171     0.2030    -1.0954 H     1 <1>   0.0000 
 22 H2       6.2332     0.5929     0.5847 H     1 <1>   0.0000 
 23 C        4.7100     1.2476    -0.7891 C.3   1 <1>   0.3691 
 24 H1       4.5916     1.2646    -1.8774 H     1 <1>   0.0000 
 25 H2       4.9345     2.2588    -0.4363 H     1 <1>   0.0000 
 26 C        4.3410    -1.8653    -2.4603 C.ar  1 <1>  -0.1500 
 27 H        3.5805    -1.0874    -2.4606 H     1 <1>   0.1500 
 28 C        4.4894    -2.7014    -3.5865 C.ar  1 <1>   0.0862 
 29 C        5.4744    -3.7183    -3.6017 C.ar  1 <1>   0.1000 
 30 N        5.6344    -4.5427    -4.7059 N.pl3 1 <1>  -0.8691 
 31 H1       4.9950    -4.3715    -5.4917 H     1 <1>   0.4000 
 32 C        6.6071    -5.5983    -4.8329 C.3   1 <1>   0.3691 
 33 H1       6.5022    -6.0774    -5.8113 H     1 <1>   0.0000 
 34 H2       6.4581    -6.3675    -4.0685 H     1 <1>   0.0000 
 35 H3       7.6270    -5.2070    -4.7622 H     1 <1>   0.0000 
 36 C        6.2823    -3.8530    -2.4636 C.ar  1 <1>  -0.1500 
 37 H        7.0544    -4.6162    -2.4211 H     1 <1>   0.1500 
 38 C        6.1341    -3.0154    -1.3531 C.ar  1 <1>  -0.1500 
 39 H        6.7968    -3.1563    -0.5011 H     1 <1>   0.1500 
 40 C        3.6206    -2.5141    -4.7746 C.2   1 <1>   0.6338 
 41 O        3.6946    -3.2070    -5.7841 O.2   1 <1>  -0.5700 
 42 O        2.7539    -1.4821    -4.5943 O.3   1 <1>  -0.4300 
 43 C        1.8859    -1.2377    -5.7032 C.3   1 <1>   0.2800 
 44 H1       1.2388    -0.3943    -5.4470 H     1 <1>   0.0000 
 45 H2       1.2570    -2.1122    -5.8966 H     1 <1>   0.0000 
 46 H3       2.4668    -0.9725    -6.5921 H     1 <1>   0.0000 
@<TRIPOS>BOND
  1   1   2  ar  
  2   1  10  ar  
  3   1  14  1   
  4   2   3  1   
  5   2   4  ar  
  6   4   5  1   
  7   4   6  ar  
  8   6   7  1   
  9   6   8  ar  
 10   8   9  1   
 11   8  10  ar  
 12  10  11  1   
 13  11  12  2   
 14  12  13  1   
 15  12  17  1   
 16  13  14  1   
 17  13  23  1   
 18  14  15  1   
 19  14  16  1   
 20  17  18  1   
 21  17  19  1   
 22  17  20  1   
 23  18  26  ar  
 24  18  38  ar  
 25  20  21  1   
 26  20  22  1   
 27  20  23  1   
 28  23  24  1   
 29  23  25  1   
 30  26  27  1   
 31  26  28  ar  
 32  28  29  ar  
 33  28  40  1   
 34  29  30  1   
 35  29  36  ar  
 36  30  31  1   
 37  30  32  1   
 38  32  33  1   
 39  32  34  1   
 40  32  35  1   
 41  36  37  1   
 42  36  38  ar  
 43  38  39  1   
 44  40  41  2   
 45  40  42  1   
 46  42  43  1   
 47  43  44  1   
 48  43  45  1   
 49  43  46  1   
@<TRIPOS>SUBSTRUCTURE
  1 <1>   0 RESIDUE 1 * * 1
# MOE 2007.09 (io_trps.svl 2007.09)
