@<TRIPOS>MOLECULE
J14_10
24 26 1 0 0 
SMALL
USER_CHARGES


@<TRIPOS>ATOM
  1 C        1.2963     0.7230    -0.0360 C.ar  1 <1>   0.0000 
  2 C        0.1116     1.4549     0.0320 C.ar  1 <1>  -0.1516 
  3 C       -1.1532     0.8589    -0.0423 C.ar  1 <1>  -0.1500 
  4 H       -2.0634     1.4473     0.0127 H     1 <1>   0.1500 
  5 C       -1.2065    -0.5303    -0.1911 C.ar  1 <1>  -0.1500 
  6 H       -2.1736    -1.0243    -0.2520 H     1 <1>   0.1500 
  7 C       -0.0409    -1.2900    -0.2623 C.ar  1 <1>  -0.1500 
  8 H       -0.1059    -2.3691    -0.3780 H     1 <1>   0.1500 
  9 C        1.2156    -0.6776    -0.1862 C.ar  1 <1>  -0.1500 
 10 H        2.1177    -1.2797    -0.2428 H     1 <1>   0.1500 
 11 C        2.3799     1.6523     0.0724 C.ar  1 <1>   0.0000 
 12 C        1.8292     2.9268     0.2035 C.ar  1 <1>  -0.1516 
 13 N        0.4612     2.7765     0.1759 N.pl3 1 <1>   0.0332 
 14 H       -0.2011     3.5351     0.2512 H     1 <1>   0.2700 
 15 C        3.7764     1.5239     0.0707 C.ar  1 <1>  -0.1500 
 16 H        4.2670     0.5634    -0.0275 H     1 <1>   0.1500 
 17 C        4.5043     2.6953     0.2017 C.ar  1 <1>   0.1600 
 18 H        5.5905     2.6705     0.2084 H     1 <1>   0.1500 
 19 N        3.9672     3.9282     0.3285 N.ar  1 <1>  -0.6200 
 20 C        2.6145     4.0786     0.3329 C.ar  1 <1>   0.1665 
 21 C        2.0638     5.4614     0.4754 C.3   1 <1>   0.1435 
 22 H1       2.8696     6.1972     0.5602 H     1 <1>   0.0000 
 23 H2       1.4418     5.5284     1.3732 H     1 <1>   0.0000 
 24 H3       1.4563     5.7168    -0.3981 H     1 <1>   0.0000 
@<TRIPOS>BOND
  1   1   2  ar  
  2   1   9  ar  
  3   1  11  1   
  4   2   3  ar  
  5   2  13  1   
  6   3   4  1   
  7   3   5  ar  
  8   5   6  1   
  9   5   7  ar  
 10   7   8  1   
 11   7   9  ar  
 12   9  10  1   
 13  11  12  ar  
 14  11  15  ar  
 15  12  13  1   
 16  12  20  ar  
 17  13  14  1   
 18  15  16  1   
 19  15  17  ar  
 20  17  18  1   
 21  17  19  ar  
 22  19  20  ar  
 23  20  21  1   
 24  21  22  1   
 25  21  23  1   
 26  21  24  1   
@<TRIPOS>SUBSTRUCTURE
  1 <1>   0 RESIDUE 1 * * 1
# MOE 2007.09 (io_trps.svl 2007.09)
