@<TRIPOS>MOLECULE
J14_21
45 47 1 0 0 
SMALL
USER_CHARGES


@<TRIPOS>ATOM
  1 C        1.4837     0.8884    -0.4048 C.ar  1 <1>   0.0000 
  2 C        0.6136     1.8938    -0.8459 C.ar  1 <1>  -0.1516 
  3 C       -0.4356     1.6452    -1.7394 C.ar  1 <1>  -0.1500 
  4 H       -1.1016     2.4373    -2.0670 H     1 <1>   0.1500 
  5 C       -0.6140     0.3324    -2.1845 C.ar  1 <1>  -0.1500 
  6 H       -1.4325     0.1052    -2.8636 H     1 <1>   0.1500 
  7 C        0.2365    -0.6895    -1.7676 C.ar  1 <1>  -0.1500 
  8 H        0.0599    -1.7033    -2.1166 H     1 <1>   0.1500 
  9 C        1.3071    -0.4211    -0.9021 C.ar  1 <1>   0.0825 
 10 O        2.1375    -1.4321    -0.4778 O.3   1 <1>  -0.3625 
 11 C        2.8567    -2.0633    -1.5508 C.3   1 <1>   0.2800 
 12 C        4.3326    -1.7017    -1.4199 C.3   1 <1>   0.0000 
 13 H1       4.9337    -2.2019    -2.1855 H     1 <1>   0.0000 
 14 H2       4.7206    -1.9770    -0.4330 H     1 <1>   0.0000 
 15 H3       4.4713    -0.6204    -1.5253 H     1 <1>   0.0000 
 16 H2       2.5090    -1.7459    -2.5425 H     1 <1>   0.0000 
 17 C        2.6573    -3.5688    -1.4163 C.3   1 <1>   0.0000 
 18 H1       1.5947    -3.8220    -1.4954 H     1 <1>   0.0000 
 19 H2       2.9931    -3.9244    -0.4358 H     1 <1>   0.0000 
 20 H3       3.2031    -4.1134    -2.1929 H     1 <1>   0.0000 
 21 C        2.3820     1.5088     0.5062 C.2   1 <1>  -0.1810 
 22 C        2.0753     2.8489     0.5647 C.2   1 <1>  -0.2366 
 23 N        0.9972     3.0737    -0.2407 N.pl3 1 <1>   0.0332 
 24 H        0.5407     3.9642    -0.3830 H     1 <1>   0.2700 
 25 C        3.4969     0.9746     1.3458 C.3   1 <1>   0.1810 
 26 C        2.9631     0.4026     2.6632 C.3   1 <1>   0.0000 
 27 H1       3.7790    -0.0137     3.2635 H     1 <1>   0.0000 
 28 H2       2.2417    -0.4011     2.4776 H     1 <1>   0.0000 
 29 H3       2.4574     1.1679     3.2629 H     1 <1>   0.0000 
 30 H2       3.9946     0.1593     0.8099 H     1 <1>   0.0000 
 31 C        4.5219     2.1122     1.6200 C.3   1 <1>   0.3070 
 32 H1       5.1416     1.8470     2.4864 H     1 <1>   0.0000 
 33 N        3.9263     3.4517     1.9350 N.2   1 <1>  -0.6960 
 34 C        2.8062     3.7730     1.3772 C.2   1 <1>   0.4750 
 35 H        2.3884     4.7786     1.5458 H     1 <1>   0.0600 
 36 C        5.4955     2.2091     0.4448 C.2   1 <1>   0.6590 
 37 O        6.3516     1.3572     0.2231 O.2   1 <1>  -0.5700 
 38 O        5.2741     3.2977    -0.3428 O.3   1 <1>  -0.4300 
 39 C        6.1312     3.4024    -1.4855 C.3   1 <1>   0.2800 
 40 C        5.7281     4.6388    -2.2647 C.3   1 <1>   0.0000 
 41 H1       6.3558     4.7635    -3.1514 H     1 <1>   0.0000 
 42 H2       5.8161     5.5339    -1.6400 H     1 <1>   0.0000 
 43 H3       4.6811     4.5718    -2.5787 H     1 <1>   0.0000 
 44 H2       6.0173     2.5138    -2.1165 H     1 <1>   0.0000 
 45 H3       7.1727     3.4922    -1.1574 H     1 <1>   0.0000 
@<TRIPOS>BOND
  1   1   2  ar  
  2   1   9  ar  
  3   1  21  1   
  4   2   3  ar  
  5   2  23  1   
  6   3   4  1   
  7   3   5  ar  
  8   5   6  1   
  9   5   7  ar  
 10   7   8  1   
 11   7   9  ar  
 12   9  10  1   
 13  10  11  1   
 14  11  12  1   
 15  11  16  1   
 16  11  17  1   
 17  12  13  1   
 18  12  14  1   
 19  12  15  1   
 20  17  18  1   
 21  17  19  1   
 22  17  20  1   
 23  21  22  2   
 24  21  25  1   
 25  22  23  1   
 26  22  34  1   
 27  23  24  1   
 28  25  26  1   
 29  25  30  1   
 30  25  31  1   
 31  26  27  1   
 32  26  28  1   
 33  26  29  1   
 34  31  32  1   
 35  31  33  1   
 36  31  36  1   
 37  33  34  2   
 38  34  35  1   
 39  36  37  2   
 40  36  38  1   
 41  38  39  1   
 42  39  40  1   
 43  39  44  1   
 44  39  45  1   
 45  40  41  1   
 46  40  42  1   
 47  40  43  1   
@<TRIPOS>SUBSTRUCTURE
  1 <1>   0 RESIDUE 1 * * 1
# MOE 2007.09 (io_trps.svl 2007.09)
