@<TRIPOS>MOLECULE
J14_14
28 30 1 0 0 
SMALL
USER_CHARGES


@<TRIPOS>ATOM
  1 C        1.3710     0.8019    -0.0206 C.ar  1 <1>   0.0000 
  2 C        0.1475     1.4668    -0.0096 C.ar  1 <1>  -0.1516 
  3 C       -1.0772     0.7957    -0.1108 C.ar  1 <1>  -0.1500 
  4 H       -2.0189     1.3360    -0.0998 H     1 <1>   0.1500 
  5 C       -1.0616    -0.6008    -0.2275 C.ar  1 <1>   0.0825 
  6 O       -2.3060    -1.1682    -0.3206 O.3   1 <1>  -0.3625 
  7 C       -2.3627    -2.5840    -0.4414 C.3   1 <1>   0.2800 
  8 H1      -3.4166    -2.8717    -0.5041 H     1 <1>   0.0000 
  9 H2      -1.9366    -3.0732     0.4407 H     1 <1>   0.0000 
 10 H3      -1.8707    -2.9223    -1.3593 H     1 <1>   0.0000 
 11 C        0.1507    -1.2907    -0.2410 C.ar  1 <1>  -0.1500 
 12 H        0.1914    -2.3716    -0.3303 H     1 <1>   0.1500 
 13 C        1.3697    -0.6028    -0.1386 C.ar  1 <1>  -0.1500 
 14 H        2.3052    -1.1550    -0.1507 H     1 <1>   0.1500 
 15 C        2.3972     1.7918     0.1001 C.ar  1 <1>   0.0000 
 16 C        1.7727     3.0363     0.1817 C.ar  1 <1>  -0.1516 
 17 N        0.4167     2.8090     0.1131 N.pl3 1 <1>   0.0332 
 18 H       -0.2892     3.5305     0.1479 H     1 <1>   0.2700 
 19 C        3.7976     1.7411     0.1472 C.ar  1 <1>  -0.1500 
 20 H        4.3435     0.8075     0.0888 H     1 <1>   0.1500 
 21 C        4.4549     2.9538     0.2734 C.ar  1 <1>   0.1600 
 22 H        5.5396     2.9893     0.3164 H     1 <1>   0.1500 
 23 N        3.8465     4.1570     0.3523 N.ar  1 <1>  -0.6200 
 24 C        2.4885     4.2327     0.3083 C.ar  1 <1>   0.1665 
 25 C        1.8587     5.5857     0.4000 C.3   1 <1>   0.1435 
 26 H1       2.6203     6.3675     0.4822 H     1 <1>   0.0000 
 27 H2       1.2129     5.6413     1.2816 H     1 <1>   0.0000 
 28 H3       1.2588     5.7836    -0.4934 H     1 <1>   0.0000 
@<TRIPOS>BOND
  1   1   2  ar  
  2   1  13  ar  
  3   1  15  1   
  4   2   3  ar  
  5   2  17  1   
  6   3   4  1   
  7   3   5  ar  
  8   5   6  1   
  9   5  11  ar  
 10   6   7  1   
 11   7   8  1   
 12   7   9  1   
 13   7  10  1   
 14  11  12  1   
 15  11  13  ar  
 16  13  14  1   
 17  15  16  ar  
 18  15  19  ar  
 19  16  17  1   
 20  16  24  ar  
 21  17  18  1   
 22  19  20  1   
 23  19  21  ar  
 24  21  22  1   
 25  21  23  ar  
 26  23  24  ar  
 27  24  25  1   
 28  25  26  1   
 29  25  27  1   
 30  25  28  1   
@<TRIPOS>SUBSTRUCTURE
  1 <1>   0 RESIDUE 1 * * 1
# MOE 2007.09 (io_trps.svl 2007.09)
