@<TRIPOS>MOLECULE
J14_18
29 31 1 0 0 
SMALL
USER_CHARGES


@<TRIPOS>ATOM
  1 C        1.3973     0.8168    -0.1033 C.ar  1 <1>   0.0000 
  2 C        0.1438     1.3809     0.1331 C.ar  1 <1>  -0.1516 
  3 C       -1.0517     0.7517    -0.2348 C.ar  1 <1>  -0.1500 
  4 H       -2.0168     1.2083    -0.0415 H     1 <1>   0.1500 
  5 C       -0.9618    -0.4935    -0.8641 C.ar  1 <1>  -0.1500 
  6 H       -1.8721    -1.0087    -1.1626 H     1 <1>   0.1500 
  7 C        0.2751    -1.0833    -1.1144 C.ar  1 <1>  -0.1500 
  8 H        0.3218    -2.0524    -1.6052 H     1 <1>   0.1500 
  9 C        1.4614    -0.4406    -0.7401 C.ar  1 <1>  -0.1500 
 10 H        2.4192    -0.9116    -0.9414 H     1 <1>   0.1500 
 11 C        2.3780     1.7294     0.4000 C.ar  1 <1>   0.0000 
 12 C        1.6966     2.8240     0.9289 C.ar  1 <1>  -0.1516 
 13 N        0.3530     2.5893     0.7559 N.pl3 1 <1>   0.0332 
 14 H       -0.3860     3.2150     1.0444 H     1 <1>   0.2700 
 15 C        3.7807     1.7256     0.4543 C.ar  1 <1>  -0.1500 
 16 H        4.3593     0.8986     0.0574 H     1 <1>   0.1500 
 17 C        4.3864     2.8334     1.0408 C.ar  1 <1>   0.3962 
 18 N        3.7096     3.8941     1.5523 N.ar  1 <1>  -0.6200 
 19 C        2.3582     3.9014     1.5027 C.ar  1 <1>   0.1600 
 20 H        1.8530     4.7635     1.9206 H     1 <1>   0.1500 
 21 C        5.8639     2.8662     1.1145 C.2   1 <1>   0.6338 
 22 O        6.5665     1.9626     0.6772 O.2   1 <1>  -0.5700 
 23 O        6.2589     4.0276     1.7214 O.3   1 <1>  -0.0500 
 24 N        7.7165     4.0980     1.8391 N.3   1 <1>  -0.7300 
 25 C        7.9591     4.3644     3.2489 C.3   1 <1>   0.2700 
 26 H1       9.0303     4.5114     3.4156 H     1 <1>   0.0000 
 27 H2       7.6373     3.5186     3.8646 H     1 <1>   0.0000 
 28 H3       7.4364     5.2668     3.5826 H     1 <1>   0.0000 
 29 H2       7.9199     4.9328     1.2899 H     1 <1>   0.3600 
@<TRIPOS>BOND
  1   1   2  ar  
  2   1   9  ar  
  3   1  11  1   
  4   2   3  ar  
  5   2  13  1   
  6   3   4  1   
  7   3   5  ar  
  8   5   6  1   
  9   5   7  ar  
 10   7   8  1   
 11   7   9  ar  
 12   9  10  1   
 13  11  12  ar  
 14  11  15  ar  
 15  12  13  1   
 16  12  19  ar  
 17  13  14  1   
 18  15  16  1   
 19  15  17  ar  
 20  17  18  ar  
 21  17  21  1   
 22  18  19  ar  
 23  19  20  1   
 24  21  22  2   
 25  21  23  1   
 26  23  24  1   
 27  24  25  1   
 28  24  29  1   
 29  25  26  1   
 30  25  27  1   
 31  25  28  1   
@<TRIPOS>SUBSTRUCTURE
  1 <1>   0 RESIDUE 1 * * 1
# MOE 2007.09 (io_trps.svl 2007.09)
