@<TRIPOS>MOLECULE
J18_23
20 20 1 0 0 
SMALL
USER_CHARGES


@<TRIPOS>ATOM
  1 C        1.1756     0.6954    -0.0139 C.ar  1 <1>   0.0284 
  2 C        2.4081     1.4696     0.1805 C.2   1 <1>  -0.1784 
  3 H        2.5931     2.2524    -0.5533 H     1 <1>   0.1500 
  4 C        3.2646     1.2819     1.1903 C.2   1 <1>  -0.1356 
  5 H        3.1186     0.5362     1.9619 H     1 <1>   0.1500 
  6 C        0.0644     1.3331    -0.5884 C.ar  1 <1>  -0.1500 
  7 H        0.1109     2.3876    -0.8535 H     1 <1>   0.1500 
  8 C       -1.1232     0.6324    -0.8228 C.ar  1 <1>  -0.1500 
  9 H       -1.9682     1.1534    -1.2628 H     1 <1>   0.1500 
 10 C       -1.1973    -0.7166    -0.4918 C.ar  1 <1>   0.0825 
 11 O       -2.3355    -1.4394    -0.7053 O.3   1 <1>  -0.5325 
 12 H       -3.0049    -0.8480    -1.0859 H     1 <1>   0.4500 
 13 C       -0.1041    -1.3710     0.0637 C.ar  1 <1>  -0.1500 
 14 H       -0.1706    -2.4270     0.3092 H     1 <1>   0.1500 
 15 C        1.0820    -0.6683     0.2977 C.ar  1 <1>  -0.1500 
 16 H        1.9300    -1.2065     0.7134 H     1 <1>   0.1500 
 17 C        4.4585     2.1247     1.2928 C.2   1 <1>   0.7056 
 18 O        4.7944     3.0269     0.5443 O.2   1 <1>  -0.5700 
 19 O        5.1829     1.7675     2.3698 O.3   1 <1>  -0.6500 
 20 H        5.9554     2.3701     2.3680 H     1 <1>   0.5000 
@<TRIPOS>BOND
  1   1   2  1   
  2   1   6  ar  
  3   1  15  ar  
  4   2   3  1   
  5   2   4  2   
  6   4   5  1   
  7   4  17  1   
  8   6   7  1   
  9   6   8  ar  
 10   8   9  1   
 11   8  10  ar  
 12  10  11  1   
 13  10  13  ar  
 14  11  12  1   
 15  13  14  1   
 16  13  15  ar  
 17  15  16  1   
 18  17  18  2   
 19  17  19  1   
 20  19  20  1   
@<TRIPOS>SUBSTRUCTURE
  1 <1>   0 RESIDUE 1 * * 1
# MOE 2007.09 (io_trps.svl 2007.09)
