@<TRIPOS>MOLECULE
J18_02
35 37 1 0 0 
SMALL
USER_CHARGES


@<TRIPOS>ATOM
  1 C        0.8818     0.5149    -0.8010 C.ar  1 <1>   0.0825 
  2 C       -0.2984     0.8149    -1.4883 C.ar  1 <1>  -0.1500 
  3 H       -0.4256     1.8064    -1.9121 H     1 <1>   0.1500 
  4 C       -1.2882    -0.1539    -1.6132 C.ar  1 <1>   0.0825 
  5 O       -2.4536     0.0993    -2.2758 O.3   1 <1>  -0.5325 
  6 H       -2.4239     1.0016    -2.6354 H     1 <1>   0.4500 
  7 C       -1.1223    -1.4166    -1.0585 C.ar  1 <1>  -0.1500 
  8 H       -1.9142    -2.1508    -1.1666 H     1 <1>   0.1500 
  9 C        0.0573    -1.7076    -0.3755 C.ar  1 <1>   0.0825 
 10 O        0.2354    -2.9440     0.1836 O.3   1 <1>  -0.5325 
 11 H       -0.5431    -3.4930    -0.0095 H     1 <1>   0.4500 
 12 C        1.0777    -0.7537    -0.2473 C.ar  1 <1>  -0.1435 
 13 C        2.3379    -1.0629     0.5063 C.3   1 <1>   0.1435 
 14 H1       2.6279    -2.1073     0.3425 H     1 <1>   0.0000 
 15 H2       2.1436    -0.9264     1.5765 H     1 <1>   0.0000 
 16 C        3.4730    -0.1523     0.0547 C.3   1 <1>   0.2800 
 17 H        4.3217    -0.2573     0.7409 H     1 <1>   0.0000 
 18 O        3.9613    -0.5714    -1.2304 O.3   1 <1>  -0.6800 
 19 H        4.1544    -1.5241    -1.1854 H     1 <1>   0.4000 
 20 C        3.0248     1.3179    -0.0364 C.3   1 <1>   0.4235 
 21 H        3.7519     1.8383    -0.6752 H     1 <1>   0.0000 
 22 C        3.0551     2.0298     1.3110 C.ar  1 <1>  -0.1435 
 23 O        1.7773     1.5431    -0.7150 O.3   1 <1>  -0.3625 
 24 C        1.9161     2.1386     2.1243 C.ar  1 <1>  -0.1500 
 25 H        0.9645     1.7208     1.8038 H     1 <1>   0.1500 
 26 C        1.9757     2.7923     3.3595 C.ar  1 <1>  -0.1500 
 27 H        1.0742     2.8621     3.9609 H     1 <1>   0.1500 
 28 C        3.1789     3.3433     3.7949 C.ar  1 <1>   0.0825 
 29 O        3.2484     3.9880     4.9992 O.3   1 <1>  -0.5325 
 30 H        2.3767     3.9554     5.4239 H     1 <1>   0.4500 
 31 C        4.3210     3.2396     3.0028 C.ar  1 <1>   0.0825 
 32 O        5.4971     3.7837     3.4421 O.3   1 <1>  -0.5325 
 33 H        6.1901     3.6094     2.7864 H     1 <1>   0.4500 
 34 C        4.2645     2.5853     1.7699 C.ar  1 <1>  -0.1500 
 35 H        5.1568     2.5074     1.1534 H     1 <1>   0.1500 
@<TRIPOS>BOND
  1   1   2  ar  
  2   1  12  ar  
  3   1  23  1   
  4   2   3  1   
  5   2   4  ar  
  6   4   5  1   
  7   4   7  ar  
  8   5   6  1   
  9   7   8  1   
 10   7   9  ar  
 11   9  10  1   
 12   9  12  ar  
 13  10  11  1   
 14  12  13  1   
 15  13  14  1   
 16  13  15  1   
 17  13  16  1   
 18  16  17  1   
 19  16  18  1   
 20  16  20  1   
 21  18  19  1   
 22  20  21  1   
 23  20  22  1   
 24  20  23  1   
 25  22  24  ar  
 26  22  34  ar  
 27  24  25  1   
 28  24  26  ar  
 29  26  27  1   
 30  26  28  ar  
 31  28  29  1   
 32  28  31  ar  
 33  29  30  1   
 34  31  32  1   
 35  31  34  ar  
 36  32  33  1   
 37  34  35  1   
@<TRIPOS>SUBSTRUCTURE
  1 <1>   0 RESIDUE 1 * * 1
# MOE 2007.09 (io_trps.svl 2007.09)
