JBB4_0009
  -OEChem-04162408212D

 58 59  0     0  0  0  0  0  0999 V2000
    8.9282    4.9050    0.0000 O   0  0  0  0  0  0  0  0  0  0  0  0
    8.0622    6.4050    0.0000 O   0  0  0  0  0  0  0  0  0  0  0  0
    3.7320    0.9050    0.0000 O   0  0  0  0  0  0  0  0  0  0  0  0
    7.1962    0.9050    0.0000 O   0  0  0  0  0  0  0  0  0  0  0  0
    2.8660   -0.5950    0.0000 O   0  0  0  0  0  0  0  0  0  0  0  0
    2.8660   -6.5950    0.0000 O   0  0  0  0  0  0  0  0  0  0  0  0
    7.1962    3.9050    0.0000 C   0  0  0  0  0  0  0  0  0  0  0  0
    7.1962    4.9050    0.0000 C   0  0  0  0  0  0  0  0  0  0  0  0
    6.3301    3.4050    0.0000 C   0  0  0  0  0  0  0  0  0  0  0  0
    8.0622    5.4050    0.0000 C   0  0  0  0  0  0  0  0  0  0  0  0
    5.4641    1.9050    0.0000 C   0  0  0  0  0  0  0  0  0  0  0  0
    6.3301    2.4050    0.0000 C   0  0  0  0  0  0  0  0  0  0  0  0
    5.4641    0.9050    0.0000 C   0  0  0  0  0  0  0  0  0  0  0  0
    5.4641    3.9050    0.0000 C   0  0  0  0  0  0  0  0  0  0  0  0
    4.5981    0.4050    0.0000 C   0  0  0  0  0  0  0  0  0  0  0  0
    6.3301    0.4050    0.0000 C   0  0  0  0  0  0  0  0  0  0  0  0
    4.5981   -0.5950    0.0000 C   0  0  0  0  0  0  0  0  0  0  0  0
    6.3301   -0.5950    0.0000 C   0  0  0  0  0  0  0  0  0  0  0  0
    5.4641   -1.0950    0.0000 C   0  0  0  0  0  0  0  0  0  0  0  0
    3.7320   -1.0950    0.0000 C   0  0  0  0  0  0  0  0  0  0  0  0
    9.7942    5.4050    0.0000 C   0  0  0  0  0  0  0  0  0  0  0  0
    8.9282    6.9050    0.0000 C   0  0  0  0  0  0  0  0  0  0  0  0
    3.7320   -2.0950    0.0000 C   0  0  0  0  0  0  0  0  0  0  0  0
    2.8660   -2.5950    0.0000 C   0  0  0  0  0  0  0  0  0  0  0  0
    2.8660   -3.5950    0.0000 C   0  0  0  0  0  0  0  0  0  0  0  0
    3.7320   -4.0950    0.0000 C   0  0  0  0  0  0  0  0  0  0  0  0
    2.0000   -4.0950    0.0000 C   0  0  0  0  0  0  0  0  0  0  0  0
    3.7320   -5.0950    0.0000 C   0  0  0  0  0  0  0  0  0  0  0  0
    2.0000   -5.0950    0.0000 C   0  0  0  0  0  0  0  0  0  0  0  0
    2.8660   -5.5950    0.0000 C   0  0  0  0  0  0  0  0  0  0  0  0
    7.4082    3.3224    0.0000 H   0  0  0  0  0  0  0  0  0  0  0  0
    7.8067    4.0127    0.0000 H   0  0  0  0  0  0  0  0  0  0  0  0
    6.9841    5.4876    0.0000 H   0  0  0  0  0  0  0  0  0  0  0  0
    6.5856    4.7973    0.0000 H   0  0  0  0  0  0  0  0  0  0  0  0
    8.0622    4.7850    0.0000 H   0  0  0  0  0  0  0  0  0  0  0  0
    5.2520    2.4876    0.0000 H   0  0  0  0  0  0  0  0  0  0  0  0
    4.8535    1.7973    0.0000 H   0  0  0  0  0  0  0  0  0  0  0  0
    6.8671    2.0950    0.0000 H   0  0  0  0  0  0  0  0  0  0  0  0
    5.7741    4.4419    0.0000 H   0  0  0  0  0  0  0  0  0  0  0  0
    4.9272    4.2150    0.0000 H   0  0  0  0  0  0  0  0  0  0  0  0
    5.1541    3.3681    0.0000 H   0  0  0  0  0  0  0  0  0  0  0  0
    6.8671   -0.9050    0.0000 H   0  0  0  0  0  0  0  0  0  0  0  0
    5.4641   -1.7150    0.0000 H   0  0  0  0  0  0  0  0  0  0  0  0
   10.1042    4.8681    0.0000 H   0  0  0  0  0  0  0  0  0  0  0  0
   10.3312    5.7150    0.0000 H   0  0  0  0  0  0  0  0  0  0  0  0
    9.4842    5.9419    0.0000 H   0  0  0  0  0  0  0  0  0  0  0  0
    9.2382    6.3681    0.0000 H   0  0  0  0  0  0  0  0  0  0  0  0
    9.4651    7.2150    0.0000 H   0  0  0  0  0  0  0  0  0  0  0  0
    8.6182    7.4419    0.0000 H   0  0  0  0  0  0  0  0  0  0  0  0
    3.7320    1.5250    0.0000 H   0  0  0  0  0  0  0  0  0  0  0  0
    7.7331    0.5950    0.0000 H   0  0  0  0  0  0  0  0  0  0  0  0
    4.2690   -2.4050    0.0000 H   0  0  0  0  0  0  0  0  0  0  0  0
    2.3291   -2.2850    0.0000 H   0  0  0  0  0  0  0  0  0  0  0  0
    4.2690   -3.7850    0.0000 H   0  0  0  0  0  0  0  0  0  0  0  0
    1.4631   -3.7850    0.0000 H   0  0  0  0  0  0  0  0  0  0  0  0
    4.2690   -5.4050    0.0000 H   0  0  0  0  0  0  0  0  0  0  0  0
    1.4631   -5.4050    0.0000 H   0  0  0  0  0  0  0  0  0  0  0  0
    2.3291   -6.9050    0.0000 H   0  0  0  0  0  0  0  0  0  0  0  0
  1 10  1  0  0  0  0
  1 21  1  0  0  0  0
  2 10  1  0  0  0  0
  2 22  1  0  0  0  0
  3 15  1  0  0  0  0
  3 50  1  0  0  0  0
  4 16  1  0  0  0  0
  4 51  1  0  0  0  0
  5 20  2  0  0  0  0
  6 30  1  0  0  0  0
  6 58  1  0  0  0  0
  7  8  1  0  0  0  0
  7  9  1  0  0  0  0
  7 31  1  0  0  0  0
  7 32  1  0  0  0  0
  8 10  1  0  0  0  0
  8 33  1  0  0  0  0
  8 34  1  0  0  0  0
  9 12  2  0  0  0  0
  9 14  1  0  0  0  0
 10 35  1  0  0  0  0
 11 12  1  0  0  0  0
 11 13  1  0  0  0  0
 11 36  1  0  0  0  0
 11 37  1  0  0  0  0
 12 38  1  0  0  0  0
 13 15  1  0  0  0  0
 13 16  2  0  0  0  0
 14 39  1  0  0  0  0
 14 40  1  0  0  0  0
 14 41  1  0  0  0  0
 15 17  2  0  0  0  0
 16 18  1  0  0  0  0
 17 19  1  0  0  0  0
 17 20  1  0  0  0  0
 18 19  2  0  0  0  0
 18 42  1  0  0  0  0
 19 43  1  0  0  0  0
 20 23  1  0  0  0  0
 21 44  1  0  0  0  0
 21 45  1  0  0  0  0
 21 46  1  0  0  0  0
 22 47  1  0  0  0  0
 22 48  1  0  0  0  0
 22 49  1  0  0  0  0
 23 24  2  0  0  0  0
 23 52  1  0  0  0  0
 24 25  1  0  0  0  0
 24 53  1  0  0  0  0
 25 26  2  0  0  0  0
 25 27  1  0  0  0  0
 26 28  1  0  0  0  0
 26 54  1  0  0  0  0
 27 29  2  0  0  0  0
 27 55  1  0  0  0  0
 28 30  2  0  0  0  0
 28 56  1  0  0  0  0
 29 30  1  0  0  0  0
 29 57  1  0  0  0  0
M  END
> <PUBCHEM_COMPOUND_CID>
56666829

> <PUBCHEM_COMPOUND_CANONICALIZED>
1

> <PUBCHEM_CACTVS_COMPLEXITY>
574

> <PUBCHEM_CACTVS_HBOND_ACCEPTOR>
6

> <PUBCHEM_CACTVS_HBOND_DONOR>
3

> <PUBCHEM_CACTVS_ROTATABLE_BOND>
10

> <PUBCHEM_CACTVS_SUBSKEYS>
AAADceB4OAAAAAAAAAAAAAAAAAAAAAAAAAAwYAAAAAAAAAABQAAAGgAACAAADASwmAMyDoAABgCIAqBSAAACAAAkIAAIiAEGCMgYJzaCFRKgcUAl4BUImYeI7OTOIAACCAAIAABAAAQQABAAAAAAAAAAAA==

> <PUBCHEM_IUPAC_OPENEYE_NAME>
(E)-1-[3-[(E)-6,6-dimethoxy-3-methyl-hex-2-enyl]-2,4-dihydroxy-phenyl]-3-(4-hydroxyphenyl)prop-2-en-1-one

> <PUBCHEM_IUPAC_CAS_NAME>
(E)-1-[3-[(E)-6,6-dimethoxy-3-methylhex-2-enyl]-2,4-dihydroxyphenyl]-3-(4-hydroxyphenyl)-2-propen-1-one

> <PUBCHEM_IUPAC_NAME_MARKUP>
(<I>E</I>)-1-[3-[(<I>E</I>)-6,6-dimethoxy-3-methylhex-2-enyl]-2,4-dihydroxyphenyl]-3-(4-hydroxyphenyl)prop-2-en-1-one

> <PUBCHEM_IUPAC_NAME>
(E)-1-[3-[(E)-6,6-dimethoxy-3-methylhex-2-enyl]-2,4-dihydroxyphenyl]-3-(4-hydroxyphenyl)prop-2-en-1-one

> <PUBCHEM_IUPAC_SYSTEMATIC_NAME>
(E)-1-[3-[(E)-6,6-dimethoxy-3-methyl-hex-2-enyl]-2,4-bis(oxidanyl)phenyl]-3-(4-hydroxyphenyl)prop-2-en-1-one

> <PUBCHEM_IUPAC_TRADITIONAL_NAME>
(E)-1-[3-[(E)-6,6-dimethoxy-3-methyl-hex-2-enyl]-2,4-dihydroxy-phenyl]-3-(4-hydroxyphenyl)prop-2-en-1-one

> <PUBCHEM_IUPAC_INCHI>
InChI=1S/C24H28O6/c1-16(5-15-23(29-2)30-3)4-11-19-22(27)14-12-20(24(19)28)21(26)13-8-17-6-9-18(25)10-7-17/h4,6-10,12-14,23,25,27-28H,5,11,15H2,1-3H3/b13-8+,16-4+

> <PUBCHEM_IUPAC_INCHIKEY>
ADTPLEJVNULKHA-BJRVJWNUSA-N

> <PUBCHEM_XLOGP3_AA>
5.2

> <PUBCHEM_EXACT_MASS>
412.18858861

> <PUBCHEM_MOLECULAR_FORMULA>
C24H28O6

> <PUBCHEM_MOLECULAR_WEIGHT>
412.5

> <PUBCHEM_OPENEYE_CAN_SMILES>
CC(=CCC1=C(C=CC(=C1O)C(=O)C=CC2=CC=C(C=C2)O)O)CCC(OC)OC

> <PUBCHEM_OPENEYE_ISO_SMILES>
C/C(=C\CC1=C(C=CC(=C1O)C(=O)/C=C/C2=CC=C(C=C2)O)O)/CCC(OC)OC

> <PUBCHEM_CACTVS_TPSA>
96.2

> <PUBCHEM_MONOISOTOPIC_WEIGHT>
412.18858861

> <PUBCHEM_TOTAL_CHARGE>
0

> <PUBCHEM_HEAVY_ATOM_COUNT>
30

> <PUBCHEM_ATOM_DEF_STEREO_COUNT>
0

> <PUBCHEM_ATOM_UDEF_STEREO_COUNT>
0

> <PUBCHEM_BOND_DEF_STEREO_COUNT>
2

> <PUBCHEM_BOND_UDEF_STEREO_COUNT>
0

> <PUBCHEM_ISOTOPIC_ATOM_COUNT>
0

> <PUBCHEM_COMPONENT_COUNT>
1

> <PUBCHEM_CACTVS_TAUTO_COUNT>
-1

> <PUBCHEM_COORDINATE_TYPE>
1
5
255

> <PUBCHEM_BONDANNOTATIONS>
13  15  8
13  16  8
15  17  8
16  18  8
17  19  8
18  19  8
25  26  8
25  27  8
26  28  8
27  29  8
28  30  8
29  30  8

$$$$
