JBB41_0023.mol
  ChemDraw04092412402D

 43 48  0  0  1  0  0  0  0  0999 V2000
    0.3297    0.8562    0.0000 C   0  0  0  0  0  0  0  0  0  0  0  0
    0.3297    0.0312    0.0000 C   0  0  0  0  0  0  0  0  0  0  0  0
   -0.3848   -0.3813    0.0000 C   0  0  0  0  0  0  0  0  0  0  0  0
   -1.0993    0.0312    0.0000 C   0  0  0  0  0  0  0  0  0  0  0  0
   -1.8137   -0.3813    0.0000 C   0  0  0  0  0  0  0  0  0  0  0  0
   -1.8137   -1.2063    0.0000 O   0  0  0  0  0  0  0  0  0  0  0  0
   -2.5282    0.0312    0.0000 C   0  0  0  0  0  0  0  0  0  0  0  0
   -2.5282    0.8562    0.0000 C   0  0  0  0  0  0  0  0  0  0  0  0
   -1.8137    1.2687    0.0000 C   0  0  0  0  0  0  0  0  0  0  0  0
   -1.0993    0.8562    0.0000 C   0  0  0  0  0  0  0  0  0  0  0  0
   -0.3848    1.2687    0.0000 O   0  0  0  0  0  0  0  0  0  0  0  0
    1.0442    1.2687    0.0000 C   0  0  0  0  0  0  0  0  0  0  0  0
    1.7586    0.8562    0.0000 C   0  0  0  0  0  0  0  0  0  0  0  0
    2.4731    1.2687    0.0000 C   0  0  0  0  0  0  0  0  0  0  0  0
    3.1876    0.8562    0.0000 O   0  0  0  0  0  0  0  0  0  0  0  0
    2.4731    2.0937    0.0000 C   0  0  0  0  0  0  0  0  0  0  0  0
    3.1876    2.5062    0.0000 O   0  0  0  0  0  0  0  0  0  0  0  0
    1.7586    2.5062    0.0000 C   0  0  0  0  0  0  0  0  0  0  0  0
    1.0442    2.0937    0.0000 C   0  0  0  0  0  0  0  0  0  0  0  0
    1.0442   -1.2063    0.0000 C   0  0  0  0  0  0  0  0  0  0  0  0
    1.8137   -1.6812    0.0000 C   0  0  0  0  0  0  0  0  0  0  0  0
    2.5282   -1.2687    0.0000 C   0  0  0  0  0  0  0  0  0  0  0  0
    3.2427   -1.6812    0.0000 C   0  0  0  0  0  0  0  0  0  0  0  0
    3.9571   -1.2687    0.0000 O   0  0  0  0  0  0  0  0  0  0  0  0
    3.2427   -2.5062    0.0000 C   0  0  0  0  0  0  0  0  0  0  0  0
    3.9571   -2.9187    0.0000 O   0  0  0  0  0  0  0  0  0  0  0  0
    2.5282   -2.9187    0.0000 C   0  0  0  0  0  0  0  0  0  0  0  0
    1.8137   -2.5062    0.0000 C   0  0  0  0  0  0  0  0  0  0  0  0
    0.3297   -1.6188    0.0000 O   0  0  0  0  0  0  0  0  0  0  0  0
    1.0442   -0.3813    0.0000 O   0  0  0  0  0  0  0  0  0  0  0  0
    2.5282   -3.7437    0.0000 O   0  0  0  0  0  0  0  0  0  0  0  0
   -1.8137    2.0937    0.0000 C   0  0  0  0  0  0  0  0  0  0  0  0
   -2.5282    2.5062    0.0000 C   0  0  0  0  0  0  0  0  0  0  0  0
   -3.2427    2.0937    0.0000 C   0  0  0  0  0  0  0  0  0  0  0  0
   -3.2427    1.2687    0.0000 O   0  0  0  0  0  0  0  0  0  0  0  0
   -1.0993    2.5062    0.0000 C   0  0  0  0  0  0  0  0  0  0  0  0
   -3.9571    2.5062    0.0000 O   0  0  0  0  0  0  0  0  0  0  0  0
   -0.3848    2.0937    0.0000 C   0  0  0  0  0  0  0  0  0  0  0  0
    0.3297    2.5062    0.0000 C   0  0  0  0  0  0  0  0  0  0  0  0
    0.3297    3.3312    0.0000 C   0  0  0  0  0  0  0  0  0  0  0  0
   -0.3848    3.7437    0.0000 C   0  0  0  0  0  0  0  0  0  0  0  0
   -1.0993    3.3312    0.0000 C   0  0  0  0  0  0  0  0  0  0  0  0
    1.0442    3.7437    0.0000 O   0  0  0  0  0  0  0  0  0  0  0  0
  1  2  1  0      
  2  3  1  0      
  3  4  1  0      
  4  5  1  0      
  5  6  1  0      
  5  7  2  0      
  7  8  1  0      
  8  9  2  0      
  9 10  1  0      
  4 10  2  0      
 10 11  1  0      
  1 11  1  0      
  1 12  1  6      
 12 13  1  0      
 13 14  2  0      
 14 15  1  0      
 14 16  1  0      
 16 17  1  0      
 16 18  2  0      
 18 19  1  0      
 12 19  2  0      
 21 22  1  0      
 22 23  2  0      
 23 24  1  0      
 23 25  1  0      
 25 26  1  0      
 25 27  2  0      
 27 28  1  0      
 21 28  2  0      
 20 29  2  0      
 20 30  1  0      
  2 30  1  6      
 20 21  1  0      
 27 31  1  0      
  9 32  1  0      
 32 33  1  0      
 33 34  1  0      
 34 35  1  0      
 35  8  1  0      
 32 36  1  6      
 34 37  2  0      
 36 38  2  0      
 38 39  1  0      
 39 40  2  0      
 40 41  1  0      
 41 42  2  0      
 42 36  1  0      
 40 43  1  0      
M  END
