Jubanine H
  -OEChem-07172408372D

101106  0     1  0  0  0  0  0999 V2000
    8.9511   -1.9542    0.0000 O   0  0  0  0  0  0  0  0  0  0  0  0
    9.7681    2.1630    0.0000 O   0  0  0  0  0  0  0  0  0  0  0  0
   10.6248    0.0121    0.0000 O   0  0  0  0  0  0  0  0  0  0  0  0
    6.5677    2.6341    0.0000 O   0  0  0  0  0  0  0  0  0  0  0  0
   14.0014    0.9616    0.0000 O   0  0  0  0  0  0  0  0  0  0  0  0
   12.3277   -3.9037    0.0000 O   0  0  0  0  0  0  0  0  0  0  0  0
    9.5870    0.4405    0.0000 N   0  0  0  0  0  0  0  0  0  0  0  0
   11.4616   -0.5047    0.0000 N   0  0  0  0  0  0  0  0  0  0  0  0
    7.2722    1.0518    0.0000 N   0  0  0  0  0  0  0  0  0  0  0  0
    5.4451    0.2383    0.0000 N   0  0  0  0  0  0  0  0  0  0  0  0
   13.1353   -0.5047    0.0000 N   0  0  0  0  0  0  0  0  0  0  0  0
    9.7879   -0.5047    0.0000 C   0  0  3  0  0  0  0  0  0  0  0  0
    8.9511   -0.9879    0.0000 C   0  0  3  0  0  0  0  0  0  0  0  0
    8.2330   -0.3413    0.0000 C   0  0  0  0  0  0  0  0  0  0  0  0
    8.6260    0.5415    0.0000 C   0  0  0  0  0  0  0  0  0  0  0  0
    9.1803    1.3540    0.0000 C   0  0  0  0  0  0  0  0  0  0  0  0
   10.6248   -0.9879    0.0000 C   0  0  0  0  0  0  0  0  0  0  0  0
    8.1858    1.4585    0.0000 C   0  0  3  0  0  0  0  0  0  0  0  0
    7.7790    2.3721    0.0000 C   0  0  0  0  0  0  0  0  0  0  0  0
   11.4616    0.4616    0.0000 C   0  0  3  0  0  0  0  0  0  0  0  0
    9.7879   -2.4374    0.0000 C   0  0  0  0  0  0  0  0  0  0  0  0
   10.9616    1.3276    0.0000 C   0  0  0  0  0  0  0  0  0  0  0  0
    8.3668    3.1811    0.0000 C   0  0  0  0  0  0  0  0  0  0  0  0
    6.4632    1.6396    0.0000 C   0  0  0  0  0  0  0  0  0  0  0  0
    5.5496    1.2329    0.0000 C   0  0  3  0  0  0  0  0  0  0  0  0
   13.1353    0.4616    0.0000 C   0  0  0  0  0  0  0  0  0  0  0  0
   10.6248   -1.9542    0.0000 C   0  0  0  0  0  0  0  0  0  0  0  0
    9.7879   -3.4037    0.0000 C   0  0  0  0  0  0  0  0  0  0  0  0
    4.7406    1.8207    0.0000 C   0  0  0  0  0  0  0  0  0  0  0  0
   11.4616   -2.4374    0.0000 C   0  0  0  0  0  0  0  0  0  0  0  0
   11.4616    2.1936    0.0000 C   0  0  0  0  0  0  0  0  0  0  0  0
    7.9601    4.0946    0.0000 C   0  0  0  0  0  0  0  0  0  0  0  0
    9.3613    3.0766    0.0000 C   0  0  0  0  0  0  0  0  0  0  0  0
   10.6248   -3.8868    0.0000 C   0  0  0  0  0  0  0  0  0  0  0  0
   11.4616   -3.4037    0.0000 C   0  0  0  0  0  0  0  0  0  0  0  0
   12.2985   -1.9542    0.0000 C   0  0  0  0  0  0  0  0  0  0  0  0
    3.8271    1.4139    0.0000 C   0  0  0  0  0  0  0  0  0  0  0  0
   12.2985   -0.9879    0.0000 C   0  0  0  0  0  0  0  0  0  0  0  0
    8.5478    4.9037    0.0000 C   0  0  0  0  0  0  0  0  0  0  0  0
    9.9491    3.8856    0.0000 C   0  0  0  0  0  0  0  0  0  0  0  0
    4.5316   -0.1684    0.0000 C   0  0  0  0  0  0  0  0  0  0  0  0
    6.2542   -0.3495    0.0000 C   0  0  0  0  0  0  0  0  0  0  0  0
   10.9616    3.0597    0.0000 C   0  0  0  0  0  0  0  0  0  0  0  0
   12.4616    2.1936    0.0000 C   0  0  0  0  0  0  0  0  0  0  0  0
    9.5424    4.7991    0.0000 C   0  0  0  0  0  0  0  0  0  0  0  0
    3.7226    0.4194    0.0000 C   0  0  0  0  0  0  0  0  0  0  0  0
    3.0181    2.0017    0.0000 C   0  0  0  0  0  0  0  0  0  0  0  0
   11.4616    3.9257    0.0000 C   0  0  0  0  0  0  0  0  0  0  0  0
   12.9616    3.0597    0.0000 C   0  0  0  0  0  0  0  0  0  0  0  0
   12.4616    3.9257    0.0000 C   0  0  0  0  0  0  0  0  0  0  0  0
    2.8090    0.0126    0.0000 C   0  0  0  0  0  0  0  0  0  0  0  0
    2.1045    1.5950    0.0000 C   0  0  0  0  0  0  0  0  0  0  0  0
   12.3277   -4.9037    0.0000 C   0  0  0  0  0  0  0  0  0  0  0  0
    2.0000    0.6004    0.0000 C   0  0  0  0  0  0  0  0  0  0  0  0
   10.2895   -0.1403    0.0000 H   0  0  0  0  0  0  0  0  0  0  0  0
    8.3847   -1.2401    0.0000 H   0  0  0  0  0  0  0  0  0  0  0  0
    7.6960   -0.0313    0.0000 H   0  0  0  0  0  0  0  0  0  0  0  0
    7.8685   -0.8429    0.0000 H   0  0  0  0  0  0  0  0  0  0  0  0
    8.7549    1.1479    0.0000 H   0  0  0  0  0  0  0  0  0  0  0  0
    8.0364    0.7331    0.0000 H   0  0  0  0  0  0  0  0  0  0  0  0
    8.2828    0.8462    0.0000 H   0  0  0  0  0  0  0  0  0  0  0  0
   11.9980   -0.1937    0.0000 H   0  0  0  0  0  0  0  0  0  0  0  0
    7.3483    2.8181    0.0000 H   0  0  0  0  0  0  0  0  0  0  0  0
    7.2650    2.0254    0.0000 H   0  0  0  0  0  0  0  0  0  0  0  0
   10.8628    0.3011    0.0000 H   0  0  0  0  0  0  0  0  0  0  0  0
    7.2075    0.4351    0.0000 H   0  0  0  0  0  0  0  0  0  0  0  0
   10.4867    1.7261    0.0000 H   0  0  0  0  0  0  0  0  0  0  0  0
   10.4867    0.9291    0.0000 H   0  0  0  0  0  0  0  0  0  0  0  0
    4.9832    0.9807    0.0000 H   0  0  0  0  0  0  0  0  0  0  0  0
   10.6248   -1.3342    0.0000 H   0  0  0  0  0  0  0  0  0  0  0  0
    9.2510   -3.7137    0.0000 H   0  0  0  0  0  0  0  0  0  0  0  0
    5.1866    2.2514    0.0000 H   0  0  0  0  0  0  0  0  0  0  0  0
    4.3939    2.3347    0.0000 H   0  0  0  0  0  0  0  0  0  0  0  0
    7.3435    4.1594    0.0000 H   0  0  0  0  0  0  0  0  0  0  0  0
    9.6135    2.5102    0.0000 H   0  0  0  0  0  0  0  0  0  0  0  0
   10.6248   -4.5068    0.0000 H   0  0  0  0  0  0  0  0  0  0  0  0
   13.6723   -0.8147    0.0000 H   0  0  0  0  0  0  0  0  0  0  0  0
   12.8354   -2.2642    0.0000 H   0  0  0  0  0  0  0  0  0  0  0  0
   12.8354   -1.2979    0.0000 H   0  0  0  0  0  0  0  0  0  0  0  0
    8.2957    5.4701    0.0000 H   0  0  0  0  0  0  0  0  0  0  0  0
   10.5657    3.8208    0.0000 H   0  0  0  0  0  0  0  0  0  0  0  0
    4.2794    0.3980    0.0000 H   0  0  0  0  0  0  0  0  0  0  0  0
    3.9652   -0.4206    0.0000 H   0  0  0  0  0  0  0  0  0  0  0  0
    4.7838   -0.7348    0.0000 H   0  0  0  0  0  0  0  0  0  0  0  0
    5.8898   -0.8511    0.0000 H   0  0  0  0  0  0  0  0  0  0  0  0
    6.7558   -0.7139    0.0000 H   0  0  0  0  0  0  0  0  0  0  0  0
    6.6186    0.1521    0.0000 H   0  0  0  0  0  0  0  0  0  0  0  0
   10.3416    3.0597    0.0000 H   0  0  0  0  0  0  0  0  0  0  0  0
   12.7716    1.6567    0.0000 H   0  0  0  0  0  0  0  0  0  0  0  0
    9.9068    5.3007    0.0000 H   0  0  0  0  0  0  0  0  0  0  0  0
    4.2242    0.0550    0.0000 H   0  0  0  0  0  0  0  0  0  0  0  0
    3.0829    2.6183    0.0000 H   0  0  0  0  0  0  0  0  0  0  0  0
   11.1516    4.4626    0.0000 H   0  0  0  0  0  0  0  0  0  0  0  0
   13.5816    3.0597    0.0000 H   0  0  0  0  0  0  0  0  0  0  0  0
   12.7716    4.4626    0.0000 H   0  0  0  0  0  0  0  0  0  0  0  0
    2.7442   -0.6040    0.0000 H   0  0  0  0  0  0  0  0  0  0  0  0
    1.6029    1.9594    0.0000 H   0  0  0  0  0  0  0  0  0  0  0  0
   11.7077   -4.9037    0.0000 H   0  0  0  0  0  0  0  0  0  0  0  0
   12.3277   -5.5237    0.0000 H   0  0  0  0  0  0  0  0  0  0  0  0
   12.9477   -4.9037    0.0000 H   0  0  0  0  0  0  0  0  0  0  0  0
    1.4336    0.3483    0.0000 H   0  0  0  0  0  0  0  0  0  0  0  0
  1 13  1  0  0  0  0
  1 21  1  0  0  0  0
  2 16  2  0  0  0  0
  3 17  2  0  0  0  0
  4 24  2  0  0  0  0
  5 26  2  0  0  0  0
  6 35  1  0  0  0  0
  6 53  1  0  0  0  0
  7 12  1  0  0  0  0
  7 15  1  0  0  0  0
  7 16  1  0  0  0  0
  8 17  1  0  0  0  0
  8 20  1  0  0  0  0
  8 62  1  0  0  0  0
  9 18  1  0  0  0  0
  9 24  1  0  0  0  0
  9 66  1  0  0  0  0
 10 25  1  0  0  0  0
 10 41  1  0  0  0  0
 10 42  1  0  0  0  0
 11 26  1  0  0  0  0
 11 38  1  0  0  0  0
 11 77  1  0  0  0  0
 12 13  1  0  0  0  0
 12 17  1  0  0  0  0
 12 55  1  0  0  0  0
 13 14  1  0  0  0  0
 13 56  1  0  0  0  0
 14 15  1  0  0  0  0
 14 57  1  0  0  0  0
 14 58  1  0  0  0  0
 15 59  1  0  0  0  0
 15 60  1  0  0  0  0
 16 18  1  0  0  0  0
 18 19  1  0  0  0  0
 18 61  1  0  0  0  0
 19 23  1  0  0  0  0
 19 63  1  0  0  0  0
 19 64  1  0  0  0  0
 20 22  1  0  0  0  0
 20 26  1  0  0  0  0
 20 65  1  0  0  0  0
 21 27  2  0  0  0  0
 21 28  1  0  0  0  0
 22 31  1  0  0  0  0
 22 67  1  0  0  0  0
 22 68  1  0  0  0  0
 23 32  2  0  0  0  0
 23 33  1  0  0  0  0
 24 25  1  0  0  0  0
 25 29  1  0  0  0  0
 25 69  1  0  0  0  0
 27 30  1  0  0  0  0
 27 70  1  0  0  0  0
 28 34  2  0  0  0  0
 28 71  1  0  0  0  0
 29 37  1  0  0  0  0
 29 72  1  0  0  0  0
 29 73  1  0  0  0  0
 30 35  2  0  0  0  0
 30 36  1  0  0  0  0
 31 43  2  0  0  0  0
 31 44  1  0  0  0  0
 32 39  1  0  0  0  0
 32 74  1  0  0  0  0
 33 40  2  0  0  0  0
 33 75  1  0  0  0  0
 34 35  1  0  0  0  0
 34 76  1  0  0  0  0
 36 38  2  0  0  0  0
 36 78  1  0  0  0  0
 37 46  2  0  0  0  0
 37 47  1  0  0  0  0
 38 79  1  0  0  0  0
 39 45  2  0  0  0  0
 39 80  1  0  0  0  0
 40 45  1  0  0  0  0
 40 81  1  0  0  0  0
 41 82  1  0  0  0  0
 41 83  1  0  0  0  0
 41 84  1  0  0  0  0
 42 85  1  0  0  0  0
 42 86  1  0  0  0  0
 42 87  1  0  0  0  0
 43 48  1  0  0  0  0
 43 88  1  0  0  0  0
 44 49  2  0  0  0  0
 44 89  1  0  0  0  0
 45 90  1  0  0  0  0
 46 51  1  0  0  0  0
 46 91  1  0  0  0  0
 47 52  2  0  0  0  0
 47 92  1  0  0  0  0
 48 50  2  0  0  0  0
 48 93  1  0  0  0  0
 49 50  1  0  0  0  0
 49 94  1  0  0  0  0
 50 95  1  0  0  0  0
 51 54  2  0  0  0  0
 51 96  1  0  0  0  0
 52 54  1  0  0  0  0
 52 97  1  0  0  0  0
 53 98  1  0  0  0  0
 53 99  1  0  0  0  0
 53100  1  0  0  0  0
 54101  1  0  0  0  0
M  END
> <PUBCHEM_COMPOUND_CID>
101316795

> <PUBCHEM_COMPOUND_CANONICALIZED>
1

> <PUBCHEM_CACTVS_COMPLEXITY>
1270

> <PUBCHEM_CACTVS_HBOND_ACCEPTOR>
7

> <PUBCHEM_CACTVS_HBOND_DONOR>
3

> <PUBCHEM_CACTVS_ROTATABLE_BOND>
11

> <PUBCHEM_CACTVS_SUBSKEYS>
AAADcfB/uAAAAAAAAAAAAAAAAAAAAWAAAAAwYMGAAAAAAAABVAAAHgAQAAAADDzhmAYyBoPABACIAiFWUAACCAAgIgAIiIGOCIgOZjaEsTuXOCCm9hGYqAfYybCOAQABAAAIAAACAAIAABAAAAAAAAAAAA==

> <PUBCHEM_IUPAC_OPENEYE_NAME>
N-[1-benzyl-2-[(13E)-10-benzyl-16-methoxy-8,11-dioxo-2-oxa-6,9,12-triazatricyclo[13.3.1.03,7]nonadeca-1(19),13,15,17-tetraen-6-yl]-2-oxo-ethyl]-2-(dimethylamino)-3-phenyl-propanamide

> <PUBCHEM_IUPAC_CAS_NAME>
2-(dimethylamino)-N-[1-[(13E)-16-methoxy-8,11-dioxo-10-(phenylmethyl)-2-oxa-6,9,12-triazatricyclo[13.3.1.03,7]nonadeca-1(19),13,15,17-tetraen-6-yl]-1-oxo-3-phenylpropan-2-yl]-3-phenylpropanamide

> <PUBCHEM_IUPAC_NAME_MARKUP>
<I>N</I>-[1-[(13<I>E</I>)-10-benzyl-16-methoxy-8,11-dioxo-2-oxa-6,9,12-triazatricyclo[13.3.1.0<SUP>3,7</SUP>]nonadeca-1(19),13,15,17-tetraen-6-yl]-1-oxo-3-phenylpropan-2-yl]-2-(dimethylamino)-3-phenylpropanamide

> <PUBCHEM_IUPAC_NAME>
N-[1-[(13E)-10-benzyl-16-methoxy-8,11-dioxo-2-oxa-6,9,12-triazatricyclo[13.3.1.03,7]nonadeca-1(19),13,15,17-tetraen-6-yl]-1-oxo-3-phenylpropan-2-yl]-2-(dimethylamino)-3-phenylpropanamide

> <PUBCHEM_IUPAC_SYSTEMATIC_NAME>
2-(dimethylamino)-N-[1-[(13E)-16-methoxy-8,11-bis(oxidanylidene)-10-(phenylmethyl)-2-oxa-6,9,12-triazatricyclo[13.3.1.03,7]nonadeca-1(19),13,15,17-tetraen-6-yl]-1-oxidanylidene-3-phenyl-propan-2-yl]-3-phenyl-propanamide

> <PUBCHEM_IUPAC_TRADITIONAL_NAME>
N-[1-benzyl-2-[(13E)-10-benzyl-8,11-diketo-16-methoxy-2-oxa-6,9,12-triazatricyclo[13.3.1.03,7]nonadeca-1(19),13,15,17-tetraen-6-yl]-2-keto-ethyl]-2-(dimethylamino)-3-phenyl-propionamide

> <PUBCHEM_IUPAC_INCHI>
InChI=1S/C43H47N5O6/c1-47(2)36(27-31-17-11-6-12-18-31)41(50)46-35(26-30-15-9-5-10-16-30)43(52)48-24-22-38-39(48)42(51)45-34(25-29-13-7-4-8-14-29)40(49)44-23-21-32-28-33(54-38)19-20-37(32)53-3/h4-21,23,28,34-36,38-39H,22,24-27H2,1-3H3,(H,44,49)(H,45,51)(H,46,50)/b23-21+

> <PUBCHEM_IUPAC_INCHIKEY>
FJSKSYVNULWVAZ-XTQSDGFTSA-N

> <PUBCHEM_XLOGP3_AA>
5.8

> <PUBCHEM_EXACT_MASS>
729.35263424

> <PUBCHEM_MOLECULAR_FORMULA>
C43H47N5O6

> <PUBCHEM_MOLECULAR_WEIGHT>
729.9

> <PUBCHEM_OPENEYE_CAN_SMILES>
CN(C)C(CC1=CC=CC=C1)C(=O)NC(CC2=CC=CC=C2)C(=O)N3CCC4C3C(=O)NC(C(=O)NC=CC5=C(C=CC(=C5)O4)OC)CC6=CC=CC=C6

> <PUBCHEM_OPENEYE_ISO_SMILES>
CN(C)C(CC1=CC=CC=C1)C(=O)NC(CC2=CC=CC=C2)C(=O)N3CCC4C3C(=O)NC(C(=O)N/C=C/C5=C(C=CC(=C5)O4)OC)CC6=CC=CC=C6

> <PUBCHEM_CACTVS_TPSA>
129

> <PUBCHEM_MONOISOTOPIC_WEIGHT>
729.35263424

> <PUBCHEM_TOTAL_CHARGE>
0

> <PUBCHEM_HEAVY_ATOM_COUNT>
54

> <PUBCHEM_ATOM_DEF_STEREO_COUNT>
0

> <PUBCHEM_ATOM_UDEF_STEREO_COUNT>
5

> <PUBCHEM_BOND_DEF_STEREO_COUNT>
1

> <PUBCHEM_BOND_UDEF_STEREO_COUNT>
0

> <PUBCHEM_ISOTOPIC_ATOM_COUNT>
0

> <PUBCHEM_COMPONENT_COUNT>
1

> <PUBCHEM_CACTVS_TAUTO_COUNT>
-1

> <PUBCHEM_COORDINATE_TYPE>
1
5
255

> <PUBCHEM_BONDANNOTATIONS>
12  17  3
13  14  3
18  19  3
20  22  3
21  27  8
21  28  8
23  32  8
23  33  8
25  29  3
27  30  8
28  34  8
30  35  8
31  43  8
31  44  8
32  39  8
33  40  8
34  35  8
37  46  8
37  47  8
39  45  8
40  45  8
43  48  8
44  49  8
46  51  8
47  52  8
48  50  8
49  50  8
51  54  8
52  54  8

$$$$
