MCSJ31_0030
  -OEChem-07172407422D

117119  0     1  0  0  0  0  0999 V2000
   10.3633    8.1685    0.0000 O   0  0  0  0  0  0  0  0  0  0  0  0
    7.7652    9.6685    0.0000 O   0  0  0  0  0  0  0  0  0  0  0  0
    9.9973    6.8025    0.0000 O   0  0  0  0  0  0  0  0  0  0  0  0
    7.7652    7.6685    0.0000 O   0  0  0  0  0  0  0  0  0  0  0  0
    8.0028   -1.9623    0.0000 O   0  0  0  0  0  0  0  0  0  0  0  0
   10.4973    5.9364    0.0000 O   0  0  0  0  0  0  0  0  0  0  0  0
   10.3822   -2.9792    0.0000 O   0  0  0  0  0  0  0  0  0  0  0  0
    8.7654   -4.4350    0.0000 O   0  0  0  0  0  0  0  0  0  0  0  0
    7.9973   -0.1257    0.0000 O   0  0  0  0  0  0  0  0  0  0  0  0
    3.0181   -6.9632    0.0000 O   0  0  0  0  0  0  0  0  0  0  0  0
    5.4451   -8.7265    0.0000 O   0  0  0  0  0  0  0  0  0  0  0  0
    2.0000   -8.3644    0.0000 O   0  0  0  0  0  0  0  0  0  0  0  0
    8.9973    5.0704    0.0000 N   0  0  0  0  0  0  0  0  0  0  0  0
    2.7045   -9.9467    0.0000 N   0  0  0  0  0  0  0  0  0  0  0  0
    9.4973    9.6685    0.0000 C   0  0  0  0  0  0  0  0  0  0  0  0
    8.6313    9.1685    0.0000 C   0  0  2  0  0  0  0  0  0  0  0  0
    9.4973    7.6685    0.0000 C   0  0  1  0  0  0  0  0  0  0  0  0
    8.6313    8.1685    0.0000 C   0  0  2  0  0  0  0  0  0  0  0  0
   10.3633    9.1685    0.0000 C   0  0  2  0  0  0  0  0  0  0  0  0
    8.9973    6.8025    0.0000 C   0  0  2  0  0  0  0  0  0  0  0  0
    9.9973   10.5345    0.0000 C   0  0  0  0  0  0  0  0  0  0  0  0
    8.9973   10.5345    0.0000 C   0  0  0  0  0  0  0  0  0  0  0  0
    7.9973    6.8025    0.0000 C   0  0  0  0  0  0  0  0  0  0  0  0
   11.2293    9.6685    0.0000 C   0  0  0  0  0  0  0  0  0  0  0  0
    9.4973    5.9364    0.0000 C   0  0  0  0  0  0  0  0  0  0  0  0
    8.9973   -1.8578    0.0000 C   0  0  2  0  0  0  0  0  0  0  0  0
    9.4040   -2.7713    0.0000 C   0  0  2  0  0  0  0  0  0  0  0  0
    9.4973   -0.9918    0.0000 C   0  0  1  0  0  0  0  0  0  0  0  0
    8.6609   -3.4404    0.0000 C   0  0  2  0  0  0  0  0  0  0  0  0
    7.4973    5.9364    0.0000 C   0  0  0  0  0  0  0  0  0  0  0  0
    7.7949   -2.9404    0.0000 C   0  0  1  0  0  0  0  0  0  0  0  0
   12.0954    9.1685    0.0000 C   0  0  0  0  0  0  0  0  0  0  0  0
    8.9973   -0.1257    0.0000 C   0  0  1  0  0  0  0  0  0  0  0  0
   10.4973   -0.9918    0.0000 C   0  0  0  0  0  0  0  0  0  0  0  0
    9.4973    4.2044    0.0000 C   0  0  0  0  0  0  0  0  0  0  0  0
    9.4973    0.7403    0.0000 C   0  0  0  0  0  0  0  0  0  0  0  0
    6.8813   -3.3472    0.0000 C   0  0  0  0  0  0  0  0  0  0  0  0
   12.9614    9.6685    0.0000 C   0  0  0  0  0  0  0  0  0  0  0  0
    8.9973    3.3384    0.0000 C   0  0  0  0  0  0  0  0  0  0  0  0
    8.9973    1.6063    0.0000 C   0  0  0  0  0  0  0  0  0  0  0  0
   10.4973    0.7403    0.0000 C   0  0  0  0  0  0  0  0  0  0  0  0
    6.7768   -4.3417    0.0000 C   0  0  0  0  0  0  0  0  0  0  0  0
    9.4973    2.4724    0.0000 C   0  0  0  0  0  0  0  0  0  0  0  0
   13.8274    9.1685    0.0000 C   0  0  0  0  0  0  0  0  0  0  0  0
    7.4973    0.7403    0.0000 C   0  0  0  0  0  0  0  0  0  0  0  0
    5.8632   -4.7484    0.0000 C   0  0  0  0  0  0  0  0  0  0  0  0
   13.8274    8.1685    0.0000 C   0  0  0  0  0  0  0  0  0  0  0  0
    5.7587   -5.7430    0.0000 C   0  0  0  0  0  0  0  0  0  0  0  0
    4.8452   -6.1497    0.0000 C   0  0  0  0  0  0  0  0  0  0  0  0
    4.7406   -7.1442    0.0000 C   0  0  0  0  0  0  0  0  0  0  0  0
    5.5496   -7.7320    0.0000 C   0  0  0  0  0  0  0  0  0  0  0  0
    3.8271   -7.5510    0.0000 C   0  0  0  0  0  0  0  0  0  0  0  0
    3.7226   -8.5455    0.0000 C   0  0  0  0  0  0  0  0  0  0  0  0
    4.5316   -9.1333    0.0000 C   0  0  0  0  0  0  0  0  0  0  0  0
    2.8090   -8.9522    0.0000 C   0  0  0  0  0  0  0  0  0  0  0  0
    4.4271  -10.1278    0.0000 C   0  0  0  0  0  0  0  0  0  0  0  0
    3.5135  -10.5345    0.0000 C   0  0  0  0  0  0  0  0  0  0  0  0
    8.0943    8.8585    0.0000 H   0  0  0  0  0  0  0  0  0  0  0  0
    8.6313    7.5485    0.0000 H   0  0  0  0  0  0  0  0  0  0  0  0
   10.9003    8.8585    0.0000 H   0  0  0  0  0  0  0  0  0  0  0  0
    8.6873    7.3394    0.0000 H   0  0  0  0  0  0  0  0  0  0  0  0
   10.5342   10.2245    0.0000 H   0  0  0  0  0  0  0  0  0  0  0  0
   10.3073   11.0715    0.0000 H   0  0  0  0  0  0  0  0  0  0  0  0
    9.4604   10.8445    0.0000 H   0  0  0  0  0  0  0  0  0  0  0  0
    9.5342   10.8445    0.0000 H   0  0  0  0  0  0  0  0  0  0  0  0
    8.6873   11.0715    0.0000 H   0  0  0  0  0  0  0  0  0  0  0  0
    8.4604   10.2245    0.0000 H   0  0  0  0  0  0  0  0  0  0  0  0
    8.1050    7.4131    0.0000 H   0  0  0  0  0  0  0  0  0  0  0  0
    7.4147    7.0145    0.0000 H   0  0  0  0  0  0  0  0  0  0  0  0
   11.2293   10.2885    0.0000 H   0  0  0  0  0  0  0  0  0  0  0  0
    7.7652   10.2885    0.0000 H   0  0  0  0  0  0  0  0  0  0  0  0
   10.6173    6.8025    0.0000 H   0  0  0  0  0  0  0  0  0  0  0  0
    7.2283    7.9785    0.0000 H   0  0  0  0  0  0  0  0  0  0  0  0
    8.5344   -1.1449    0.0000 H   0  0  0  0  0  0  0  0  0  0  0  0
    9.7942   -2.2895    0.0000 H   0  0  0  0  0  0  0  0  0  0  0  0
    9.8073   -0.4548    0.0000 H   0  0  0  0  0  0  0  0  0  0  0  0
    9.2397   -3.6626    0.0000 H   0  0  0  0  0  0  0  0  0  0  0  0
    6.9604    6.2464    0.0000 H   0  0  0  0  0  0  0  0  0  0  0  0
    7.1873    5.3995    0.0000 H   0  0  0  0  0  0  0  0  0  0  0  0
    8.0342    5.6264    0.0000 H   0  0  0  0  0  0  0  0  0  0  0  0
    7.3130   -2.5503    0.0000 H   0  0  0  0  0  0  0  0  0  0  0  0
   12.0954    8.5485    0.0000 H   0  0  0  0  0  0  0  0  0  0  0  0
    8.6873   -0.6627    0.0000 H   0  0  0  0  0  0  0  0  0  0  0  0
    8.3773    5.0704    0.0000 H   0  0  0  0  0  0  0  0  0  0  0  0
   10.4973   -1.6118    0.0000 H   0  0  0  0  0  0  0  0  0  0  0  0
   11.1173   -0.9918    0.0000 H   0  0  0  0  0  0  0  0  0  0  0  0
   10.4973   -0.3718    0.0000 H   0  0  0  0  0  0  0  0  0  0  0  0
    9.9722    3.8059    0.0000 H   0  0  0  0  0  0  0  0  0  0  0  0
    9.9722    4.6029    0.0000 H   0  0  0  0  0  0  0  0  0  0  0  0
    6.3797   -2.9828    0.0000 H   0  0  0  0  0  0  0  0  0  0  0  0
   10.5738   -3.5689    0.0000 H   0  0  0  0  0  0  0  0  0  0  0  0
   12.9614   10.2885    0.0000 H   0  0  0  0  0  0  0  0  0  0  0  0
    9.3318   -4.6872    0.0000 H   0  0  0  0  0  0  0  0  0  0  0  0
    8.3773    1.6063    0.0000 H   0  0  0  0  0  0  0  0  0  0  0  0
    8.3773    3.3384    0.0000 H   0  0  0  0  0  0  0  0  0  0  0  0
   10.4973    0.1203    0.0000 H   0  0  0  0  0  0  0  0  0  0  0  0
   11.1173    0.7403    0.0000 H   0  0  0  0  0  0  0  0  0  0  0  0
   10.4973    1.3603    0.0000 H   0  0  0  0  0  0  0  0  0  0  0  0
    7.2784   -4.7061    0.0000 H   0  0  0  0  0  0  0  0  0  0  0  0
   10.1173    2.4724    0.0000 H   0  0  0  0  0  0  0  0  0  0  0  0
   14.3644    9.4785    0.0000 H   0  0  0  0  0  0  0  0  0  0  0  0
    8.0342    1.0503    0.0000 H   0  0  0  0  0  0  0  0  0  0  0  0
    7.1873    1.2772    0.0000 H   0  0  0  0  0  0  0  0  0  0  0  0
    6.9604    0.4303    0.0000 H   0  0  0  0  0  0  0  0  0  0  0  0
    5.3616   -4.3840    0.0000 H   0  0  0  0  0  0  0  0  0  0  0  0
   13.2074    8.1685    0.0000 H   0  0  0  0  0  0  0  0  0  0  0  0
   13.8274    7.5485    0.0000 H   0  0  0  0  0  0  0  0  0  0  0  0
   14.4474    8.1685    0.0000 H   0  0  0  0  0  0  0  0  0  0  0  0
    6.2603   -6.1074    0.0000 H   0  0  0  0  0  0  0  0  0  0  0  0
    4.3436   -5.7853    0.0000 H   0  0  0  0  0  0  0  0  0  0  0  0
    5.1852   -8.2336    0.0000 H   0  0  0  0  0  0  0  0  0  0  0  0
    6.0512   -8.0964    0.0000 H   0  0  0  0  0  0  0  0  0  0  0  0
    5.9141   -7.2304    0.0000 H   0  0  0  0  0  0  0  0  0  0  0  0
    4.9286  -10.4922    0.0000 H   0  0  0  0  0  0  0  0  0  0  0  0
    2.1381  -10.1989    0.0000 H   0  0  0  0  0  0  0  0  0  0  0  0
    3.4487  -11.1511    0.0000 H   0  0  0  0  0  0  0  0  0  0  0  0
    5.9467   -9.0910    0.0000 H   0  0  0  0  0  0  0  0  0  0  0  0
  1 17  1  0  0  0  0
  1 19  1  0  0  0  0
 16  2  1  6  0  0  0
  2 71  1  0  0  0  0
 17  3  1  1  0  0  0
  3 72  1  0  0  0  0
 18  4  1  6  0  0  0
  4 73  1  0  0  0  0
  5 26  1  0  0  0  0
  5 31  1  0  0  0  0
  6 25  2  0  0  0  0
 27  7  1  1  0  0  0
  7 91  1  0  0  0  0
 29  8  1  1  0  0  0
  8 93  1  0  0  0  0
 33  9  1  6  0  0  0
  9 45  1  0  0  0  0
 10 52  2  0  0  0  0
 11 54  1  0  0  0  0
 11117  1  0  0  0  0
 12 55  2  0  0  0  0
 13 25  1  0  0  0  0
 13 35  1  0  0  0  0
 13 84  1  0  0  0  0
 14 55  1  0  0  0  0
 14 57  1  0  0  0  0
 14115  1  0  0  0  0
 15 16  1  0  0  0  0
 15 19  1  0  0  0  0
 15 21  1  0  0  0  0
 15 22  1  0  0  0  0
 16 18  1  0  0  0  0
 16 58  1  0  0  0  0
 17 18  1  0  0  0  0
 17 20  1  0  0  0  0
 18 59  1  0  0  0  0
 19 24  1  6  0  0  0
 19 60  1  0  0  0  0
 20 23  1  1  0  0  0
 20 25  1  0  0  0  0
 20 61  1  0  0  0  0
 21 62  1  0  0  0  0
 21 63  1  0  0  0  0
 21 64  1  0  0  0  0
 22 65  1  0  0  0  0
 22 66  1  0  0  0  0
 22 67  1  0  0  0  0
 23 30  1  0  0  0  0
 23 68  1  0  0  0  0
 23 69  1  0  0  0  0
 24 32  2  0  0  0  0
 24 70  1  0  0  0  0
 26 27  1  0  0  0  0
 26 28  1  0  0  0  0
 26 74  1  6  0  0  0
 27 29  1  0  0  0  0
 27 75  1  0  0  0  0
 28 33  1  0  0  0  0
 28 34  1  1  0  0  0
 28 76  1  0  0  0  0
 29 31  1  0  0  0  0
 29 77  1  0  0  0  0
 30 78  1  0  0  0  0
 30 79  1  0  0  0  0
 30 80  1  0  0  0  0
 31 37  1  1  0  0  0
 31 81  1  0  0  0  0
 32 38  1  0  0  0  0
 32 82  1  0  0  0  0
 33 36  1  0  0  0  0
 33 83  1  0  0  0  0
 34 85  1  0  0  0  0
 34 86  1  0  0  0  0
 34 87  1  0  0  0  0
 35 39  1  0  0  0  0
 35 88  1  0  0  0  0
 35 89  1  0  0  0  0
 36 40  2  0  0  0  0
 36 41  1  0  0  0  0
 37 42  2  0  0  0  0
 37 90  1  0  0  0  0
 38 44  2  0  0  0  0
 38 92  1  0  0  0  0
 39 43  2  0  0  0  0
 39 95  1  0  0  0  0
 40 43  1  0  0  0  0
 40 94  1  0  0  0  0
 41 96  1  0  0  0  0
 41 97  1  0  0  0  0
 41 98  1  0  0  0  0
 42 46  1  0  0  0  0
 42 99  1  0  0  0  0
 43100  1  0  0  0  0
 44 47  1  0  0  0  0
 44101  1  0  0  0  0
 45102  1  0  0  0  0
 45103  1  0  0  0  0
 45104  1  0  0  0  0
 46 48  2  0  0  0  0
 46105  1  0  0  0  0
 47106  1  0  0  0  0
 47107  1  0  0  0  0
 47108  1  0  0  0  0
 48 49  1  0  0  0  0
 48109  1  0  0  0  0
 49 50  2  0  0  0  0
 49110  1  0  0  0  0
 50 51  1  0  0  0  0
 50 52  1  0  0  0  0
 51111  1  0  0  0  0
 51112  1  0  0  0  0
 51113  1  0  0  0  0
 52 53  1  0  0  0  0
 53 54  2  0  0  0  0
 53 55  1  0  0  0  0
 54 56  1  0  0  0  0
 56 57  2  0  0  0  0
 56114  1  0  0  0  0
 57116  1  0  0  0  0
M  END
> <PUBCHEM_COMPOUND_CID>
135484176

> <PUBCHEM_COMPOUND_CANONICALIZED>
1

> <PUBCHEM_CACTVS_COMPLEXITY>
1720

> <PUBCHEM_CACTVS_HBOND_ACCEPTOR>
12

> <PUBCHEM_CACTVS_HBOND_DONOR>
8

> <PUBCHEM_CACTVS_ROTATABLE_BOND>
17

> <PUBCHEM_CACTVS_SUBSKEYS>
AAADcfB/PAAAAAAAAAAAAAAAAAAAASAAAAAkQAAAAAAAAAAAAAAAHgAQCAAADxThgAYCCALABgCIAqFWUACAAAAgIgAICIEIAEgZFB4IoQAGUAAH9gCPsYP6/P7PAAAAAAAAAAAAAAAAAAAAAAAAAAAAAA==

> <PUBCHEM_IUPAC_OPENEYE_NAME>
(2S)-N-[(2E,4E,6S,7R)-7-[(2S,3S,4R,5R)-3,4-dihydroxy-5-[(1E,3E,5E)-7-(4-hydroxy-2-oxo-1H-pyridin-3-yl)-6-methyl-7-oxo-hepta-1,3,5-trienyl]tetrahydrofuran-2-yl]-6-methoxy-5-methyl-octa-2,4-dienyl]-2-[(2R,3R,4R,6S)-2,3,4-trihydroxy-5,5-dimethyl-6-[(1E,3Z)-penta-1,3-dienyl]tetrahydropyran-2-yl]butanamide

> <PUBCHEM_IUPAC_CAS_NAME>
(2S)-N-[(2E,4E,6S,7R)-7-[(2S,3S,4R,5R)-3,4-dihydroxy-5-[(1E,3E,5E)-7-(4-hydroxy-2-oxo-1H-pyridin-3-yl)-6-methyl-7-oxohepta-1,3,5-trienyl]-2-oxolanyl]-6-methoxy-5-methylocta-2,4-dienyl]-2-[(2R,3R,4R,6S)-2,3,4-trihydroxy-5,5-dimethyl-6-[(1E,3Z)-penta-1,3-dienyl]-2-oxanyl]butanamide

> <PUBCHEM_IUPAC_NAME_MARKUP>
(2<I>S</I>)-<I>N</I>-[(2<I>E</I>,4<I>E</I>,6<I>S</I>,7<I>R</I>)-7-[(2<I>S</I>,3<I>S</I>,4<I>R</I>,5<I>R</I>)-3,4-dihydroxy-5-[(1<I>E</I>,3<I>E</I>,5<I>E</I>)-7-(4-hydroxy-2-oxo-1<I>H</I>-pyridin-3-yl)-6-methyl-7-oxohepta-1,3,5-trienyl]oxolan-2-yl]-6-methoxy-5-methylocta-2,4-dienyl]-2-[(2<I>R</I>,3<I>R</I>,4<I>R</I>,6<I>S</I>)-2,3,4-trihydroxy-5,5-dimethyl-6-[(1<I>E</I>,3<I>Z</I>)-penta-1,3-dienyl]oxan-2-yl]butanamide

> <PUBCHEM_IUPAC_NAME>
(2S)-N-[(2E,4E,6S,7R)-7-[(2S,3S,4R,5R)-3,4-dihydroxy-5-[(1E,3E,5E)-7-(4-hydroxy-2-oxo-1H-pyridin-3-yl)-6-methyl-7-oxohepta-1,3,5-trienyl]oxolan-2-yl]-6-methoxy-5-methylocta-2,4-dienyl]-2-[(2R,3R,4R,6S)-2,3,4-trihydroxy-5,5-dimethyl-6-[(1E,3Z)-penta-1,3-dienyl]oxan-2-yl]butanamide

> <PUBCHEM_IUPAC_SYSTEMATIC_NAME>
(2S)-2-[(2R,3R,4R,6S)-5,5-dimethyl-2,3,4-tris(oxidanyl)-6-[(1E,3Z)-penta-1,3-dienyl]oxan-2-yl]-N-[(2E,4E,6S,7R)-6-methoxy-5-methyl-7-[(2S,3S,4R,5R)-5-[(1E,3E,5E)-6-methyl-7-oxidanylidene-7-(4-oxidanyl-2-oxidanylidene-1H-pyridin-3-yl)hepta-1,3,5-trienyl]-3,4-bis(oxidanyl)oxolan-2-yl]octa-2,4-dienyl]butanamide

> <PUBCHEM_IUPAC_TRADITIONAL_NAME>
(2S)-N-[(2E,4E,6S,7R)-7-[(2S,3S,4R,5R)-3,4-dihydroxy-5-[(1E,3E,5E)-7-(4-hydroxy-2-keto-1H-pyridin-3-yl)-7-keto-6-methyl-hepta-1,3,5-trienyl]tetrahydrofuran-2-yl]-6-methoxy-5-methyl-octa-2,4-dienyl]-2-[(2R,3R,4R,6S)-2,3,4-trihydroxy-5,5-dimethyl-6-[(1E,3Z)-penta-1,3-dienyl]tetrahydropyran-2-yl]butyramide

> <PUBCHEM_IUPAC_INCHI>
InChI=1S/C43H60N2O12/c1-9-11-13-21-31-42(6,7)38(50)39(51)43(54,57-31)28(10-2)40(52)44-23-17-16-19-26(4)36(55-8)27(5)37-35(49)34(48)30(56-37)20-15-12-14-18-25(3)33(47)32-29(46)22-24-45-41(32)53/h9,11-22,24,27-28,30-31,34-39,48-51,54H,10,23H2,1-8H3,(H,44,52)(H2,45,46,53)/b11-9-,14-12+,17-16+,20-15+,21-13+,25-18+,26-19+/t27-,28-,30-,31+,34+,35+,36-,37+,38+,39-,43-/m1/s1

> <PUBCHEM_IUPAC_INCHIKEY>
HMSYAPGFKGSXAJ-PAHGNTJYSA-N

> <PUBCHEM_XLOGP3_AA>
3.8

> <PUBCHEM_EXACT_MASS>
796.41462535

> <PUBCHEM_MOLECULAR_FORMULA>
C43H60N2O12

> <PUBCHEM_MOLECULAR_WEIGHT>
796.9

> <PUBCHEM_OPENEYE_CAN_SMILES>
CCC(C(=O)NCC=CC=C(C)C(C(C)C1C(C(C(O1)C=CC=CC=C(C)C(=O)C2=C(C=CNC2=O)O)O)O)OC)C3(C(C(C(C(O3)C=CC=CC)(C)C)O)O)O

> <PUBCHEM_OPENEYE_ISO_SMILES>
CC[C@H](C(=O)NC/C=C/C=C(\C)/[C@H]([C@@H](C)[C@H]1[C@H]([C@H]([C@H](O1)/C=C/C=C/C=C(\C)/C(=O)C2=C(C=CNC2=O)O)O)O)OC)[C@@]3([C@@H]([C@@H](C([C@@H](O3)/C=C/C=C\C)(C)C)O)O)O

> <PUBCHEM_CACTVS_TPSA>
224

> <PUBCHEM_MONOISOTOPIC_WEIGHT>
796.41462535

> <PUBCHEM_TOTAL_CHARGE>
0

> <PUBCHEM_HEAVY_ATOM_COUNT>
57

> <PUBCHEM_ATOM_DEF_STEREO_COUNT>
11

> <PUBCHEM_ATOM_UDEF_STEREO_COUNT>
0

> <PUBCHEM_BOND_DEF_STEREO_COUNT>
7

> <PUBCHEM_BOND_UDEF_STEREO_COUNT>
0

> <PUBCHEM_ISOTOPIC_ATOM_COUNT>
0

> <PUBCHEM_COMPONENT_COUNT>
1

> <PUBCHEM_CACTVS_TAUTO_COUNT>
-1

> <PUBCHEM_COORDINATE_TYPE>
1
5
255

> <PUBCHEM_BONDANNOTATIONS>
14  55  8
14  57  8
19  24  6
16  2  6
20  23  5
26  74  6
28  34  5
17  3  5
31  37  5
18  4  6
53  54  8
53  55  8
54  56  8
56  57  8
27  7  5
29  8  5
33  9  6

$$$$
