MCSJ31_0007
  -OEChem-07172407422D

 56 59  0     1  0  0  0  0  0999 V2000
    6.3961   -0.8446    0.0000 O   0  0  0  0  0  0  0  0  0  0  0  0
    4.6423    2.1868    0.0000 O   0  0  0  0  0  0  0  0  0  0  0  0
   10.7469   -1.3777    0.0000 O   0  0  0  0  0  0  0  0  0  0  0  0
    6.4121    2.2246    0.0000 N   0  0  0  0  0  0  0  0  0  0  0  0
    4.6641   -0.8446    0.0000 C   0  0  2  0  0  0  0  0  0  0  0  0
    4.6641    0.1554    0.0000 C   0  0  2  0  0  0  0  0  0  0  0  0
    3.7702    0.6900    0.0000 C   0  0  1  0  0  0  0  0  0  0  0  0
    3.7702   -1.3793    0.0000 C   0  0  0  0  0  0  0  0  0  0  0  0
    2.8641   -0.8654    0.0000 C   0  0  2  0  0  0  0  0  0  0  0  0
    5.5301   -1.3446    0.0000 C   0  0  1  0  0  0  0  0  0  0  0  0
    2.8641    0.1762    0.0000 C   0  0  0  0  0  0  0  0  0  0  0  0
    5.5301    0.6554    0.0000 C   0  0  0  0  0  0  0  0  0  0  0  0
    4.6641   -1.8446    0.0000 C   0  0  0  0  0  0  0  0  0  0  0  0
    5.5301   -2.3446    0.0000 C   0  0  0  0  0  0  0  0  0  0  0  0
    3.7817    1.6900    0.0000 C   0  0  0  0  0  0  0  0  0  0  0  0
    6.3961    0.1554    0.0000 C   0  0  0  0  0  0  0  0  0  0  0  0
    2.0000   -1.3688    0.0000 C   0  0  0  0  0  0  0  0  0  0  0  0
    5.5141    1.6969    0.0000 C   0  0  0  0  0  0  0  0  0  0  0  0
    7.3062    0.6622    0.0000 C   0  0  0  0  0  0  0  0  0  0  0  0
    6.3961   -2.8446    0.0000 C   0  0  0  0  0  0  0  0  0  0  0  0
    7.3142    1.7038    0.0000 C   0  0  0  0  0  0  0  0  0  0  0  0
    8.1663    0.1522    0.0000 C   0  0  0  0  0  0  0  0  0  0  0  0
    8.1548   -0.8477    0.0000 C   0  0  0  0  0  0  0  0  0  0  0  0
    9.0381    0.6422    0.0000 C   0  0  0  0  0  0  0  0  0  0  0  0
    9.0150   -1.3577    0.0000 C   0  0  0  0  0  0  0  0  0  0  0  0
    9.8983    0.1322    0.0000 C   0  0  0  0  0  0  0  0  0  0  0  0
    9.8867   -0.8677    0.0000 C   0  0  0  0  0  0  0  0  0  0  0  0
    4.6706    1.0054    0.0000 H   0  0  0  0  0  0  0  0  0  0  0  0
    3.2362    1.0052    0.0000 H   0  0  0  0  0  0  0  0  0  0  0  0
    3.3765   -1.8583    0.0000 H   0  0  0  0  0  0  0  0  0  0  0  0
    4.1748   -1.8491    0.0000 H   0  0  0  0  0  0  0  0  0  0  0  0
    2.3266   -0.5565    0.0000 H   0  0  0  0  0  0  0  0  0  0  0  0
    6.0671   -1.6546    0.0000 H   0  0  0  0  0  0  0  0  0  0  0  0
    2.6550    0.7599    0.0000 H   0  0  0  0  0  0  0  0  0  0  0  0
    2.2532    0.0701    0.0000 H   0  0  0  0  0  0  0  0  0  0  0  0
    4.0441   -1.8446    0.0000 H   0  0  0  0  0  0  0  0  0  0  0  0
    4.6641   -2.4646    0.0000 H   0  0  0  0  0  0  0  0  0  0  0  0
    5.2841   -1.8446    0.0000 H   0  0  0  0  0  0  0  0  0  0  0  0
    4.9196   -2.2370    0.0000 H   0  0  0  0  0  0  0  0  0  0  0  0
    5.3181   -2.9272    0.0000 H   0  0  0  0  0  0  0  0  0  0  0  0
    4.4017    1.6828    0.0000 H   0  0  0  0  0  0  0  0  0  0  0  0
    3.7889    2.3099    0.0000 H   0  0  0  0  0  0  0  0  0  0  0  0
    3.1618    1.6971    0.0000 H   0  0  0  0  0  0  0  0  0  0  0  0
    1.6879   -0.8330    0.0000 H   0  0  0  0  0  0  0  0  0  0  0  0
    1.4643   -1.6808    0.0000 H   0  0  0  0  0  0  0  0  0  0  0  0
    2.3121   -1.9045    0.0000 H   0  0  0  0  0  0  0  0  0  0  0  0
    6.0862   -3.3816    0.0000 H   0  0  0  0  0  0  0  0  0  0  0  0
    6.9331   -3.1546    0.0000 H   0  0  0  0  0  0  0  0  0  0  0  0
    6.7062   -2.3077    0.0000 H   0  0  0  0  0  0  0  0  0  0  0  0
    6.4097    2.8446    0.0000 H   0  0  0  0  0  0  0  0  0  0  0  0
    7.8523    2.0118    0.0000 H   0  0  0  0  0  0  0  0  0  0  0  0
    7.6143   -1.1515    0.0000 H   0  0  0  0  0  0  0  0  0  0  0  0
    9.0453    1.2622    0.0000 H   0  0  0  0  0  0  0  0  0  0  0  0
    9.0078   -1.9776    0.0000 H   0  0  0  0  0  0  0  0  0  0  0  0
   10.4388    0.4360    0.0000 H   0  0  0  0  0  0  0  0  0  0  0  0
   11.2874   -1.0739    0.0000 H   0  0  0  0  0  0  0  0  0  0  0  0
  1 10  1  0  0  0  0
  1 16  1  0  0  0  0
  2 18  2  0  0  0  0
  3 27  1  0  0  0  0
  3 56  1  0  0  0  0
  4 18  1  0  0  0  0
  4 21  1  0  0  0  0
  4 50  1  0  0  0  0
  5  6  1  0  0  0  0
  5  8  1  0  0  0  0
  5 10  1  0  0  0  0
  5 13  1  6  0  0  0
  6  7  1  0  0  0  0
  6 12  1  0  0  0  0
  6 28  1  1  0  0  0
  7 11  1  0  0  0  0
  7 15  1  1  0  0  0
  7 29  1  0  0  0  0
  8  9  1  0  0  0  0
  8 30  1  0  0  0  0
  8 31  1  0  0  0  0
  9 11  1  0  0  0  0
  9 17  1  1  0  0  0
  9 32  1  0  0  0  0
 10 14  1  6  0  0  0
 10 33  1  0  0  0  0
 11 34  1  0  0  0  0
 11 35  1  0  0  0  0
 12 16  2  0  0  0  0
 12 18  1  0  0  0  0
 13 36  1  0  0  0  0
 13 37  1  0  0  0  0
 13 38  1  0  0  0  0
 14 20  1  0  0  0  0
 14 39  1  0  0  0  0
 14 40  1  0  0  0  0
 15 41  1  0  0  0  0
 15 42  1  0  0  0  0
 15 43  1  0  0  0  0
 16 19  1  0  0  0  0
 17 44  1  0  0  0  0
 17 45  1  0  0  0  0
 17 46  1  0  0  0  0
 19 21  2  0  0  0  0
 19 22  1  0  0  0  0
 20 47  1  0  0  0  0
 20 48  1  0  0  0  0
 20 49  1  0  0  0  0
 21 51  1  0  0  0  0
 22 23  2  0  0  0  0
 22 24  1  0  0  0  0
 23 25  1  0  0  0  0
 23 52  1  0  0  0  0
 24 26  2  0  0  0  0
 24 53  1  0  0  0  0
 25 27  2  0  0  0  0
 25 54  1  0  0  0  0
 26 27  1  0  0  0  0
 26 55  1  0  0  0  0
M  END
> <PUBCHEM_COMPOUND_CID>
16664201

> <PUBCHEM_COMPOUND_CANONICALIZED>
1

> <PUBCHEM_CACTVS_COMPLEXITY>
673

> <PUBCHEM_CACTVS_HBOND_ACCEPTOR>
3

> <PUBCHEM_CACTVS_HBOND_DONOR>
2

> <PUBCHEM_CACTVS_ROTATABLE_BOND>
2

> <PUBCHEM_CACTVS_SUBSKEYS>
AAADceB6MAAAAAAAAAAAAAAAAAAAAAAAAAAwYIEAAAAAAACBAAAAHgAQCAAADxThmAYyBoLABgCIAiFWUACCCAAgIAAIiIEOCMgIJjKCsRKGcAAkwhEIuQeY3OLPoAAAAAAAAADAAAQAACAAAAAAAAAAAA==

> <PUBCHEM_IUPAC_OPENEYE_NAME>
(6R,6aS,8S,10R,10aS)-6-ethyl-4-(4-hydroxyphenyl)-6a,8,10-trimethyl-6,7,8,9,10,10a-hexahydro-2H-isochromeno[4,3-c]pyridin-1-one

> <PUBCHEM_IUPAC_CAS_NAME>
(6R,6aS,8S,10R,10aS)-6-ethyl-4-(4-hydroxyphenyl)-6a,8,10-trimethyl-6,7,8,9,10,10a-hexahydro-2H-[2]benzopyrano[4,3-c]pyridin-1-one

> <PUBCHEM_IUPAC_NAME_MARKUP>
(6<I>R</I>,6<I>a</I><I>S</I>,8<I>S</I>,10<I>R</I>,10<I>a</I><I>S</I>)-6-ethyl-4-(4-hydroxyphenyl)-6<I>a</I>,8,10-trimethyl-6,7,8,9,10,10<I>a</I>-hexahydro-2<I>H</I>-isochromeno[4,3-c]pyridin-1-one

> <PUBCHEM_IUPAC_NAME>
(6R,6aS,8S,10R,10aS)-6-ethyl-4-(4-hydroxyphenyl)-6a,8,10-trimethyl-6,7,8,9,10,10a-hexahydro-2H-isochromeno[4,3-c]pyridin-1-one

> <PUBCHEM_IUPAC_SYSTEMATIC_NAME>
(6R,6aS,8S,10R,10aS)-6-ethyl-4-(4-hydroxyphenyl)-6a,8,10-trimethyl-6,7,8,9,10,10a-hexahydro-2H-isochromeno[4,3-c]pyridin-1-one

> <PUBCHEM_IUPAC_TRADITIONAL_NAME>
(6R,6aS,8S,10R,10aS)-6-ethyl-4-(4-hydroxyphenyl)-6a,8,10-trimethyl-6,7,8,9,10,10a-hexahydro-2H-isochromeno[4,3-c]pyridin-1-one

> <PUBCHEM_IUPAC_INCHI>
InChI=1S/C23H29NO3/c1-5-18-23(4)11-13(2)10-14(3)20(23)19-21(27-18)17(12-24-22(19)26)15-6-8-16(25)9-7-15/h6-9,12-14,18,20,25H,5,10-11H2,1-4H3,(H,24,26)/t13-,14+,18+,20+,23+/m0/s1

> <PUBCHEM_IUPAC_INCHIKEY>
ZUJBUMRATOLVJT-VIBJKCLASA-N

> <PUBCHEM_XLOGP3_AA>
4.4

> <PUBCHEM_EXACT_MASS>
367.21474379

> <PUBCHEM_MOLECULAR_FORMULA>
C23H29NO3

> <PUBCHEM_MOLECULAR_WEIGHT>
367.5

> <PUBCHEM_OPENEYE_CAN_SMILES>
CCC1C2(CC(CC(C2C3=C(O1)C(=CNC3=O)C4=CC=C(C=C4)O)C)C)C

> <PUBCHEM_OPENEYE_ISO_SMILES>
CC[C@@H]1[C@]2(C[C@H](C[C@H]([C@@H]2C3=C(O1)C(=CNC3=O)C4=CC=C(C=C4)O)C)C)C

> <PUBCHEM_CACTVS_TPSA>
58.6

> <PUBCHEM_MONOISOTOPIC_WEIGHT>
367.21474379

> <PUBCHEM_TOTAL_CHARGE>
0

> <PUBCHEM_HEAVY_ATOM_COUNT>
27

> <PUBCHEM_ATOM_DEF_STEREO_COUNT>
5

> <PUBCHEM_ATOM_UDEF_STEREO_COUNT>
0

> <PUBCHEM_BOND_DEF_STEREO_COUNT>
0

> <PUBCHEM_BOND_UDEF_STEREO_COUNT>
0

> <PUBCHEM_ISOTOPIC_ATOM_COUNT>
0

> <PUBCHEM_COMPONENT_COUNT>
1

> <PUBCHEM_CACTVS_TAUTO_COUNT>
-1

> <PUBCHEM_COORDINATE_TYPE>
1
5
255

> <PUBCHEM_BONDANNOTATIONS>
10  14  6
12  16  8
12  18  8
16  19  8
19  21  8
22  23  8
22  24  8
23  25  8
24  26  8
25  27  8
26  27  8
4  18  8
4  21  8
5  13  6
6  28  5
7  15  5
9  17  5

$$$$
