MCSJ32_0003.mol
  ChemDraw04172416503D

 40 43  0  0  1  0  0  0  0  0999 V2000
   -6.4308   -3.7540   -0.7552 C   0  0  0  0  0  0  0  0  0  0  0  0
   -6.4829   -2.2332   -0.6915 C   0  0  0  0  0  0  0  0  0  0  0  0
   -5.1969   -1.4332   -0.5307 C   0  0  0  0  0  0  0  0  0  0  0  0
   -3.8588   -2.1540   -0.4336 C   0  0  0  0  0  0  0  0  0  0  0  0
   -3.8067   -3.6748   -0.4974 C   0  0  0  0  0  0  0  0  0  0  0  0
   -5.0926   -4.4748   -0.6582 C   0  0  0  0  0  0  0  0  0  0  0  0
   -2.5729   -1.3540   -0.2728 C   0  0  0  0  0  0  0  0  0  0  0  0
   -1.2347   -2.0748   -0.1758 C   0  0  0  0  0  0  0  0  0  0  0  0
   -1.1826   -3.5956   -0.2395 C   0  0  0  0  0  0  0  0  0  0  0  0
   -2.4686   -4.3956   -0.4003 O   0  0  0  0  0  0  0  0  0  0  0  0
    0.1555   -4.3164   -0.1425 C   0  0  0  0  0  0  0  0  0  0  0  0
    0.0512   -1.2749   -0.0150 O   0  0  0  0  0  0  0  0  0  0  0  0
    1.4415   -3.5164    0.0183 C   0  0  0  0  0  0  0  0  0  0  0  0
    2.7796   -4.2372    0.1153 C   0  0  0  0  0  0  0  0  0  0  0  0
    2.8318   -5.7580    0.0516 C   0  0  0  0  0  0  0  0  0  0  0  0
    1.5458   -6.5580   -0.1092 C   0  0  0  0  0  0  0  0  0  0  0  0
    0.2077   -5.8372   -0.2062 C   0  0  0  0  0  0  0  0  0  0  0  0
   -0.0009    0.2459    0.0487 C   0  0  0  0  0  0  0  0  0  0  0  0
   -1.3390    0.9667   -0.0483 O   0  0  0  0  0  0  0  0  0  0  0  0
    1.2850    1.0459    0.2095 C   0  0  0  0  0  0  0  0  0  0  0  0
    1.2329    2.5667    0.2733 C   0  0  0  0  0  0  0  0  0  0  0  0
    1.5980   -8.0787   -0.1729 O   0  0  0  0  0  0  0  0  0  0  0  0
    4.1699   -6.4788    0.1486 O   0  0  0  0  0  0  0  0  0  0  0  0
    4.0656   -3.4372    0.2761 O   0  0  0  0  0  0  0  0  0  0  0  0
   -7.7167   -4.5539   -0.9160 O   0  0  0  0  0  0  0  0  0  0  0  0
   -5.2491    0.0875   -0.4669 O   0  0  0  0  0  0  0  0  0  0  0  0
    2.5189    3.3666    0.4341 C   0  0  0  0  0  0  0  0  0  0  0  0
    2.4446    4.8866    0.4957 C   0  0  0  0  0  0  0  0  0  0  0  0
    3.7186    5.7054    0.6561 C   0  0  0  0  0  0  0  0  0  0  0  0
    5.0670    5.0043    0.7551 C   0  0  0  0  0  0  0  0  0  0  0  0
    5.0736    3.4843    0.6870 C   0  0  0  0  0  0  0  0  0  0  0  0
    3.7318    2.6655    0.5199 C   0  0  0  0  0  0  0  0  0  0  0  0
    6.3592    5.7942    0.9160 O   0  0  0  0  0  0  0  0  0  0  0  0
    6.3978    2.7378    0.7815 O   0  0  0  0  0  0  0  0  0  0  0  0
    6.3592    7.3172    0.9160 C   0  0  0  0  0  0  0  0  0  0  0  0
    6.3978    1.2148    0.7815 C   0  0  0  0  0  0  0  0  0  0  0  0
    7.6781    8.0787    0.9160 O   0  0  0  0  0  0  0  0  0  0  0  0
    5.0402    8.0787    0.9160 C   0  0  0  0  0  0  0  0  0  0  0  0
    7.7167    0.4533    0.7815 O   0  0  0  0  0  0  0  0  0  0  0  0
    5.0788    0.4533    0.7815 C   0  0  0  0  0  0  0  0  0  0  0  0
  1  2  2  0      
  2  3  1  0      
  3  4  2  0      
  4  5  1  0      
  5  6  2  0      
  6  1  1  0      
  4  7  1  0      
  7  8  1  0      
  8  9  1  0      
  9 10  1  0      
 10  5  1  0      
  9 11  1  1      
  8 12  1  1      
 11 13  2  0      
 13 14  1  0      
 14 15  2  0      
 15 16  1  0      
 16 17  2  0      
 17 11  1  0      
 12 18  1  0      
 18 19  2  0      
 18 20  1  0      
 20 21  2  0      
 16 22  1  0      
 15 23  1  0      
 14 24  1  0      
  1 25  1  0      
  3 26  1  0      
 21 27  1  0      
 27 28  2  0      
 28 29  1  0      
 29 30  2  0      
 30 31  1  0      
 31 32  2  0      
 32 27  1  0      
 30 33  1  0      
 31 34  1  0      
 33 35  1  0      
 34 36  1  0      
 35 37  2  0      
 35 38  1  0      
 36 39  2  0      
 36 40  1  0      
M  END
