Methyl tanshinonate
  -OEChem-07172408302D

 43 46  0     1  0  0  0  0  0999 V2000
    2.4967   -2.3010    0.0000 O   0  0  0  0  0  0  0  0  0  0  0  0
    8.5250    0.3642    0.0000 O   0  0  0  0  0  0  0  0  0  0  0  0
    4.0000   -3.1612    0.0000 O   0  0  0  0  0  0  0  0  0  0  0  0
    4.9807    2.1690    0.0000 O   0  0  0  0  0  0  0  0  0  0  0  0
    6.7128    3.1690    0.0000 O   0  0  0  0  0  0  0  0  0  0  0  0
    3.9933   -1.4292    0.0000 C   0  0  2  0  0  0  0  0  0  0  0  0
    3.0537   -0.8867    0.0000 C   0  0  0  0  0  0  0  0  0  0  0  0
    4.9287   -0.8795    0.0000 C   0  0  0  0  0  0  0  0  0  0  0  0
    3.0620    0.1982    0.0000 C   0  0  0  0  0  0  0  0  0  0  0  0
    4.9368    0.1621    0.0000 C   0  0  0  0  0  0  0  0  0  0  0  0
    4.0099    0.7262    0.0000 C   0  0  0  0  0  0  0  0  0  0  0  0
    5.8468    0.6690    0.0000 C   0  0  0  0  0  0  0  0  0  0  0  0
    4.4966   -2.2933    0.0000 C   0  0  0  0  0  0  0  0  0  0  0  0
    5.8308   -1.4003    0.0000 C   0  0  0  0  0  0  0  0  0  0  0  0
    3.4966   -2.2972    0.0000 C   0  0  0  0  0  0  0  0  0  0  0  0
    6.7128    0.1690    0.0000 C   0  0  0  0  0  0  0  0  0  0  0  0
    6.7288   -0.8725    0.0000 C   0  0  0  0  0  0  0  0  0  0  0  0
    7.5788    0.6690    0.0000 C   0  0  0  0  0  0  0  0  0  0  0  0
    5.8468    1.6690    0.0000 C   0  0  0  0  0  0  0  0  0  0  0  0
    7.5788    1.6690    0.0000 C   0  0  0  0  0  0  0  0  0  0  0  0
    6.7128    2.1690    0.0000 C   0  0  0  0  0  0  0  0  0  0  0  0
    8.5250    1.9737    0.0000 C   0  0  0  0  0  0  0  0  0  0  0  0
    9.1086    1.1690    0.0000 C   0  0  0  0  0  0  0  0  0  0  0  0
    8.8357    2.9242    0.0000 C   0  0  0  0  0  0  0  0  0  0  0  0
    2.0000   -3.1690    0.0000 C   0  0  0  0  0  0  0  0  0  0  0  0
    2.4437   -0.7759    0.0000 H   0  0  0  0  0  0  0  0  0  0  0  0
    2.8401   -1.4688    0.0000 H   0  0  0  0  0  0  0  0  0  0  0  0
    2.8575    0.7835    0.0000 H   0  0  0  0  0  0  0  0  0  0  0  0
    2.4504    0.0969    0.0000 H   0  0  0  0  0  0  0  0  0  0  0  0
    4.4181    1.1928    0.0000 H   0  0  0  0  0  0  0  0  0  0  0  0
    3.6200    1.2082    0.0000 H   0  0  0  0  0  0  0  0  0  0  0  0
    3.9609   -2.6054    0.0000 H   0  0  0  0  0  0  0  0  0  0  0  0
    4.8087   -2.8290    0.0000 H   0  0  0  0  0  0  0  0  0  0  0  0
    5.0324   -1.9812    0.0000 H   0  0  0  0  0  0  0  0  0  0  0  0
    5.8332   -2.0203    0.0000 H   0  0  0  0  0  0  0  0  0  0  0  0
    7.2693   -1.1763    0.0000 H   0  0  0  0  0  0  0  0  0  0  0  0
    9.7286    1.1690    0.0000 H   0  0  0  0  0  0  0  0  0  0  0  0
    9.4250    2.7316    0.0000 H   0  0  0  0  0  0  0  0  0  0  0  0
    9.0283    3.5135    0.0000 H   0  0  0  0  0  0  0  0  0  0  0  0
    8.2464    3.1168    0.0000 H   0  0  0  0  0  0  0  0  0  0  0  0
    1.4619   -2.8610    0.0000 H   0  0  0  0  0  0  0  0  0  0  0  0
    1.6921   -3.7071    0.0000 H   0  0  0  0  0  0  0  0  0  0  0  0
    2.5381   -3.4769    0.0000 H   0  0  0  0  0  0  0  0  0  0  0  0
  1 15  1  0  0  0  0
  1 25  1  0  0  0  0
  2 18  1  0  0  0  0
  2 23  1  0  0  0  0
  3 15  2  0  0  0  0
  4 19  2  0  0  0  0
  5 21  2  0  0  0  0
  6  7  1  0  0  0  0
  6  8  1  0  0  0  0
  6 13  1  6  0  0  0
  6 15  1  0  0  0  0
  7  9  1  0  0  0  0
  7 26  1  0  0  0  0
  7 27  1  0  0  0  0
  8 10  2  0  0  0  0
  8 14  1  0  0  0  0
  9 11  1  0  0  0  0
  9 28  1  0  0  0  0
  9 29  1  0  0  0  0
 10 11  1  0  0  0  0
 10 12  1  0  0  0  0
 11 30  1  0  0  0  0
 11 31  1  0  0  0  0
 12 16  2  0  0  0  0
 12 19  1  0  0  0  0
 13 32  1  0  0  0  0
 13 33  1  0  0  0  0
 13 34  1  0  0  0  0
 14 17  2  0  0  0  0
 14 35  1  0  0  0  0
 16 17  1  0  0  0  0
 16 18  1  0  0  0  0
 17 36  1  0  0  0  0
 18 20  2  0  0  0  0
 19 21  1  0  0  0  0
 20 21  1  0  0  0  0
 20 22  1  0  0  0  0
 22 23  2  0  0  0  0
 22 24  1  0  0  0  0
 23 37  1  0  0  0  0
 24 38  1  0  0  0  0
 24 39  1  0  0  0  0
 24 40  1  0  0  0  0
 25 41  1  0  0  0  0
 25 42  1  0  0  0  0
 25 43  1  0  0  0  0
M  END
> <PUBCHEM_COMPOUND_CID>
14610613

> <PUBCHEM_COMPOUND_CANONICALIZED>
1

> <PUBCHEM_CACTVS_COMPLEXITY>
613

> <PUBCHEM_CACTVS_HBOND_ACCEPTOR>
5

> <PUBCHEM_CACTVS_HBOND_DONOR>
0

> <PUBCHEM_CACTVS_ROTATABLE_BOND>
2

> <PUBCHEM_CACTVS_SUBSKEYS>
AAADceB4OAAAAAAAAAAAAAAAAAAAASAAAAAwYMAAAAAAAEjBwAAAGgAAAAAADgSgmAIyDIAABECIAqjSiAACCAAkIAAIiAEECMgMJjaMNRqCOWCk4BEIqYeLzvDvwAACAAAQAACAAAYAADAAAAAAAAAAAA==

> <PUBCHEM_IUPAC_OPENEYE_NAME>
methyl (6S)-1,6-dimethyl-10,11-dioxo-8,9-dihydro-7H-naphtho[1,2-g]benzofuran-6-carboxylate

> <PUBCHEM_IUPAC_CAS_NAME>
(6S)-1,6-dimethyl-10,11-dioxo-8,9-dihydro-7H-naphtho[1,2-g]benzofuran-6-carboxylic acid methyl ester

> <PUBCHEM_IUPAC_NAME_MARKUP>
methyl (6<I>S</I>)-1,6-dimethyl-10,11-dioxo-8,9-dihydro-7<I>H</I>-naphtho[1,2-g][1]benzofuran-6-carboxylate

> <PUBCHEM_IUPAC_NAME>
methyl (6S)-1,6-dimethyl-10,11-dioxo-8,9-dihydro-7H-naphtho[1,2-g][1]benzofuran-6-carboxylate

> <PUBCHEM_IUPAC_SYSTEMATIC_NAME>
methyl (6S)-1,6-dimethyl-10,11-bis(oxidanylidene)-8,9-dihydro-7H-naphtho[1,2-g][1]benzofuran-6-carboxylate

> <PUBCHEM_IUPAC_TRADITIONAL_NAME>
(6S)-10,11-diketo-1,6-dimethyl-8,9-dihydro-7H-naphtho[1,2-g]benzofuran-6-carboxylic acid methyl ester

> <PUBCHEM_IUPAC_INCHI>
InChI=1S/C20H18O5/c1-10-9-25-18-12-6-7-13-11(15(12)17(22)16(21)14(10)18)5-4-8-20(13,2)19(23)24-3/h6-7,9H,4-5,8H2,1-3H3/t20-/m0/s1

> <PUBCHEM_IUPAC_INCHIKEY>
YFDKIHAZVQFLRC-FQEVSTJZSA-N

> <PUBCHEM_XLOGP3_AA>
3.2

> <PUBCHEM_EXACT_MASS>
338.11542367

> <PUBCHEM_MOLECULAR_FORMULA>
C20H18O5

> <PUBCHEM_MOLECULAR_WEIGHT>
338.4

> <PUBCHEM_OPENEYE_CAN_SMILES>
CC1=COC2=C1C(=O)C(=O)C3=C2C=CC4=C3CCCC4(C)C(=O)OC

> <PUBCHEM_OPENEYE_ISO_SMILES>
CC1=COC2=C1C(=O)C(=O)C3=C2C=CC4=C3CCC[C@]4(C)C(=O)OC

> <PUBCHEM_CACTVS_TPSA>
73.6

> <PUBCHEM_MONOISOTOPIC_WEIGHT>
338.11542367

> <PUBCHEM_TOTAL_CHARGE>
0

> <PUBCHEM_HEAVY_ATOM_COUNT>
25

> <PUBCHEM_ATOM_DEF_STEREO_COUNT>
1

> <PUBCHEM_ATOM_UDEF_STEREO_COUNT>
0

> <PUBCHEM_BOND_DEF_STEREO_COUNT>
0

> <PUBCHEM_BOND_UDEF_STEREO_COUNT>
0

> <PUBCHEM_ISOTOPIC_ATOM_COUNT>
0

> <PUBCHEM_COMPONENT_COUNT>
1

> <PUBCHEM_CACTVS_TAUTO_COUNT>
-1

> <PUBCHEM_COORDINATE_TYPE>
1
5
255

> <PUBCHEM_BONDANNOTATIONS>
10  12  8
12  16  8
14  17  8
16  17  8
18  20  8
2  18  8
2  23  8
20  22  8
22  23  8
6  13  6
8  10  8
8  14  8

$$$$
