SA1_0005.mol
  ChemDraw02172415262D

 19 21  0  0  0  0  0  0  0  0999 V2000
    1.7342   -0.0409    0.0000 C   0  0  0  0  0  0  0  0  0  0  0  0
    2.5440   -0.1988    0.0000 C   0  0  0  0  0  0  0  0  0  0  0  0
    3.0856    0.4234    0.0000 C   0  0  0  0  0  0  0  0  0  0  0  0
    2.8176    1.2037    0.0000 C   0  0  0  0  0  0  0  0  0  0  0  0
    2.0078    1.3616    0.0000 C   0  0  0  0  0  0  0  0  0  0  0  0
    1.4662    0.7393    0.0000 C   0  0  0  0  0  0  0  0  0  0  0  0
    0.6564    0.8973    0.0000 O   0  0  0  0  0  0  0  0  0  0  0  0
    0.1148    0.2750    0.0000 C   0  0  0  0  0  0  0  0  0  0  0  0
    0.3828   -0.5052    0.0000 C   0  0  0  0  0  0  0  0  0  0  0  0
    1.1926   -0.6632    0.0000 C   0  0  0  0  0  0  0  0  0  0  0  0
   -0.6950    0.4330    0.0000 C   0  0  0  0  0  0  0  0  0  0  0  0
   -0.9085    1.2299    0.0000 C   0  0  0  0  0  0  0  0  0  0  0  0
   -1.7054    1.4434    0.0000 C   0  0  0  0  0  0  0  0  0  0  0  0
   -2.2888    0.8600    0.0000 C   0  0  0  0  0  0  0  0  0  0  0  0
   -2.0752    0.0631    0.0000 C   0  0  0  0  0  0  0  0  0  0  0  0
   -1.2783   -0.1504    0.0000 C   0  0  0  0  0  0  0  0  0  0  0  0
   -3.0856    1.0736    0.0000 C   0  0  0  0  0  0  0  0  0  0  0  0
    1.4607   -1.4434    0.0000 O   0  0  0  0  0  0  0  0  0  0  0  0
   -0.1588   -1.1275    0.0000 O   0  0  0  0  0  0  0  0  0  0  0  0
  1  2  1  0      
  2  3  2  0      
  3  4  1  0      
  4  5  2  0      
  5  6  1  0      
  6  1  2  0      
  6  7  1  0      
  7  8  1  0      
  8  9  2  0      
  9 10  1  0      
 10  1  1  0      
  8 11  1  0      
 11 12  2  0      
 12 13  1  0      
 13 14  2  0      
 14 15  1  0      
 15 16  2  0      
 16 11  1  0      
 14 17  1  0      
 10 18  2  0      
  9 19  1  0      
M  END
