SV_J29_0003.mol
  ChemDraw04112408032D

 54 60  0  0  0  0  0  0  0  0999 V2000
   -3.2151    3.9187    0.0000 C   0  0  0  0  0  0  0  0  0  0  0  0
   -3.2151    3.0938    0.0000 C   0  0  0  0  0  0  0  0  0  0  0  0
   -2.5006    2.6812    0.0000 C   0  0  0  0  0  0  0  0  0  0  0  0
   -1.7862    3.0938    0.0000 C   0  0  0  0  0  0  0  0  0  0  0  0
   -1.7862    3.9187    0.0000 C   0  0  0  0  0  0  0  0  0  0  0  0
   -2.5006    4.3312    0.0000 C   0  0  0  0  0  0  0  0  0  0  0  0
   -3.9296    4.3312    0.0000 O   0  0  0  0  0  0  0  0  0  0  0  0
   -1.0717    4.3312    0.0000 O   0  0  0  0  0  0  0  0  0  0  0  0
   -2.5006    1.8562    0.0000 O   0  0  0  0  0  0  0  0  0  0  0  0
   -1.0717    2.6812    0.0000 O   0  0  0  0  0  0  0  0  0  0  0  0
   -1.0717    1.8562    0.0000 C   0  0  0  0  0  0  0  0  0  0  0  0
   -1.7862    1.4437    0.0000 C   0  0  0  0  0  0  0  0  0  0  0  0
   -1.7862    0.6188    0.0000 C   0  0  0  0  0  0  0  0  0  0  0  0
   -1.0717    0.2062    0.0000 C   0  0  0  0  0  0  0  0  0  0  0  0
   -0.3572    0.6188    0.0000 C   0  0  0  0  0  0  0  0  0  0  0  0
   -0.3572    1.4437    0.0000 C   0  0  0  0  0  0  0  0  0  0  0  0
    0.3572    1.8562    0.0000 C   0  0  0  0  0  0  0  0  0  0  0  0
   -2.5006    0.2062    0.0000 O   0  0  0  0  0  0  0  0  0  0  0  0
    0.3572    0.2062    0.0000 O   0  0  0  0  0  0  0  0  0  0  0  0
    1.0717    1.4437    0.0000 C   0  0  0  0  0  0  0  0  0  0  0  0
    1.7862    1.8562    0.0000 C   0  0  0  0  0  0  0  0  0  0  0  0
    1.7862    2.6812    0.0000 C   0  0  0  0  0  0  0  0  0  0  0  0
    1.0717    3.0938    0.0000 C   0  0  0  0  0  0  0  0  0  0  0  0
    0.3572    2.6812    0.0000 C   0  0  0  0  0  0  0  0  0  0  0  0
   -0.3572    3.0938    0.0000 O   0  0  0  0  0  0  0  0  0  0  0  0
    2.5006    3.0938    0.0000 O   0  0  0  0  0  0  0  0  0  0  0  0
    1.0717    0.6188    0.0000 O   0  0  0  0  0  0  0  0  0  0  0  0
    1.7862    0.2062    0.0000 C   0  0  0  0  0  0  0  0  0  0  0  0
    1.7862   -0.6188    0.0000 C   0  0  0  0  0  0  0  0  0  0  0  0
    2.5006   -1.0312    0.0000 C   0  0  0  0  0  0  0  0  0  0  0  0
    3.2151   -0.6188    0.0000 C   0  0  0  0  0  0  0  0  0  0  0  0
    3.2151    0.2062    0.0000 C   0  0  0  0  0  0  0  0  0  0  0  0
    2.5006    0.6188    0.0000 C   0  0  0  0  0  0  0  0  0  0  0  0
    2.5006    1.4437    0.0000 O   0  0  0  0  0  0  0  0  0  0  0  0
    3.9296   -1.0312    0.0000 O   0  0  0  0  0  0  0  0  0  0  0  0
    1.0717   -1.0312    0.0000 O   0  0  0  0  0  0  0  0  0  0  0  0
    1.0717   -1.8562    0.0000 C   0  0  0  0  0  0  0  0  0  0  0  0
    0.3572   -2.2687    0.0000 C   0  0  0  0  0  0  0  0  0  0  0  0
    0.3572   -3.0938    0.0000 C   0  0  0  0  0  0  0  0  0  0  0  0
    1.0717   -3.5062    0.0000 C   0  0  0  0  0  0  0  0  0  0  0  0
    1.7862   -3.0938    0.0000 C   0  0  0  0  0  0  0  0  0  0  0  0
    1.7862   -2.2687    0.0000 C   0  0  0  0  0  0  0  0  0  0  0  0
    2.5006   -1.8562    0.0000 O   0  0  0  0  0  0  0  0  0  0  0  0
    1.0717   -4.3312    0.0000 O   0  0  0  0  0  0  0  0  0  0  0  0
   -0.3572   -1.8562    0.0000 O   0  0  0  0  0  0  0  0  0  0  0  0
   -1.0717   -2.2687    0.0000 C   0  0  0  0  0  0  0  0  0  0  0  0
   -1.0717   -3.0938    0.0000 C   0  0  0  0  0  0  0  0  0  0  0  0
   -0.3572   -3.5062    0.0000 O   0  0  0  0  0  0  0  0  0  0  0  0
   -1.7862   -1.8562    0.0000 C   0  0  0  0  0  0  0  0  0  0  0  0
   -2.5006   -2.2687    0.0000 C   0  0  0  0  0  0  0  0  0  0  0  0
   -2.5006   -3.0938    0.0000 C   0  0  0  0  0  0  0  0  0  0  0  0
   -1.7862   -3.5062    0.0000 C   0  0  0  0  0  0  0  0  0  0  0  0
   -1.7862   -1.0312    0.0000 O   0  0  0  0  0  0  0  0  0  0  0  0
   -3.2151   -3.5062    0.0000 O   0  0  0  0  0  0  0  0  0  0  0  0
  1  2  2  0      
  2  3  1  0      
  3  4  2  0      
  4  5  1  0      
  5  6  2  0      
  6  1  1  0      
  1  7  1  0      
  5  8  1  0      
  3  9  1  0      
  4 10  1  0      
 10 11  1  0      
 11 12  2  0      
 12 13  1  0      
 13 14  2  0      
 14 15  1  0      
 15 16  2  0      
 16 11  1  0      
 16 17  1  0      
 13 18  1  0      
 15 19  1  0      
 17 20  2  0      
 20 21  1  0      
 21 22  2  0      
 22 23  1  0      
 23 24  2  0      
 24 17  1  0      
 24 25  1  0      
 22 26  1  0      
 20 27  1  0      
 27 28  1  0      
 28 29  2  0      
 29 30  1  0      
 30 31  2  0      
 31 32  1  0      
 32 33  2  0      
 33 28  1  0      
 33 34  1  0      
 31 35  1  0      
 29 36  1  0      
 36 37  1  0      
 37 38  2  0      
 38 39  1  0      
 39 40  2  0      
 40 41  1  0      
 41 42  2  0      
 42 37  1  0      
 42 43  1  0      
 40 44  1  0      
 38 45  1  0      
 45 46  1  0      
 46 47  2  0      
 47 48  1  0      
 48 39  1  0      
 46 49  1  0      
 49 50  2  0      
 50 51  1  0      
 51 52  2  0      
 52 47  1  0      
 49 53  1  0      
 51 54  1  0      
M  END
