SV_J29_0001.mol
  ChemDraw04112412022D

144159  0  0  0  0  0  0  0  0999 V2000
  -14.7831    2.6421    0.0000 C   0  0  0  0  0  0  0  0  0  0  0  0
  -15.2136    1.9383    0.0000 C   0  0  0  0  0  0  0  0  0  0  0  0
  -14.8194    1.2136    0.0000 C   0  0  0  0  0  0  0  0  0  0  0  0
  -13.9946    1.1927    0.0000 C   0  0  0  0  0  0  0  0  0  0  0  0
  -13.5641    1.8964    0.0000 C   0  0  0  0  0  0  0  0  0  0  0  0
  -13.9583    2.6211    0.0000 C   0  0  0  0  0  0  0  0  0  0  0  0
  -15.1773    3.3668    0.0000 O   0  0  0  0  0  0  0  0  0  0  0  0
  -15.2499    0.5098    0.0000 O   0  0  0  0  0  0  0  0  0  0  0  0
  -13.5278    3.3249    0.0000 O   0  0  0  0  0  0  0  0  0  0  0  0
  -12.7394    1.8755    0.0000 O   0  0  0  0  0  0  0  0  0  0  0  0
  -12.9445    3.9083    0.0000 C   0  0  0  0  0  0  0  0  0  0  0  0
  -11.9144    1.8755    0.0000 C   0  0  0  0  0  0  0  0  0  0  0  0
  -11.5019    1.1610    0.0000 C   0  0  0  0  0  0  0  0  0  0  0  0
  -10.6769    1.1610    0.0000 C   0  0  0  0  0  0  0  0  0  0  0  0
  -10.2644    1.8755    0.0000 C   0  0  0  0  0  0  0  0  0  0  0  0
  -10.6769    2.5899    0.0000 C   0  0  0  0  0  0  0  0  0  0  0  0
  -11.5019    2.5899    0.0000 C   0  0  0  0  0  0  0  0  0  0  0  0
  -12.1476    3.6947    0.0000 C   0  0  0  0  0  0  0  0  0  0  0  0
  -11.5642    4.2781    0.0000 C   0  0  0  0  0  0  0  0  0  0  0  0
  -11.7777    5.0750    0.0000 C   0  0  0  0  0  0  0  0  0  0  0  0
  -12.5746    5.2885    0.0000 C   0  0  0  0  0  0  0  0  0  0  0  0
  -13.1580    4.7052    0.0000 C   0  0  0  0  0  0  0  0  0  0  0  0
  -13.9549    4.9187    0.0000 O   0  0  0  0  0  0  0  0  0  0  0  0
  -11.9340    2.8979    0.0000 O   0  0  0  0  0  0  0  0  0  0  0  0
  -10.2644    3.3044    0.0000 O   0  0  0  0  0  0  0  0  0  0  0  0
  -10.2644    0.4465    0.0000 O   0  0  0  0  0  0  0  0  0  0  0  0
   -9.4394    1.8755    0.0000 O   0  0  0  0  0  0  0  0  0  0  0  0
   -8.6144    1.8755    0.0000 C   0  0  0  0  0  0  0  0  0  0  0  0
   -8.2019    1.1610    0.0000 C   0  0  0  0  0  0  0  0  0  0  0  0
   -7.3769    1.1610    0.0000 C   0  0  0  0  0  0  0  0  0  0  0  0
   -6.9644    1.8755    0.0000 C   0  0  0  0  0  0  0  0  0  0  0  0
   -7.3769    2.5899    0.0000 C   0  0  0  0  0  0  0  0  0  0  0  0
   -8.2019    2.5899    0.0000 C   0  0  0  0  0  0  0  0  0  0  0  0
   -8.6144    0.4465    0.0000 O   0  0  0  0  0  0  0  0  0  0  0  0
   -7.4376   -3.4176    0.0000 C   0  0  0  0  0  0  0  0  0  0  0  0
   -6.9644    3.3044    0.0000 O   0  0  0  0  0  0  0  0  0  0  0  0
   -6.9644    0.4465    0.0000 O   0  0  0  0  0  0  0  0  0  0  0  0
   -8.2626   -3.4176    0.0000 C   0  0  0  0  0  0  0  0  0  0  0  0
   -8.6751   -4.1320    0.0000 C   0  0  0  0  0  0  0  0  0  0  0  0
   -8.2626   -4.8465    0.0000 C   0  0  0  0  0  0  0  0  0  0  0  0
   -7.4376   -4.8465    0.0000 C   0  0  0  0  0  0  0  0  0  0  0  0
   -7.0251   -4.1320    0.0000 C   0  0  0  0  0  0  0  0  0  0  0  0
   -8.6751   -5.5610    0.0000 O   0  0  0  0  0  0  0  0  0  0  0  0
   -9.5001   -4.1320    0.0000 O   0  0  0  0  0  0  0  0  0  0  0  0
   -7.0251   -5.5610    0.0000 O   0  0  0  0  0  0  0  0  0  0  0  0
   -9.0876   -6.2755    0.0000 C   0  0  0  0  0  0  0  0  0  0  0  0
   -9.9126   -6.2755    0.0000 C   0  0  0  0  0  0  0  0  0  0  0  0
  -10.3251   -6.9899    0.0000 C   0  0  0  0  0  0  0  0  0  0  0  0
   -9.9126   -7.7044    0.0000 C   0  0  0  0  0  0  0  0  0  0  0  0
   -9.0876   -7.7044    0.0000 C   0  0  0  0  0  0  0  0  0  0  0  0
   -8.6751   -6.9899    0.0000 C   0  0  0  0  0  0  0  0  0  0  0  0
   -7.8501   -6.9899    0.0000 O   0  0  0  0  0  0  0  0  0  0  0  0
   -7.0251   -6.9899    0.0000 C   0  0  0  0  0  0  0  0  0  0  0  0
  -10.3251   -5.5610    0.0000 O   0  0  0  0  0  0  0  0  0  0  0  0
  -10.3251   -8.4189    0.0000 O   0  0  0  0  0  0  0  0  0  0  0  0
   -6.6126   -7.7044    0.0000 C   0  0  0  0  0  0  0  0  0  0  0  0
   -5.7876   -7.7044    0.0000 C   0  0  0  0  0  0  0  0  0  0  0  0
   -5.3751   -6.9899    0.0000 C   0  0  0  0  0  0  0  0  0  0  0  0
   -5.7876   -6.2755    0.0000 C   0  0  0  0  0  0  0  0  0  0  0  0
   -6.6126   -6.2755    0.0000 C   0  0  0  0  0  0  0  0  0  0  0  0
   -7.4095   -6.0619    0.0000 O   0  0  0  0  0  0  0  0  0  0  0  0
   -7.0251   -8.4189    0.0000 O   0  0  0  0  0  0  0  0  0  0  0  0
   -4.5501   -6.9899    0.0000 O   0  0  0  0  0  0  0  0  0  0  0  0
   -3.7251   -6.9899    0.0000 C   0  0  0  0  0  0  0  0  0  0  0  0
   -3.3126   -7.7044    0.0000 C   0  0  0  0  0  0  0  0  0  0  0  0
   -2.4876   -7.7044    0.0000 C   0  0  0  0  0  0  0  0  0  0  0  0
   -2.0751   -6.9899    0.0000 C   0  0  0  0  0  0  0  0  0  0  0  0
   -2.4876   -6.2755    0.0000 C   0  0  0  0  0  0  0  0  0  0  0  0
   -3.3126   -6.2755    0.0000 C   0  0  0  0  0  0  0  0  0  0  0  0
   -3.7251   -5.5610    0.0000 O   0  0  0  0  0  0  0  0  0  0  0  0
   -3.7251   -8.4189    0.0000 O   0  0  0  0  0  0  0  0  0  0  0  0
   -1.2501   -6.9899    0.0000 O   0  0  0  0  0  0  0  0  0  0  0  0
   -0.4251   -6.9899    0.0000 C   0  0  0  0  0  0  0  0  0  0  0  0
   -0.0126   -7.7044    0.0000 C   0  0  0  0  0  0  0  0  0  0  0  0
    0.8124   -7.7044    0.0000 C   0  0  0  0  0  0  0  0  0  0  0  0
    1.2249   -6.9899    0.0000 C   0  0  0  0  0  0  0  0  0  0  0  0
    0.8124   -6.2755    0.0000 C   0  0  0  0  0  0  0  0  0  0  0  0
   -0.0126   -6.2755    0.0000 C   0  0  0  0  0  0  0  0  0  0  0  0
   -0.4251   -5.5610    0.0000 O   0  0  0  0  0  0  0  0  0  0  0  0
   -0.4251   -8.4189    0.0000 O   0  0  0  0  0  0  0  0  0  0  0  0
    2.0499   -6.9899    0.0000 O   0  0  0  0  0  0  0  0  0  0  0  0
    2.8749   -6.9899    0.0000 C   0  0  0  0  0  0  0  0  0  0  0  0
    3.2874   -7.7044    0.0000 C   0  0  0  0  0  0  0  0  0  0  0  0
    4.1124   -7.7044    0.0000 C   0  0  0  0  0  0  0  0  0  0  0  0
    4.5249   -6.9899    0.0000 C   0  0  0  0  0  0  0  0  0  0  0  0
    4.1124   -6.2755    0.0000 C   0  0  0  0  0  0  0  0  0  0  0  0
    3.2874   -6.2755    0.0000 C   0  0  0  0  0  0  0  0  0  0  0  0
    2.8749   -5.5610    0.0000 O   0  0  0  0  0  0  0  0  0  0  0  0
    2.8749   -8.4189    0.0000 O   0  0  0  0  0  0  0  0  0  0  0  0
    5.3499   -6.9899    0.0000 O   0  0  0  0  0  0  0  0  0  0  0  0
    6.1749   -6.9899    0.0000 C   0  0  0  0  0  0  0  0  0  0  0  0
    6.5874   -7.7044    0.0000 C   0  0  0  0  0  0  0  0  0  0  0  0
    7.4124   -7.7044    0.0000 C   0  0  0  0  0  0  0  0  0  0  0  0
    7.8249   -6.9899    0.0000 C   0  0  0  0  0  0  0  0  0  0  0  0
    7.4124   -6.2755    0.0000 C   0  0  0  0  0  0  0  0  0  0  0  0
    6.5874   -6.2755    0.0000 C   0  0  0  0  0  0  0  0  0  0  0  0
    8.6499   -6.9899    0.0000 O   0  0  0  0  0  0  0  0  0  0  0  0
    6.1749   -8.4189    0.0000 O   0  0  0  0  0  0  0  0  0  0  0  0
    6.1749   -5.5610    0.0000 O   0  0  0  0  0  0  0  0  0  0  0  0
  -11.1944    5.6584    0.0000 O   0  0  0  0  0  0  0  0  0  0  0  0
  -10.6110    6.2417    0.0000 C   0  0  0  0  0  0  0  0  0  0  0  0
   -9.8141    6.0282    0.0000 C   0  0  0  0  0  0  0  0  0  0  0  0
   -9.2308    6.6116    0.0000 C   0  0  0  0  0  0  0  0  0  0  0  0
   -9.4443    7.4085    0.0000 C   0  0  0  0  0  0  0  0  0  0  0  0
  -10.2412    7.6220    0.0000 C   0  0  0  0  0  0  0  0  0  0  0  0
  -10.8245    7.0386    0.0000 C   0  0  0  0  0  0  0  0  0  0  0  0
  -10.4547    8.4189    0.0000 O   0  0  0  0  0  0  0  0  0  0  0  0
   -8.4339    6.3980    0.0000 O   0  0  0  0  0  0  0  0  0  0  0  0
    9.4749   -6.9899    0.0000 C   0  0  0  0  0  0  0  0  0  0  0  0
    9.8874   -7.7044    0.0000 C   0  0  0  0  0  0  0  0  0  0  0  0
   10.7124   -7.7044    0.0000 C   0  0  0  0  0  0  0  0  0  0  0  0
   11.1249   -6.9899    0.0000 C   0  0  0  0  0  0  0  0  0  0  0  0
   10.7124   -6.2755    0.0000 C   0  0  0  0  0  0  0  0  0  0  0  0
    9.8874   -6.2755    0.0000 C   0  0  0  0  0  0  0  0  0  0  0  0
    9.4749   -5.5610    0.0000 O   0  0  0  0  0  0  0  0  0  0  0  0
    9.4749   -8.4189    0.0000 O   0  0  0  0  0  0  0  0  0  0  0  0
   11.9499   -6.9899    0.0000 O   0  0  0  0  0  0  0  0  0  0  0  0
   12.7749   -6.9899    0.0000 C   0  0  0  0  0  0  0  0  0  0  0  0
   13.1874   -7.7044    0.0000 C   0  0  0  0  0  0  0  0  0  0  0  0
   14.0124   -7.7044    0.0000 C   0  0  0  0  0  0  0  0  0  0  0  0
   14.4249   -6.9899    0.0000 C   0  0  0  0  0  0  0  0  0  0  0  0
   14.0124   -6.2755    0.0000 C   0  0  0  0  0  0  0  0  0  0  0  0
   13.1874   -6.2755    0.0000 C   0  0  0  0  0  0  0  0  0  0  0  0
   12.7749   -5.5610    0.0000 O   0  0  0  0  0  0  0  0  0  0  0  0
   12.7749   -8.4189    0.0000 O   0  0  0  0  0  0  0  0  0  0  0  0
   15.2499   -6.9899    0.0000 O   0  0  0  0  0  0  0  0  0  0  0  0
   -9.0269   -0.2679    0.0000 C   0  0  0  0  0  0  0  0  0  0  0  0
   -9.8519   -0.2679    0.0000 C   0  0  0  0  0  0  0  0  0  0  0  0
  -10.2644   -0.9824    0.0000 C   0  0  0  0  0  0  0  0  0  0  0  0
   -9.8519   -1.6969    0.0000 C   0  0  0  0  0  0  0  0  0  0  0  0
   -9.0269   -1.6969    0.0000 C   0  0  0  0  0  0  0  0  0  0  0  0
   -8.6144   -0.9824    0.0000 C   0  0  0  0  0  0  0  0  0  0  0  0
  -11.0894   -0.9824    0.0000 O   0  0  0  0  0  0  0  0  0  0  0  0
   -8.6144   -2.4113    0.0000 O   0  0  0  0  0  0  0  0  0  0  0  0
   -7.7894   -0.9824    0.0000 O   0  0  0  0  0  0  0  0  0  0  0  0
   -6.9644   -0.9824    0.0000 C   0  0  0  0  0  0  0  0  0  0  0  0
   -6.5519   -1.6969    0.0000 C   0  0  0  0  0  0  0  0  0  0  0  0
   -5.7269   -1.6969    0.0000 C   0  0  0  0  0  0  0  0  0  0  0  0
   -5.3144   -0.9824    0.0000 C   0  0  0  0  0  0  0  0  0  0  0  0
   -5.7269   -0.2679    0.0000 C   0  0  0  0  0  0  0  0  0  0  0  0
   -6.5519   -0.2679    0.0000 C   0  0  0  0  0  0  0  0  0  0  0  0
   -5.3144    0.4465    0.0000 O   0  0  0  0  0  0  0  0  0  0  0  0
   -5.3144   -2.4113    0.0000 O   0  0  0  0  0  0  0  0  0  0  0  0
   -6.9644   -2.4113    0.0000 O   0  0  0  0  0  0  0  0  0  0  0  0
  1  2  2  0      
  2  3  1  0      
  3  4  2  0      
  4  5  1  0      
  5  6  2  0      
  6  1  1  0      
  1  7  1  0      
  3  8  1  0      
  6  9  1  0      
  5 10  1  0      
  9 11  1  0      
 10 12  1  0      
 12 13  2  0      
 13 14  1  0      
 14 15  2  0      
 15 16  1  0      
 16 17  2  0      
 17 12  1  0      
 11 18  2  0      
 18 19  1  0      
 19 20  2  0      
 20 21  1  0      
 21 22  2  0      
 22 11  1  0      
 22 23  1  0      
 18 24  1  0      
 16 25  1  0      
 14 26  1  0      
 15 27  1  0      
 27 28  1  0      
 28 29  2  0      
 29 30  1  0      
 30 31  2  0      
 31 32  1  0      
 32 33  2  0      
 33 28  1  0      
 29 34  1  0      
 32 36  1  0      
 30 37  1  0      
 35 38  2  0      
 38 39  1  0      
 39 40  2  0      
 40 41  1  0      
 41 42  2  0      
 42 35  1  0      
 40 43  1  0      
 39 44  1  0      
 41 45  1  0      
 43 46  1  0      
 46 47  2  0      
 47 48  1  0      
 48 49  2  0      
 49 50  1  0      
 50 51  2  0      
 51 46  1  0      
 51 52  1  0      
 52 53  1  0      
 47 54  1  0      
 49 55  1  0      
 53 56  2  0      
 56 57  1  0      
 57 58  2  0      
 58 59  1  0      
 59 60  2  0      
 60 53  1  0      
 60 61  1  0      
 56 62  1  0      
 58 63  1  0      
 63 64  1  0      
 64 65  2  0      
 65 66  1  0      
 66 67  2  0      
 67 68  1  0      
 68 69  2  0      
 69 64  1  0      
 69 70  1  0      
 65 71  1  0      
 67 72  1  0      
 72 73  1  0      
 73 74  2  0      
 74 75  1  0      
 75 76  2  0      
 76 77  1  0      
 77 78  2  0      
 78 73  1  0      
 78 79  1  0      
 74 80  1  0      
 76 81  1  0      
 81 82  1  0      
 82 83  2  0      
 83 84  1  0      
 84 85  2  0      
 85 86  1  0      
 86 87  2  0      
 87 82  1  0      
 87 88  1  0      
 83 89  1  0      
 85 90  1  0      
 90 91  1  0      
 91 92  2  0      
 92 93  1  0      
 93 94  2  0      
 94 95  1  0      
 95 96  2  0      
 96 91  1  0      
 94 97  1  0      
 92 98  1  0      
 96 99  1  0      
 20100  1  0      
100101  1  0      
101102  2  0      
102103  1  0      
103104  2  0      
104105  1  0      
105106  2  0      
106101  1  0      
105107  1  0      
103108  1  0      
 97109  1  0      
109110  2  0      
110111  1  0      
111112  2  0      
112113  1  0      
113114  2  0      
114109  1  0      
114115  1  0      
110116  1  0      
112117  1  0      
117118  1  0      
118119  2  0      
119120  1  0      
120121  2  0      
121122  1  0      
122123  2  0      
123118  1  0      
123124  1  0      
119125  1  0      
121126  1  0      
 34127  1  0      
127128  2  0      
128129  1  0      
129130  2  0      
130131  1  0      
131132  2  0      
132127  1  0      
129133  1  0      
131134  1  0      
132135  1  0      
135136  1  0      
136137  2  0      
137138  1  0      
138139  2  0      
139140  1  0      
140141  2  0      
141136  1  0      
140142  1  0      
138143  1  0      
137144  1  0      
144 35  1  0      
M  END
