25183872
  -OEChem-08142406092D

 42 42  0     1  0  0  0  0  0999 V2000
    2.0000   -2.3100    0.0000 Cl  0  0  0  0  0  0  0  0  0  0  0  0
    5.4641   -4.3100    0.0000 Cl  0  0  0  0  0  0  0  0  0  0  0  0
    7.1962    3.6900    0.0000 O   0  0  0  0  0  0  0  0  0  0  0  0
    5.4641    3.6900    0.0000 O   0  0  0  0  0  0  0  0  0  0  0  0
    6.3301    0.1900    0.0000 O   0  0  0  0  0  0  0  0  0  0  0  0
    2.8660   -0.8100    0.0000 O   0  0  0  0  0  0  0  0  0  0  0  0
    5.4641    1.6900    0.0000 N   0  0  0  0  0  0  0  0  0  0  0  0
    4.5981   -0.8100    0.0000 N   0  0  0  0  0  0  0  0  0  0  0  0
    8.0622    2.1900    0.0000 C   0  0  0  0  0  0  0  0  0  0  0  0
    7.1962    1.6900    0.0000 C   0  0  0  0  0  0  0  0  0  0  0  0
    6.3301    2.1900    0.0000 C   0  0  1  0  0  0  0  0  0  0  0  0
    8.9282    1.6900    0.0000 C   0  0  0  0  0  0  0  0  0  0  0  0
    8.0622    3.1900    0.0000 C   0  0  0  0  0  0  0  0  0  0  0  0
    5.4641    0.6900    0.0000 C   0  0  0  0  0  0  0  0  0  0  0  0
    4.5981    0.1900    0.0000 C   0  0  0  0  0  0  0  0  0  0  0  0
    3.7320   -1.3100    0.0000 C   0  0  0  0  0  0  0  0  0  0  0  0
    3.7320   -2.3100    0.0000 C   0  0  0  0  0  0  0  0  0  0  0  0
    2.8660   -2.8100    0.0000 C   0  0  0  0  0  0  0  0  0  0  0  0
    4.5981   -2.8100    0.0000 C   0  0  0  0  0  0  0  0  0  0  0  0
    4.5981   -3.8100    0.0000 C   0  0  0  0  0  0  0  0  0  0  0  0
    2.8660   -3.8100    0.0000 C   0  0  0  0  0  0  0  0  0  0  0  0
    3.7320   -4.3100    0.0000 C   0  0  0  0  0  0  0  0  0  0  0  0
    6.3301    3.1900    0.0000 B   0  0  0  0  0  0  0  0  0  0  0  0
    6.7976    1.2150    0.0000 H   0  0  0  0  0  0  0  0  0  0  0  0
    7.5947    1.2150    0.0000 H   0  0  0  0  0  0  0  0  0  0  0  0
    8.0622    1.5700    0.0000 H   0  0  0  0  0  0  0  0  0  0  0  0
    5.7932    2.5000    0.0000 H   0  0  0  0  0  0  0  0  0  0  0  0
    8.6182    1.1531    0.0000 H   0  0  0  0  0  0  0  0  0  0  0  0
    9.4651    1.3800    0.0000 H   0  0  0  0  0  0  0  0  0  0  0  0
    9.2382    2.2269    0.0000 H   0  0  0  0  0  0  0  0  0  0  0  0
    8.6822    3.1900    0.0000 H   0  0  0  0  0  0  0  0  0  0  0  0
    8.0622    3.8100    0.0000 H   0  0  0  0  0  0  0  0  0  0  0  0
    7.4422    3.1900    0.0000 H   0  0  0  0  0  0  0  0  0  0  0  0
    4.9272    2.0000    0.0000 H   0  0  0  0  0  0  0  0  0  0  0  0
    4.3860    0.7726    0.0000 H   0  0  0  0  0  0  0  0  0  0  0  0
    3.9875    0.0823    0.0000 H   0  0  0  0  0  0  0  0  0  0  0  0
    5.1350   -1.1200    0.0000 H   0  0  0  0  0  0  0  0  0  0  0  0
    7.1962    4.3100    0.0000 H   0  0  0  0  0  0  0  0  0  0  0  0
    5.4641    4.3100    0.0000 H   0  0  0  0  0  0  0  0  0  0  0  0
    5.1350   -2.5000    0.0000 H   0  0  0  0  0  0  0  0  0  0  0  0
    2.3291   -4.1200    0.0000 H   0  0  0  0  0  0  0  0  0  0  0  0
    3.7320   -4.9300    0.0000 H   0  0  0  0  0  0  0  0  0  0  0  0
  1 18  1  0  0  0  0
  2 20  1  0  0  0  0
  3 23  1  0  0  0  0
  3 38  1  0  0  0  0
  4 23  1  0  0  0  0
  4 39  1  0  0  0  0
  5 14  2  0  0  0  0
  6 16  2  0  0  0  0
 11  7  1  6  0  0  0
  7 14  1  0  0  0  0
  7 34  1  0  0  0  0
  8 15  1  0  0  0  0
  8 16  1  0  0  0  0
  8 37  1  0  0  0  0
  9 10  1  0  0  0  0
  9 12  1  0  0  0  0
  9 13  1  0  0  0  0
  9 26  1  0  0  0  0
 10 11  1  0  0  0  0
 10 24  1  0  0  0  0
 10 25  1  0  0  0  0
 11 23  1  0  0  0  0
 11 27  1  0  0  0  0
 12 28  1  0  0  0  0
 12 29  1  0  0  0  0
 12 30  1  0  0  0  0
 13 31  1  0  0  0  0
 13 32  1  0  0  0  0
 13 33  1  0  0  0  0
 14 15  1  0  0  0  0
 15 35  1  0  0  0  0
 15 36  1  0  0  0  0
 16 17  1  0  0  0  0
 17 18  2  0  0  0  0
 17 19  1  0  0  0  0
 18 21  1  0  0  0  0
 19 20  2  0  0  0  0
 19 40  1  0  0  0  0
 20 22  1  0  0  0  0
 21 22  2  0  0  0  0
 21 41  1  0  0  0  0
 22 42  1  0  0  0  0
M  END
> <PUBCHEM_COMPOUND_CID>
25183872

> <PUBCHEM_COMPOUND_CANONICALIZED>
1

> <PUBCHEM_CACTVS_COMPLEXITY>
412

> <PUBCHEM_CACTVS_HBOND_ACCEPTOR>
4

> <PUBCHEM_CACTVS_HBOND_DONOR>
4

> <PUBCHEM_CACTVS_ROTATABLE_BOND>
7

> <PUBCHEM_CACTVS_SUBSKEYS>
AAADceJzOAAGAAAAAAAAAAAAAAAAAAAAAAAwAAAAAAAAAAABAAAoHgIQCAAADQLBmCQyAILAAACIAiFSEACCAAAkBQAIiIGIBsgIYDKBlzGUIQhglgCIjYcYiACOAAAQIAABAAAAACBAAAIAAAAAAAAAAA==

> <PUBCHEM_IUPAC_OPENEYE_NAME>
[(1R)-1-[[2-[(2,5-dichlorobenzoyl)amino]acetyl]amino]-3-methyl-butyl]boronic acid

> <PUBCHEM_IUPAC_CAS_NAME>
[(1R)-1-[[2-[[(2,5-dichlorophenyl)-oxomethyl]amino]-1-oxoethyl]amino]-3-methylbutyl]boronic acid

> <PUBCHEM_IUPAC_NAME_MARKUP>
[(1<I>R</I>)-1-[[2-[(2,5-dichlorobenzoyl)amino]acetyl]amino]-3-methylbutyl]boronic acid

> <PUBCHEM_IUPAC_NAME>
[(1R)-1-[[2-[(2,5-dichlorobenzoyl)amino]acetyl]amino]-3-methylbutyl]boronic acid

> <PUBCHEM_IUPAC_SYSTEMATIC_NAME>
[(1R)-1-[2-[[2,5-bis(chloranyl)phenyl]carbonylamino]ethanoylamino]-3-methyl-butyl]boronic acid

> <PUBCHEM_IUPAC_TRADITIONAL_NAME>
[(1R)-1-[[2-[(2,5-dichlorobenzoyl)amino]acetyl]amino]-3-methyl-butyl]boronic acid

> <PUBCHEM_IUPAC_INCHI>
InChI=1S/C14H19BCl2N2O4/c1-8(2)5-12(15(22)23)19-13(20)7-18-14(21)10-6-9(16)3-4-11(10)17/h3-4,6,8,12,22-23H,5,7H2,1-2H3,(H,18,21)(H,19,20)/t12-/m0/s1

> <PUBCHEM_IUPAC_INCHIKEY>
MXAYKZJJDUDWDS-LBPRGKRZSA-N

> <PUBCHEM_EXACT_MASS>
360.0814926

> <PUBCHEM_MOLECULAR_FORMULA>
C14H19BCl2N2O4

> <PUBCHEM_MOLECULAR_WEIGHT>
361.0

> <PUBCHEM_OPENEYE_CAN_SMILES>
B(C(CC(C)C)NC(=O)CNC(=O)C1=C(C=CC(=C1)Cl)Cl)(O)O

> <PUBCHEM_OPENEYE_ISO_SMILES>
B([C@H](CC(C)C)NC(=O)CNC(=O)C1=C(C=CC(=C1)Cl)Cl)(O)O

> <PUBCHEM_CACTVS_TPSA>
98.7

> <PUBCHEM_MONOISOTOPIC_WEIGHT>
360.0814926

> <PUBCHEM_TOTAL_CHARGE>
0

> <PUBCHEM_HEAVY_ATOM_COUNT>
23

> <PUBCHEM_ATOM_DEF_STEREO_COUNT>
1

> <PUBCHEM_ATOM_UDEF_STEREO_COUNT>
0

> <PUBCHEM_BOND_DEF_STEREO_COUNT>
0

> <PUBCHEM_BOND_UDEF_STEREO_COUNT>
0

> <PUBCHEM_ISOTOPIC_ATOM_COUNT>
0

> <PUBCHEM_COMPONENT_COUNT>
1

> <PUBCHEM_CACTVS_TAUTO_COUNT>
-1

> <PUBCHEM_COORDINATE_TYPE>
1
5
255

> <PUBCHEM_BONDANNOTATIONS>
17  18  8
17  19  8
18  21  8
19  20  8
20  22  8
21  22  8
11  7  6

$$$$
