543620
  -OEChem-08142406072D

 93 97  0     1  0  0  0  0  0999 V2000
    2.8641   -2.8576    0.0000 Si  0  0  0  0  0  0  0  0  0  0  0  0
    3.7282   -3.3610    0.0000 O   0  0  0  0  0  0  0  0  0  0  0  0
    9.1213   -0.3086    0.0000 C   0  0  3  0  0  0  0  0  0  0  0  0
   10.0675   -0.0039    0.0000 C   0  0  3  0  0  0  0  0  0  0  0  0
   11.3567    1.1528    0.0000 C   0  0  3  0  0  0  0  0  0  0  0  0
    9.1213   -1.3086    0.0000 C   0  0  3  0  0  0  0  0  0  0  0  0
   12.1010    1.8207    0.0000 C   0  0  3  0  0  0  0  0  0  0  0  0
   10.3781    0.9466    0.0000 C   0  0  3  0  0  0  0  0  0  0  0  0
   12.3072    0.8422    0.0000 C   0  0  0  0  0  0  0  0  0  0  0  0
    8.2552   -1.8086    0.0000 C   0  0  3  0  0  0  0  0  0  0  0  0
    7.3892   -1.3086    0.0000 C   0  0  3  0  0  0  0  0  0  0  0  0
   10.6511   -0.8086    0.0000 C   0  0  0  0  0  0  0  0  0  0  0  0
   10.0675   -1.6134    0.0000 C   0  0  0  0  0  0  0  0  0  0  0  0
    8.2552    0.1914    0.0000 C   0  0  0  0  0  0  0  0  0  0  0  0
    7.3892   -0.3086    0.0000 C   0  0  0  0  0  0  0  0  0  0  0  0
    6.4792   -1.8155    0.0000 C   0  0  3  0  0  0  0  0  0  0  0  0
   13.0795    2.0269    0.0000 C   0  0  3  0  0  0  0  0  0  0  0  0
    9.1213    0.6914    0.0000 C   0  0  0  0  0  0  0  0  0  0  0  0
    8.2713   -2.8501    0.0000 C   0  0  0  0  0  0  0  0  0  0  0  0
   11.4331    2.5650    0.0000 C   0  0  0  0  0  0  0  0  0  0  0  0
    9.7103    1.6909    0.0000 C   0  0  0  0  0  0  0  0  0  0  0  0
    6.4712   -2.8571    0.0000 C   0  0  0  0  0  0  0  0  0  0  0  0
    5.5524   -1.2514    0.0000 C   0  0  0  0  0  0  0  0  0  0  0  0
   13.3901    2.9774    0.0000 C   0  0  0  0  0  0  0  0  0  0  0  0
    7.3733   -3.3779    0.0000 C   0  0  0  0  0  0  0  0  0  0  0  0
    6.4869   -0.8155    0.0000 C   0  0  0  0  0  0  0  0  0  0  0  0
   13.7473    1.2826    0.0000 C   0  0  0  0  0  0  0  0  0  0  0  0
    5.5358   -3.4068    0.0000 C   0  0  0  0  0  0  0  0  0  0  0  0
    4.6045   -1.7793    0.0000 C   0  0  0  0  0  0  0  0  0  0  0  0
    4.5961   -2.8643    0.0000 C   0  0  3  0  0  0  0  0  0  0  0  0
   14.3686    3.1836    0.0000 C   0  0  0  0  0  0  0  0  0  0  0  0
   12.7223    3.7217    0.0000 C   0  0  0  0  0  0  0  0  0  0  0  0
    2.0000   -2.3543    0.0000 C   0  0  0  0  0  0  0  0  0  0  0  0
    2.3608   -3.7217    0.0000 C   0  0  0  0  0  0  0  0  0  0  0  0
    3.3674   -1.9935    0.0000 C   0  0  0  0  0  0  0  0  0  0  0  0
   10.6800    0.0923    0.0000 H   0  0  0  0  0  0  0  0  0  0  0  0
   11.3231    0.5337    0.0000 H   0  0  0  0  0  0  0  0  0  0  0  0
    9.1869   -1.9252    0.0000 H   0  0  0  0  0  0  0  0  0  0  0  0
   10.5708    1.5359    0.0000 H   0  0  0  0  0  0  0  0  0  0  0  0
   12.2198    0.2284    0.0000 H   0  0  0  0  0  0  0  0  0  0  0  0
   12.9268    0.8627    0.0000 H   0  0  0  0  0  0  0  0  0  0  0  0
    8.7945   -2.1145    0.0000 H   0  0  0  0  0  0  0  0  0  0  0  0
    7.9262   -0.9986    0.0000 H   0  0  0  0  0  0  0  0  0  0  0  0
   11.1120   -1.2234    0.0000 H   0  0  0  0  0  0  0  0  0  0  0  0
   11.1120   -0.3939    0.0000 H   0  0  0  0  0  0  0  0  0  0  0  0
    9.8164   -2.1803    0.0000 H   0  0  0  0  0  0  0  0  0  0  0  0
   10.6049   -1.9226    0.0000 H   0  0  0  0  0  0  0  0  0  0  0  0
    8.6538    0.6663    0.0000 H   0  0  0  0  0  0  0  0  0  0  0  0
    7.8567    0.6663    0.0000 H   0  0  0  0  0  0  0  0  0  0  0  0
    7.1772    0.2740    0.0000 H   0  0  0  0  0  0  0  0  0  0  0  0
    6.7786   -0.4163    0.0000 H   0  0  0  0  0  0  0  0  0  0  0  0
   12.8869    1.4376    0.0000 H   0  0  0  0  0  0  0  0  0  0  0  0
    9.7413    0.6914    0.0000 H   0  0  0  0  0  0  0  0  0  0  0  0
    9.1213    1.3114    0.0000 H   0  0  0  0  0  0  0  0  0  0  0  0
    8.5013    0.6914    0.0000 H   0  0  0  0  0  0  0  0  0  0  0  0
    8.4893   -3.4305    0.0000 H   0  0  0  0  0  0  0  0  0  0  0  0
    8.8804   -2.7346    0.0000 H   0  0  0  0  0  0  0  0  0  0  0  0
   11.8946    2.9790    0.0000 H   0  0  0  0  0  0  0  0  0  0  0  0
   11.0191    3.0264    0.0000 H   0  0  0  0  0  0  0  0  0  0  0  0
   10.9716    2.1509    0.0000 H   0  0  0  0  0  0  0  0  0  0  0  0
   10.1718    2.1050    0.0000 H   0  0  0  0  0  0  0  0  0  0  0  0
    9.2962    2.1524    0.0000 H   0  0  0  0  0  0  0  0  0  0  0  0
    9.2488    1.2769    0.0000 H   0  0  0  0  0  0  0  0  0  0  0  0
    5.9606   -0.7847    0.0000 H   0  0  0  0  0  0  0  0  0  0  0  0
    5.1625   -0.7694    0.0000 H   0  0  0  0  0  0  0  0  0  0  0  0
   12.7835    2.8496    0.0000 H   0  0  0  0  0  0  0  0  0  0  0  0
    7.3756   -3.9979    0.0000 H   0  0  0  0  0  0  0  0  0  0  0  0
    7.1069   -0.8203    0.0000 H   0  0  0  0  0  0  0  0  0  0  0  0
    6.4917   -0.1955    0.0000 H   0  0  0  0  0  0  0  0  0  0  0  0
    5.8669   -0.8107    0.0000 H   0  0  0  0  0  0  0  0  0  0  0  0
   13.2858    0.8685    0.0000 H   0  0  0  0  0  0  0  0  0  0  0  0
   14.1614    0.8211    0.0000 H   0  0  0  0  0  0  0  0  0  0  0  0
   14.2088    1.6967    0.0000 H   0  0  0  0  0  0  0  0  0  0  0  0
    5.1385   -3.8828    0.0000 H   0  0  0  0  0  0  0  0  0  0  0  0
    5.9367   -3.8797    0.0000 H   0  0  0  0  0  0  0  0  0  0  0  0
    4.3999   -1.1941    0.0000 H   0  0  0  0  0  0  0  0  0  0  0  0
    3.9928   -1.8807    0.0000 H   0  0  0  0  0  0  0  0  0  0  0  0
    4.5949   -3.4843    0.0000 H   0  0  0  0  0  0  0  0  0  0  0  0
   14.4965    2.5770    0.0000 H   0  0  0  0  0  0  0  0  0  0  0  0
   14.9753    3.3115    0.0000 H   0  0  0  0  0  0  0  0  0  0  0  0
   14.2408    3.7903    0.0000 H   0  0  0  0  0  0  0  0  0  0  0  0
   13.1837    4.1358    0.0000 H   0  0  0  0  0  0  0  0  0  0  0  0
   12.3082    4.1832    0.0000 H   0  0  0  0  0  0  0  0  0  0  0  0
   12.2608    3.3077    0.0000 H   0  0  0  0  0  0  0  0  0  0  0  0
    2.3121   -1.8186    0.0000 H   0  0  0  0  0  0  0  0  0  0  0  0
    1.4643   -2.0422    0.0000 H   0  0  0  0  0  0  0  0  0  0  0  0
    1.6879   -2.8900    0.0000 H   0  0  0  0  0  0  0  0  0  0  0  0
    1.8250   -3.4096    0.0000 H   0  0  0  0  0  0  0  0  0  0  0  0
    2.0487   -4.2575    0.0000 H   0  0  0  0  0  0  0  0  0  0  0  0
    2.8965   -4.0338    0.0000 H   0  0  0  0  0  0  0  0  0  0  0  0
    3.9032   -2.3056    0.0000 H   0  0  0  0  0  0  0  0  0  0  0  0
    3.6795   -1.4578    0.0000 H   0  0  0  0  0  0  0  0  0  0  0  0
    2.8317   -1.6815    0.0000 H   0  0  0  0  0  0  0  0  0  0  0  0
  1  2  1  0  0  0  0
  1 33  1  0  0  0  0
  1 34  1  0  0  0  0
  1 35  1  0  0  0  0
  2 30  1  0  0  0  0
  3  4  1  0  0  0  0
  3  6  1  0  0  0  0
  3 14  1  0  0  0  0
  3 18  1  0  0  0  0
  4  8  1  0  0  0  0
  4 12  1  0  0  0  0
  4 36  1  0  0  0  0
  5  7  1  0  0  0  0
  5  8  1  0  0  0  0
  5  9  1  0  0  0  0
  5 37  1  0  0  0  0
  6 10  1  0  0  0  0
  6 13  1  0  0  0  0
  6 38  1  0  0  0  0
  7  9  1  0  0  0  0
  7 17  1  0  0  0  0
  7 20  1  0  0  0  0
  8 21  1  0  0  0  0
  8 39  1  0  0  0  0
  9 40  1  0  0  0  0
  9 41  1  0  0  0  0
 10 11  1  0  0  0  0
 10 19  1  0  0  0  0
 10 42  1  0  0  0  0
 11 15  1  0  0  0  0
 11 16  1  0  0  0  0
 11 43  1  0  0  0  0
 12 13  1  0  0  0  0
 12 44  1  0  0  0  0
 12 45  1  0  0  0  0
 13 46  1  0  0  0  0
 13 47  1  0  0  0  0
 14 15  1  0  0  0  0
 14 48  1  0  0  0  0
 14 49  1  0  0  0  0
 15 50  1  0  0  0  0
 15 51  1  0  0  0  0
 16 22  1  0  0  0  0
 16 23  1  0  0  0  0
 16 26  1  0  0  0  0
 17 24  1  0  0  0  0
 17 27  1  0  0  0  0
 17 52  1  0  0  0  0
 18 53  1  0  0  0  0
 18 54  1  0  0  0  0
 18 55  1  0  0  0  0
 19 25  1  0  0  0  0
 19 56  1  0  0  0  0
 19 57  1  0  0  0  0
 20 58  1  0  0  0  0
 20 59  1  0  0  0  0
 20 60  1  0  0  0  0
 21 61  1  0  0  0  0
 21 62  1  0  0  0  0
 21 63  1  0  0  0  0
 22 25  2  0  0  0  0
 22 28  1  0  0  0  0
 23 29  1  0  0  0  0
 23 64  1  0  0  0  0
 23 65  1  0  0  0  0
 24 31  1  0  0  0  0
 24 32  1  0  0  0  0
 24 66  1  0  0  0  0
 25 67  1  0  0  0  0
 26 68  1  0  0  0  0
 26 69  1  0  0  0  0
 26 70  1  0  0  0  0
 27 71  1  0  0  0  0
 27 72  1  0  0  0  0
 27 73  1  0  0  0  0
 28 30  1  0  0  0  0
 28 74  1  0  0  0  0
 28 75  1  0  0  0  0
 29 30  1  0  0  0  0
 29 76  1  0  0  0  0
 29 77  1  0  0  0  0
 30 78  1  0  0  0  0
 31 79  1  0  0  0  0
 31 80  1  0  0  0  0
 31 81  1  0  0  0  0
 32 82  1  0  0  0  0
 32 83  1  0  0  0  0
 32 84  1  0  0  0  0
 33 85  1  0  0  0  0
 33 86  1  0  0  0  0
 33 87  1  0  0  0  0
 34 88  1  0  0  0  0
 34 89  1  0  0  0  0
 34 90  1  0  0  0  0
 35 91  1  0  0  0  0
 35 92  1  0  0  0  0
 35 93  1  0  0  0  0
M  END
> <PUBCHEM_COMPOUND_CID>
543620

> <PUBCHEM_COMPOUND_CANONICALIZED>
1

> <PUBCHEM_CACTVS_COMPLEXITY>
839

> <PUBCHEM_CACTVS_HBOND_ACCEPTOR>
1

> <PUBCHEM_CACTVS_HBOND_DONOR>
0

> <PUBCHEM_CACTVS_ROTATABLE_BOND>
6

> <PUBCHEM_CACTVS_SUBSKEYS>
AAADcfB8IAgAAAAAAAAAAAAAGAAAAYAAAAAwYIAAAAAAAGCAAAAAGhAAAEAADxSggAJCAAAAAAGAAiBCAAAAAAAgAAAACAAAAAgAAAIAAQAAAAAEwAAIAAOAwPAPgAAAAAAAAADAAAQAACAAAQAACAAAAA==

> <PUBCHEM_IUPAC_OPENEYE_NAME>
[17-[1-[2-(1,2-dimethylpropyl)-2-methyl-cyclopropyl]ethyl]-10,13-dimethyl-2,3,4,7,8,9,11,12,14,15,16,17-dodecahydro-1H-cyclopenta[a]phenanthren-3-yl]oxy-trimethyl-silane

> <PUBCHEM_IUPAC_CAS_NAME>
[10,13-dimethyl-17-[1-[2-methyl-2-(3-methylbutan-2-yl)cyclopropyl]ethyl]-2,3,4,7,8,9,11,12,14,15,16,17-dodecahydro-1H-cyclopenta[a]phenanthren-3-yl]oxy-trimethylsilane

> <PUBCHEM_IUPAC_NAME_MARKUP>
[10,13-dimethyl-17-[1-[2-methyl-2-(3-methylbutan-2-yl)cyclopropyl]ethyl]-2,3,4,7,8,9,11,12,14,15,16,17-dodecahydro-1<I>H</I>-cyclopenta[a]phenanthren-3-yl]oxy-trimethylsilane

> <PUBCHEM_IUPAC_NAME>
[10,13-dimethyl-17-[1-[2-methyl-2-(3-methylbutan-2-yl)cyclopropyl]ethyl]-2,3,4,7,8,9,11,12,14,15,16,17-dodecahydro-1H-cyclopenta[a]phenanthren-3-yl]oxy-trimethylsilane

> <PUBCHEM_IUPAC_SYSTEMATIC_NAME>
[10,13-dimethyl-17-[1-[2-methyl-2-(3-methylbutan-2-yl)cyclopropyl]ethyl]-2,3,4,7,8,9,11,12,14,15,16,17-dodecahydro-1H-cyclopenta[a]phenanthren-3-yl]oxy-trimethyl-silane

> <PUBCHEM_IUPAC_TRADITIONAL_NAME>
[17-[1-[2-(1,2-dimethylpropyl)-2-methyl-cyclopropyl]ethyl]-10,13-dimethyl-2,3,4,7,8,9,11,12,14,15,16,17-dodecahydro-1H-cyclopenta[a]phenanthren-3-yl]oxy-trimethyl-silane

> <PUBCHEM_IUPAC_INCHI>
InChI=1S/C33H58OSi/c1-21(2)23(4)33(7)20-30(33)22(3)27-13-14-28-26-12-11-24-19-25(34-35(8,9)10)15-17-31(24,5)29(26)16-18-32(27,28)6/h11,21-23,25-30H,12-20H2,1-10H3

> <PUBCHEM_IUPAC_INCHIKEY>
XQQJUXMQEBAABW-UHFFFAOYSA-N

> <PUBCHEM_EXACT_MASS>
498.42569300

> <PUBCHEM_MOLECULAR_FORMULA>
C33H58OSi

> <PUBCHEM_MOLECULAR_WEIGHT>
498.9

> <PUBCHEM_OPENEYE_CAN_SMILES>
CC(C)C(C)C1(CC1C(C)C2CCC3C2(CCC4C3CC=C5C4(CCC(C5)O[Si](C)(C)C)C)C)C

> <PUBCHEM_OPENEYE_ISO_SMILES>
CC(C)C(C)C1(CC1C(C)C2CCC3C2(CCC4C3CC=C5C4(CCC(C5)O[Si](C)(C)C)C)C)C

> <PUBCHEM_CACTVS_TPSA>
9.2

> <PUBCHEM_MONOISOTOPIC_WEIGHT>
498.42569300

> <PUBCHEM_TOTAL_CHARGE>
0

> <PUBCHEM_HEAVY_ATOM_COUNT>
35

> <PUBCHEM_ATOM_DEF_STEREO_COUNT>
0

> <PUBCHEM_ATOM_UDEF_STEREO_COUNT>
11

> <PUBCHEM_BOND_DEF_STEREO_COUNT>
0

> <PUBCHEM_BOND_UDEF_STEREO_COUNT>
0

> <PUBCHEM_ISOTOPIC_ATOM_COUNT>
0

> <PUBCHEM_COMPONENT_COUNT>
1

> <PUBCHEM_CACTVS_TAUTO_COUNT>
-1

> <PUBCHEM_COORDINATE_TYPE>
1
5
255

> <PUBCHEM_BONDANNOTATIONS>
10  19  3
11  15  3
16  26  3
17  27  3
30  2  3
3  18  3
4  12  3
5  9  3
6  13  3
7  20  3
8  21  3

$$$$
