J08_56
  MOE2015           3D
J08_56
 63 67  0  0  1  0  0  0  0  0999 V2000
    2.3629   -2.6498    0.4082 C   0  0  0  0  0  0  0  0  0  0  0  0
    2.3822   -1.2875    0.2074 C   0  0  0  0  0  0  0  0  0  0  0  0
    4.7875   -2.5676    1.0453 N   0  3  3  0  0  0  0  0  0  0  0  0
    4.6673   -2.2384    1.9925 H   0  0  0  0  0  0  0  0  0  0  0  0
    3.6283   -3.4493    0.7882 C   0  0  0  0  0  0  0  0  0  0  0  0
    3.4215   -3.9944    1.6999 H   0  0  0  0  0  0  0  0  0  0  0  0
    3.8455   -4.0857   -0.0579 H   0  0  0  0  0  0  0  0  0  0  0  0
    3.6901   -0.5002    0.3155 C   0  0  0  0  0  0  0  0  0  0  0  0
    3.7692   -0.0421    1.3030 H   0  0  0  0  0  0  0  0  0  0  0  0
    3.7504    0.2648   -0.4569 H   0  0  0  0  0  0  0  0  0  0  0  0
    4.8335   -1.4940    0.0611 C   0  0  3  0  0  0  0  0  0  0  0  0
    4.7617   -1.8955   -0.9420 H   0  0  0  0  0  0  0  0  0  0  0  0
    7.0724   -2.1004    0.6365 C   0  0  3  0  0  0  0  0  0  0  0  0
    8.0809   -2.5325   -0.4461 C   0  0  0  0  0  0  0  0  0  0  0  0
    9.2257   -1.5232   -0.6090 C   0  0  0  0  0  0  0  0  0  0  0  0
    8.8460   -0.5568   -0.9408 H   0  0  0  0  0  0  0  0  0  0  0  0
    9.9346   -1.8925   -1.3512 H   0  0  0  0  0  0  0  0  0  0  0  0
    9.7476   -1.3949    0.3405 H   0  0  0  0  0  0  0  0  0  0  0  0
    7.5702   -2.6545   -1.4034 H   0  0  0  0  0  0  0  0  0  0  0  0
    8.5156   -3.4936   -0.1631 H   0  0  0  0  0  0  0  0  0  0  0  0
    7.6101   -1.8720    1.5597 H   0  0  0  0  0  0  0  0  0  0  0  0
    6.0669   -3.2612    0.8853 C   0  0  0  0  0  0  0  0  0  0  0  0
    6.3312   -3.7849    1.7950 H   0  0  0  0  0  0  0  0  0  0  0  0
    6.0347   -3.8877    0.0045 H   0  0  0  0  0  0  0  0  0  0  0  0
    6.2202   -0.8694    0.2560 C   0  0  0  0  0  0  0  0  0  0  0  0
    6.5613   -0.3706   -0.6502 H   0  0  0  0  0  0  0  0  0  0  0  0
    6.2024   -0.1719    1.0961 H   0  0  0  0  0  0  0  0  0  0  0  0
    1.1710   -0.5707   -0.1078 C   0  0  0  0  0  0  0  0  0  0  0  0
   -0.0189   -1.2936   -0.3724 C   0  0  0  0  0  0  0  0  0  0  0  0
   -0.0541   -2.7222   -0.1237 C   0  0  0  0  0  0  0  0  0  0  0  0
    1.1385   -3.3964    0.2463 C   0  0  0  0  0  0  0  0  0  0  0  0
   -1.1415   -0.5855   -0.8705 C   0  0  0  0  0  0  0  0  0  0  0  0
   -2.0151   -1.0936   -1.1715 H   0  0  0  0  0  0  0  0  0  0  0  0
   -1.1325    0.7880   -0.9857 C   0  0  0  0  0  0  0  0  0  0  0  0
   -2.2999    1.3506   -1.4874 O   0  0  0  0  0  0  0  0  0  0  0  0
   -2.5735    2.7411   -1.7676 C   0  0  0  0  0  0  0  0  0  0  0  0
   -3.5718    2.8058   -2.1992 H   0  0  0  0  0  0  0  0  0  0  0  0
   -1.8260    3.1013   -2.4747 H   0  0  0  0  0  0  0  0  0  0  0  0
   -2.5252    3.2945   -0.8296 H   0  0  0  0  0  0  0  0  0  0  0  0
    0.0130    1.5197   -0.5996 C   0  0  0  0  0  0  0  0  0  0  0  0
    0.0113    2.9082   -0.6531 O   0  0  0  0  0  0  0  0  0  0  0  0
    1.0784    3.7849   -0.2217 C   0  0  0  0  0  0  0  0  0  0  0  0
    0.7495    4.8122   -0.3783 H   0  0  0  0  0  0  0  0  0  0  0  0
    1.9632    3.5732   -0.8226 H   0  0  0  0  0  0  0  0  0  0  0  0
    1.2653    3.6028    0.8372 H   0  0  0  0  0  0  0  0  0  0  0  0
    1.1399    0.8461   -0.1661 C   0  0  0  0  0  0  0  0  0  0  0  0
    1.9867    1.3984    0.1319 H   0  0  0  0  0  0  0  0  0  0  0  0
    1.0963   -4.8008    0.4445 C   0  0  0  0  0  0  0  0  0  0  0  0
    1.9658   -5.3410    0.7028 H   0  0  0  0  0  0  0  0  0  0  0  0
   -0.0767   -5.5100    0.3130 C   0  0  0  0  0  0  0  0  0  0  0  0
    0.0308   -6.8789    0.5271 O   0  0  0  0  0  0  0  0  0  0  0  0
   -1.0140   -7.8757    0.4845 C   0  0  0  0  0  0  0  0  0  0  0  0
   -0.5644   -8.8425    0.7089 H   0  0  0  0  0  0  0  0  0  0  0  0
   -1.4454   -7.8764   -0.5167 H   0  0  0  0  0  0  0  0  0  0  0  0
   -1.7625   -7.6178    1.2341 H   0  0  0  0  0  0  0  0  0  0  0  0
   -1.2742   -4.8359   -0.0143 C   0  0  0  0  0  0  0  0  0  0  0  0
   -2.4669   -5.5391   -0.1265 O   0  0  0  0  0  0  0  0  0  0  0  0
   -3.7674   -4.9820   -0.4317 C   0  0  0  0  0  0  0  0  0  0  0  0
   -4.4879   -5.7999   -0.4361 H   0  0  0  0  0  0  0  0  0  0  0  0
   -3.7187   -4.5128   -1.4149 H   0  0  0  0  0  0  0  0  0  0  0  0
   -4.0207   -4.2560    0.3415 H   0  0  0  0  0  0  0  0  0  0  0  0
   -1.2565   -3.4680   -0.2201 C   0  0  0  0  0  0  0  0  0  0  0  0
   -2.1607   -2.9772   -0.4419 H   0  0  0  0  0  0  0  0  0  0  0  0
  1  2  2  0  0  0  0
  1  5  1  0  0  0  0
  1 31  1  0  0  0  0
  2  8  1  0  0  0  0
  2 28  1  0  0  0  0
  3  4  1  0  0  0  0
  3  5  1  0  0  0  0
  3 11  1  0  0  0  0
  3 22  1  0  0  0  0
  5  6  1  0  0  0  0
  5  7  1  0  0  0  0
  8  9  1  0  0  0  0
  8 10  1  0  0  0  0
  8 11  1  0  0  0  0
 11 12  1  0  0  0  0
 11 25  1  0  0  0  0
 13 14  1  0  0  0  0
 13 21  1  0  0  0  0
 13 22  1  0  0  0  0
 13 25  1  0  0  0  0
 14 15  1  0  0  0  0
 14 19  1  0  0  0  0
 14 20  1  0  0  0  0
 15 16  1  0  0  0  0
 15 17  1  0  0  0  0
 15 18  1  0  0  0  0
 22 23  1  0  0  0  0
 22 24  1  0  0  0  0
 25 26  1  0  0  0  0
 25 27  1  0  0  0  0
 28 29  1  0  0  0  0
 28 46  2  0  0  0  0
 29 30  1  0  0  0  0
 29 32  2  0  0  0  0
 30 31  1  0  0  0  0
 30 62  2  0  0  0  0
 31 48  2  0  0  0  0
 32 33  1  0  0  0  0
 32 34  1  0  0  0  0
 34 35  1  0  0  0  0
 34 40  2  0  0  0  0
 35 36  1  0  0  0  0
 36 37  1  0  0  0  0
 36 38  1  0  0  0  0
 36 39  1  0  0  0  0
 40 41  1  0  0  0  0
 40 46  1  0  0  0  0
 41 42  1  0  0  0  0
 42 43  1  0  0  0  0
 42 44  1  0  0  0  0
 42 45  1  0  0  0  0
 46 47  1  0  0  0  0
 48 49  1  0  0  0  0
 48 50  1  0  0  0  0
 50 51  1  0  0  0  0
 50 56  2  0  0  0  0
 51 52  1  0  0  0  0
 52 53  1  0  0  0  0
 52 54  1  0  0  0  0
 52 55  1  0  0  0  0
 56 57  1  0  0  0  0
 56 62  1  0  0  0  0
 57 58  1  0  0  0  0
 58 59  1  0  0  0  0
 58 60  1  0  0  0  0
 58 61  1  0  0  0  0
 62 63  1  0  0  0  0
M  CHG  1   3   1
M  END
$$$$
