
  MOE2015           2D

  8  7  0  0  1  0  0  0  0  0999 V2000
    6.3160   -1.8800    0.0000 O   0  0  0  0  0  0  0  0  0  0  0  0
    5.0170   -2.6300    0.0000 C   0  0  0  0  0  0  0  0  0  0  0  0
    3.7180   -1.8800    0.0000 C   0  0  1  0  0  0  0  0  0  0  0  0
    3.7180   -0.3800    0.0000 N   0  0  0  0  0  0  0  0  0  0  0  0
    2.4190   -2.6300    0.0000 C   0  0  0  0  0  0  0  0  0  0  0  0
    1.1200   -1.8800    0.0000 C   0  0  0  0  0  0  0  0  0  0  0  0
   -0.1790   -2.6300    0.0000 C   0  0  0  0  0  0  0  0  0  0  0  0
    1.1200   -0.3800    0.0000 C   0  0  0  0  0  0  0  0  0  0  0  0
  1  2  2  0  0  0  0
  2  3  1  0  0  0  0
  3  4  1  6  0  0  0
  3  5  1  0  0  0  0
  5  6  1  0  0  0  0
  6  7  1  0  0  0  0
  6  8  1  0  0  0  0
M  END
>  <name>
O=[C;amide][C@@H]([N;amide])CC(C)C

>  <apo>
2

>  <freq>
37

>  <freq0>
0

>  <freq1>
37

>  <freqA>
36.997799

>  <a_count>
21

$$$$

  MOE2015           2D

  3  2  0  0  0  0  0  0  0  0999 V2000
    0.2500    0.0670    0.0000 C   0  0  0  0  0  0  0  0  0  0  0  0
    1.5490   -0.6830    0.0000 C   0  0  0  0  0  0  0  0  0  0  0  0
   -1.0490   -0.6830    0.0000 C   0  0  0  0  0  0  0  0  0  0  0  0
  1  2  1  0  0  0  0
  1  3  1  0  0  0  0
M  END
>  <name>
[C;amine](C)C

>  <apo>
1

>  <freq>
36

>  <freq0>
0

>  <freq1>
36

>  <freqA>
35.997803

>  <a_count>
11

$$$$

  MOE2015           2D

  6  5  0  0  1  0  0  0  0  0999 V2000
   -0.3480   -1.2990    0.0000 S   0  0  0  0  0  0  0  0  0  0  0  0
    0.9510   -2.0490    0.0000 C   0  0  0  0  0  0  0  0  0  0  0  0
    2.2500   -1.2990    0.0000 C   0  0  2  0  0  0  0  0  0  0  0  0
    2.2500    0.2010    0.0000 N   0  0  0  0  0  0  0  0  0  0  0  0
    3.5490   -2.0490    0.0000 C   0  0  0  0  0  0  0  0  0  0  0  0
    4.8480   -1.2990    0.0000 O   0  0  0  0  0  0  0  0  0  0  0  0
  1  2  1  0  0  0  0
  2  3  1  0  0  0  0
  3  4  1  6  0  0  0
  3  5  1  0  0  0  0
  5  6  2  0  0  0  0
M  END
>  <name>
[S;disulfide]C[C@H]([N;amide])[C;amide]=O

>  <apo>
3

>  <freq>
34

>  <freq0>
0

>  <freq1>
34

>  <freqA>
33.997807

>  <a_count>
13

$$$$

  MOE2015           2D

  7  7  0  0  1  0  0  0  0  0999 V2000
    4.9030   -0.6040    0.0000 O   0  0  0  0  0  0  0  0  0  0  0  0
    4.1530   -1.9030    0.0000 C   0  0  0  0  0  0  0  0  0  0  0  0
    2.6530   -1.9030    0.0000 C   0  0  1  0  0  0  0  0  0  0  0  0
    1.7710   -3.1160    0.0000 N   0  0  0  0  0  0  0  0  0  0  0  0
    0.3450   -2.6530    0.0000 C   0  0  0  0  0  0  0  0  0  0  0  0
    0.3450   -1.1530    0.0000 C   0  0  0  0  0  0  0  0  0  0  0  0
    1.7710   -0.6890    0.0000 C   0  0  0  0  0  0  0  0  0  0  0  0
  1  2  2  0  0  0  0
  3  2  1  1  0  0  0
  3  4  1  0  0  0  0
  3  7  1  0  0  0  0
  4  5  1  0  0  0  0
  5  6  1  0  0  0  0
  6  7  1  0  0  0  0
M  END
>  <name>
O=[C;amide][C@H]1[N;amide]CCC1

>  <apo>
2

>  <freq>
29

>  <freq0>
0

>  <freq1>
29

>  <freqA>
28.997816

>  <a_count>
16

$$$$

  MOE2015           2D

  7  6  0  0  1  0  0  0  0  0999 V2000
    5.3550   -0.7920    0.0000 O   0  0  0  0  0  0  0  0  0  0  0  0
    4.0560   -1.5420    0.0000 C   0  0  0  0  0  0  0  0  0  0  0  0
    2.7570   -0.7920    0.0000 C   0  0  1  0  0  0  0  0  0  0  0  0
    2.7570    0.7080    0.0000 N   0  0  0  0  0  0  0  0  0  0  0  0
    1.4580   -1.5420    0.0000 C   0  0  2  0  0  0  0  0  0  0  0  0
    1.4580   -3.0420    0.0000 O   0  0  0  0  0  0  0  0  0  0  0  0
    0.1590   -0.7920    0.0000 C   0  0  0  0  0  0  0  0  0  0  0  0
  1  2  2  0  0  0  0
  2  3  1  0  0  0  0
  3  4  1  6  0  0  0
  3  5  1  0  0  0  0
  5  6  1  0  0  0  0
  5  7  1  6  0  0  0
M  END
>  <name>
O=[C;amide][C@@H]([N;amide])[C@H](O)C

>  <apo>
2

>  <freq>
28

>  <freq0>
0

>  <freq1>
28

>  <freqA>
27.997818

>  <a_count>
16

$$$$

  MOE2015           2D

  6  5  0  0  1  0  0  0  0  0999 V2000
   -0.3480   -1.2990    0.0000 O   0  0  0  0  0  0  0  0  0  0  0  0
    0.9510   -2.0490    0.0000 C   0  0  0  0  0  0  0  0  0  0  0  0
    2.2500   -1.2990    0.0000 C   0  0  1  0  0  0  0  0  0  0  0  0
    2.2500    0.2010    0.0000 N   0  0  0  0  0  0  0  0  0  0  0  0
    3.5490   -2.0490    0.0000 C   0  0  0  0  0  0  0  0  0  0  0  0
    4.8480   -1.2990    0.0000 O   0  0  0  0  0  0  0  0  0  0  0  0
  1  2  2  0  0  0  0
  2  3  1  0  0  0  0
  3  4  1  1  0  0  0
  3  5  1  0  0  0  0
  5  6  1  0  0  0  0
M  END
>  <name>
O=[C;amide][C@@H]([N;amide])CO

>  <apo>
2

>  <freq>
27

>  <freq0>
0

>  <freq1>
27

>  <freqA>
26.997822

>  <a_count>
13

$$$$

  MOE2015           2D

  3  2  0  0  0  0  0  0  0  0999 V2000
    0.2500    0.0670    0.0000 C   0  0  0  0  0  0  0  0  0  0  0  0
    1.5490   -0.6830    0.0000 C   0  0  0  0  0  0  0  0  0  0  0  0
   -1.0490   -0.6830    0.0000 C   0  0  0  0  0  0  0  0  0  0  0  0
  1  2  1  0  0  0  0
  1  3  1  0  0  0  0
M  END
>  <name>
C([C;olefin])[C;olefin]

>  <apo>
2

>  <freq>
26

>  <freq0>
0

>  <freq1>
26

>  <freqA>
25.997824

>  <a_count>
11

$$$$

  MOE2015           2D

  4  3  0  0  0  0  0  0  0  0999 V2000
    0.1000   -0.3750    0.0000 C   0  0  0  0  0  0  0  0  0  0  0  0
    1.4000    0.3750    0.0000 C   0  0  0  0  0  0  0  0  0  0  0  0
    2.6990   -0.3750    0.0000 C   0  0  0  0  0  0  0  0  0  0  0  0
   -1.1990    0.3750    0.0000 C   0  0  0  0  0  0  0  0  0  0  0  0
  1  2  1  0  0  0  0
  1  4  1  0  0  0  0
  2  3  1  0  0  0  0
M  END
>  <name>
C(CC)[C;amine]

>  <apo>
1

>  <freq>
24

>  <freq0>
0

>  <freq1>
24

>  <freqA>
23.997831

>  <a_count>
14

$$$$

  MOE2015           2D

  4  3  0  0  0  0  0  0  0  0999 V2000
    0.0000    0.0000    0.0000 N   0  3  0  0  0  0  0  0  0  0  0  0
   -1.2990   -0.7500    0.0000 C   0  0  0  0  0  0  0  0  0  0  0  0
    0.0000    1.5000    0.0000 C   0  0  0  0  0  0  0  0  0  0  0  0
    1.2990   -0.7500    0.0000 C   0  0  0  0  0  0  0  0  0  0  0  0
  1  2  1  0  0  0  0
  1  3  1  0  0  0  0
  1  4  1  0  0  0  0
M  CHG  1   1   1
M  END
>  <name>
[N+;quatN](C)(C)C

>  <apo>
1

>  <freq>
24

>  <freq0>
0

>  <freq1>
24

>  <freqA>
23.997831

>  <a_count>
14

$$$$

  MOE2015           2D

  9  8  0  0  1  0  0  0  0  0999 V2000
   -0.4970   -1.8540    0.0000 O   0  0  0  0  0  0  0  0  0  0  0  0
    0.8020   -2.6040    0.0000 C   0  0  0  0  0  0  0  0  0  0  0  0
    2.1010   -1.8540    0.0000 C   0  0  1  0  0  0  0  0  0  0  0  0
    2.1010   -0.3540    0.0000 N   0  0  0  0  0  0  0  0  0  0  0  0
    3.4000   -2.6040    0.0000 C   0  0  0  0  0  0  0  0  0  0  0  0
    4.6990   -1.8540    0.0000 C   0  0  0  0  0  0  0  0  0  0  0  0
    5.9980   -2.6040    0.0000 C   0  0  0  0  0  0  0  0  0  0  0  0
    7.2970   -1.8540    0.0000 C   0  0  0  0  0  0  0  0  0  0  0  0
    8.5960   -2.6040    0.0000 N   0  0  0  0  0  0  0  0  0  0  0  0
  1  2  2  0  0  0  0
  2  3  1  0  0  0  0
  3  4  1  1  0  0  0
  3  5  1  0  0  0  0
  5  6  1  0  0  0  0
  6  7  1  0  0  0  0
  7  8  1  0  0  0  0
  8  9  1  0  0  0  0
M  END
>  <name>
O=[C;amide][C@@H]([N;amide])CCCCN

>  <apo>
2

>  <freq>
22

>  <freq0>
0

>  <freq1>
22

>  <freqA>
21.997839

>  <a_count>
23

$$$$

  MOE2015           2D

 12 12  0  0  1  0  0  0  0  0999 V2000
    8.8090    3.4850    0.0000 O   0  0  0  0  0  0  0  0  0  0  0  0
    7.5100    4.2350    0.0000 C   0  0  0  0  0  0  0  0  0  0  0  0
    6.2110    3.4850    0.0000 C   0  0  1  0  0  0  0  0  0  0  0  0
    6.2110    1.9850    0.0000 N   0  0  0  0  0  0  0  0  0  0  0  0
    4.9120    4.2350    0.0000 C   0  0  0  0  0  0  0  0  0  0  0  0
    3.6130    3.4850    0.0000 C   0  0  0  0  0  0  0  0  0  0  0  0
    3.6130    1.9850    0.0000 C   0  0  0  0  0  0  0  0  0  0  0  0
    2.3140    1.2350    0.0000 C   0  0  0  0  0  0  0  0  0  0  0  0
    1.0150    1.9850    0.0000 C   0  0  0  0  0  0  0  0  0  0  0  0
   -0.2840    1.2350    0.0000 O   0  0  0  0  0  0  0  0  0  0  0  0
    1.0150    3.4850    0.0000 C   0  0  0  0  0  0  0  0  0  0  0  0
    2.3140    4.2350    0.0000 C   0  0  0  0  0  0  0  0  0  0  0  0
  1  2  2  0  0  0  0
  2  3  1  0  0  0  0
  3  4  1  1  0  0  0
  3  5  1  0  0  0  0
  5  6  1  0  0  0  0
  6  7  1  0  0  0  0
  6 12  2  0  0  0  0
  7  8  2  0  0  0  0
  8  9  1  0  0  0  0
  9 10  1  0  0  0  0
  9 11  2  0  0  0  0
 11 12  1  0  0  0  0
M  END
>  <name>
O=[C;amide][C@@H]([N;amide])Cc1ccc(O)cc1

>  <apo>
2

>  <freq>
22

>  <freq0>
0

>  <freq1>
22

>  <freqA>
21.997839

>  <a_count>
23

$$$$

  MOE2015           2D

  5  4  0  0  0  0  0  0  0  0999 V2000
    0.1500   -0.0400    0.0000 C   0  0  0  0  0  0  0  0  0  0  0  0
    1.4490    0.7100    0.0000 C   0  0  0  0  0  0  0  0  0  0  0  0
    2.7480   -0.0400    0.0000 C   0  0  0  0  0  0  0  0  0  0  0  0
   -1.1490    0.7100    0.0000 C   0  0  0  0  0  0  0  0  0  0  0  0
   -2.4480   -0.0400    0.0000 C   0  0  0  0  0  0  0  0  0  0  0  0
  1  2  1  0  0  0  0
  1  4  1  0  0  0  0
  2  3  1  0  0  0  0
  4  5  1  0  0  0  0
M  END
>  <name>
C([C;olefin]C)C[C;olefin]

>  <apo>
2

>  <freq>
22

>  <freq0>
0

>  <freq1>
22

>  <freqA>
21.997839

>  <a_count>
17

$$$$

  MOE2015           2D

  3  2  0  0  0  0  0  0  0  0999 V2000
    0.2500    0.0670    0.0000 C   0  0  0  0  0  0  0  0  0  0  0  0
    1.5490   -0.6830    0.0000 C   0  0  0  0  0  0  0  0  0  0  0  0
   -1.0490   -0.6830    0.0000 C   0  0  0  0  0  0  0  0  0  0  0  0
  1  2  1  0  0  0  0
  1  3  1  0  0  0  0
M  END
>  <name>
C([C;amine])[C;amine]

>  <apo>
2

>  <freq>
21

>  <freq0>
0

>  <freq1>
21

>  <freqA>
20.997843

>  <a_count>
11

$$$$

  MOE2015           2D

 10 10  0  0  0  0  0  0  0  0999 V2000
   -3.3750    1.9490    0.0000 S   0  0  0  0  0  0  0  0  0  0  0  0
   -4.1250    3.2480    0.0000 O   0  0  0  0  0  0  0  0  0  0  0  0
   -4.1250    0.6500    0.0000 O   0  0  0  0  0  0  0  0  0  0  0  0
   -1.8750    1.9490    0.0000 C   0  0  0  0  0  0  0  0  0  0  0  0
   -1.1250    0.6500    0.0000 C   0  0  0  0  0  0  0  0  0  0  0  0
    0.3750    0.6500    0.0000 C   0  0  0  0  0  0  0  0  0  0  0  0
    1.1250    1.9490    0.0000 C   0  0  0  0  0  0  0  0  0  0  0  0
    2.6250    1.9490    0.0000 N   0  0  0  0  0  0  0  0  0  0  0  0
    0.3750    3.2480    0.0000 C   0  0  0  0  0  0  0  0  0  0  0  0
   -1.1250    3.2480    0.0000 C   0  0  0  0  0  0  0  0  0  0  0  0
  1  2  2  0  0  0  0
  1  3  2  0  0  0  0
  1  4  1  0  0  0  0
  4  5  1  0  0  0  0
  4 10  2  0  0  0  0
  5  6  2  0  0  0  0
  6  7  1  0  0  0  0
  7  8  1  0  0  0  0
  7  9  2  0  0  0  0
  9 10  1  0  0  0  0
M  END
>  <name>
[SH;so2amide](=O)(=O)c1ccc(N)cc1

>  <apo>
1

>  <freq>
20

>  <freq0>
0

>  <freq1>
20

>  <freqA>
19.997849

>  <a_count>
17

$$$$

  MOE2015           2D

 14 15  0  0  1  0  0  0  0  0999 V2000
   -0.4190    2.0560    0.0000 O   0  0  0  0  0  0  0  0  0  0  0  0
    0.9610    2.6430    0.0000 C   0  0  0  0  0  0  0  0  0  0  0  0
    1.1420    4.1320    0.0000 O   0  0  0  0  0  0  0  0  0  0  0  0
    2.1600    1.7420    0.0000 C   0  0  1  0  0  0  0  0  0  0  0  0
    2.1350    0.2420    0.0000 C   0  0  0  0  0  0  0  0  0  0  0  0
    0.6380    0.1490    0.0000 C   0  0  0  0  0  0  0  0  0  0  0  0
    1.5380   -1.1340    0.0000 C   0  0  0  0  0  0  0  0  0  0  0  0
    3.5540   -0.2450    0.0000 S   0  0  0  0  0  0  0  0  0  0  0  0
    4.4550    0.9540    0.0000 C   0  0  2  0  0  0  0  0  0  0  0  0
    5.6830    1.8160    0.0000 C   0  0  2  0  0  0  0  0  0  0  0  0
    7.1610    1.5570    0.0000 N   0  0  0  0  0  0  0  0  0  0  0  0
    4.8210    3.0440    0.0000 C   0  0  0  0  0  0  0  0  0  0  0  0
    5.0800    4.5210    0.0000 O   0  0  0  0  0  0  0  0  0  0  0  0
    3.5940    2.1820    0.0000 N   0  0  0  0  0  0  0  0  0  0  0  0
  1  2  2  0  0  0  0
  2  3  1  0  0  0  0
  4  2  1  6  0  0  0
  4  5  1  0  0  0  0
  4 14  1  0  0  0  0
  5  6  1  0  0  0  0
  5  7  1  0  0  0  0
  5  8  1  0  0  0  0
  9  8  1  1  0  0  0
  9 10  1  0  0  0  0
  9 14  1  0  0  0  0
 10 11  1  1  0  0  0
 10 12  1  0  0  0  0
 12 13  2  0  0  0  0
 12 14  1  0  0  0  0
M  END
>  <name>
O=C(O)[C@H]1C(C)(C)S[C@@H]2[C@H]([N;amide])C(=O)N12

>  <apo>
1

>  <freq>
19

>  <freq0>
0

>  <freq1>
19

>  <freqA>
18.997854

>  <a_count>
26

$$$$

  MOE2015           2D

 14 15  0  0  1  0  0  0  0  0999 V2000
   10.1920    2.1660    0.0000 O   0  0  0  0  0  0  0  0  0  0  0  0
    8.8220    1.5560    0.0000 C   0  0  0  0  0  0  0  0  0  0  0  0
    7.6080    2.4380    0.0000 C   0  0  1  0  0  0  0  0  0  0  0  0
    7.7650    3.9300    0.0000 N   0  0  0  0  0  0  0  0  0  0  0  0
    6.2380    1.8280    0.0000 C   0  0  0  0  0  0  0  0  0  0  0  0
    5.0240    2.7090    0.0000 C   0  0  0  0  0  0  0  0  0  0  0  0
    3.5980    2.2460    0.0000 C   0  0  0  0  0  0  0  0  0  0  0  0
    2.7160    3.4590    0.0000 C   0  0  0  0  0  0  0  0  0  0  0  0
    3.5980    4.6730    0.0000 N   0  0  0  0  0  0  0  0  0  0  0  0
    5.0240    4.2090    0.0000 C   0  0  0  0  0  0  0  0  0  0  0  0
    1.2240    3.3030    0.0000 C   0  0  0  0  0  0  0  0  0  0  0  0
    0.6140    1.9320    0.0000 C   0  0  0  0  0  0  0  0  0  0  0  0
    1.4960    0.7190    0.0000 C   0  0  0  0  0  0  0  0  0  0  0  0
    2.9870    0.8760    0.0000 C   0  0  0  0  0  0  0  0  0  0  0  0
  1  2  2  0  0  0  0
  2  3  1  0  0  0  0
  3  4  1  6  0  0  0
  3  5  1  0  0  0  0
  5  6  1  0  0  0  0
  6  7  1  0  0  0  0
  6 10  2  0  0  0  0
  7  8  2  0  0  0  0
  7 14  1  0  0  0  0
  8  9  1  0  0  0  0
  8 11  1  0  0  0  0
  9 10  1  0  0  0  0
 11 12  2  0  0  0  0
 12 13  1  0  0  0  0
 13 14  2  0  0  0  0
M  END
>  <name>
O=[C;amide][C@@H]([N;amide])Cc1c2c([nH]c1)cccc2

>  <apo>
2

>  <freq>
19

>  <freq0>
0

>  <freq1>
19

>  <freqA>
18.997854

>  <a_count>
26

$$$$

  MOE2015           2D

  8  7  0  0  1  0  0  0  0  0999 V2000
    0.0090   -0.0320    0.0000 O   0  0  0  0  0  0  0  0  0  0  0  0
    1.3080    0.7180    0.0000 C   0  0  0  0  0  0  0  0  0  0  0  0
    1.3080    2.2180    0.0000 N   0  0  0  0  0  0  0  0  0  0  0  0
    2.6070   -0.0320    0.0000 C   0  0  0  0  0  0  0  0  0  0  0  0
    3.9060    0.7180    0.0000 C   0  0  2  0  0  0  0  0  0  0  0  0
    3.9060    2.2180    0.0000 N   0  0  0  0  0  0  0  0  0  0  0  0
    5.2050   -0.0320    0.0000 C   0  0  0  0  0  0  0  0  0  0  0  0
    6.5040    0.7180    0.0000 O   0  0  0  0  0  0  0  0  0  0  0  0
  1  2  2  0  0  0  0
  2  3  1  0  0  0  0
  2  4  1  0  0  0  0
  4  5  1  0  0  0  0
  5  6  1  6  0  0  0
  5  7  1  0  0  0  0
  7  8  2  0  0  0  0
M  END
>  <name>
O=C(N)C[C@H]([N;amide])[C;amide]=O

>  <apo>
2

>  <freq>
19

>  <freq0>
0

>  <freq1>
19

>  <freqA>
18.997854

>  <a_count>
16

$$$$

  MOE2015           2D

  6  6  0  0  0  0  0  0  0  0999 V2000
   -2.0490    2.0490    0.0000 C   0  0  0  0  0  0  0  0  0  0  0  0
   -2.0490    0.5490    0.0000 C   0  0  0  0  0  0  0  0  0  0  0  0
   -0.7500   -0.2010    0.0000 C   0  0  0  0  0  0  0  0  0  0  0  0
    0.5490    0.5490    0.0000 C   0  0  0  0  0  0  0  0  0  0  0  0
    0.5490    2.0490    0.0000 C   0  0  0  0  0  0  0  0  0  0  0  0
   -0.7500    2.7990    0.0000 C   0  0  0  0  0  0  0  0  0  0  0  0
  1  2  1  0  0  0  0
  1  6  2  0  0  0  0
  2  3  2  0  0  0  0
  3  4  1  0  0  0  0
  4  5  2  0  0  0  0
  5  6  1  0  0  0  0
M  END
>  <name>
[c;biphenyl]1ccccc1

>  <apo>
1

>  <freq>
18

>  <freq0>
0

>  <freq1>
18

>  <freqA>
17.99786

>  <a_count>
12

$$$$

  MOE2015           2D

 11 10  0  0  1  0  0  0  0  0999 V2000
   10.0870   -2.0210    0.0000 O   0  0  0  0  0  0  0  0  0  0  0  0
    8.7880   -2.7710    0.0000 C   0  0  0  0  0  0  0  0  0  0  0  0
    7.4890   -2.0210    0.0000 C   0  0  1  0  0  0  0  0  0  0  0  0
    7.4890   -0.5210    0.0000 N   0  0  0  0  0  0  0  0  0  0  0  0
    6.1900   -2.7710    0.0000 C   0  0  0  0  0  0  0  0  0  0  0  0
    4.8910   -2.0210    0.0000 C   0  0  0  0  0  0  0  0  0  0  0  0
    3.5920   -2.7710    0.0000 C   0  0  0  0  0  0  0  0  0  0  0  0
    2.2930   -2.0210    0.0000 N   0  0  0  0  0  0  0  0  0  0  0  0
    0.9940   -2.7710    0.0000 C   0  0  0  0  0  0  0  0  0  0  0  0
   -0.3050   -2.0210    0.0000 N   0  0  0  0  0  0  0  0  0  0  0  0
    0.9940   -4.2710    0.0000 N   0  0  0  0  0  0  0  0  0  0  0  0
  1  2  2  0  0  0  0
  2  3  1  0  0  0  0
  3  4  1  6  0  0  0
  3  5  1  0  0  0  0
  5  6  1  0  0  0  0
  6  7  1  0  0  0  0
  7  8  1  0  0  0  0
  8  9  1  0  0  0  0
  9 10  2  0  0  0  0
  9 11  1  0  0  0  0
M  END
>  <name>
O=[C;amide][C@@H]([N;amide])CCCNC(=N)N

>  <apo>
2

>  <freq>
17

>  <freq0>
0

>  <freq1>
17

>  <freqA>
16.997866

>  <a_count>
25

$$$$

  MOE2015           2D

  6  6  0  0  0  0  0  0  0  0999 V2000
   -2.0490    2.0490    0.0000 N   0  0  0  0  0  0  0  0  0  0  0  0
   -2.0490    0.5490    0.0000 C   0  0  0  0  0  0  0  0  0  0  0  0
   -0.7500   -0.2010    0.0000 C   0  0  0  0  0  0  0  0  0  0  0  0
    0.5490    0.5490    0.0000 N   0  0  0  0  0  0  0  0  0  0  0  0
    0.5490    2.0490    0.0000 C   0  0  0  0  0  0  0  0  0  0  0  0
   -0.7500    2.7990    0.0000 C   0  0  0  0  0  0  0  0  0  0  0  0
  1  2  1  0  0  0  0
  1  6  1  0  0  0  0
  2  3  1  0  0  0  0
  3  4  1  0  0  0  0
  4  5  1  0  0  0  0
  5  6  1  0  0  0  0
M  END
>  <name>
[N;amine]1CC[N;amine]CC1

>  <apo>
2

>  <freq>
17

>  <freq0>
0

>  <freq1>
17

>  <freqA>
16.997866

>  <a_count>
16

$$$$

  MOE2015           2D

  6  6  0  0  0  0  0  0  0  0999 V2000
   -2.0490    2.0490    0.0000 O   0  0  0  0  0  0  0  0  0  0  0  0
   -2.0490    0.5490    0.0000 C   0  0  0  0  0  0  0  0  0  0  0  0
   -0.7500   -0.2010    0.0000 C   0  0  0  0  0  0  0  0  0  0  0  0
    0.5490    0.5490    0.0000 N   0  0  0  0  0  0  0  0  0  0  0  0
    0.5490    2.0490    0.0000 C   0  0  0  0  0  0  0  0  0  0  0  0
   -0.7500    2.7990    0.0000 C   0  0  0  0  0  0  0  0  0  0  0  0
  1  2  1  0  0  0  0
  1  6  1  0  0  0  0
  2  3  1  0  0  0  0
  3  4  1  0  0  0  0
  4  5  1  0  0  0  0
  5  6  1  0  0  0  0
M  END
>  <name>
O1CC[N;amine]CC1

>  <apo>
1

>  <freq>
17

>  <freq0>
0

>  <freq1>
17

>  <freqA>
16.997866

>  <a_count>
15

$$$$

  MOE2015           2D

 11 11  0  0  1  0  0  0  0  0999 V2000
    8.1690   -3.0070    0.0000 O   0  0  0  0  0  0  0  0  0  0  0  0
    6.8700   -3.7570    0.0000 C   0  0  0  0  0  0  0  0  0  0  0  0
    5.5710   -3.0070    0.0000 C   0  0  1  0  0  0  0  0  0  0  0  0
    5.5710   -1.5070    0.0000 N   0  0  0  0  0  0  0  0  0  0  0  0
    4.2720   -3.7570    0.0000 C   0  0  0  0  0  0  0  0  0  0  0  0
    2.9730   -3.0070    0.0000 C   0  0  0  0  0  0  0  0  0  0  0  0
    1.6740   -3.7570    0.0000 C   0  0  0  0  0  0  0  0  0  0  0  0
    0.3750   -3.0070    0.0000 C   0  0  0  0  0  0  0  0  0  0  0  0
    0.3750   -1.5070    0.0000 C   0  0  0  0  0  0  0  0  0  0  0  0
    1.6740   -0.7570    0.0000 C   0  0  0  0  0  0  0  0  0  0  0  0
    2.9730   -1.5070    0.0000 C   0  0  0  0  0  0  0  0  0  0  0  0
  1  2  2  0  0  0  0
  2  3  1  0  0  0  0
  3  4  1  6  0  0  0
  3  5  1  0  0  0  0
  5  6  1  0  0  0  0
  6  7  1  0  0  0  0
  6 11  2  0  0  0  0
  7  8  2  0  0  0  0
  8  9  1  0  0  0  0
  9 10  2  0  0  0  0
 10 11  1  0  0  0  0
M  END
>  <name>
O=[C;amide][C@@H]([N;amide])Cc1ccccc1

>  <apo>
2

>  <freq>
16

>  <freq0>
0

>  <freq1>
16

>  <freqA>
15.997873

>  <a_count>
22

$$$$

  MOE2015           2D

  5  4  0  0  1  0  0  0  0  0999 V2000
    3.8780   -1.0390    0.0000 O   0  0  0  0  0  0  0  0  0  0  0  0
    2.5790   -1.7890    0.0000 C   0  0  0  0  0  0  0  0  0  0  0  0
    1.2800   -1.0390    0.0000 C   0  0  1  0  0  0  0  0  0  0  0  0
   -0.0190   -1.7890    0.0000 N   0  0  0  0  0  0  0  0  0  0  0  0
    1.2800    0.4610    0.0000 C   0  0  0  0  0  0  0  0  0  0  0  0
  1  2  2  0  0  0  0
  2  3  1  0  0  0  0
  3  4  1  0  0  0  0
  3  5  1  1  0  0  0
M  END
>  <name>
O=[C;amide][C@@H]([N;amide])C

>  <apo>
2

>  <freq>
16

>  <freq0>
0

>  <freq1>
16

>  <freqA>
15.997873

>  <a_count>
12

$$$$

  MOE2015           2D

  7  7  0  0  0  0  0  0  0  0999 V2000
    5.1430    0.0000    0.0000 C   0  0  0  0  0  0  0  0  0  0  0  0
    3.6430    0.0000    0.0000 N   0  0  0  0  0  0  0  0  0  0  0  0
    2.8930    1.2990    0.0000 C   0  0  0  0  0  0  0  0  0  0  0  0
    1.3930    1.2990    0.0000 C   0  0  0  0  0  0  0  0  0  0  0  0
    0.6430    0.0000    0.0000 N   0  0  0  0  0  0  0  0  0  0  0  0
    1.3930   -1.2990    0.0000 C   0  0  0  0  0  0  0  0  0  0  0  0
    2.8930   -1.2990    0.0000 C   0  0  0  0  0  0  0  0  0  0  0  0
  1  2  1  0  0  0  0
  2  3  1  0  0  0  0
  2  7  1  0  0  0  0
  3  4  1  0  0  0  0
  4  5  1  0  0  0  0
  5  6  1  0  0  0  0
  6  7  1  0  0  0  0
M  END
>  <name>
CN1CC[N;amine]CC1

>  <apo>
1

>  <freq>
15

>  <freq0>
0

>  <freq1>
15

>  <freqA>
14.997882

>  <a_count>
19

$$$$

  MOE2015           2D

  6  6  0  0  0  0  0  0  0  0999 V2000
   -2.0490    2.0490    0.0000 N   0  0  0  0  0  0  0  0  0  0  0  0
   -2.0490    0.5490    0.0000 C   0  0  0  0  0  0  0  0  0  0  0  0
   -0.7500   -0.2010    0.0000 C   0  0  0  0  0  0  0  0  0  0  0  0
    0.5490    0.5490    0.0000 C   0  0  0  0  0  0  0  0  0  0  0  0
    0.5490    2.0490    0.0000 C   0  0  0  0  0  0  0  0  0  0  0  0
   -0.7500    2.7990    0.0000 C   0  0  0  0  0  0  0  0  0  0  0  0
  1  2  1  0  0  0  0
  1  6  1  0  0  0  0
  2  3  1  0  0  0  0
  3  4  1  0  0  0  0
  4  5  1  0  0  0  0
  5  6  1  0  0  0  0
M  END
>  <name>
[N;amine]1CCCCC1

>  <apo>
1

>  <freq>
15

>  <freq0>
0

>  <freq1>
15

>  <freqA>
14.997882

>  <a_count>
17

$$$$

  MOE2015           2D

  6  5  0  0  1  0  0  0  0  0999 V2000
    1.5000    1.5000    0.0000 O   0  0  0  0  0  0  0  0  0  0  0  0
    1.5000    0.0000    0.0000 C   0  0  3  0  0  0  0  0  0  0  0  0
    0.2010   -0.7500    0.0000 C   0  0  0  0  0  0  0  0  0  0  0  0
   -1.0980    0.0000    0.0000 O   0  0  0  0  0  0  0  0  0  0  0  0
    2.7990   -0.7500    0.0000 C   0  0  0  0  0  0  0  0  0  0  0  0
    4.0980    0.0000    0.0000 N   0  0  0  0  0  0  0  0  0  0  0  0
  1  2  1  0  0  0  0
  2  3  1  0  0  0  0
  2  5  1  0  0  0  0
  3  4  1  0  0  0  0
  5  6  1  0  0  0  0
M  END
>  <name>
OC(CO)C[N;amide]

>  <apo>
1

>  <freq>
15

>  <freq0>
0

>  <freq1>
15

>  <freqA>
14.997882

>  <a_count>
15

$$$$

  MOE2015           2D

  4  3  0  0  0  0  0  0  0  0999 V2000
    3.0000    0.0000    0.0000 O   0  0  0  0  0  0  0  0  0  0  0  0
    1.5000    0.0000    0.0000 C   0  0  0  0  0  0  0  0  0  0  0  0
    0.7500   -1.2990    0.0000 C   0  0  0  0  0  0  0  0  0  0  0  0
    0.7500    1.2990    0.0000 C   0  0  0  0  0  0  0  0  0  0  0  0
  1  2  1  0  0  0  0
  2  3  1  0  0  0  0
  2  4  1  0  0  0  0
M  END
>  <name>
OC([C;amine])[C;ether]

>  <apo>
2

>  <freq>
15

>  <freq0>
0

>  <freq1>
15

>  <freqA>
14.997882

>  <a_count>
12

$$$$

  MOE2015           2D

 11 11  0  0  1  0  0  0  0  0999 V2000
    6.5450    0.4720    0.0000 O   0  0  0  0  0  0  0  0  0  0  0  0
    5.7950    1.7710    0.0000 C   0  0  0  0  0  0  0  0  0  0  0  0
    4.2950    1.7710    0.0000 C   0  0  2  0  0  0  0  0  0  0  0  0
    3.5450    3.0700    0.0000 C   0  0  1  0  0  0  0  0  0  0  0  0
    4.2950    4.3690    0.0000 O   0  0  0  0  0  0  0  0  0  0  0  0
    2.0450    3.0700    0.0000 C   0  0  1  0  0  0  0  0  0  0  0  0
    1.2950    4.3690    0.0000 O   0  0  0  0  0  0  0  0  0  0  0  0
    1.2950    1.7710    0.0000 C   0  0  2  0  0  0  0  0  0  0  0  0
   -0.2050    1.7710    0.0000 O   0  0  0  0  0  0  0  0  0  0  0  0
    2.0450    0.4720    0.0000 C   0  0  0  0  0  0  0  0  0  0  0  0
    3.5450    0.4720    0.0000 O   0  0  0  0  0  0  0  0  0  0  0  0
  1  2  1  0  0  0  0
  3  2  1  1  0  0  0
  3  4  1  0  0  0  0
  3 11  1  0  0  0  0
  4  5  1  6  0  0  0
  4  6  1  0  0  0  0
  6  7  1  6  0  0  0
  6  8  1  0  0  0  0
  8  9  1  1  0  0  0
  8 10  1  0  0  0  0
 10 11  1  0  0  0  0
M  END
>  <name>
OC[C@@H]1[C@@H](O)[C@@H](O)[C@H](O)[C;ether]O1

>  <apo>
1

>  <freq>
14

>  <freq0>
0

>  <freq1>
14

>  <freqA>
13.997891

>  <a_count>
23

$$$$

  MOE2015           2D

  4  3  0  0  0  0  0  0  0  0999 V2000
    0.0000    0.0000    0.0000 C   0  0  0  0  0  0  0  0  0  0  0  0
   -1.2990   -0.7500    0.0000 C   0  0  0  0  0  0  0  0  0  0  0  0
    0.0000    1.5000    0.0000 C   0  0  0  0  0  0  0  0  0  0  0  0
    1.2990   -0.7500    0.0000 C   0  0  0  0  0  0  0  0  0  0  0  0
  1  2  1  0  0  0  0
  1  3  1  0  0  0  0
  1  4  1  0  0  0  0
M  END
>  <name>
[C;amine](C)(C)C

>  <apo>
1

>  <freq>
13

>  <freq0>
0

>  <freq1>
13

>  <freqA>
12.997902

>  <a_count>
14

$$$$

  MOE2015           2D

  3  2  0  0  0  0  0  0  0  0999 V2000
    0.2500    0.0670    0.0000 C   0  0  0  0  0  0  0  0  0  0  0  0
    1.5490   -0.6830    0.0000 C   0  0  0  0  0  0  0  0  0  0  0  0
   -1.0490   -0.6830    0.0000 C   0  0  0  0  0  0  0  0  0  0  0  0
  1  2  1  0  0  0  0
  1  3  1  0  0  0  0
M  END
>  <name>
[C;olefin](C)C

>  <apo>
1

>  <freq>
13

>  <freq0>
0

>  <freq1>
13

>  <freqA>
12.997902

>  <a_count>
11

$$$$

  MOE2015           2D

  9  8  0  0  1  0  0  0  0  0999 V2000
   -0.3360   -1.2540    0.0000 O   0  0  0  0  0  0  0  0  0  0  0  0
    0.9630   -2.0040    0.0000 C   0  0  0  0  0  0  0  0  0  0  0  0
    0.9630   -3.5040    0.0000 O   0  0  0  0  0  0  0  0  0  0  0  0
    2.2620   -1.2540    0.0000 C   0  0  0  0  0  0  0  0  0  0  0  0
    3.5610   -2.0040    0.0000 C   0  0  0  0  0  0  0  0  0  0  0  0
    4.8600   -1.2540    0.0000 C   0  0  2  0  0  0  0  0  0  0  0  0
    4.8600    0.2460    0.0000 N   0  0  0  0  0  0  0  0  0  0  0  0
    6.1590   -2.0040    0.0000 C   0  0  0  0  0  0  0  0  0  0  0  0
    7.4580   -1.2540    0.0000 O   0  0  0  0  0  0  0  0  0  0  0  0
  1  2  2  0  0  0  0
  2  3  1  0  0  0  0
  2  4  1  0  0  0  0
  4  5  1  0  0  0  0
  5  6  1  0  0  0  0
  6  7  1  6  0  0  0
  6  8  1  0  0  0  0
  8  9  2  0  0  0  0
M  END
>  <name>
O=C(O)CC[C@H]([N;amide])[C;amide]=O

>  <apo>
2

>  <freq>
12

>  <freq0>
0

>  <freq1>
12

>  <freqA>
11.997914

>  <a_count>
18

$$$$

  MOE2015           2D

  7  6  0  0  1  0  0  0  0  0999 V2000
    5.3550   -0.7920    0.0000 O   0  0  0  0  0  0  0  0  0  0  0  0
    4.0560   -1.5420    0.0000 C   0  0  0  0  0  0  0  0  0  0  0  0
    2.7570   -0.7920    0.0000 C   0  0  1  0  0  0  0  0  0  0  0  0
    2.7570    0.7080    0.0000 N   0  0  0  0  0  0  0  0  0  0  0  0
    1.4580   -1.5420    0.0000 C   0  0  0  0  0  0  0  0  0  0  0  0
    1.4580   -3.0420    0.0000 C   0  0  0  0  0  0  0  0  0  0  0  0
    0.1590   -0.7920    0.0000 C   0  0  0  0  0  0  0  0  0  0  0  0
  1  2  2  0  0  0  0
  2  3  1  0  0  0  0
  3  4  1  6  0  0  0
  3  5  1  0  0  0  0
  5  6  1  0  0  0  0
  5  7  1  0  0  0  0
M  END
>  <name>
O=[C;amide][C@@H]([N;amide])C(C)C

>  <apo>
2

>  <freq>
12

>  <freq0>
0

>  <freq1>
12

>  <freqA>
11.997914

>  <a_count>
18

$$$$

  MOE2015           2D

  4  3  0  0  0  0  0  0  0  0999 V2000
    3.0000    0.0000    0.0000 O   0  0  0  0  0  0  0  0  0  0  0  0
    1.5000    0.0000    0.0000 C   0  0  0  0  0  0  0  0  0  0  0  0
    0.7500   -1.2990    0.0000 C   0  0  0  0  0  0  0  0  0  0  0  0
    0.7500    1.2990    0.0000 C   0  0  0  0  0  0  0  0  0  0  0  0
  1  2  1  0  0  0  0
  2  3  1  0  0  0  0
  2  4  1  0  0  0  0
M  END
>  <name>
[O;ester]C(C)C

>  <apo>
1

>  <freq>
12

>  <freq0>
0

>  <freq1>
12

>  <freqA>
11.997914

>  <a_count>
12

$$$$

  MOE2015           2D

 11 11  0  0  1  0  0  0  0  0999 V2000
    8.1690   -3.0070    0.0000 O   0  0  0  0  0  0  0  0  0  0  0  0
    6.8700   -3.7570    0.0000 C   0  0  0  0  0  0  0  0  0  0  0  0
    5.5710   -3.0070    0.0000 C   0  0  2  0  0  0  0  0  0  0  0  0
    5.5710   -1.5070    0.0000 N   0  0  0  0  0  0  0  0  0  0  0  0
    4.2720   -3.7570    0.0000 C   0  0  0  0  0  0  0  0  0  0  0  0
    2.9730   -3.0070    0.0000 C   0  0  0  0  0  0  0  0  0  0  0  0
    1.6740   -3.7570    0.0000 C   0  0  0  0  0  0  0  0  0  0  0  0
    0.3750   -3.0070    0.0000 C   0  0  0  0  0  0  0  0  0  0  0  0
    0.3750   -1.5070    0.0000 C   0  0  0  0  0  0  0  0  0  0  0  0
    1.6740   -0.7570    0.0000 C   0  0  0  0  0  0  0  0  0  0  0  0
    2.9730   -1.5070    0.0000 C   0  0  0  0  0  0  0  0  0  0  0  0
  1  2  2  0  0  0  0
  2  3  1  0  0  0  0
  3  4  1  1  0  0  0
  3  5  1  0  0  0  0
  5  6  1  0  0  0  0
  6  7  1  0  0  0  0
  6 11  2  0  0  0  0
  7  8  2  0  0  0  0
  8  9  1  0  0  0  0
  9 10  2  0  0  0  0
 10 11  1  0  0  0  0
M  END
>  <name>
O=[C;amide][C@H]([N;amide])Cc1ccccc1

>  <apo>
2

>  <freq>
11

>  <freq0>
0

>  <freq1>
11

>  <freqA>
10.99793

>  <a_count>
22

$$$$

  MOE2015           2D

  8  7  0  0  1  0  0  0  0  0999 V2000
    0.0090   -0.0320    0.0000 O   0  0  0  0  0  0  0  0  0  0  0  0
    1.3080    0.7180    0.0000 C   0  0  0  0  0  0  0  0  0  0  0  0
    1.3080    2.2180    0.0000 O   0  0  0  0  0  0  0  0  0  0  0  0
    2.6070   -0.0320    0.0000 C   0  0  0  0  0  0  0  0  0  0  0  0
    3.9060    0.7180    0.0000 C   0  0  2  0  0  0  0  0  0  0  0  0
    3.9060    2.2180    0.0000 N   0  0  0  0  0  0  0  0  0  0  0  0
    5.2050   -0.0320    0.0000 C   0  0  0  0  0  0  0  0  0  0  0  0
    6.5040    0.7180    0.0000 O   0  0  0  0  0  0  0  0  0  0  0  0
  1  2  2  0  0  0  0
  2  3  1  0  0  0  0
  2  4  1  0  0  0  0
  4  5  1  0  0  0  0
  5  6  1  6  0  0  0
  5  7  1  0  0  0  0
  7  8  2  0  0  0  0
M  END
>  <name>
O=C(O)C[C@H]([N;amide])[C;amide]=O

>  <apo>
2

>  <freq>
11

>  <freq0>
0

>  <freq1>
11

>  <freqA>
10.99793

>  <a_count>
15

$$$$

  MOE2015           2D

  7  7  0  0  0  0  0  0  0  0999 V2000
    5.1430    0.0000    0.0000 O   0  0  0  0  0  0  0  0  0  0  0  0
    3.6430    0.0000    0.0000 C   0  0  0  0  0  0  0  0  0  0  0  0
    2.8930    1.2990    0.0000 C   0  0  0  0  0  0  0  0  0  0  0  0
    1.3930    1.2990    0.0000 C   0  0  0  0  0  0  0  0  0  0  0  0
    0.6430    0.0000    0.0000 C   0  0  0  0  0  0  0  0  0  0  0  0
    1.3930   -1.2990    0.0000 C   0  0  0  0  0  0  0  0  0  0  0  0
    2.8930   -1.2990    0.0000 C   0  0  0  0  0  0  0  0  0  0  0  0
  1  2  1  0  0  0  0
  2  3  1  0  0  0  0
  2  7  2  0  0  0  0
  3  4  2  0  0  0  0
  4  5  1  0  0  0  0
  5  6  2  0  0  0  0
  6  7  1  0  0  0  0
M  END
>  <name>
[O;ether]c1ccccc1

>  <apo>
1

>  <freq>
11

>  <freq0>
0

>  <freq1>
11

>  <freqA>
10.99793

>  <a_count>
13

$$$$

  MOE2015           2D

  3  2  0  0  0  0  0  0  0  0999 V2000
    0.2500    0.0670    0.0000 C   0  0  0  0  0  0  0  0  0  0  0  0
    1.5490   -0.6830    0.0000 C   0  0  0  0  0  0  0  0  0  0  0  0
   -1.0490   -0.6830    0.0000 C   0  0  0  0  0  0  0  0  0  0  0  0
  1  2  1  0  0  0  0
  1  3  1  0  0  0  0
M  END
>  <name>
C([C;amine])C

>  <apo>
1

>  <freq>
11

>  <freq0>
0

>  <freq1>
11

>  <freqA>
10.99793

>  <a_count>
11

$$$$

  MOE2015           2D

  6  5  0  0  0  0  0  0  0  0999 V2000
    2.7660   -0.9910    0.0000 N   0  3  0  0  0  0  0  0  0  0  0  0
    1.4670   -1.7410    0.0000 C   0  0  0  0  0  0  0  0  0  0  0  0
    0.1670   -0.9910    0.0000 C   0  0  0  0  0  0  0  0  0  0  0  0
   -1.1320   -1.7410    0.0000 C   0  0  0  0  0  0  0  0  0  0  0  0
    0.1670    0.5090    0.0000 C   0  0  0  0  0  0  0  0  0  0  0  0
    4.0650   -0.2410    0.0000 C   0  5  0  0  0  0  0  0  0  0  0  0
  1  2  1  0  0  0  0
  1  6  3  0  0  0  0
  2  3  1  0  0  0  0
  3  4  1  0  0  0  0
  3  5  1  0  0  0  0
M  CHG  1   1   1
M  CHG  1   6  -1
M  END
>  <name>
[N+](C[C;ether](C)C)#[C-]

>  <apo>
1

>  <freq>
10

>  <freq0>
0

>  <freq1>
10

>  <freqA>
9.9979467

>  <a_count>
15

$$$$

  MOE2015           2D

  8  8  0  0  0  0  0  0  0  0999 V2000
    5.3440   -0.8120    0.0000 O   0  0  0  0  0  0  0  0  0  0  0  0
    4.5940   -2.1110    0.0000 C   0  0  0  0  0  0  0  0  0  0  0  0
    3.0940   -2.1110    0.0000 C   0  0  0  0  0  0  0  0  0  0  0  0
    2.3440   -3.4100    0.0000 C   0  0  0  0  0  0  0  0  0  0  0  0
    0.8440   -3.4100    0.0000 C   0  0  0  0  0  0  0  0  0  0  0  0
    0.0940   -2.1110    0.0000 C   0  0  0  0  0  0  0  0  0  0  0  0
    0.8440   -0.8120    0.0000 C   0  0  0  0  0  0  0  0  0  0  0  0
    2.3440   -0.8120    0.0000 C   0  0  0  0  0  0  0  0  0  0  0  0
  1  2  2  0  0  0  0
  2  3  1  0  0  0  0
  3  4  1  0  0  0  0
  3  8  2  0  0  0  0
  4  5  2  0  0  0  0
  5  6  1  0  0  0  0
  6  7  2  0  0  0  0
  7  8  1  0  0  0  0
M  END
>  <name>
O=[C;ester]c1ccccc1

>  <apo>
1

>  <freq>
10

>  <freq0>
0

>  <freq1>
10

>  <freqA>
9.9979467

>  <a_count>
14

$$$$

  MOE2015           2D

  5  5  0  0  0  0  0  0  0  0999 V2000
    0.7970    1.6710    0.0000 N   0  0  0  0  0  0  0  0  0  0  0  0
    0.4090    0.2220    0.0000 C   0  0  0  0  0  0  0  0  0  0  0  0
   -1.0890    0.1430    0.0000 C   0  0  0  0  0  0  0  0  0  0  0  0
   -1.6270    1.5440    0.0000 C   0  0  0  0  0  0  0  0  0  0  0  0
   -0.4610    2.4880    0.0000 C   0  0  0  0  0  0  0  0  0  0  0  0
  1  2  1  0  0  0  0
  1  5  1  0  0  0  0
  2  3  1  0  0  0  0
  3  4  1  0  0  0  0
  4  5  1  0  0  0  0
M  END
>  <name>
[N;amine]1CCCC1

>  <apo>
1

>  <freq>
10

>  <freq0>
0

>  <freq1>
10

>  <freqA>
9.9979467

>  <a_count>
14

$$$$

  MOE2015           2D

  3  2  0  0  0  0  0  0  0  0999 V2000
    0.2500    0.0670    0.0000 N   0  3  0  0  0  0  0  0  0  0  0  0
    1.5490   -0.6830    0.0000 C   0  0  0  0  0  0  0  0  0  0  0  0
   -1.0490   -0.6830    0.0000 C   0  0  0  0  0  0  0  0  0  0  0  0
  1  2  1  0  0  0  0
  1  3  1  0  0  0  0
M  CHG  1   1   1
M  END
>  <name>
[N+;quatN](C)C

>  <apo>
1

>  <freq>
10

>  <freq0>
0

>  <freq1>
10

>  <freqA>
9.9979467

>  <a_count>
11

$$$$

  MOE2015           2D

 14 15  0  0  1  0  0  0  0  0999 V2000
   10.1920    2.1660    0.0000 O   0  0  0  0  0  0  0  0  0  0  0  0
    8.8220    1.5560    0.0000 C   0  0  0  0  0  0  0  0  0  0  0  0
    7.6080    2.4380    0.0000 C   0  0  2  0  0  0  0  0  0  0  0  0
    7.7650    3.9300    0.0000 N   0  0  0  0  0  0  0  0  0  0  0  0
    6.2380    1.8280    0.0000 C   0  0  0  0  0  0  0  0  0  0  0  0
    5.0240    2.7090    0.0000 C   0  0  0  0  0  0  0  0  0  0  0  0
    3.5980    2.2460    0.0000 C   0  0  0  0  0  0  0  0  0  0  0  0
    2.7160    3.4590    0.0000 C   0  0  0  0  0  0  0  0  0  0  0  0
    3.5980    4.6730    0.0000 N   0  0  0  0  0  0  0  0  0  0  0  0
    5.0240    4.2090    0.0000 C   0  0  0  0  0  0  0  0  0  0  0  0
    1.2240    3.3030    0.0000 C   0  0  0  0  0  0  0  0  0  0  0  0
    0.6140    1.9320    0.0000 C   0  0  0  0  0  0  0  0  0  0  0  0
    1.4960    0.7190    0.0000 C   0  0  0  0  0  0  0  0  0  0  0  0
    2.9870    0.8760    0.0000 C   0  0  0  0  0  0  0  0  0  0  0  0
  1  2  2  0  0  0  0
  2  3  1  0  0  0  0
  3  4  1  1  0  0  0
  3  5  1  0  0  0  0
  5  6  1  0  0  0  0
  6  7  1  0  0  0  0
  6 10  2  0  0  0  0
  7  8  2  0  0  0  0
  7 14  1  0  0  0  0
  8  9  1  0  0  0  0
  8 11  1  0  0  0  0
  9 10  1  0  0  0  0
 11 12  2  0  0  0  0
 12 13  1  0  0  0  0
 13 14  2  0  0  0  0
M  END
>  <name>
O=[C;amide][C@H]([N;amide])Cc1c2c([nH]c1)cccc2

>  <apo>
2

>  <freq>
9

>  <freq0>
0

>  <freq1>
9

>  <freqA>
8.9979668

>  <a_count>
26

$$$$

  MOE2015           2D

 14 15  0  0  1  0  0  0  0  0999 V2000
    0.9240    5.0110    0.0000 O   0  0  0  0  0  0  0  0  0  0  0  0
    0.1740    3.7120    0.0000 C   0  0  0  0  0  0  0  0  0  0  0  0
   -1.3260    3.7120    0.0000 O   0  0  0  0  0  0  0  0  0  0  0  0
    0.9240    2.4120    0.0000 C   0  0  0  0  0  0  0  0  0  0  0  0
    0.1740    1.1130    0.0000 C   0  0  0  0  0  0  0  0  0  0  0  0
   -1.3260    1.1130    0.0000 C   0  0  0  0  0  0  0  0  0  0  0  0
    0.9240   -0.1860    0.0000 C   0  0  0  0  0  0  0  0  0  0  0  0
    2.4240   -0.1860    0.0000 S   0  0  0  0  0  0  0  0  0  0  0  0
    3.1740    1.1130    0.0000 C   0  0  2  0  0  0  0  0  0  0  0  0
    4.4730    1.8630    0.0000 C   0  0  2  0  0  0  0  0  0  0  0  0
    5.9220    1.4750    0.0000 N   0  0  0  0  0  0  0  0  0  0  0  0
    3.7230    3.1620    0.0000 C   0  0  0  0  0  0  0  0  0  0  0  0
    4.1110    4.6110    0.0000 O   0  0  0  0  0  0  0  0  0  0  0  0
    2.4240    2.4120    0.0000 N   0  0  0  0  0  0  0  0  0  0  0  0
  1  2  2  0  0  0  0
  2  3  1  0  0  0  0
  2  4  1  0  0  0  0
  4  5  2  0  0  0  0
  4 14  1  0  0  0  0
  5  6  1  0  0  0  0
  5  7  1  0  0  0  0
  7  8  1  0  0  0  0
  9  8  1  1  0  0  0
  9 10  1  0  0  0  0
  9 14  1  0  0  0  0
 10 11  1  1  0  0  0
 10 12  1  0  0  0  0
 12 13  2  0  0  0  0
 12 14  1  0  0  0  0
M  END
>  <name>
O=C(O)C1=C([C;thioether])CS[C@@H]2[C@H]([N;amide])C(=O)N12

>  <apo>
2

>  <freq>
9

>  <freq0>
0

>  <freq1>
9

>  <freqA>
8.9979668

>  <a_count>
24

$$$$

  MOE2015           2D

 11 10  0  0  1  0  0  0  0  0999 V2000
    3.2030   -0.3400    0.0000 O   0  0  0  0  0  0  0  0  0  0  0  0
    3.2030   -1.8400    0.0000 C   0  0  0  0  0  0  0  0  0  0  0  0
    4.5020   -2.5900    0.0000 O   0  0  0  0  0  0  0  0  0  0  0  0
    5.8010   -1.8400    0.0000 C   0  0  0  0  0  0  0  0  0  0  0  0
    1.9040   -2.5900    0.0000 N   0  0  0  0  0  0  0  0  0  0  0  0
    0.6050   -1.8400    0.0000 C   0  0  2  0  0  0  0  0  0  0  0  0
    0.6050   -0.3400    0.0000 C   0  0  0  0  0  0  0  0  0  0  0  0
   -0.6940    0.4100    0.0000 O   0  0  0  0  0  0  0  0  0  0  0  0
   -0.6940   -2.5900    0.0000 C   0  0  0  0  0  0  0  0  0  0  0  0
   -1.9930   -1.8400    0.0000 C   0  0  0  0  0  0  0  0  0  0  0  0
   -0.6940   -4.0900    0.0000 C   0  0  0  0  0  0  0  0  0  0  0  0
  1  2  2  0  0  0  0
  2  3  1  0  0  0  0
  2  5  1  0  0  0  0
  3  4  1  0  0  0  0
  6  5  1  1  0  0  0
  6  7  1  0  0  0  0
  6  9  1  0  0  0  0
  7  8  2  0  0  0  0
  9 10  1  0  0  0  0
  9 11  1  0  0  0  0
M  END
>  <name>
O=C(OC)N[C@H]([C;amide]=O)C(C)C

>  <apo>
1

>  <freq>
9

>  <freq0>
0

>  <freq1>
9

>  <freqA>
8.9979668

>  <a_count>
24

$$$$

  MOE2015           2D

  8  8  0  0  1  0  0  0  0  0999 V2000
    5.4110   -0.8000    0.0000 O   0  0  0  0  0  0  0  0  0  0  0  0
    4.1120   -0.0500    0.0000 C   0  0  2  0  0  0  0  0  0  0  0  0
    2.8120   -0.8000    0.0000 C   0  0  0  0  0  0  0  0  0  0  0  0
    1.5130   -0.0500    0.0000 C   0  0  1  0  0  0  0  0  0  0  0  0
    0.2140   -0.8000    0.0000 C   0  0  0  0  0  0  0  0  0  0  0  0
    1.5130    1.4500    0.0000 O   0  0  0  0  0  0  0  0  0  0  0  0
    2.8120    2.2000    0.0000 C   0  0  0  0  0  0  0  0  0  0  0  0
    4.1120    1.4500    0.0000 C   0  0  0  0  0  0  0  0  0  0  0  0
  2  1  1  6  0  0  0
  2  3  1  0  0  0  0
  2  8  1  0  0  0  0
  3  4  1  0  0  0  0
  4  5  1  1  0  0  0
  4  6  1  0  0  0  0
  6  7  1  0  0  0  0
  7  8  1  0  0  0  0
M  END
>  <name>
O[C@@H]1[C;ether][C@@H](C)O[C;ether]C1

>  <apo>
2

>  <freq>
9

>  <freq0>
0

>  <freq1>
9

>  <freqA>
8.9979668

>  <a_count>
20

$$$$

  MOE2015           2D

  9  9  0  0  0  0  0  0  0  0999 V2000
    2.3330   -2.3330    0.0000 N   0  0  0  0  0  0  0  0  0  0  0  0
    2.3330   -0.8330    0.0000 C   0  0  0  0  0  0  0  0  0  0  0  0
    3.6320   -0.0830    0.0000 C   0  0  0  0  0  0  0  0  0  0  0  0
    4.9310   -0.8330    0.0000 C   0  0  0  0  0  0  0  0  0  0  0  0
    3.6320    1.4170    0.0000 C   0  0  0  0  0  0  0  0  0  0  0  0
    2.3330    2.1670    0.0000 C   0  0  0  0  0  0  0  0  0  0  0  0
    1.0340    1.4170    0.0000 C   0  0  0  0  0  0  0  0  0  0  0  0
    1.0340   -0.0830    0.0000 C   0  0  0  0  0  0  0  0  0  0  0  0
   -0.2650   -0.8330    0.0000 C   0  0  0  0  0  0  0  0  0  0  0  0
  1  2  1  0  0  0  0
  2  3  1  0  0  0  0
  2  8  2  0  0  0  0
  3  4  1  0  0  0  0
  3  5  2  0  0  0  0
  5  6  1  0  0  0  0
  6  7  2  0  0  0  0
  7  8  1  0  0  0  0
  8  9  1  0  0  0  0
M  END
>  <name>
[N;amide]c1c(C)cccc1C

>  <apo>
1

>  <freq>
9

>  <freq0>
0

>  <freq1>
9

>  <freqA>
8.9979668

>  <a_count>
20

$$$$

  MOE2015           2D

 10 11  0  0  0  0  0  0  0  0999 V2000
    0.5660    0.9790    0.0000 N   0  0  0  0  0  0  0  0  0  0  0  0
    1.3160   -0.3200    0.0000 C   0  0  0  0  0  0  0  0  0  0  0  0
    0.5660   -1.6190    0.0000 N   0  0  0  0  0  0  0  0  0  0  0  0
    1.3160   -2.9180    0.0000 C   0  0  0  0  0  0  0  0  0  0  0  0
    2.8160   -2.9180    0.0000 N   0  0  0  0  0  0  0  0  0  0  0  0
    3.5660   -1.6190    0.0000 C   0  0  0  0  0  0  0  0  0  0  0  0
    5.0330   -1.3070    0.0000 N   0  0  0  0  0  0  0  0  0  0  0  0
    5.1900    0.1850    0.0000 C   0  0  0  0  0  0  0  0  0  0  0  0
    3.8190    0.7950    0.0000 N   0  0  0  0  0  0  0  0  0  0  0  0
    2.8160   -0.3200    0.0000 C   0  0  0  0  0  0  0  0  0  0  0  0
  1  2  1  0  0  0  0
  2  3  1  0  0  0  0
  2 10  2  0  0  0  0
  3  4  2  0  0  0  0
  4  5  1  0  0  0  0
  5  6  2  0  0  0  0
  6  7  1  0  0  0  0
  6 10  1  0  0  0  0
  7  8  1  0  0  0  0
  8  9  2  0  0  0  0
  9 10  1  0  0  0  0
M  END
>  <name>
Nc1ncnc2[nH;NaroC]cnc12

>  <apo>
1

>  <freq>
9

>  <freq0>
0

>  <freq1>
9

>  <freqA>
8.9979668

>  <a_count>
15

$$$$

  MOE2015           2D

  5  4  0  0  0  0  0  0  0  0999 V2000
    0.1310   -1.0100    0.0000 O   0  0  0  0  0  0  0  0  0  0  0  0
    1.4300   -0.2600    0.0000 C   0  0  0  0  0  0  0  0  0  0  0  0
    1.4300    1.2400    0.0000 N   0  0  0  0  0  0  0  0  0  0  0  0
    2.7290   -1.0100    0.0000 C   0  0  0  0  0  0  0  0  0  0  0  0
    4.0280   -0.2600    0.0000 N   0  0  0  0  0  0  0  0  0  0  0  0
  1  2  2  0  0  0  0
  2  3  1  0  0  0  0
  2  4  1  0  0  0  0
  4  5  1  0  0  0  0
M  END
>  <name>
O=C(N)C[N;amide]

>  <apo>
1

>  <freq>
9

>  <freq0>
0

>  <freq1>
9

>  <freqA>
8.9979668

>  <a_count>
11

$$$$

  MOE2015           2D

 17 16  0  0  0  0  0  0  0  0999 V2000
   -1.2160   -5.2430    0.0000 O   0  0  0  0  0  0  0  0  0  0  0  0
    0.0830   -4.4930    0.0000 C   0  0  0  0  0  0  0  0  0  0  0  0
    1.3820   -5.2430    0.0000 C   0  0  0  0  0  0  0  0  0  0  0  0
    2.6810   -4.4930    0.0000 C   0  0  0  0  0  0  0  0  0  0  0  0
    3.9800   -5.2430    0.0000 C   0  0  0  0  0  0  0  0  0  0  0  0
    5.2790   -4.4930    0.0000 C   0  0  0  0  0  0  0  0  0  0  0  0
    6.5780   -5.2430    0.0000 C   0  0  0  0  0  0  0  0  0  0  0  0
    7.8770   -4.4930    0.0000 C   0  0  0  0  0  0  0  0  0  0  0  0
    9.1760   -5.2430    0.0000 C   0  0  0  0  0  0  0  0  0  0  0  0
   10.4760   -4.4930    0.0000 C   0  0  0  0  0  0  0  0  0  0  0  0
   11.7750   -5.2430    0.0000 C   0  0  0  0  0  0  0  0  0  0  0  0
   13.0740   -4.4930    0.0000 C   0  0  0  0  0  0  0  0  0  0  0  0
   14.3730   -5.2430    0.0000 C   0  0  0  0  0  0  0  0  0  0  0  0
   15.6720   -4.4930    0.0000 C   0  0  0  0  0  0  0  0  0  0  0  0
   16.9710   -5.2430    0.0000 C   0  0  0  0  0  0  0  0  0  0  0  0
   18.2700   -4.4930    0.0000 C   0  0  0  0  0  0  0  0  0  0  0  0
   19.5690   -5.2430    0.0000 C   0  0  0  0  0  0  0  0  0  0  0  0
  1  2  2  0  0  0  0
  2  3  1  0  0  0  0
  3  4  1  0  0  0  0
  4  5  1  0  0  0  0
  5  6  1  0  0  0  0
  6  7  1  0  0  0  0
  7  8  1  0  0  0  0
  8  9  1  0  0  0  0
  9 10  1  0  0  0  0
 10 11  1  0  0  0  0
 11 12  1  0  0  0  0
 12 13  1  0  0  0  0
 13 14  1  0  0  0  0
 14 15  1  0  0  0  0
 15 16  1  0  0  0  0
 16 17  1  0  0  0  0
M  END
>  <name>
O=[C;ester]CCCCCCCCCCCCCCC

>  <apo>
1

>  <freq>
8

>  <freq0>
0

>  <freq1>
8

>  <freqA>
7.997992

>  <a_count>
49

$$$$

  MOE2015           2D

  9  8  0  0  1  0  0  0  0  0999 V2000
    0.3130   -4.3540    0.0000 O   0  0  0  0  0  0  0  0  0  0  0  0
    0.3130   -2.8540    0.0000 C   0  0  0  0  0  0  0  0  0  0  0  0
    1.6120   -2.1040    0.0000 C   0  0  1  0  0  0  0  0  0  0  0  0
    1.6120   -0.6040    0.0000 N   0  0  0  0  0  0  0  0  0  0  0  0
    0.3130    0.1460    0.0000 C   0  0  0  0  0  0  0  0  0  0  0  0
    2.9110   -2.8540    0.0000 C   0  0  0  0  0  0  0  0  0  0  0  0
    4.2100   -2.1040    0.0000 C   0  0  0  0  0  0  0  0  0  0  0  0
    5.5090   -2.8540    0.0000 C   0  0  0  0  0  0  0  0  0  0  0  0
    4.2100   -0.6040    0.0000 C   0  0  0  0  0  0  0  0  0  0  0  0
  1  2  2  0  0  0  0
  3  2  1  1  0  0  0
  3  4  1  0  0  0  0
  3  6  1  0  0  0  0
  4  5  1  0  0  0  0
  6  7  1  0  0  0  0
  7  8  1  0  0  0  0
  7  9  1  0  0  0  0
M  END
>  <name>
O=[C;amide][C@@H]([N;amide]C)CC(C)C

>  <apo>
2

>  <freq>
8

>  <freq0>
0

>  <freq1>
8

>  <freqA>
7.997992

>  <a_count>
24

$$$$

  MOE2015           2D

 11 11  0  0  0  0  0  0  0  0999 V2000
   10.6140   -2.8440    0.0000 O   0  0  0  0  0  0  0  0  0  0  0  0
    9.3150   -2.0940    0.0000 C   0  0  0  0  0  0  0  0  0  0  0  0
    8.0160   -2.8440    0.0000 C   0  0  0  0  0  0  0  0  0  0  0  0
    6.7170   -2.0940    0.0000 C   0  0  0  0  0  0  0  0  0  0  0  0
    5.4180   -2.8440    0.0000 C   0  0  0  0  0  0  0  0  0  0  0  0
    4.1190   -2.0940    0.0000 C   0  0  0  0  0  0  0  0  0  0  0  0
    4.1190   -0.5940    0.0000 C   0  0  0  0  0  0  0  0  0  0  0  0
    2.8200    0.1560    0.0000 C   0  0  0  0  0  0  0  0  0  0  0  0
    1.5210   -0.5940    0.0000 C   0  0  0  0  0  0  0  0  0  0  0  0
    1.5210   -2.0940    0.0000 C   0  0  0  0  0  0  0  0  0  0  0  0
    2.8200   -2.8440    0.0000 C   0  0  0  0  0  0  0  0  0  0  0  0
  1  2  2  0  0  0  0
  2  3  1  0  0  0  0
  3  4  1  0  0  0  0
  4  5  1  0  0  0  0
  5  6  1  0  0  0  0
  6  7  1  0  0  0  0
  6 11  2  0  0  0  0
  7  8  2  0  0  0  0
  8  9  1  0  0  0  0
  9 10  2  0  0  0  0
 10 11  1  0  0  0  0
M  END
>  <name>
O=[C;ester][C;amine]CCc1ccccc1

>  <apo>
2

>  <freq>
8

>  <freq0>
0

>  <freq1>
8

>  <freqA>
7.997992

>  <a_count>
23

$$$$

  MOE2015           2D

  8  7  0  0  0  0  0  0  0  0999 V2000
   -0.4220   -2.3240    0.0000 O   0  0  0  0  0  0  0  0  0  0  0  0
    0.8770   -1.5740    0.0000 C   0  0  0  0  0  0  0  0  0  0  0  0
    2.1760   -2.3240    0.0000 C   0  0  0  0  0  0  0  0  0  0  0  0
    3.4750   -1.5740    0.0000 C   0  0  0  0  0  0  0  0  0  0  0  0
    4.7750   -2.3240    0.0000 C   0  0  0  0  0  0  0  0  0  0  0  0
    6.0740   -1.5740    0.0000 C   0  0  0  0  0  0  0  0  0  0  0  0
    7.3730   -2.3240    0.0000 C   0  0  0  0  0  0  0  0  0  0  0  0
    8.6720   -1.5740    0.0000 C   0  0  0  0  0  0  0  0  0  0  0  0
  1  2  2  0  0  0  0
  2  3  1  0  0  0  0
  3  4  1  0  0  0  0
  4  5  1  0  0  0  0
  5  6  1  0  0  0  0
  6  7  1  0  0  0  0
  7  8  1  0  0  0  0
M  END
>  <name>
O=[C;ester]CCCCCC

>  <apo>
1

>  <freq>
8

>  <freq0>
0

>  <freq1>
8

>  <freqA>
7.997992

>  <a_count>
22

$$$$

  MOE2015           2D

  8  7  0  0  1  0  0  0  0  0999 V2000
    6.3160   -1.8800    0.0000 O   0  0  0  0  0  0  0  0  0  0  0  0
    5.0170   -2.6300    0.0000 C   0  0  0  0  0  0  0  0  0  0  0  0
    3.7180   -1.8800    0.0000 C   0  0  2  0  0  0  0  0  0  0  0  0
    3.7180   -0.3800    0.0000 N   0  0  0  0  0  0  0  0  0  0  0  0
    2.4190   -2.6300    0.0000 C   0  0  0  0  0  0  0  0  0  0  0  0
    1.1200   -1.8800    0.0000 C   0  0  0  0  0  0  0  0  0  0  0  0
   -0.1790   -2.6300    0.0000 C   0  0  0  0  0  0  0  0  0  0  0  0
    1.1200   -0.3800    0.0000 C   0  0  0  0  0  0  0  0  0  0  0  0
  1  2  2  0  0  0  0
  2  3  1  0  0  0  0
  3  4  1  1  0  0  0
  3  5  1  0  0  0  0
  5  6  1  0  0  0  0
  6  7  1  0  0  0  0
  6  8  1  0  0  0  0
M  END
>  <name>
O=[C;amide][C@H]([N;amide])CC(C)C

>  <apo>
2

>  <freq>
8

>  <freq0>
0

>  <freq1>
8

>  <freqA>
7.997992

>  <a_count>
21

$$$$

  MOE2015           2D

  9  9  0  0  1  0  0  0  0  0999 V2000
    1.3330    2.3090    0.0000 O   0  0  0  0  0  0  0  0  0  0  0  0
    2.0830    1.0100    0.0000 C   0  0  1  0  0  0  0  0  0  0  0  0
    1.3330   -0.2890    0.0000 C   0  0  2  0  0  0  0  0  0  0  0  0
   -0.1670   -0.2890    0.0000 O   0  0  0  0  0  0  0  0  0  0  0  0
    2.0830   -1.5880    0.0000 C   0  0  0  0  0  0  0  0  0  0  0  0
    3.5830   -1.5880    0.0000 O   0  0  0  0  0  0  0  0  0  0  0  0
    4.3330   -0.2890    0.0000 C   0  0  1  0  0  0  0  0  0  0  0  0
    5.8330   -0.2890    0.0000 C   0  0  0  0  0  0  0  0  0  0  0  0
    3.5830    1.0100    0.0000 C   0  0  0  0  0  0  0  0  0  0  0  0
  2  1  1  6  0  0  0
  2  3  1  0  0  0  0
  2  9  1  0  0  0  0
  3  4  1  1  0  0  0
  3  5  1  0  0  0  0
  5  6  1  0  0  0  0
  6  7  1  0  0  0  0
  7  8  1  6  0  0  0
  7  9  1  0  0  0  0
M  END
>  <name>
O[C@H]1[C@H](O)[C;ether]O[C@@H]([C;thioether])[C;ether]1

>  <apo>
3

>  <freq>
8

>  <freq0>
0

>  <freq1>
8

>  <freqA>
7.997992

>  <a_count>
21

$$$$

  MOE2015           2D

 10  9  0  0  1  0  0  0  0  0999 V2000
   -0.2420   -1.9540    0.0000 O   0  0  0  0  0  0  0  0  0  0  0  0
    1.0570   -1.2040    0.0000 C   0  0  0  0  0  0  0  0  0  0  0  0
    1.0570    0.2960    0.0000 O   0  0  0  0  0  0  0  0  0  0  0  0
    2.3560   -1.9540    0.0000 C   0  0  1  0  0  0  0  0  0  0  0  0
    2.3560   -3.4540    0.0000 N   0  0  0  0  0  0  0  0  0  0  0  0
    3.6550   -1.2040    0.0000 C   0  0  0  0  0  0  0  0  0  0  0  0
    4.9540   -1.9540    0.0000 C   0  0  0  0  0  0  0  0  0  0  0  0
    6.2530   -1.2040    0.0000 C   0  0  0  0  0  0  0  0  0  0  0  0
    7.5520   -1.9540    0.0000 O   0  0  0  0  0  0  0  0  0  0  0  0
    6.2530    0.2960    0.0000 O   0  0  0  0  0  0  0  0  0  0  0  0
  1  2  2  0  0  0  0
  2  3  1  0  0  0  0
  2  4  1  0  0  0  0
  4  5  1  6  0  0  0
  4  6  1  0  0  0  0
  6  7  1  0  0  0  0
  7  8  1  0  0  0  0
  8  9  2  0  0  0  0
  8 10  1  0  0  0  0
M  END
>  <name>
O=C(O)[C@@H]([N;amide])CCC(=O)O

>  <apo>
1

>  <freq>
8

>  <freq0>
0

>  <freq1>
8

>  <freqA>
7.997992

>  <a_count>
19

$$$$

  MOE2015           2D

 12 12  0  0  0  0  0  0  0  0999 V2000
    1.2910    1.5330    0.0000 O   0  0  0  0  0  0  0  0  0  0  0  0
    2.5830    0.7700    0.0000 C   0  0  0  0  0  0  0  0  0  0  0  0
    2.5680   -0.7300    0.0000 C   0  0  0  0  0  0  0  0  0  0  0  0
    1.2610   -1.4670    0.0000 N   0  0  0  0  0  0  0  0  0  0  0  0
    1.2470   -2.9670    0.0000 O   0  0  0  0  0  0  0  0  0  0  0  0
   -0.0600   -3.7040    0.0000 C   0  0  0  0  0  0  0  0  0  0  0  0
    3.8590   -1.4930    0.0000 C   0  0  0  0  0  0  0  0  0  0  0  0
    5.2360   -0.8960    0.0000 N   0  0  0  0  0  0  0  0  0  0  0  0
    6.2280   -2.0210    0.0000 C   0  0  0  0  0  0  0  0  0  0  0  0
    7.7220   -1.8790    0.0000 N   0  0  0  0  0  0  0  0  0  0  0  0
    5.4650   -3.3130    0.0000 S   0  0  0  0  0  0  0  0  0  0  0  0
    4.0010   -2.9860    0.0000 C   0  0  0  0  0  0  0  0  0  0  0  0
  1  2  2  0  0  0  0
  2  3  1  0  0  0  0
  3  4  2  0  0  0  0
  3  7  1  0  0  0  0
  4  5  1  0  0  0  0
  5  6  1  0  0  0  0
  7  8  1  0  0  0  0
  7 12  2  0  0  0  0
  8  9  2  0  0  0  0
  9 10  1  0  0  0  0
  9 11  1  0  0  0  0
 11 12  1  0  0  0  0
M  END
>  <name>
O=[C;amide]/C(=N/OC)/c1nc(N)sc1

>  <apo>
1

>  <freq>
8

>  <freq0>
0

>  <freq1>
8

>  <freqA>
7.997992

>  <a_count>
19

$$$$

  MOE2015           2D

 10 10  0  0  1  0  0  0  0  0999 V2000
    7.3500   -2.3380    0.0000 O   0  0  0  0  0  0  0  0  0  0  0  0
    5.8500   -2.3380    0.0000 C   0  0  0  0  0  0  0  0  0  0  0  0
    5.1000   -1.0390    0.0000 C   0  0  2  0  0  0  0  0  0  0  0  0
    5.8500    0.2600    0.0000 N   0  0  0  0  0  0  0  0  0  0  0  0
    3.6000   -1.0390    0.0000 C   0  0  0  0  0  0  0  0  0  0  0  0
    2.8500   -2.3380    0.0000 C   0  0  0  0  0  0  0  0  0  0  0  0
    1.3500   -2.3380    0.0000 C   0  0  0  0  0  0  0  0  0  0  0  0
    0.6000   -1.0390    0.0000 C   0  0  0  0  0  0  0  0  0  0  0  0
    1.3500    0.2600    0.0000 C   0  0  0  0  0  0  0  0  0  0  0  0
    2.8500    0.2600    0.0000 C   0  0  0  0  0  0  0  0  0  0  0  0
  1  2  2  0  0  0  0
  2  3  1  0  0  0  0
  3  4  1  1  0  0  0
  3  5  1  0  0  0  0
  5  6  1  0  0  0  0
  5 10  2  0  0  0  0
  6  7  2  0  0  0  0
  7  8  1  0  0  0  0
  8  9  2  0  0  0  0
  9 10  1  0  0  0  0
M  END
>  <name>
O=[C;amide][C@H](N)c1ccccc1

>  <apo>
1

>  <freq>
8

>  <freq0>
0

>  <freq1>
8

>  <freqA>
7.997992

>  <a_count>
19

$$$$

  MOE2015           2D

  7  6  0  0  1  0  0  0  0  0999 V2000
   -0.3690   -1.3770    0.0000 O   0  0  0  0  0  0  0  0  0  0  0  0
    0.9300   -2.1270    0.0000 C   0  0  0  0  0  0  0  0  0  0  0  0
    2.2290   -1.3770    0.0000 C   0  0  1  0  0  0  0  0  0  0  0  0
    2.2290    0.1230    0.0000 N   0  0  0  0  0  0  0  0  0  0  0  0
    3.5280   -2.1270    0.0000 C   0  0  0  0  0  0  0  0  0  0  0  0
    4.8270   -1.3770    0.0000 C   0  0  0  0  0  0  0  0  0  0  0  0
    6.1260   -2.1270    0.0000 N   0  0  0  0  0  0  0  0  0  0  0  0
  1  2  2  0  0  0  0
  2  3  1  0  0  0  0
  3  4  1  1  0  0  0
  3  5  1  0  0  0  0
  5  6  1  0  0  0  0
  6  7  1  0  0  0  0
M  END
>  <name>
O=[C;amide][C@@H]([N;amide])CCN

>  <apo>
2

>  <freq>
8

>  <freq0>
0

>  <freq1>
8

>  <freqA>
7.997992

>  <a_count>
17

$$$$

  MOE2015           2D

  8  8  0  0  1  0  0  0  0  0999 V2000
    5.9390   -2.4250    0.0000 O   0  0  0  0  0  0  0  0  0  0  0  0
    4.6100   -3.1220    0.0000 C   0  0  0  0  0  0  0  0  0  0  0  0
    3.3430   -2.3200    0.0000 C   0  0  1  0  0  0  0  0  0  0  0  0
    1.9490   -2.8740    0.0000 N   0  0  0  0  0  0  0  0  0  0  0  0
    0.9910   -1.7200    0.0000 C   0  0  0  0  0  0  0  0  0  0  0  0
   -0.5060   -1.8170    0.0000 O   0  0  0  0  0  0  0  0  0  0  0  0
    1.7930   -0.4520    0.0000 C   0  0  0  0  0  0  0  0  0  0  0  0
    3.2460   -0.8230    0.0000 C   0  0  0  0  0  0  0  0  0  0  0  0
  1  2  2  0  0  0  0
  3  2  1  1  0  0  0
  3  4  1  0  0  0  0
  3  8  1  0  0  0  0
  4  5  1  0  0  0  0
  5  6  2  0  0  0  0
  5  7  1  0  0  0  0
  7  8  1  0  0  0  0
M  END
>  <name>
O=[C;amide][C@H]1NC(=O)CC1

>  <apo>
1

>  <freq>
8

>  <freq0>
0

>  <freq1>
8

>  <freqA>
7.997992

>  <a_count>
15

$$$$

  MOE2015           2D

  7  7  0  0  0  0  0  0  0  0999 V2000
    5.1430    0.0000    0.0000 C   0  0  0  0  0  0  0  0  0  0  0  0
    3.6430    0.0000    0.0000 C   0  0  0  0  0  0  0  0  0  0  0  0
    2.8930    1.2990    0.0000 C   0  0  0  0  0  0  0  0  0  0  0  0
    1.3930    1.2990    0.0000 C   0  0  0  0  0  0  0  0  0  0  0  0
    0.6430    0.0000    0.0000 C   0  0  0  0  0  0  0  0  0  0  0  0
    1.3930   -1.2990    0.0000 C   0  0  0  0  0  0  0  0  0  0  0  0
    2.8930   -1.2990    0.0000 C   0  0  0  0  0  0  0  0  0  0  0  0
  1  2  1  0  0  0  0
  2  3  1  0  0  0  0
  2  7  2  0  0  0  0
  3  4  2  0  0  0  0
  4  5  1  0  0  0  0
  5  6  2  0  0  0  0
  6  7  1  0  0  0  0
M  END
>  <name>
[C;amine]c1ccccc1

>  <apo>
1

>  <freq>
8

>  <freq0>
0

>  <freq1>
8

>  <freqA>
7.997992

>  <a_count>
15

$$$$

  MOE2015           2D

  5  4  0  0  0  0  0  0  0  0999 V2000
    0.1310   -1.0100    0.0000 O   0  0  0  0  0  0  0  0  0  0  0  0
    1.4300   -0.2600    0.0000 C   0  0  0  0  0  0  0  0  0  0  0  0
    1.4300    1.2400    0.0000 O   0  0  0  0  0  0  0  0  0  0  0  0
    2.7290   -1.0100    0.0000 C   0  0  0  0  0  0  0  0  0  0  0  0
    4.0280   -0.2600    0.0000 C   0  0  0  0  0  0  0  0  0  0  0  0
  1  2  2  0  0  0  0
  2  3  1  0  0  0  0
  2  4  1  0  0  0  0
  4  5  1  0  0  0  0
M  END
>  <name>
O=C(O)C[C;thioether]

>  <apo>
1

>  <freq>
8

>  <freq0>
0

>  <freq1>
8

>  <freqA>
7.997992

>  <a_count>
11

$$$$

  MOE2015           2D

  7  7  0  0  0  0  0  0  0  0999 V2000
    0.6530   -1.2550    0.0000 S   0  0  0  0  0  0  0  0  0  0  0  0
    1.8660   -0.3730    0.0000 C   0  0  0  0  0  0  0  0  0  0  0  0
    1.8660    1.1270    0.0000 N   0  0  0  0  0  0  0  0  0  0  0  0
    0.6530    2.0090    0.0000 C   0  0  0  0  0  0  0  0  0  0  0  0
    3.2930    1.5910    0.0000 N   0  0  0  0  0  0  0  0  0  0  0  0
    4.1740    0.3770    0.0000 N   0  0  0  0  0  0  0  0  0  0  0  0
    3.2930   -0.8360    0.0000 N   0  0  0  0  0  0  0  0  0  0  0  0
  1  2  1  0  0  0  0
  2  3  1  0  0  0  0
  2  7  2  0  0  0  0
  3  4  1  0  0  0  0
  3  5  1  0  0  0  0
  5  6  2  0  0  0  0
  6  7  1  0  0  0  0
M  END
>  <name>
[S;thioether]c1n(C)nnn1

>  <apo>
1

>  <freq>
8

>  <freq0>
0

>  <freq1>
8

>  <freqA>
7.997992

>  <a_count>
11

$$$$

  MOE2015           2D

 18 20  0  0  1  0  0  0  0  0999 V2000
    0.5510   -2.2410    0.0000 Cl  0  0  0  0  0  0  0  0  0  0  0  0
    1.8800   -1.5460    0.0000 C   0  0  0  0  0  0  0  0  0  0  0  0
    1.9430   -0.0480    0.0000 C   0  0  0  0  0  0  0  0  0  0  0  0
    3.2720    0.6480    0.0000 C   0  0  0  0  0  0  0  0  0  0  0  0
    3.3340    2.1460    0.0000 C   0  0  3  0  0  0  0  0  0  0  0  0
    2.0680    2.9500    0.0000 O   0  0  0  0  0  0  0  0  0  0  0  0
    4.6630    2.8410    0.0000 C   0  0  0  0  0  0  0  0  0  0  0  0
    4.5380   -0.1560    0.0000 C   0  0  0  0  0  0  0  0  0  0  0  0
    5.9830    0.2480    0.0000 C   0  0  0  0  0  0  0  0  0  0  0  0
    6.8130   -1.0020    0.0000 C   0  0  0  0  0  0  0  0  0  0  0  0
    8.3100   -0.9070    0.0000 C   0  0  0  0  0  0  0  0  0  0  0  0
    8.9770    0.4360    0.0000 C   0  0  0  0  0  0  0  0  0  0  0  0
   10.4740    0.5310    0.0000 Cl  0  0  0  0  0  0  0  0  0  0  0  0
    8.1470    1.6860    0.0000 C   0  0  0  0  0  0  0  0  0  0  0  0
    6.6500    1.5910    0.0000 C   0  0  0  0  0  0  0  0  0  0  0  0
    5.8820   -2.1770    0.0000 C   0  0  0  0  0  0  0  0  0  0  0  0
    4.4760   -1.6550    0.0000 C   0  0  0  0  0  0  0  0  0  0  0  0
    3.1470   -2.3500    0.0000 C   0  0  0  0  0  0  0  0  0  0  0  0
  1  2  1  0  0  0  0
  2  3  1  0  0  0  0
  2 18  2  0  0  0  0
  3  4  2  0  0  0  0
  4  5  1  0  0  0  0
  4  8  1  0  0  0  0
  5  6  1  0  0  0  0
  5  7  1  0  0  0  0
  8  9  1  0  0  0  0
  8 17  2  0  0  0  0
  9 10  1  0  0  0  0
  9 15  2  0  0  0  0
 10 11  2  0  0  0  0
 10 16  1  0  0  0  0
 11 12  1  0  0  0  0
 12 13  1  0  0  0  0
 12 14  2  0  0  0  0
 14 15  1  0  0  0  0
 16 17  1  0  0  0  0
 17 18  1  0  0  0  0
M  END
>  <name>
Clc1cc(C(O)[C;amine])c2-c3c(cc(Cl)cc3)[C;olefin]c2c1

>  <apo>
2

>  <freq>
7

>  <freq0>
0

>  <freq1>
7

>  <freqA>
6.9980235

>  <a_count>
30

$$$$

  MOE2015           2D

  9  8  0  0  1  0  0  0  0  0999 V2000
    0.8570    1.4670    0.0000 O   0  0  0  0  0  0  0  0  0  0  0  0
    2.1560    0.7170    0.0000 C   0  0  0  0  0  0  0  0  0  0  0  0
    2.1560   -0.7830    0.0000 C   0  0  3  0  0  0  0  0  0  0  0  0
    3.4550   -1.5330    0.0000 C   0  0  0  0  0  0  0  0  0  0  0  0
    4.7540   -0.7830    0.0000 C   0  0  0  0  0  0  0  0  0  0  0  0
    6.0530   -1.5330    0.0000 C   0  0  0  0  0  0  0  0  0  0  0  0
    7.3520   -0.7830    0.0000 C   0  0  0  0  0  0  0  0  0  0  0  0
    0.8570   -1.5330    0.0000 C   0  0  0  0  0  0  0  0  0  0  0  0
    0.8570   -3.0330    0.0000 C   0  0  0  0  0  0  0  0  0  0  0  0
  1  2  1  0  0  0  0
  2  3  1  0  0  0  0
  3  4  1  0  0  0  0
  3  8  1  0  0  0  0
  4  5  1  0  0  0  0
  5  6  1  0  0  0  0
  6  7  1  0  0  0  0
  8  9  1  0  0  0  0
M  END
>  <name>
[O;ester]CC(CCCC)CC

>  <apo>
1

>  <freq>
7

>  <freq0>
0

>  <freq1>
7

>  <freqA>
6.9980235

>  <a_count>
27

$$$$

  MOE2015           2D

  9  9  0  0  1  0  0  0  0  0999 V2000
    5.5980   -1.5000    0.0000 O   0  0  0  0  0  0  0  0  0  0  0  0
    4.2990   -0.7500    0.0000 C   0  0  0  0  0  0  0  0  0  0  0  0
    4.2990    0.7500    0.0000 C   0  0  0  0  0  0  0  0  0  0  0  0
    3.0000    1.5000    0.0000 C   0  0  1  0  0  0  0  0  0  0  0  0
    3.0000    3.0000    0.0000 N   0  0  0  0  0  0  0  0  0  0  0  0
    1.7010    0.7500    0.0000 C   0  0  0  0  0  0  0  0  0  0  0  0
    1.7010   -0.7500    0.0000 C   0  0  1  0  0  0  0  0  0  0  0  0
    0.4020   -1.5000    0.0000 N   0  0  0  0  0  0  0  0  0  0  0  0
    3.0000   -1.5000    0.0000 C   0  0  0  0  0  0  0  0  0  0  0  0
  1  2  1  0  0  0  0
  2  3  1  0  0  0  0
  2  9  1  0  0  0  0
  3  4  1  0  0  0  0
  4  5  1  6  0  0  0
  4  6  1  0  0  0  0
  6  7  1  0  0  0  0
  7  8  1  6  0  0  0
  7  9  1  0  0  0  0
M  END
>  <name>
OC1[C;ether][C@@H](N)C[C@@H](N)[C;ether]1

>  <apo>
2

>  <freq>
7

>  <freq0>
0

>  <freq1>
7

>  <freqA>
6.9980235

>  <a_count>
23

$$$$

  MOE2015           2D

 11 11  0  0  1  0  0  0  0  0999 V2000
    6.1300   -3.7570    0.0000 O   0  0  0  0  0  0  0  0  0  0  0  0
    5.4490   -2.4200    0.0000 C   0  0  0  0  0  0  0  0  0  0  0  0
    3.9510   -2.3420    0.0000 C   0  0  2  0  0  0  0  0  0  0  0  0
    3.1350   -1.0840    0.0000 C   0  0  1  0  0  0  0  0  0  0  0  0
    3.6720    0.3170    0.0000 O   0  0  0  0  0  0  0  0  0  0  0  0
    1.6860   -1.4720    0.0000 C   0  0  2  0  0  0  0  0  0  0  0  0
    0.5200   -0.5280    0.0000 O   0  0  0  0  0  0  0  0  0  0  0  0
    1.6070   -2.9700    0.0000 C   0  0  2  0  0  0  0  0  0  0  0  0
    0.3490   -3.7870    0.0000 C   0  0  0  0  0  0  0  0  0  0  0  0
    0.4280   -5.2850    0.0000 O   0  0  0  0  0  0  0  0  0  0  0  0
    3.0070   -3.5070    0.0000 O   0  0  0  0  0  0  0  0  0  0  0  0
  1  2  1  0  0  0  0
  3  2  1  1  0  0  0
  3  4  1  0  0  0  0
  3 11  1  0  0  0  0
  4  5  1  6  0  0  0
  4  6  1  0  0  0  0
  6  7  1  1  0  0  0
  6  8  1  0  0  0  0
  8  9  1  1  0  0  0
  8 11  1  0  0  0  0
  9 10  1  0  0  0  0
M  END
>  <name>
OC[C@@H]1[C@@H](O)[C@H](O)[C@H;ether](CO)O1

>  <apo>
1

>  <freq>
7

>  <freq0>
0

>  <freq1>
7

>  <freqA>
6.9980235

>  <a_count>
23

$$$$

  MOE2015           2D

  8  7  0  0  1  0  0  0  0  0999 V2000
   -0.2480   -1.6740    0.0000 O   0  0  0  0  0  0  0  0  0  0  0  0
    1.0510   -0.9240    0.0000 C   0  0  0  0  0  0  0  0  0  0  0  0
    2.3500   -1.6740    0.0000 C   0  0  1  0  0  0  0  0  0  0  0  0
    2.3500   -3.1740    0.0000 N   0  0  0  0  0  0  0  0  0  0  0  0
    3.6500   -0.9240    0.0000 C   0  0  2  0  0  0  0  0  0  0  0  0
    4.9490   -1.6740    0.0000 C   0  0  0  0  0  0  0  0  0  0  0  0
    6.2480   -0.9240    0.0000 C   0  0  0  0  0  0  0  0  0  0  0  0
    3.6500    0.5760    0.0000 C   0  0  0  0  0  0  0  0  0  0  0  0
  1  2  2  0  0  0  0
  2  3  1  0  0  0  0
  3  4  1  6  0  0  0
  3  5  1  0  0  0  0
  5  6  1  0  0  0  0
  5  8  1  1  0  0  0
  6  7  1  0  0  0  0
M  END
>  <name>
O=[C;amide][C@@H]([N;amide])[C@H](CC)C

>  <apo>
2

>  <freq>
7

>  <freq0>
0

>  <freq1>
7

>  <freqA>
6.9980235

>  <a_count>
21

$$$$

  MOE2015           2D

 10 10  0  0  1  0  0  0  0  0999 V2000
    7.6590   -2.6900    0.0000 O   0  0  0  0  0  0  0  0  0  0  0  0
    6.3600   -3.4400    0.0000 C   0  0  0  0  0  0  0  0  0  0  0  0
    5.0610   -2.6900    0.0000 C   0  0  1  0  0  0  0  0  0  0  0  0
    5.0610   -1.1900    0.0000 N   0  0  0  0  0  0  0  0  0  0  0  0
    3.7620   -3.4400    0.0000 C   0  0  0  0  0  0  0  0  0  0  0  0
    2.4630   -2.6900    0.0000 C   0  0  0  0  0  0  0  0  0  0  0  0
    1.0920   -3.3000    0.0000 N   0  0  0  0  0  0  0  0  0  0  0  0
    0.0890   -2.1860    0.0000 C   0  0  0  0  0  0  0  0  0  0  0  0
    0.8390   -0.8870    0.0000 N   0  0  0  0  0  0  0  0  0  0  0  0
    2.3060   -1.1980    0.0000 C   0  0  0  0  0  0  0  0  0  0  0  0
  1  2  2  0  0  0  0
  2  3  1  0  0  0  0
  3  4  1  6  0  0  0
  3  5  1  0  0  0  0
  5  6  1  0  0  0  0
  6  7  1  0  0  0  0
  6 10  2  0  0  0  0
  7  8  1  0  0  0  0
  8  9  2  0  0  0  0
  9 10  1  0  0  0  0
M  END
>  <name>
O=[C;amide][C@@H]([N;amide])Cc1[nH]cnc1

>  <apo>
2

>  <freq>
7

>  <freq0>
0

>  <freq1>
7

>  <freqA>
6.9980235

>  <a_count>
19

$$$$

  MOE2015           2D

  7  6  0  0  0  0  0  0  0  0999 V2000
   -0.0760   -1.5710    0.0000 O   0  0  0  0  0  0  0  0  0  0  0  0
    1.2230   -0.8210    0.0000 C   0  0  0  0  0  0  0  0  0  0  0  0
    1.2230    0.6790    0.0000 O   0  0  0  0  0  0  0  0  0  0  0  0
    2.5220   -1.5710    0.0000 C   0  0  0  0  0  0  0  0  0  0  0  0
    3.8210   -0.8210    0.0000 C   0  0  0  0  0  0  0  0  0  0  0  0
    5.1200   -1.5710    0.0000 C   0  0  0  0  0  0  0  0  0  0  0  0
    6.4190   -0.8210    0.0000 C   0  0  0  0  0  0  0  0  0  0  0  0
  1  2  2  0  0  0  0
  2  3  1  0  0  0  0
  2  4  1  0  0  0  0
  4  5  1  0  0  0  0
  5  6  1  0  0  0  0
  6  7  1  0  0  0  0
M  END
>  <name>
O=C(O)CCC[C;olefin]

>  <apo>
1

>  <freq>
7

>  <freq0>
0

>  <freq1>
7

>  <freqA>
6.9980235

>  <a_count>
17

$$$$

  MOE2015           2D

  8  8  0  0  0  0  0  0  0  0999 V2000
    0.0000    0.0000    0.0000 Cl  0  0  0  0  0  0  0  0  0  0  0  0
    1.5000    0.0000    0.0000 C   0  0  0  0  0  0  0  0  0  0  0  0
    2.2500   -1.2990    0.0000 C   0  0  0  0  0  0  0  0  0  0  0  0
    3.7500   -1.2990    0.0000 C   0  0  0  0  0  0  0  0  0  0  0  0
    4.5000    0.0000    0.0000 C   0  0  0  0  0  0  0  0  0  0  0  0
    6.0000    0.0000    0.0000 C   0  0  0  0  0  0  0  0  0  0  0  0
    3.7500    1.2990    0.0000 C   0  0  0  0  0  0  0  0  0  0  0  0
    2.2500    1.2990    0.0000 C   0  0  0  0  0  0  0  0  0  0  0  0
  1  2  1  0  0  0  0
  2  3  1  0  0  0  0
  2  8  2  0  0  0  0
  3  4  2  0  0  0  0
  4  5  1  0  0  0  0
  5  6  1  0  0  0  0
  5  7  2  0  0  0  0
  7  8  1  0  0  0  0
M  END
>  <name>
Clc1ccc([C;olefin])cc1

>  <apo>
1

>  <freq>
7

>  <freq0>
0

>  <freq1>
7

>  <freqA>
6.9980235

>  <a_count>
15

$$$$

  MOE2015           2D

  9  9  0  0  0  0  0  0  0  0999 V2000
    5.5000   -3.1750    0.0000 O   0  0  0  0  0  0  0  0  0  0  0  0
    4.7500   -1.8760    0.0000 C   0  0  0  0  0  0  0  0  0  0  0  0
    3.2500   -1.8760    0.0000 C   0  0  0  0  0  0  0  0  0  0  0  0
    2.5000   -0.5770    0.0000 C   0  0  0  0  0  0  0  0  0  0  0  0
    3.2500    0.7220    0.0000 O   0  0  0  0  0  0  0  0  0  0  0  0
    1.0000   -0.5770    0.0000 C   0  0  0  0  0  0  0  0  0  0  0  0
    0.2500   -1.8760    0.0000 C   0  0  0  0  0  0  0  0  0  0  0  0
    1.0000   -3.1750    0.0000 C   0  0  0  0  0  0  0  0  0  0  0  0
    2.5000   -3.1750    0.0000 C   0  0  0  0  0  0  0  0  0  0  0  0
  1  2  2  0  0  0  0
  2  3  1  0  0  0  0
  3  4  1  0  0  0  0
  3  9  2  0  0  0  0
  4  5  1  0  0  0  0
  4  6  2  0  0  0  0
  6  7  1  0  0  0  0
  7  8  2  0  0  0  0
  8  9  1  0  0  0  0
M  END
>  <name>
O=[C;ester]c1c(O)cccc1

>  <apo>
1

>  <freq>
7

>  <freq0>
0

>  <freq1>
7

>  <freqA>
6.9980235

>  <a_count>
15

$$$$

  MOE2015           2D

  7  7  0  0  0  0  0  0  0  0999 V2000
    5.1430    0.0000    0.0000 C   0  0  0  0  0  0  0  0  0  0  0  0
    3.6430    0.0000    0.0000 C   0  0  0  0  0  0  0  0  0  0  0  0
    2.8930    1.2990    0.0000 C   0  0  0  0  0  0  0  0  0  0  0  0
    1.3930    1.2990    0.0000 C   0  0  0  0  0  0  0  0  0  0  0  0
    0.6430    0.0000    0.0000 C   0  0  0  0  0  0  0  0  0  0  0  0
    1.3930   -1.2990    0.0000 C   0  0  0  0  0  0  0  0  0  0  0  0
    2.8930   -1.2990    0.0000 C   0  0  0  0  0  0  0  0  0  0  0  0
  1  2  1  0  0  0  0
  2  3  1  0  0  0  0
  2  7  2  0  0  0  0
  3  4  2  0  0  0  0
  4  5  1  0  0  0  0
  5  6  2  0  0  0  0
  6  7  1  0  0  0  0
M  END
>  <name>
[C;olefin]c1ccccc1

>  <apo>
1

>  <freq>
7

>  <freq0>
0

>  <freq1>
7

>  <freqA>
6.9980235

>  <a_count>
15

$$$$

  MOE2015           2D

  8  8  0  0  0  0  0  0  0  0999 V2000
    5.3440   -0.8120    0.0000 O   0  0  0  0  0  0  0  0  0  0  0  0
    4.5940   -2.1110    0.0000 C   0  0  0  0  0  0  0  0  0  0  0  0
    3.0940   -2.1110    0.0000 C   0  0  0  0  0  0  0  0  0  0  0  0
    2.3440   -3.4100    0.0000 C   0  0  0  0  0  0  0  0  0  0  0  0
    0.8440   -3.4100    0.0000 N   0  0  0  0  0  0  0  0  0  0  0  0
    0.0940   -2.1110    0.0000 C   0  0  0  0  0  0  0  0  0  0  0  0
    0.8440   -0.8120    0.0000 C   0  0  0  0  0  0  0  0  0  0  0  0
    2.3440   -0.8120    0.0000 C   0  0  0  0  0  0  0  0  0  0  0  0
  1  2  2  0  0  0  0
  2  3  1  0  0  0  0
  3  4  1  0  0  0  0
  3  8  2  0  0  0  0
  4  5  2  0  0  0  0
  5  6  1  0  0  0  0
  6  7  2  0  0  0  0
  7  8  1  0  0  0  0
M  END
>  <name>
O=[C;ester]c1cnccc1

>  <apo>
1

>  <freq>
7

>  <freq0>
0

>  <freq1>
7

>  <freqA>
6.9980235

>  <a_count>
13

$$$$

  MOE2015           2D

  4  3  0  0  0  0  0  0  0  0999 V2000
    3.0000    0.0000    0.0000 O   0  0  0  0  0  0  0  0  0  0  0  0
    1.5000    0.0000    0.0000 C   0  0  0  0  0  0  0  0  0  0  0  0
    0.7500   -1.2990    0.0000 C   0  0  0  0  0  0  0  0  0  0  0  0
    0.7500    1.2990    0.0000 C   0  0  0  0  0  0  0  0  0  0  0  0
  1  2  1  0  0  0  0
  2  3  1  0  0  0  0
  2  4  1  0  0  0  0
M  END
>  <name>
OC([C;ether])C

>  <apo>
1

>  <freq>
7

>  <freq0>
0

>  <freq1>
7

>  <freqA>
6.9980235

>  <a_count>
12

$$$$

  MOE2015           2D

  4  3  0  0  0  0  0  0  0  0999 V2000
    3.0000    0.0000    0.0000 O   0  0  0  0  0  0  0  0  0  0  0  0
    1.5000    0.0000    0.0000 C   0  0  0  0  0  0  0  0  0  0  0  0
    0.7500   -1.2990    0.0000 C   0  0  0  0  0  0  0  0  0  0  0  0
    0.7500    1.2990    0.0000 C   0  0  0  0  0  0  0  0  0  0  0  0
  1  2  1  0  0  0  0
  2  3  1  0  0  0  0
  2  4  1  0  0  0  0
M  END
>  <name>
OC([C;ether])[C;amine]

>  <apo>
2

>  <freq>
7

>  <freq0>
0

>  <freq1>
7

>  <freqA>
6.9980235

>  <a_count>
12

$$$$

  MOE2015           2D

  4  4  0  0  0  0  0  0  0  0999 V2000
    3.5490    0.0000    0.0000 C   0  0  0  0  0  0  0  0  0  0  0  0
    2.0490    0.0000    0.0000 C   0  0  0  0  0  0  0  0  0  0  0  0
    0.7500   -0.7500    0.0000 C   0  0  0  0  0  0  0  0  0  0  0  0
    0.7500    0.7500    0.0000 C   0  0  0  0  0  0  0  0  0  0  0  0
  1  2  1  0  0  0  0
  2  3  1  0  0  0  0
  2  4  1  0  0  0  0
  3  4  1  0  0  0  0
M  END
>  <name>
[C;amine]C1CC1

>  <apo>
1

>  <freq>
7

>  <freq0>
0

>  <freq1>
7

>  <freqA>
6.9980235

>  <a_count>
12

$$$$

  MOE2015           2D

  3  2  0  0  0  0  0  0  0  0999 V2000
    0.2500    0.0670    0.0000 C   0  0  0  0  0  0  0  0  0  0  0  0
    1.5490   -0.6830    0.0000 C   0  0  0  0  0  0  0  0  0  0  0  0
   -1.0490   -0.6830    0.0000 C   0  0  0  0  0  0  0  0  0  0  0  0
  1  2  1  0  0  0  0
  1  3  1  0  0  0  0
M  END
>  <name>
C([C;olefin])[C;amine]

>  <apo>
2

>  <freq>
7

>  <freq0>
0

>  <freq1>
7

>  <freqA>
6.9980235

>  <a_count>
11

$$$$

  MOE2015           2D

 29 32  0  0  1  0  0  0  0  0999 V2000
   12.6280   -4.0280    0.0000 O   0  0  0  0  0  0  0  0  0  0  0  0
   11.3290   -4.7780    0.0000 C   0  0  0  0  0  0  0  0  0  0  0  0
   11.3290   -6.2780    0.0000 N   0  0  0  0  0  0  0  0  0  0  0  0
   10.0300   -4.0280    0.0000 C   0  0  0  0  0  0  0  0  0  0  0  0
    8.7310   -4.7780    0.0000 C   0  0  0  0  0  0  0  0  0  0  0  0
    8.7310   -6.2780    0.0000 O   0  0  0  0  0  0  0  0  0  0  0  0
    7.4320   -4.0280    0.0000 C   0  0  1  0  0  0  0  0  0  0  0  0
    7.4320   -5.5280    0.0000 O   0  0  0  0  0  0  0  0  0  0  0  0
    6.1330   -4.7780    0.0000 C   0  0  0  0  0  0  0  0  0  0  0  0
    6.1330   -6.2780    0.0000 O   0  0  0  0  0  0  0  0  0  0  0  0
    4.8330   -4.0280    0.0000 C   0  0  0  0  0  0  0  0  0  0  0  0
    3.5340   -4.7780    0.0000 C   0  0  0  0  0  0  0  0  0  0  0  0
    3.5340   -6.2780    0.0000 O   0  0  0  0  0  0  0  0  0  0  0  0
    2.2350   -4.0280    0.0000 C   0  0  0  0  0  0  0  0  0  0  0  0
    0.9360   -4.7780    0.0000 C   0  0  0  0  0  0  0  0  0  0  0  0
    0.9360   -6.2780    0.0000 O   0  0  0  0  0  0  0  0  0  0  0  0
   -0.3630   -4.0280    0.0000 C   0  0  0  0  0  0  0  0  0  0  0  0
   -0.3630   -2.5280    0.0000 C   0  0  0  0  0  0  0  0  0  0  0  0
    0.9360   -1.7780    0.0000 C   0  0  0  0  0  0  0  0  0  0  0  0
    2.2350   -2.5280    0.0000 C   0  0  0  0  0  0  0  0  0  0  0  0
    3.5340   -1.7780    0.0000 C   0  0  2  0  0  0  0  0  0  0  0  0
    4.2840   -0.4790    0.0000 O   0  0  0  0  0  0  0  0  0  0  0  0
    2.7840   -0.4790    0.0000 C   0  0  0  0  0  0  0  0  0  0  0  0
    4.8330   -2.5280    0.0000 C   0  0  1  0  0  0  0  0  0  0  0  0
    6.1330   -1.7780    0.0000 C   0  0  0  0  0  0  0  0  0  0  0  0
    7.4320   -2.5280    0.0000 C   0  0  1  0  0  0  0  0  0  0  0  0
    8.7310   -1.7780    0.0000 C   0  0  0  0  0  0  0  0  0  0  0  0
   10.0300   -2.5280    0.0000 C   0  0  0  0  0  0  0  0  0  0  0  0
   11.3290   -1.7780    0.0000 O   0  0  0  0  0  0  0  0  0  0  0  0
  1  2  2  0  0  0  0
  2  3  1  0  0  0  0
  2  4  1  0  0  0  0
  4  5  1  0  0  0  0
  4 28  2  0  0  0  0
  5  6  2  0  0  0  0
  5  7  1  0  0  0  0
  7  8  1  6  0  0  0
  7  9  1  0  0  0  0
  7 26  1  0  0  0  0
  9 10  1  0  0  0  0
  9 11  2  0  0  0  0
 11 12  1  0  0  0  0
 24 11  1  1  0  0  0
 12 13  2  0  0  0  0
 12 14  1  0  0  0  0
 14 15  2  0  0  0  0
 14 20  1  0  0  0  0
 15 16  1  0  0  0  0
 15 17  1  0  0  0  0
 17 18  2  0  0  0  0
 18 19  1  0  0  0  0
 19 20  2  0  0  0  0
 20 21  1  0  0  0  0
 21 22  1  1  0  0  0
 21 23  1  6  0  0  0
 21 24  1  0  0  0  0
 24 25  1  0  0  0  0
 25 26  1  0  0  0  0
 26 27  1  1  0  0  0
 27 28  1  0  0  0  0
 28 29  1  0  0  0  0
M  END
>  <name>
O=C(N)C=1C(=O)[C@@]2(O)C(O)=C3C(=O)c4c(O)cccc4[C@](O)(C)[C@H]3C[C@H]2[C;amine]C=1O

>  <apo>
1

>  <freq>
6

>  <freq0>
0

>  <freq1>
6

>  <freqA>
5.998064

>  <a_count>
48

$$$$

  MOE2015           2D

 10 10  0  0  1  0  0  0  0  0999 V2000
    4.2950   -1.5500    0.0000 O   0  0  0  0  0  0  0  0  0  0  0  0
    3.1410   -0.5920    0.0000 C   0  0  2  0  0  0  0  0  0  0  0  0
    3.2380    0.9050    0.0000 C   0  0  2  0  0  0  0  0  0  0  0  0
    4.5050    1.7060    0.0000 C   0  0  0  0  0  0  0  0  0  0  0  0
    5.8340    1.0090    0.0000 C   0  0  0  0  0  0  0  0  0  0  0  0
    1.8440    1.4590    0.0000 C   0  0  1  0  0  0  0  0  0  0  0  0
    1.4730    2.9120    0.0000 C   0  0  0  0  0  0  0  0  0  0  0  0
    0.8860    0.3050    0.0000 C   0  0  2  0  0  0  0  0  0  0  0  0
   -0.6110    0.4010    0.0000 O   0  0  0  0  0  0  0  0  0  0  0  0
    1.6880   -0.9630    0.0000 C   0  0  0  0  0  0  0  0  0  0  0  0
  2  1  1  1  0  0  0
  2  3  1  0  0  0  0
  2 10  1  0  0  0  0
  3  4  1  1  0  0  0
  3  6  1  0  0  0  0
  4  5  1  0  0  0  0
  6  7  1  6  0  0  0
  6  8  1  0  0  0  0
  8  9  1  1  0  0  0
  8 10  1  0  0  0  0
M  END
>  <name>
O[C@@H]1[C@H](C[C;olefin])[C@@H]([C;olefin])[C@H](O)C1

>  <apo>
2

>  <freq>
6

>  <freq0>
0

>  <freq1>
6

>  <freqA>
5.998064

>  <a_count>
26

$$$$

  MOE2015           2D

  9  9  0  0  0  0  0  0  0  0999 V2000
    0.4610   -0.7990    0.0000 C   0  0  0  0  0  0  0  0  0  0  0  0
    1.2110    0.5000    0.0000 C   0  0  0  0  0  0  0  0  0  0  0  0
   -0.2890    0.5000    0.0000 C   0  0  0  0  0  0  0  0  0  0  0  0
    2.5100   -0.2500    0.0000 C   0  0  0  0  0  0  0  0  0  0  0  0
    3.8090    0.5000    0.0000 C   0  0  0  0  0  0  0  0  0  0  0  0
    5.1080   -0.2500    0.0000 C   0  0  0  0  0  0  0  0  0  0  0  0
    3.8090    2.0000    0.0000 C   0  0  0  0  0  0  0  0  0  0  0  0
    2.5100    2.7500    0.0000 C   0  0  0  0  0  0  0  0  0  0  0  0
    1.2110    2.0000    0.0000 C   0  0  0  0  0  0  0  0  0  0  0  0
  1  2  1  0  0  0  0
  2  3  1  0  0  0  0
  2  4  1  0  0  0  0
  2  9  1  0  0  0  0
  4  5  2  0  0  0  0
  5  6  1  0  0  0  0
  5  7  1  0  0  0  0
  7  8  1  0  0  0  0
  8  9  1  0  0  0  0
M  END
>  <name>
CC1(C)[C;olefin]=C(C)CCC1

>  <apo>
1

>  <freq>
6

>  <freq0>
0

>  <freq1>
6

>  <freqA>
5.998064

>  <a_count>
25

$$$$

  MOE2015           2D

 14 15  0  0  0  0  0  0  0  0999 V2000
    9.7540   -2.6130    0.0000 Cl  0  0  0  0  0  0  0  0  0  0  0  0
    8.4550   -1.8630    0.0000 C   0  0  0  0  0  0  0  0  0  0  0  0
    8.4550   -0.3630    0.0000 C   0  0  0  0  0  0  0  0  0  0  0  0
    7.1550    0.3870    0.0000 C   0  0  0  0  0  0  0  0  0  0  0  0
    5.8560   -0.3630    0.0000 C   0  0  0  0  0  0  0  0  0  0  0  0
    4.5570    0.3870    0.0000 C   0  0  0  0  0  0  0  0  0  0  0  0
    3.2580   -0.3630    0.0000 C   0  0  0  0  0  0  0  0  0  0  0  0
    3.2580   -1.8630    0.0000 C   0  0  0  0  0  0  0  0  0  0  0  0
    1.9590   -2.6130    0.0000 C   0  0  0  0  0  0  0  0  0  0  0  0
    0.6600   -1.8630    0.0000 C   0  0  0  0  0  0  0  0  0  0  0  0
    0.6600   -0.3630    0.0000 C   0  0  0  0  0  0  0  0  0  0  0  0
    1.9590    0.3870    0.0000 C   0  0  0  0  0  0  0  0  0  0  0  0
    5.8560   -1.8630    0.0000 C   0  0  0  0  0  0  0  0  0  0  0  0
    7.1550   -2.6130    0.0000 C   0  0  0  0  0  0  0  0  0  0  0  0
  1  2  1  0  0  0  0
  2  3  1  0  0  0  0
  2 14  2  0  0  0  0
  3  4  2  0  0  0  0
  4  5  1  0  0  0  0
  5  6  1  0  0  0  0
  5 13  2  0  0  0  0
  6  7  1  0  0  0  0
  7  8  1  0  0  0  0
  7 12  2  0  0  0  0
  8  9  2  0  0  0  0
  9 10  1  0  0  0  0
 10 11  2  0  0  0  0
 11 12  1  0  0  0  0
 13 14  1  0  0  0  0
M  END
>  <name>
Clc1ccc([C;amine]c2ccccc2)cc1

>  <apo>
1

>  <freq>
6

>  <freq0>
0

>  <freq1>
6

>  <freqA>
5.998064

>  <a_count>
25

$$$$

  MOE2015           2D

 13 14  0  0  0  0  0  0  0  0999 V2000
    0.6920   -2.5840    0.0000 C   0  0  0  0  0  0  0  0  0  0  0  0
   -0.6070   -1.8340    0.0000 C   0  0  0  0  0  0  0  0  0  0  0  0
   -1.9060   -2.5840    0.0000 C   0  0  0  0  0  0  0  0  0  0  0  0
   -3.2050   -1.8340    0.0000 C   0  0  0  0  0  0  0  0  0  0  0  0
   -3.2050   -0.3340    0.0000 C   0  0  0  0  0  0  0  0  0  0  0  0
   -1.9060    0.4160    0.0000 C   0  0  0  0  0  0  0  0  0  0  0  0
   -0.6070   -0.3340    0.0000 C   0  0  0  0  0  0  0  0  0  0  0  0
    1.9910   -1.8340    0.0000 C   0  0  0  0  0  0  0  0  0  0  0  0
    1.9910   -0.3340    0.0000 C   0  0  0  0  0  0  0  0  0  0  0  0
    3.2900    0.4160    0.0000 C   0  0  0  0  0  0  0  0  0  0  0  0
    4.5890   -0.3340    0.0000 C   0  0  0  0  0  0  0  0  0  0  0  0
    4.5890   -1.8340    0.0000 C   0  0  0  0  0  0  0  0  0  0  0  0
    3.2900   -2.5840    0.0000 C   0  0  0  0  0  0  0  0  0  0  0  0
  1  2  1  0  0  0  0
  1  8  1  0  0  0  0
  2  3  1  0  0  0  0
  2  7  2  0  0  0  0
  3  4  2  0  0  0  0
  4  5  1  0  0  0  0
  5  6  2  0  0  0  0
  6  7  1  0  0  0  0
  8  9  1  0  0  0  0
  8 13  2  0  0  0  0
  9 10  2  0  0  0  0
 10 11  1  0  0  0  0
 11 12  2  0  0  0  0
 12 13  1  0  0  0  0
M  END
>  <name>
[C;ether](c1ccccc1)c1ccccc1

>  <apo>
1

>  <freq>
6

>  <freq0>
0

>  <freq1>
6

>  <freqA>
5.998064

>  <a_count>
25

$$$$

  MOE2015           2D

 14 16  0  0  0  0  0  0  0  0999 V2000
    1.5000   -1.5000    0.0000 S   0  0  0  0  0  0  0  0  0  0  0  0
    2.7990   -0.7500    0.0000 C   0  0  0  0  0  0  0  0  0  0  0  0
    2.7990    0.7500    0.0000 C   0  0  0  0  0  0  0  0  0  0  0  0
    1.5000    1.5000    0.0000 N   0  0  0  0  0  0  0  0  0  0  0  0
    0.2010    0.7500    0.0000 C   0  0  0  0  0  0  0  0  0  0  0  0
    0.2010   -0.7500    0.0000 C   0  0  0  0  0  0  0  0  0  0  0  0
   -1.0980   -1.5000    0.0000 C   0  0  0  0  0  0  0  0  0  0  0  0
   -2.3970   -0.7500    0.0000 C   0  0  0  0  0  0  0  0  0  0  0  0
   -2.3970    0.7500    0.0000 C   0  0  0  0  0  0  0  0  0  0  0  0
   -1.0980    1.5000    0.0000 C   0  0  0  0  0  0  0  0  0  0  0  0
    4.0980    1.5000    0.0000 C   0  0  0  0  0  0  0  0  0  0  0  0
    5.3970    0.7500    0.0000 C   0  0  0  0  0  0  0  0  0  0  0  0
    5.3970   -0.7500    0.0000 C   0  0  0  0  0  0  0  0  0  0  0  0
    4.0980   -1.5000    0.0000 C   0  0  0  0  0  0  0  0  0  0  0  0
  1  2  1  0  0  0  0
  1  6  1  0  0  0  0
  2  3  1  0  0  0  0
  2 14  2  0  0  0  0
  3  4  1  0  0  0  0
  3 11  2  0  0  0  0
  4  5  1  0  0  0  0
  5  6  1  0  0  0  0
  5 10  2  0  0  0  0
  6  7  2  0  0  0  0
  7  8  1  0  0  0  0
  8  9  2  0  0  0  0
  9 10  1  0  0  0  0
 11 12  1  0  0  0  0
 12 13  2  0  0  0  0
 13 14  1  0  0  0  0
M  END
>  <name>
S1c2c([N;amine]c3c1cccc3)cccc2

>  <apo>
1

>  <freq>
6

>  <freq0>
0

>  <freq1>
6

>  <freqA>
5.998064

>  <a_count>
23

$$$$

  MOE2015           2D

  9  9  0  0  1  0  0  0  0  0999 V2000
    5.8260   -0.4840    0.0000 O   0  0  0  0  0  0  0  0  0  0  0  0
    4.5270    0.2660    0.0000 C   0  0  2  0  0  0  0  0  0  0  0  0
    3.2280   -0.4840    0.0000 C   0  0  0  0  0  0  0  0  0  0  0  0
    1.9290    0.2660    0.0000 C   0  0  2  0  0  0  0  0  0  0  0  0
    0.4290    0.2660    0.0000 O   0  0  0  0  0  0  0  0  0  0  0  0
    1.1790   -1.0330    0.0000 C   0  0  0  0  0  0  0  0  0  0  0  0
    1.9290    1.7660    0.0000 C   0  0  0  0  0  0  0  0  0  0  0  0
    3.2280    2.5160    0.0000 O   0  0  0  0  0  0  0  0  0  0  0  0
    4.5270    1.7660    0.0000 C   0  0  0  0  0  0  0  0  0  0  0  0
  2  1  1  6  0  0  0
  2  3  1  0  0  0  0
  2  9  1  0  0  0  0
  3  4  1  0  0  0  0
  4  5  1  1  0  0  0
  4  6  1  6  0  0  0
  4  7  1  0  0  0  0
  7  8  1  0  0  0  0
  8  9  1  0  0  0  0
M  END
>  <name>
O[C@@H]1[C;amine][C@](O)(C)CO[C;ether]1

>  <apo>
2

>  <freq>
6

>  <freq0>
0

>  <freq1>
6

>  <freqA>
5.998064

>  <a_count>
21

$$$$

  MOE2015           2D

  7  7  0  0  0  0  0  0  0  0999 V2000
    5.1430    0.0000    0.0000 C   0  0  0  0  0  0  0  0  0  0  0  0
    3.6430    0.0000    0.0000 N   0  0  0  0  0  0  0  0  0  0  0  0
    2.8930    1.2990    0.0000 C   0  0  0  0  0  0  0  0  0  0  0  0
    1.3930    1.2990    0.0000 C   0  0  0  0  0  0  0  0  0  0  0  0
    0.6430    0.0000    0.0000 C   0  0  0  0  0  0  0  0  0  0  0  0
    1.3930   -1.2990    0.0000 C   0  0  0  0  0  0  0  0  0  0  0  0
    2.8930   -1.2990    0.0000 C   0  0  0  0  0  0  0  0  0  0  0  0
  1  2  1  0  0  0  0
  2  3  1  0  0  0  0
  2  7  1  0  0  0  0
  3  4  1  0  0  0  0
  4  5  1  0  0  0  0
  5  6  1  0  0  0  0
  6  7  1  0  0  0  0
M  END
>  <name>
CN1CC[C;olefin]CC1

>  <apo>
1

>  <freq>
6

>  <freq0>
0

>  <freq1>
6

>  <freqA>
5.998064

>  <a_count>
20

$$$$

  MOE2015           2D

  9  8  0  0  1  0  0  0  0  0999 V2000
   -0.3360   -1.2540    0.0000 O   0  0  0  0  0  0  0  0  0  0  0  0
    0.9630   -2.0040    0.0000 C   0  0  0  0  0  0  0  0  0  0  0  0
    0.9630   -3.5040    0.0000 N   0  0  0  0  0  0  0  0  0  0  0  0
    2.2620   -1.2540    0.0000 C   0  0  0  0  0  0  0  0  0  0  0  0
    3.5610   -2.0040    0.0000 C   0  0  0  0  0  0  0  0  0  0  0  0
    4.8600   -1.2540    0.0000 C   0  0  2  0  0  0  0  0  0  0  0  0
    4.8600    0.2460    0.0000 N   0  0  0  0  0  0  0  0  0  0  0  0
    6.1590   -2.0040    0.0000 C   0  0  0  0  0  0  0  0  0  0  0  0
    7.4580   -1.2540    0.0000 O   0  0  0  0  0  0  0  0  0  0  0  0
  1  2  2  0  0  0  0
  2  3  1  0  0  0  0
  2  4  1  0  0  0  0
  4  5  1  0  0  0  0
  5  6  1  0  0  0  0
  6  7  1  6  0  0  0
  6  8  1  0  0  0  0
  8  9  2  0  0  0  0
M  END
>  <name>
O=C(N)CC[C@H]([N;amide])[C;amide]=O

>  <apo>
2

>  <freq>
6

>  <freq0>
0

>  <freq1>
6

>  <freqA>
5.998064

>  <a_count>
19

$$$$

  MOE2015           2D

  6  5  0  0  0  0  0  0  0  0999 V2000
    4.0400   -1.0830    0.0000 O   0  0  0  0  0  0  0  0  0  0  0  0
    2.7410   -1.8330    0.0000 C   0  0  0  0  0  0  0  0  0  0  0  0
    1.4420   -1.0830    0.0000 C   0  0  0  0  0  0  0  0  0  0  0  0
    2.1920    0.2170    0.0000 C   0  0  0  0  0  0  0  0  0  0  0  0
    0.6920   -2.3820    0.0000 C   0  0  0  0  0  0  0  0  0  0  0  0
    0.1430   -0.3330    0.0000 C   0  0  0  0  0  0  0  0  0  0  0  0
  1  2  2  0  0  0  0
  2  3  1  0  0  0  0
  3  4  1  0  0  0  0
  3  5  1  0  0  0  0
  3  6  1  0  0  0  0
M  END
>  <name>
O=[C;ester]C(C)(C)C

>  <apo>
1

>  <freq>
6

>  <freq0>
0

>  <freq1>
6

>  <freqA>
5.998064

>  <a_count>
16

$$$$

  MOE2015           2D

  6  5  0  0  0  0  0  0  0  0999 V2000
   -0.2480   -1.6740    0.0000 O   0  0  0  0  0  0  0  0  0  0  0  0
    1.0510   -0.9240    0.0000 C   0  0  0  0  0  0  0  0  0  0  0  0
    2.3500   -1.6740    0.0000 C   0  0  0  0  0  0  0  0  0  0  0  0
    3.6500   -0.9240    0.0000 C   0  0  0  0  0  0  0  0  0  0  0  0
    4.9490   -1.6740    0.0000 C   0  0  0  0  0  0  0  0  0  0  0  0
    6.2480   -0.9240    0.0000 C   0  0  0  0  0  0  0  0  0  0  0  0
  1  2  2  0  0  0  0
  2  3  1  0  0  0  0
  3  4  1  0  0  0  0
  4  5  1  0  0  0  0
  5  6  1  0  0  0  0
M  END
>  <name>
O=[C;ester]CCC[C;olefin]

>  <apo>
2

>  <freq>
6

>  <freq0>
0

>  <freq1>
6

>  <freqA>
5.998064

>  <a_count>
16

$$$$

  MOE2015           2D

  9  9  0  0  0  0  0  0  0  0999 V2000
    6.0000   -3.4640    0.0000 O   0  0  0  0  0  0  0  0  0  0  0  0
    5.2500   -2.1650    0.0000 C   0  0  0  0  0  0  0  0  0  0  0  0
    3.7500   -2.1650    0.0000 C   0  0  0  0  0  0  0  0  0  0  0  0
    3.0000   -0.8660    0.0000 C   0  0  0  0  0  0  0  0  0  0  0  0
    1.5000   -0.8660    0.0000 C   0  0  0  0  0  0  0  0  0  0  0  0
    0.7500   -2.1650    0.0000 C   0  0  0  0  0  0  0  0  0  0  0  0
   -0.7500   -2.1650    0.0000 N   0  0  0  0  0  0  0  0  0  0  0  0
    1.5000   -3.4640    0.0000 C   0  0  0  0  0  0  0  0  0  0  0  0
    3.0000   -3.4640    0.0000 C   0  0  0  0  0  0  0  0  0  0  0  0
  1  2  2  0  0  0  0
  2  3  1  0  0  0  0
  3  4  1  0  0  0  0
  3  9  2  0  0  0  0
  4  5  2  0  0  0  0
  5  6  1  0  0  0  0
  6  7  1  0  0  0  0
  6  8  2  0  0  0  0
  8  9  1  0  0  0  0
M  END
>  <name>
O=[C;ester]c1ccc(N)cc1

>  <apo>
1

>  <freq>
6

>  <freq0>
0

>  <freq1>
6

>  <freqA>
5.998064

>  <a_count>
16

$$$$

  MOE2015           2D

  6  5  0  0  1  0  0  0  0  0999 V2000
   -0.3480   -1.2990    0.0000 O   0  0  0  0  0  0  0  0  0  0  0  0
    0.9510   -2.0490    0.0000 C   0  0  0  0  0  0  0  0  0  0  0  0
    2.2500   -1.2990    0.0000 C   0  0  1  0  0  0  0  0  0  0  0  0
    2.2500    0.2010    0.0000 N   0  0  0  0  0  0  0  0  0  0  0  0
    3.5490   -2.0490    0.0000 C   0  0  0  0  0  0  0  0  0  0  0  0
    4.8480   -1.2990    0.0000 C   0  0  0  0  0  0  0  0  0  0  0  0
  1  2  2  0  0  0  0
  2  3  1  0  0  0  0
  3  4  1  1  0  0  0
  3  5  1  0  0  0  0
  5  6  1  0  0  0  0
M  END
>  <name>
O=[C;amide][C@@H]([N;amide])C[C;thioether]

>  <apo>
3

>  <freq>
6

>  <freq0>
0

>  <freq1>
6

>  <freqA>
5.998064

>  <a_count>
15

$$$$

  MOE2015           2D

  7  7  0  0  0  0  0  0  0  0999 V2000
    5.1430    0.0000    0.0000 Cl  0  0  0  0  0  0  0  0  0  0  0  0
    3.6430    0.0000    0.0000 C   0  0  0  0  0  0  0  0  0  0  0  0
    2.8930    1.2990    0.0000 C   0  0  0  0  0  0  0  0  0  0  0  0
    1.3930    1.2990    0.0000 C   0  0  0  0  0  0  0  0  0  0  0  0
    0.6430    0.0000    0.0000 C   0  0  0  0  0  0  0  0  0  0  0  0
    1.3930   -1.2990    0.0000 C   0  0  0  0  0  0  0  0  0  0  0  0
    2.8930   -1.2990    0.0000 C   0  0  0  0  0  0  0  0  0  0  0  0
  1  2  1  0  0  0  0
  2  3  1  0  0  0  0
  2  7  2  0  0  0  0
  3  4  2  0  0  0  0
  4  5  1  0  0  0  0
  5  6  2  0  0  0  0
  6  7  1  0  0  0  0
M  END
>  <name>
Clc1cc[c;biphenyl]cc1

>  <apo>
1

>  <freq>
6

>  <freq0>
0

>  <freq1>
6

>  <freqA>
5.998064

>  <a_count>
12

$$$$

  MOE2015           2D

  7  7  0  0  0  0  0  0  0  0999 V2000
    5.1430    0.0000    0.0000 F   0  0  0  0  0  0  0  0  0  0  0  0
    3.6430    0.0000    0.0000 C   0  0  0  0  0  0  0  0  0  0  0  0
    2.8930    1.2990    0.0000 C   0  0  0  0  0  0  0  0  0  0  0  0
    1.3930    1.2990    0.0000 C   0  0  0  0  0  0  0  0  0  0  0  0
    0.6430    0.0000    0.0000 C   0  0  0  0  0  0  0  0  0  0  0  0
    1.3930   -1.2990    0.0000 C   0  0  0  0  0  0  0  0  0  0  0  0
    2.8930   -1.2990    0.0000 C   0  0  0  0  0  0  0  0  0  0  0  0
  1  2  1  0  0  0  0
  2  3  1  0  0  0  0
  2  7  2  0  0  0  0
  3  4  2  0  0  0  0
  4  5  1  0  0  0  0
  5  6  2  0  0  0  0
  6  7  1  0  0  0  0
M  END
>  <name>
Fc1cc[c;biphenyl]cc1

>  <apo>
1

>  <freq>
6

>  <freq0>
0

>  <freq1>
6

>  <freqA>
5.998064

>  <a_count>
12

$$$$

  MOE2015           2D

  5  4  0  0  1  0  0  0  0  0999 V2000
    3.8780   -1.0390    0.0000 O   0  0  0  0  0  0  0  0  0  0  0  0
    2.5790   -1.7890    0.0000 C   0  0  0  0  0  0  0  0  0  0  0  0
    1.2800   -1.0390    0.0000 C   0  0  2  0  0  0  0  0  0  0  0  0
   -0.0190   -1.7890    0.0000 N   0  0  0  0  0  0  0  0  0  0  0  0
    1.2800    0.4610    0.0000 C   0  0  0  0  0  0  0  0  0  0  0  0
  1  2  2  0  0  0  0
  2  3  1  0  0  0  0
  3  4  1  0  0  0  0
  3  5  1  6  0  0  0
M  END
>  <name>
O=[C;amide][C@H]([N;amide])C

>  <apo>
2

>  <freq>
6

>  <freq0>
0

>  <freq1>
6

>  <freqA>
5.998064

>  <a_count>
12

$$$$

  MOE2015           2D

  3  2  0  0  0  0  0  0  0  0999 V2000
    0.2500    0.0670    0.0000 C   0  0  0  0  0  0  0  0  0  0  0  0
    1.5490   -0.6830    0.0000 C   0  0  0  0  0  0  0  0  0  0  0  0
   -1.0490   -0.6830    0.0000 C   0  0  0  0  0  0  0  0  0  0  0  0
  1  2  1  0  0  0  0
  1  3  1  0  0  0  0
M  END
>  <name>
C([C;amine])[C;ether]

>  <apo>
2

>  <freq>
6

>  <freq0>
0

>  <freq1>
6

>  <freqA>
5.998064

>  <a_count>
11

$$$$

  MOE2015           2D

 15 14  0  0  0  0  0  0  0  0999 V2000
   17.1430   -4.5940    0.0000 O   0  0  0  0  0  0  0  0  0  0  0  0
   15.8440   -3.8440    0.0000 C   0  0  0  0  0  0  0  0  0  0  0  0
   14.5450   -4.5940    0.0000 C   0  0  0  0  0  0  0  0  0  0  0  0
   13.2460   -3.8440    0.0000 C   0  0  0  0  0  0  0  0  0  0  0  0
   11.9470   -4.5940    0.0000 C   0  0  0  0  0  0  0  0  0  0  0  0
   10.6480   -3.8440    0.0000 C   0  0  0  0  0  0  0  0  0  0  0  0
    9.3490   -4.5940    0.0000 C   0  0  0  0  0  0  0  0  0  0  0  0
    8.0500   -3.8440    0.0000 C   0  0  0  0  0  0  0  0  0  0  0  0
    6.7510   -4.5940    0.0000 C   0  0  0  0  0  0  0  0  0  0  0  0
    5.4520   -3.8440    0.0000 C   0  0  0  0  0  0  0  0  0  0  0  0
    4.1530   -4.5940    0.0000 C   0  0  0  0  0  0  0  0  0  0  0  0
    2.8540   -3.8440    0.0000 C   0  0  0  0  0  0  0  0  0  0  0  0
    1.5550   -4.5940    0.0000 C   0  0  0  0  0  0  0  0  0  0  0  0
    0.2560   -3.8440    0.0000 C   0  0  0  0  0  0  0  0  0  0  0  0
   -1.0430   -4.5940    0.0000 C   0  0  0  0  0  0  0  0  0  0  0  0
  1  2  2  0  0  0  0
  2  3  1  0  0  0  0
  3  4  1  0  0  0  0
  4  5  1  0  0  0  0
  5  6  1  0  0  0  0
  6  7  1  0  0  0  0
  7  8  1  0  0  0  0
  8  9  1  0  0  0  0
  9 10  1  0  0  0  0
 10 11  1  0  0  0  0
 11 12  1  0  0  0  0
 12 13  1  0  0  0  0
 13 14  1  0  0  0  0
 14 15  1  0  0  0  0
M  END
>  <name>
O=[C;ester]CCCCCCCCCCCCC

>  <apo>
1

>  <freq>
5

>  <freq0>
0

>  <freq1>
5

>  <freqA>
4.9981179

>  <a_count>
43

$$$$

  MOE2015           2D

 19 22  0  0  1  0  0  0  0  0999 V2000
   10.5200   -3.3210    0.0000 O   0  0  0  0  0  0  0  0  0  0  0  0
    9.2140   -4.0600    0.0000 C   0  0  0  0  0  0  0  0  0  0  0  0
    7.9220   -3.2980    0.0000 C   0  0  1  0  0  0  0  0  0  0  0  0
    7.9350   -1.7980    0.0000 C   0  0  0  0  0  0  0  0  0  0  0  0
    6.6430   -1.0370    0.0000 N   0  0  0  0  0  0  0  0  0  0  0  0
    6.6440    0.4630    0.0000 C   0  0  0  0  0  0  0  0  0  0  0  0
    5.3290   -1.8080    0.0000 C   0  0  1  0  0  0  0  0  0  0  0  0
    5.3320   -3.2710    0.0000 C   0  0  1  0  0  0  0  0  0  0  0  0
    4.0690   -4.0140    0.0000 C   0  0  0  0  0  0  0  0  0  0  0  0
    2.7970   -3.2820    0.0000 C   0  0  0  0  0  0  0  0  0  0  0  0
    1.5270   -4.0180    0.0000 C   0  0  0  0  0  0  0  0  0  0  0  0
    0.4520   -2.9600    0.0000 N   0  0  0  0  0  0  0  0  0  0  0  0
    1.3710   -1.3360    0.0000 C   0  0  0  0  0  0  0  0  0  0  0  0
    2.7900   -1.8140    0.0000 C   0  0  0  0  0  0  0  0  0  0  0  0
    4.0560   -1.0790    0.0000 C   0  0  0  0  0  0  0  0  0  0  0  0
    1.5350   -5.4900    0.0000 C   0  0  0  0  0  0  0  0  0  0  0  0
    2.8110   -6.2180    0.0000 C   0  0  0  0  0  0  0  0  0  0  0  0
    4.0710   -5.4760    0.0000 C   0  0  0  0  0  0  0  0  0  0  0  0
    6.6160   -4.0370    0.0000 C   0  0  0  0  0  0  0  0  0  0  0  0
  1  2  2  0  0  0  0
  3  2  1  6  0  0  0
  3  4  1  0  0  0  0
  3 19  1  0  0  0  0
  4  5  1  0  0  0  0
  5  6  1  0  0  0  0
  7  5  1  1  0  0  0
  7  8  1  0  0  0  0
  7 15  1  0  0  0  0
  8  9  1  6  0  0  0
  8 19  1  0  0  0  0
  9 10  2  0  0  0  0
  9 18  1  0  0  0  0
 10 11  1  0  0  0  0
 10 14  1  0  0  0  0
 11 12  1  0  0  0  0
 11 16  2  0  0  0  0
 12 13  1  0  0  0  0
 13 14  2  0  0  0  0
 14 15  1  0  0  0  0
 16 17  1  0  0  0  0
 17 18  2  0  0  0  0
M  END
>  <name>
O=[C;amide][C@H]1CN(C)[C@H]2[C@@H](c3c4c([nH]cc4C2)ccc3)C1

>  <apo>
1

>  <freq>
5

>  <freq0>
0

>  <freq1>
5

>  <freqA>
4.9981179

>  <a_count>
37

$$$$

  MOE2015           2D

 17 17  0  0  1  0  0  0  0  0999 V2000
    0.4500   -0.8170    0.0000 P   0  0  0  0  0  0  0  0  0  0  0  0
    1.2000   -2.1160    0.0000 O   0  0  0  0  0  0  0  0  0  0  0  0
    1.7490   -0.0670    0.0000 O   0  0  0  0  0  0  0  0  0  0  0  0
    3.0480   -0.8170    0.0000 C   0  0  1  0  0  0  0  0  0  0  0  0
    4.3470   -0.0670    0.0000 C   0  0  0  0  0  0  0  0  0  0  0  0
    5.6460   -0.8170    0.0000 N   0  0  0  0  0  0  0  0  0  0  0  0
    3.0480   -2.3170    0.0000 C   0  0  0  0  0  0  0  0  0  0  0  0
   -0.8490   -1.5670    0.0000 O   0  0  0  0  0  0  0  0  0  0  0  0
   -2.1480   -0.8170    0.0000 C   0  0  2  0  0  0  0  0  0  0  0  0
   -3.5180   -1.4270    0.0000 C   0  0  1  0  0  0  0  0  0  0  0  0
   -3.8300   -2.8940    0.0000 C   0  0  0  0  0  0  0  0  0  0  0  0
   -5.2570   -3.3580    0.0000 O   0  0  0  0  0  0  0  0  0  0  0  0
   -4.5220   -0.3120    0.0000 O   0  0  0  0  0  0  0  0  0  0  0  0
   -3.7720    0.9870    0.0000 C   0  0  0  0  0  0  0  0  0  0  0  0
   -2.3050    0.6750    0.0000 C   0  0  1  0  0  0  0  0  0  0  0  0
   -1.1900    1.6790    0.0000 O   0  0  0  0  0  0  0  0  0  0  0  0
   -0.3000    0.4820    0.0000 O   0  5  0  0  0  0  0  0  0  0  0  0
  1  2  2  0  0  0  0
  1  3  1  0  0  0  0
  1  8  1  0  0  0  0
  1 17  1  0  0  0  0
  3  4  1  0  0  0  0
  4  5  1  0  0  0  0
  4  7  1  1  0  0  0
  5  6  1  0  0  0  0
  9  8  1  6  0  0  0
  9 10  1  0  0  0  0
  9 15  1  0  0  0  0
 10 11  1  1  0  0  0
 10 13  1  0  0  0  0
 11 12  1  0  0  0  0
 13 14  1  0  0  0  0
 14 15  1  0  0  0  0
 15 16  1  1  0  0  0
M  CHG  1  17  -1
M  END
>  <name>
P(=O)(O[C@@H](C[N;amide])C)(O[C@@H]1[C@@H](CO)O[C;NaroC][C@H]1O)[O-]

>  <apo>
2

>  <freq>
5

>  <freq0>
0

>  <freq1>
5

>  <freqA>
4.9981179

>  <a_count>
34

$$$$

  MOE2015           2D

 15 16  0  0  1  0  0  0  0  0999 V2000
   10.7390    2.8770    0.0000 O   0  0  0  0  0  0  0  0  0  0  0  0
    9.4400    2.1270    0.0000 C   0  0  0  0  0  0  0  0  0  0  0  0
    8.1410    2.8770    0.0000 C   0  0  2  0  0  0  0  0  0  0  0  0
    8.1410    4.3770    0.0000 N   0  0  0  0  0  0  0  0  0  0  0  0
    6.8420    2.1270    0.0000 C   0  0  0  0  0  0  0  0  0  0  0  0
    5.5430    2.8770    0.0000 C   0  0  0  0  0  0  0  0  0  0  0  0
    4.2440    2.1270    0.0000 C   0  0  0  0  0  0  0  0  0  0  0  0
    2.9450    2.8770    0.0000 C   0  0  0  0  0  0  0  0  0  0  0  0
    2.9450    4.3770    0.0000 C   0  0  0  0  0  0  0  0  0  0  0  0
    4.2440    5.1270    0.0000 C   0  0  0  0  0  0  0  0  0  0  0  0
    5.5430    4.3770    0.0000 C   0  0  0  0  0  0  0  0  0  0  0  0
    1.6460    5.1270    0.0000 C   0  0  0  0  0  0  0  0  0  0  0  0
    0.3470    4.3770    0.0000 C   0  0  0  0  0  0  0  0  0  0  0  0
    0.3470    2.8770    0.0000 C   0  0  0  0  0  0  0  0  0  0  0  0
    1.6460    2.1270    0.0000 C   0  0  0  0  0  0  0  0  0  0  0  0
  1  2  2  0  0  0  0
  2  3  1  0  0  0  0
  3  4  1  1  0  0  0
  3  5  1  0  0  0  0
  5  6  1  0  0  0  0
  6  7  2  0  0  0  0
  6 11  1  0  0  0  0
  7  8  1  0  0  0  0
  8  9  1  0  0  0  0
  8 15  2  0  0  0  0
  9 10  1  0  0  0  0
  9 12  2  0  0  0  0
 10 11  2  0  0  0  0
 12 13  1  0  0  0  0
 13 14  2  0  0  0  0
 14 15  1  0  0  0  0
M  END
>  <name>
O=[C;amide][C@H]([N;amide])Cc1cc2c(cc1)cccc2

>  <apo>
2

>  <freq>
5

>  <freq0>
0

>  <freq1>
5

>  <freqA>
4.9981179

>  <a_count>
28

$$$$

  MOE2015           2D

 14 14  0  0  0  0  0  0  0  0999 V2000
    7.3360   -3.7870    0.0000 O   0  0  0  0  0  0  0  0  0  0  0  0
    6.0370   -4.5370    0.0000 C   0  0  0  0  0  0  0  0  0  0  0  0
    4.7380   -3.7870    0.0000 C   0  0  0  0  0  0  0  0  0  0  0  0
    3.4390   -4.5370    0.0000 C   0  0  0  0  0  0  0  0  0  0  0  0
    2.1400   -3.7870    0.0000 C   0  0  0  0  0  0  0  0  0  0  0  0
    0.8410   -4.5370    0.0000 O   0  0  0  0  0  0  0  0  0  0  0  0
    0.8410   -6.0370    0.0000 C   0  0  0  0  0  0  0  0  0  0  0  0
    2.1400   -2.2870    0.0000 C   0  0  0  0  0  0  0  0  0  0  0  0
    0.8410   -1.5370    0.0000 O   0  0  0  0  0  0  0  0  0  0  0  0
   -0.4580   -2.2870    0.0000 C   0  0  0  0  0  0  0  0  0  0  0  0
    3.4390   -1.5370    0.0000 C   0  0  0  0  0  0  0  0  0  0  0  0
    3.4390   -0.0370    0.0000 O   0  0  0  0  0  0  0  0  0  0  0  0
    4.7380    0.7130    0.0000 C   0  0  0  0  0  0  0  0  0  0  0  0
    4.7380   -2.2870    0.0000 C   0  0  0  0  0  0  0  0  0  0  0  0
  1  2  2  0  0  0  0
  2  3  1  0  0  0  0
  3  4  1  0  0  0  0
  3 14  2  0  0  0  0
  4  5  2  0  0  0  0
  5  6  1  0  0  0  0
  5  8  1  0  0  0  0
  6  7  1  0  0  0  0
  8  9  1  0  0  0  0
  8 11  2  0  0  0  0
  9 10  1  0  0  0  0
 11 12  1  0  0  0  0
 11 14  1  0  0  0  0
 12 13  1  0  0  0  0
M  END
>  <name>
O=[C;ester]c1cc(OC)c(OC)c(OC)c1

>  <apo>
1

>  <freq>
5

>  <freq0>
0

>  <freq1>
5

>  <freqA>
4.9981179

>  <a_count>
26

$$$$

  MOE2015           2D

  8  7  0  0  1  0  0  0  0  0999 V2000
   -0.1970    0.7370    0.0000 O   0  0  0  0  0  0  0  0  0  0  0  0
    1.1020    1.4870    0.0000 C   0  0  2  0  0  0  0  0  0  0  0  0
    2.4010    0.7370    0.0000 C   0  0  0  0  0  0  0  0  0  0  0  0
    3.7000    1.4870    0.0000 C   0  0  0  0  0  0  0  0  0  0  0  0
    4.9990    0.7370    0.0000 C   0  0  0  0  0  0  0  0  0  0  0  0
    6.2980    1.4870    0.0000 C   0  0  0  0  0  0  0  0  0  0  0  0
    7.5970    0.7370    0.0000 C   0  0  0  0  0  0  0  0  0  0  0  0
    1.1020    2.9870    0.0000 C   0  0  0  0  0  0  0  0  0  0  0  0
  2  1  1  1  0  0  0
  2  3  1  0  0  0  0
  2  8  1  0  0  0  0
  3  4  1  0  0  0  0
  4  5  1  0  0  0  0
  5  6  1  0  0  0  0
  6  7  1  0  0  0  0
M  END
>  <name>
O[C@H](CCCCC)[C;olefin]

>  <apo>
1

>  <freq>
5

>  <freq0>
0

>  <freq1>
5

>  <freqA>
4.9981179

>  <a_count>
24

$$$$

  MOE2015           2D

 12 12  0  0  0  0  0  0  0  0999 V2000
    0.0000    0.6500    0.0000 F   0  0  0  0  0  0  0  0  0  0  0  0
    1.5000    0.6500    0.0000 C   0  0  0  0  0  0  0  0  0  0  0  0
    2.2500   -0.6500    0.0000 C   0  0  0  0  0  0  0  0  0  0  0  0
    3.7500   -0.6500    0.0000 C   0  0  0  0  0  0  0  0  0  0  0  0
    4.5000    0.6500    0.0000 C   0  0  0  0  0  0  0  0  0  0  0  0
    6.0000    0.6500    0.0000 C   0  0  0  0  0  0  0  0  0  0  0  0
    6.7500    1.9490    0.0000 O   0  0  0  0  0  0  0  0  0  0  0  0
    6.7500   -0.6500    0.0000 C   0  0  0  0  0  0  0  0  0  0  0  0
    8.2500   -0.6500    0.0000 C   0  0  0  0  0  0  0  0  0  0  0  0
    9.0000   -1.9490    0.0000 C   0  0  0  0  0  0  0  0  0  0  0  0
    3.7500    1.9490    0.0000 C   0  0  0  0  0  0  0  0  0  0  0  0
    2.2500    1.9490    0.0000 C   0  0  0  0  0  0  0  0  0  0  0  0
  1  2  1  0  0  0  0
  2  3  1  0  0  0  0
  2 12  2  0  0  0  0
  3  4  2  0  0  0  0
  4  5  1  0  0  0  0
  5  6  1  0  0  0  0
  5 11  2  0  0  0  0
  6  7  2  0  0  0  0
  6  8  1  0  0  0  0
  8  9  1  0  0  0  0
  9 10  1  0  0  0  0
 11 12  1  0  0  0  0
M  END
>  <name>
Fc1ccc(C(=O)CC[C;amine])cc1

>  <apo>
1

>  <freq>
5

>  <freq0>
0

>  <freq1>
5

>  <freqA>
4.9981179

>  <a_count>
23

$$$$

  MOE2015           2D

 11 11  0  0  1  0  0  0  0  0999 V2000
    6.5450    0.4720    0.0000 O   0  0  0  0  0  0  0  0  0  0  0  0
    5.7950    1.7710    0.0000 C   0  0  0  0  0  0  0  0  0  0  0  0
    4.2950    1.7710    0.0000 C   0  0  2  0  0  0  0  0  0  0  0  0
    3.5450    3.0700    0.0000 C   0  0  2  0  0  0  0  0  0  0  0  0
    4.2950    4.3690    0.0000 O   0  0  0  0  0  0  0  0  0  0  0  0
    2.0450    3.0700    0.0000 C   0  0  1  0  0  0  0  0  0  0  0  0
    1.2950    4.3690    0.0000 O   0  0  0  0  0  0  0  0  0  0  0  0
    1.2950    1.7710    0.0000 C   0  0  2  0  0  0  0  0  0  0  0  0
   -0.2050    1.7710    0.0000 O   0  0  0  0  0  0  0  0  0  0  0  0
    2.0450    0.4720    0.0000 C   0  0  0  0  0  0  0  0  0  0  0  0
    3.5450    0.4720    0.0000 O   0  0  0  0  0  0  0  0  0  0  0  0
  1  2  1  0  0  0  0
  3  2  1  1  0  0  0
  3  4  1  0  0  0  0
  3 11  1  0  0  0  0
  4  5  1  1  0  0  0
  4  6  1  0  0  0  0
  6  7  1  6  0  0  0
  6  8  1  0  0  0  0
  8  9  1  1  0  0  0
  8 10  1  0  0  0  0
 10 11  1  0  0  0  0
M  END
>  <name>
OC[C@@H]1[C@H](O)[C@@H](O)[C@H](O)[C;ether]O1

>  <apo>
1

>  <freq>
5

>  <freq0>
0

>  <freq1>
5

>  <freqA>
4.9981179

>  <a_count>
23

$$$$

  MOE2015           2D

  8  7  0  0  1  0  0  0  0  0999 V2000
    0.0000    0.0000    0.0000 O   0  0  0  0  0  0  0  0  0  0  0  0
    1.5000    0.0000    0.0000 C   0  0  0  0  0  0  0  0  0  0  0  0
    2.2500   -1.2990    0.0000 C   0  0  1  0  0  0  0  0  0  0  0  0
    1.5000   -2.5980    0.0000 N   0  0  0  0  0  0  0  0  0  0  0  0
    0.0000   -2.5980    0.0000 C   0  0  0  0  0  0  0  0  0  0  0  0
    3.7500   -1.2990    0.0000 C   0  0  0  0  0  0  0  0  0  0  0  0
    4.5000    0.0000    0.0000 C   0  0  0  0  0  0  0  0  0  0  0  0
    4.5000   -2.5980    0.0000 C   0  0  0  0  0  0  0  0  0  0  0  0
  1  2  2  0  0  0  0
  3  2  1  6  0  0  0
  3  4  1  0  0  0  0
  3  6  1  0  0  0  0
  4  5  1  0  0  0  0
  6  7  1  0  0  0  0
  6  8  1  0  0  0  0
M  END
>  <name>
O=[C;ester][C@@H]([N;amide]C)C(C)C

>  <apo>
2

>  <freq>
5

>  <freq0>
0

>  <freq1>
5

>  <freqA>
4.9981179

>  <a_count>
21

$$$$

  MOE2015           2D

 11 11  0  0  1  0  0  0  0  0999 V2000
    6.6820   -2.5980    0.0000 O   0  0  0  0  0  0  0  0  0  0  0  0
    5.1820   -2.5980    0.0000 C   0  0  0  0  0  0  0  0  0  0  0  0
    4.4320   -1.2990    0.0000 C   0  0  2  0  0  0  0  0  0  0  0  0
    5.1820    0.0000    0.0000 C   0  0  0  0  0  0  0  0  0  0  0  0
    6.6820    0.0000    0.0000 O   0  0  0  0  0  0  0  0  0  0  0  0
    2.9320   -1.2990    0.0000 C   0  0  0  0  0  0  0  0  0  0  0  0
    2.1820   -2.5980    0.0000 C   0  0  0  0  0  0  0  0  0  0  0  0
    0.6820   -2.5980    0.0000 C   0  0  0  0  0  0  0  0  0  0  0  0
   -0.0680   -1.2990    0.0000 C   0  0  0  0  0  0  0  0  0  0  0  0
    0.6820    0.0000    0.0000 C   0  0  0  0  0  0  0  0  0  0  0  0
    2.1820    0.0000    0.0000 C   0  0  0  0  0  0  0  0  0  0  0  0
  1  2  2  0  0  0  0
  3  2  1  1  0  0  0
  3  4  1  0  0  0  0
  3  6  1  0  0  0  0
  4  5  1  0  0  0  0
  6  7  1  0  0  0  0
  6 11  2  0  0  0  0
  7  8  2  0  0  0  0
  8  9  1  0  0  0  0
  9 10  2  0  0  0  0
 10 11  1  0  0  0  0
M  END
>  <name>
O=[C;ester][C@H](CO)c1ccccc1

>  <apo>
1

>  <freq>
5

>  <freq0>
0

>  <freq1>
5

>  <freqA>
4.9981179

>  <a_count>
21

$$$$

  MOE2015           2D

  9  9  0  0  0  0  0  0  0  0999 V2000
    4.5000    2.5980    0.0000 C   0  0  0  0  0  0  0  0  0  0  0  0
    3.7500    1.2990    0.0000 C   0  0  0  0  0  0  0  0  0  0  0  0
    2.2500    1.2990    0.0000 C   0  0  0  0  0  0  0  0  0  0  0  0
    1.5000    0.0000    0.0000 C   0  0  0  0  0  0  0  0  0  0  0  0
    0.0000    0.0000    0.0000 C   0  0  0  0  0  0  0  0  0  0  0  0
   -0.7500    1.2990    0.0000 C   0  0  0  0  0  0  0  0  0  0  0  0
    0.0000    2.5980    0.0000 C   0  0  0  0  0  0  0  0  0  0  0  0
    1.5000    2.5980    0.0000 C   0  0  0  0  0  0  0  0  0  0  0  0
    6.0000    2.5980    0.0000 C   0  0  0  0  0  0  0  0  0  0  0  0
  1  2  1  0  0  0  0
  1  9  1  0  0  0  0
  2  3  1  0  0  0  0
  3  4  1  0  0  0  0
  3  8  2  0  0  0  0
  4  5  2  0  0  0  0
  5  6  1  0  0  0  0
  6  7  2  0  0  0  0
  7  8  1  0  0  0  0
M  END
>  <name>
[C;amine](Cc1ccccc1)C

>  <apo>
1

>  <freq>
5

>  <freq0>
0

>  <freq1>
5

>  <freqA>
4.9981179

>  <a_count>
21

$$$$

  MOE2015           2D

  8  8  0  0  1  0  0  0  0  0999 V2000
    0.0000    0.0000    0.0000 O   0  0  0  0  0  0  0  0  0  0  0  0
    1.5000    0.0000    0.0000 C   0  0  1  0  0  0  0  0  0  0  0  0
    2.2500   -1.2990    0.0000 C   0  0  0  0  0  0  0  0  0  0  0  0
    3.7500   -1.2990    0.0000 O   0  0  0  0  0  0  0  0  0  0  0  0
    4.5000    0.0000    0.0000 C   0  0  2  0  0  0  0  0  0  0  0  0
    6.0000    0.0000    0.0000 C   0  0  0  0  0  0  0  0  0  0  0  0
    3.7500    1.2990    0.0000 C   0  0  0  0  0  0  0  0  0  0  0  0
    2.2500    1.2990    0.0000 C   0  0  0  0  0  0  0  0  0  0  0  0
  2  1  1  6  0  0  0
  2  3  1  0  0  0  0
  2  8  1  0  0  0  0
  3  4  1  0  0  0  0
  4  5  1  0  0  0  0
  5  6  1  1  0  0  0
  5  7  1  0  0  0  0
  7  8  1  0  0  0  0
M  END
>  <name>
O[C@H]1[C;ether]O[C@H](C)C[C;amine]1

>  <apo>
2

>  <freq>
5

>  <freq0>
0

>  <freq1>
5

>  <freqA>
4.9981179

>  <a_count>
20

$$$$

  MOE2015           2D

 10  9  0  0  1  0  0  0  0  0999 V2000
   -0.2420   -1.9540    0.0000 O   0  0  0  0  0  0  0  0  0  0  0  0
    1.0570   -1.2040    0.0000 C   0  0  0  0  0  0  0  0  0  0  0  0
    1.0570    0.2960    0.0000 O   0  0  0  0  0  0  0  0  0  0  0  0
    2.3560   -1.9540    0.0000 C   0  0  1  0  0  0  0  0  0  0  0  0
    2.3560   -3.4540    0.0000 N   0  0  0  0  0  0  0  0  0  0  0  0
    3.6550   -1.2040    0.0000 C   0  0  0  0  0  0  0  0  0  0  0  0
    4.9540   -1.9540    0.0000 C   0  0  0  0  0  0  0  0  0  0  0  0
    6.2530   -1.2040    0.0000 C   0  0  0  0  0  0  0  0  0  0  0  0
    7.5520   -1.9540    0.0000 O   0  0  0  0  0  0  0  0  0  0  0  0
    6.2530    0.2960    0.0000 O   0  0  0  0  0  0  0  0  0  0  0  0
  1  2  2  0  0  0  0
  2  3  1  0  0  0  0
  2  4  1  0  0  0  0
  4  5  1  6  0  0  0
  4  6  1  0  0  0  0
  6  7  1  0  0  0  0
  7  8  1  0  0  0  0
  8  9  2  0  0  0  0
  8 10  1  0  0  0  0
M  END
>  <name>
O=C(O)[C@@H]([N;urea])CCC(=O)O

>  <apo>
1

>  <freq>
5

>  <freq0>
0

>  <freq1>
5

>  <freqA>
4.9981179

>  <a_count>
19

$$$$

  MOE2015           2D

 10 10  0  0  1  0  0  0  0  0999 V2000
    7.6590   -2.6900    0.0000 O   0  0  0  0  0  0  0  0  0  0  0  0
    6.3600   -3.4400    0.0000 C   0  0  0  0  0  0  0  0  0  0  0  0
    5.0610   -2.6900    0.0000 C   0  0  1  0  0  0  0  0  0  0  0  0
    5.0610   -1.1900    0.0000 N   0  0  0  0  0  0  0  0  0  0  0  0
    3.7620   -3.4400    0.0000 C   0  0  0  0  0  0  0  0  0  0  0  0
    2.4630   -2.6900    0.0000 C   0  0  0  0  0  0  0  0  0  0  0  0
    1.0920   -3.3000    0.0000 N   0  0  0  0  0  0  0  0  0  0  0  0
    0.0890   -2.1860    0.0000 C   0  0  0  0  0  0  0  0  0  0  0  0
    0.8390   -0.8870    0.0000 N   0  0  0  0  0  0  0  0  0  0  0  0
    2.3060   -1.1980    0.0000 C   0  0  0  0  0  0  0  0  0  0  0  0
  1  2  2  0  0  0  0
  2  3  1  0  0  0  0
  3  4  1  6  0  0  0
  3  5  1  0  0  0  0
  5  6  1  0  0  0  0
  6  7  1  0  0  0  0
  6 10  2  0  0  0  0
  7  8  2  0  0  0  0
  8  9  1  0  0  0  0
  9 10  1  0  0  0  0
M  END
>  <name>
O=[C;amide][C@@H]([N;amide])Cc1nc[nH]c1

>  <apo>
2

>  <freq>
5

>  <freq0>
0

>  <freq1>
5

>  <freqA>
4.9981179

>  <a_count>
19

$$$$

  MOE2015           2D

  8  8  0  0  1  0  0  0  0  0999 V2000
    5.3440   -0.8120    0.0000 O   0  0  0  0  0  0  0  0  0  0  0  0
    4.5940   -2.1110    0.0000 C   0  0  0  0  0  0  0  0  0  0  0  0
    3.0940   -2.1110    0.0000 C   0  0  1  0  0  0  0  0  0  0  0  0
    2.3440   -3.4100    0.0000 N   0  0  0  0  0  0  0  0  0  0  0  0
    0.8440   -3.4100    0.0000 C   0  0  0  0  0  0  0  0  0  0  0  0
    0.0940   -2.1110    0.0000 C   0  0  0  0  0  0  0  0  0  0  0  0
    0.8440   -0.8120    0.0000 C   0  0  0  0  0  0  0  0  0  0  0  0
    2.3440   -0.8120    0.0000 C   0  0  0  0  0  0  0  0  0  0  0  0
  1  2  2  0  0  0  0
  3  2  1  1  0  0  0
  3  4  1  0  0  0  0
  3  8  1  0  0  0  0
  4  5  1  0  0  0  0
  5  6  1  0  0  0  0
  6  7  1  0  0  0  0
  7  8  1  0  0  0  0
M  END
>  <name>
O=[C;ester][C@H]1[N;amide]CCCC1

>  <apo>
2

>  <freq>
5

>  <freq0>
0

>  <freq1>
5

>  <freqA>
4.9981179

>  <a_count>
19

$$$$

  MOE2015           2D

 10 10  0  0  0  0  0  0  0  0999 V2000
    1.6500    2.8580    0.0000 Cl  0  0  0  0  0  0  0  0  0  0  0  0
    2.4000    1.5590    0.0000 C   0  0  0  0  0  0  0  0  0  0  0  0
    1.6500    0.2600    0.0000 C   0  0  0  0  0  0  0  0  0  0  0  0
    0.1500    0.2600    0.0000 C   0  0  0  0  0  0  0  0  0  0  0  0
   -0.6000   -1.0390    0.0000 C   0  0  0  0  0  0  0  0  0  0  0  0
    2.4000   -1.0390    0.0000 C   0  0  0  0  0  0  0  0  0  0  0  0
    3.9000   -1.0390    0.0000 C   0  0  0  0  0  0  0  0  0  0  0  0
    4.6500    0.2600    0.0000 C   0  0  0  0  0  0  0  0  0  0  0  0
    6.1500    0.2600    0.0000 Cl  0  0  0  0  0  0  0  0  0  0  0  0
    3.9000    1.5590    0.0000 C   0  0  0  0  0  0  0  0  0  0  0  0
  1  2  1  0  0  0  0
  2  3  1  0  0  0  0
  2 10  2  0  0  0  0
  3  4  1  0  0  0  0
  3  6  2  0  0  0  0
  4  5  1  0  0  0  0
  6  7  1  0  0  0  0
  7  8  2  0  0  0  0
  8  9  1  0  0  0  0
  8 10  1  0  0  0  0
M  END
>  <name>
Clc1c([C;ether][C;NaroC])ccc(Cl)c1

>  <apo>
2

>  <freq>
5

>  <freq0>
0

>  <freq1>
5

>  <freqA>
4.9981179

>  <a_count>
18

$$$$

  MOE2015           2D

  7  6  0  0  1  0  0  0  0  0999 V2000
    5.3550   -0.7920    0.0000 O   0  0  0  0  0  0  0  0  0  0  0  0
    4.0560   -1.5420    0.0000 C   0  0  0  0  0  0  0  0  0  0  0  0
    2.7570   -0.7920    0.0000 C   0  0  2  0  0  0  0  0  0  0  0  0
    2.7570    0.7080    0.0000 N   0  0  0  0  0  0  0  0  0  0  0  0
    1.4580   -1.5420    0.0000 C   0  0  0  0  0  0  0  0  0  0  0  0
    1.4580   -3.0420    0.0000 C   0  0  0  0  0  0  0  0  0  0  0  0
    0.1590   -0.7920    0.0000 C   0  0  0  0  0  0  0  0  0  0  0  0
  1  2  2  0  0  0  0
  2  3  1  0  0  0  0
  3  4  1  1  0  0  0
  3  5  1  0  0  0  0
  5  6  1  0  0  0  0
  5  7  1  0  0  0  0
M  END
>  <name>
O=[C;amide][C@H]([N;amide])C(C)C

>  <apo>
2

>  <freq>
5

>  <freq0>
0

>  <freq1>
5

>  <freqA>
4.9981179

>  <a_count>
18

$$$$

  MOE2015           2D

  8  8  0  0  1  0  0  0  0  0999 V2000
    4.5710   -2.6390    0.0000 O   0  0  0  0  0  0  0  0  0  0  0  0
    3.8210   -1.3400    0.0000 C   0  0  0  0  0  0  0  0  0  0  0  0
    4.5710   -0.0410    0.0000 O   0  0  0  0  0  0  0  0  0  0  0  0
    2.3210   -1.3400    0.0000 C   0  0  1  0  0  0  0  0  0  0  0  0
    1.4400   -0.1270    0.0000 N   0  0  0  0  0  0  0  0  0  0  0  0
    0.0130   -0.5900    0.0000 C   0  0  0  0  0  0  0  0  0  0  0  0
    0.0130   -2.0900    0.0000 C   0  0  0  0  0  0  0  0  0  0  0  0
    1.4400   -2.5540    0.0000 C   0  0  0  0  0  0  0  0  0  0  0  0
  1  2  2  0  0  0  0
  2  3  1  0  0  0  0
  4  2  1  6  0  0  0
  4  5  1  0  0  0  0
  4  8  1  0  0  0  0
  5  6  1  0  0  0  0
  6  7  1  0  0  0  0
  7  8  1  0  0  0  0
M  END
>  <name>
O=C(O)[C@H]1[N;amide]CCC1

>  <apo>
1

>  <freq>
5

>  <freq0>
0

>  <freq1>
5

>  <freqA>
4.9981179

>  <a_count>
17

$$$$

  MOE2015           2D

 11 11  0  0  0  0  0  0  0  0999 V2000
    6.5450   -1.4170    0.0000 O   0  0  0  0  0  0  0  0  0  0  0  0
    5.7950   -2.7160    0.0000 C   0  0  0  0  0  0  0  0  0  0  0  0
    4.2950   -2.7160    0.0000 C   0  0  0  0  0  0  0  0  0  0  0  0
    3.5450   -4.0150    0.0000 C   0  0  0  0  0  0  0  0  0  0  0  0
    2.0450   -4.0150    0.0000 C   0  0  0  0  0  0  0  0  0  0  0  0
    1.2950   -5.3140    0.0000 O   0  0  0  0  0  0  0  0  0  0  0  0
    1.2950   -2.7160    0.0000 C   0  0  0  0  0  0  0  0  0  0  0  0
   -0.2050   -2.7160    0.0000 O   0  0  0  0  0  0  0  0  0  0  0  0
    2.0450   -1.4170    0.0000 C   0  0  0  0  0  0  0  0  0  0  0  0
    1.2950   -0.1180    0.0000 O   0  0  0  0  0  0  0  0  0  0  0  0
    3.5450   -1.4170    0.0000 C   0  0  0  0  0  0  0  0  0  0  0  0
  1  2  2  0  0  0  0
  2  3  1  0  0  0  0
  3  4  1  0  0  0  0
  3 11  2  0  0  0  0
  4  5  2  0  0  0  0
  5  6  1  0  0  0  0
  5  7  1  0  0  0  0
  7  8  1  0  0  0  0
  7  9  2  0  0  0  0
  9 10  1  0  0  0  0
  9 11  1  0  0  0  0
M  END
>  <name>
O=[C;ester]c1cc(O)c(O)c(O)c1

>  <apo>
1

>  <freq>
5

>  <freq0>
0

>  <freq1>
5

>  <freqA>
4.9981179

>  <a_count>
17

$$$$

  MOE2015           2D

 11 11  0  0  0  0  0  0  0  0999 V2000
    6.5450   -1.4170    0.0000 O   0  0  0  0  0  0  0  0  0  0  0  0
    5.7950   -2.7160    0.0000 C   0  0  0  0  0  0  0  0  0  0  0  0
    4.2950   -2.7160    0.0000 C   0  0  0  0  0  0  0  0  0  0  0  0
    3.5450   -4.0150    0.0000 C   0  0  0  0  0  0  0  0  0  0  0  0
    2.0450   -4.0150    0.0000 C   0  0  0  0  0  0  0  0  0  0  0  0
    1.2950   -5.3140    0.0000 O   0  0  0  0  0  0  0  0  0  0  0  0
    1.2950   -2.7160    0.0000 C   0  0  0  0  0  0  0  0  0  0  0  0
   -0.2050   -2.7160    0.0000 O   0  0  0  0  0  0  0  0  0  0  0  0
    2.0450   -1.4170    0.0000 C   0  0  0  0  0  0  0  0  0  0  0  0
    1.2950   -0.1180    0.0000 O   0  0  0  0  0  0  0  0  0  0  0  0
    3.5450   -1.4170    0.0000 C   0  0  0  0  0  0  0  0  0  0  0  0
  1  2  2  0  0  0  0
  2  3  1  0  0  0  0
  3  4  1  0  0  0  0
  3 11  2  0  0  0  0
  4  5  2  0  0  0  0
  5  6  1  0  0  0  0
  5  7  1  0  0  0  0
  7  8  1  0  0  0  0
  7  9  2  0  0  0  0
  9 10  1  0  0  0  0
  9 11  1  0  0  0  0
M  END
>  <name>
O=[C;ester]c1cc([O;ester])c(O)c(O)c1

>  <apo>
2

>  <freq>
5

>  <freq0>
0

>  <freq1>
5

>  <freqA>
4.9981179

>  <a_count>
17

$$$$

  MOE2015           2D

 11 12  0  0  0  0  0  0  0  0999 V2000
    3.4510    2.2760    0.0000 O   0  0  0  0  0  0  0  0  0  0  0  0
    3.4510    0.7760    0.0000 C   0  0  0  0  0  0  0  0  0  0  0  0
    4.7500    0.0260    0.0000 N   0  0  0  0  0  0  0  0  0  0  0  0
    4.7500   -1.4740    0.0000 C   0  0  0  0  0  0  0  0  0  0  0  0
    6.0490   -2.2240    0.0000 N   0  0  0  0  0  0  0  0  0  0  0  0
    3.4510   -2.2240    0.0000 N   0  0  0  0  0  0  0  0  0  0  0  0
    2.1520   -1.4740    0.0000 C   0  0  0  0  0  0  0  0  0  0  0  0
    0.7250   -1.9370    0.0000 N   0  0  0  0  0  0  0  0  0  0  0  0
   -0.1560   -0.7240    0.0000 C   0  0  0  0  0  0  0  0  0  0  0  0
    0.7250    0.4900    0.0000 N   0  0  0  0  0  0  0  0  0  0  0  0
    2.1520    0.0260    0.0000 C   0  0  0  0  0  0  0  0  0  0  0  0
  1  2  2  0  0  0  0
  2  3  1  0  0  0  0
  2 11  1  0  0  0  0
  3  4  2  0  0  0  0
  4  5  1  0  0  0  0
  4  6  1  0  0  0  0
  6  7  1  0  0  0  0
  7  8  1  0  0  0  0
  7 11  2  0  0  0  0
  8  9  1  0  0  0  0
  9 10  2  0  0  0  0
 10 11  1  0  0  0  0
M  END
>  <name>
O=C1N=C(N)Nc2[nH;NaroC]cnc12

>  <apo>
1

>  <freq>
5

>  <freq0>
0

>  <freq1>
5

>  <freqA>
4.9981179

>  <a_count>
16

$$$$

  MOE2015           2D

  9  9  0  0  0  0  0  0  0  0999 V2000
    6.0000   -3.4640    0.0000 O   0  0  0  0  0  0  0  0  0  0  0  0
    5.2500   -2.1650    0.0000 C   0  0  0  0  0  0  0  0  0  0  0  0
    3.7500   -2.1650    0.0000 C   0  0  0  0  0  0  0  0  0  0  0  0
    3.0000   -0.8660    0.0000 C   0  0  0  0  0  0  0  0  0  0  0  0
    1.5000   -0.8660    0.0000 C   0  0  0  0  0  0  0  0  0  0  0  0
    0.7500   -2.1650    0.0000 C   0  0  0  0  0  0  0  0  0  0  0  0
   -0.7500   -2.1650    0.0000 N   0  0  0  0  0  0  0  0  0  0  0  0
    1.5000   -3.4640    0.0000 C   0  0  0  0  0  0  0  0  0  0  0  0
    3.0000   -3.4640    0.0000 C   0  0  0  0  0  0  0  0  0  0  0  0
  1  2  2  0  0  0  0
  2  3  1  0  0  0  0
  3  4  1  0  0  0  0
  3  9  2  0  0  0  0
  4  5  2  0  0  0  0
  5  6  1  0  0  0  0
  6  7  1  0  0  0  0
  6  8  2  0  0  0  0
  8  9  1  0  0  0  0
M  END
>  <name>
O=[C;amide]c1ccc([N;amine])cc1

>  <apo>
2

>  <freq>
5

>  <freq0>
0

>  <freq1>
5

>  <freqA>
4.9981179

>  <a_count>
16

$$$$

  MOE2015           2D

  6  5  0  0  1  0  0  0  0  0999 V2000
   -0.3480   -1.2990    0.0000 O   0  0  0  0  0  0  0  0  0  0  0  0
    0.9510   -2.0490    0.0000 C   0  0  0  0  0  0  0  0  0  0  0  0
    2.2500   -1.2990    0.0000 C   0  0  3  0  0  0  0  0  0  0  0  0
    2.2500    0.2010    0.0000 N   0  0  0  0  0  0  0  0  0  0  0  0
    3.5490   -2.0490    0.0000 C   0  0  0  0  0  0  0  0  0  0  0  0
    4.8480   -1.2990    0.0000 C   0  0  0  0  0  0  0  0  0  0  0  0
  1  2  2  0  0  0  0
  2  3  1  0  0  0  0
  3  4  1  0  0  0  0
  3  5  1  0  0  0  0
  5  6  1  0  0  0  0
M  END
>  <name>
O=[C;amide]C([N;amide])C[C;amine]

>  <apo>
3

>  <freq>
5

>  <freq0>
0

>  <freq1>
5

>  <freqA>
4.9981179

>  <a_count>
15

$$$$

  MOE2015           2D

  7  7  0  0  0  0  0  0  0  0999 V2000
    5.1430    0.0000    0.0000 C   0  0  0  0  0  0  0  0  0  0  0  0
    3.6430    0.0000    0.0000 C   0  0  0  0  0  0  0  0  0  0  0  0
    2.8930    1.2990    0.0000 C   0  0  0  0  0  0  0  0  0  0  0  0
    1.3930    1.2990    0.0000 C   0  0  0  0  0  0  0  0  0  0  0  0
    0.6430    0.0000    0.0000 C   0  0  0  0  0  0  0  0  0  0  0  0
    1.3930   -1.2990    0.0000 C   0  0  0  0  0  0  0  0  0  0  0  0
    2.8930   -1.2990    0.0000 C   0  0  0  0  0  0  0  0  0  0  0  0
  1  2  1  0  0  0  0
  2  3  1  0  0  0  0
  2  7  2  0  0  0  0
  3  4  2  0  0  0  0
  4  5  1  0  0  0  0
  5  6  2  0  0  0  0
  6  7  1  0  0  0  0
M  END
>  <name>
[C;NaroC]c1cc[c;biphenyl]cc1

>  <apo>
2

>  <freq>
5

>  <freq0>
0

>  <freq1>
5

>  <freqA>
4.9981179

>  <a_count>
15

$$$$

  MOE2015           2D

  7  7  0  0  0  0  0  0  0  0999 V2000
    5.1430    0.0000    0.0000 C   0  0  0  0  0  0  0  0  0  0  0  0
    3.6430    0.0000    0.0000 C   0  0  0  0  0  0  0  0  0  0  0  0
    2.8930    1.2990    0.0000 C   0  0  0  0  0  0  0  0  0  0  0  0
    1.3930    1.2990    0.0000 C   0  0  0  0  0  0  0  0  0  0  0  0
    0.6430    0.0000    0.0000 C   0  0  0  0  0  0  0  0  0  0  0  0
    1.3930   -1.2990    0.0000 C   0  0  0  0  0  0  0  0  0  0  0  0
    2.8930   -1.2990    0.0000 C   0  0  0  0  0  0  0  0  0  0  0  0
  1  2  1  0  0  0  0
  2  3  1  0  0  0  0
  2  7  2  0  0  0  0
  3  4  2  0  0  0  0
  4  5  1  0  0  0  0
  5  6  2  0  0  0  0
  6  7  1  0  0  0  0
M  END
>  <name>
[C;ether]c1ccccc1

>  <apo>
1

>  <freq>
5

>  <freq0>
0

>  <freq1>
5

>  <freqA>
4.9981179

>  <a_count>
15

$$$$

  MOE2015           2D

  4  3  0  0  0  0  0  0  0  0999 V2000
    0.1000   -0.3750    0.0000 C   0  0  0  0  0  0  0  0  0  0  0  0
    1.4000    0.3750    0.0000 C   0  0  0  0  0  0  0  0  0  0  0  0
    2.6990   -0.3750    0.0000 C   0  0  0  0  0  0  0  0  0  0  0  0
   -1.1990    0.3750    0.0000 C   0  0  0  0  0  0  0  0  0  0  0  0
  1  2  1  0  0  0  0
  1  4  1  0  0  0  0
  2  3  1  0  0  0  0
M  END
>  <name>
C(CC)[C;ether]

>  <apo>
1

>  <freq>
5

>  <freq0>
0

>  <freq1>
5

>  <freqA>
4.9981179

>  <a_count>
14

$$$$

  MOE2015           2D

  8  8  0  0  0  0  0  0  0  0999 V2000
    0.4890   -1.1750    0.0000 O   0  0  0  0  0  0  0  0  0  0  0  0
    1.7880   -0.4250    0.0000 C   0  0  0  0  0  0  0  0  0  0  0  0
    1.7880    1.0750    0.0000 C   0  0  0  0  0  0  0  0  0  0  0  0
    0.4890    1.8250    0.0000 O   0  0  0  0  0  0  0  0  0  0  0  0
    3.0870    1.8250    0.0000 C   0  0  0  0  0  0  0  0  0  0  0  0
    4.3860    1.0750    0.0000 C   0  0  0  0  0  0  0  0  0  0  0  0
    4.3860   -0.4250    0.0000 C   0  0  0  0  0  0  0  0  0  0  0  0
    3.0870   -1.1750    0.0000 C   0  0  0  0  0  0  0  0  0  0  0  0
  1  2  1  0  0  0  0
  2  3  1  0  0  0  0
  2  8  2  0  0  0  0
  3  4  1  0  0  0  0
  3  5  2  0  0  0  0
  5  6  1  0  0  0  0
  6  7  2  0  0  0  0
  7  8  1  0  0  0  0
M  END
>  <name>
[O;ether]c1c([O;ether])cccc1

>  <apo>
2

>  <freq>
5

>  <freq0>
0

>  <freq1>
5

>  <freqA>
4.9981179

>  <a_count>
14

$$$$

  MOE2015           2D

  7  6  0  0  0  0  0  0  0  0999 V2000
   -0.0760   -1.5710    0.0000 O   0  0  0  0  0  0  0  0  0  0  0  0
    1.2230   -0.8210    0.0000 C   0  0  0  0  0  0  0  0  0  0  0  0
    1.2230    0.6790    0.0000 O   0  0  0  0  0  0  0  0  0  0  0  0
    2.5220   -1.5710    0.0000 C   0  0  0  0  0  0  0  0  0  0  0  0
    3.8210   -0.8210    0.0000 C   0  0  0  0  0  0  0  0  0  0  0  0
    5.1200   -1.5710    0.0000 C   0  0  0  0  0  0  0  0  0  0  0  0
    6.4190   -0.8210    0.0000 O   0  0  0  0  0  0  0  0  0  0  0  0
  1  2  2  0  0  0  0
  2  3  1  0  0  0  0
  2  4  1  0  0  0  0
  4  5  1  0  0  0  0
  5  6  1  0  0  0  0
  6  7  2  0  0  0  0
M  END
>  <name>
O=C(O)CC[C;ester]=O

>  <apo>
1

>  <freq>
5

>  <freq0>
0

>  <freq1>
5

>  <freqA>
4.9981179

>  <a_count>
13

$$$$

  MOE2015           2D

  7  7  0  0  0  0  0  0  0  0999 V2000
    5.1430    0.0000    0.0000 O   0  0  0  0  0  0  0  0  0  0  0  0
    3.6430    0.0000    0.0000 C   0  0  0  0  0  0  0  0  0  0  0  0
    2.8930    1.2990    0.0000 C   0  0  0  0  0  0  0  0  0  0  0  0
    1.3930    1.2990    0.0000 C   0  0  0  0  0  0  0  0  0  0  0  0
    0.6430    0.0000    0.0000 C   0  0  0  0  0  0  0  0  0  0  0  0
    1.3930   -1.2990    0.0000 C   0  0  0  0  0  0  0  0  0  0  0  0
    2.8930   -1.2990    0.0000 C   0  0  0  0  0  0  0  0  0  0  0  0
  1  2  1  0  0  0  0
  2  3  1  0  0  0  0
  2  7  2  0  0  0  0
  3  4  2  0  0  0  0
  4  5  1  0  0  0  0
  5  6  2  0  0  0  0
  6  7  1  0  0  0  0
M  END
>  <name>
[O;ether]c1cc[c;biphenyl]cc1

>  <apo>
2

>  <freq>
5

>  <freq0>
0

>  <freq1>
5

>  <freqA>
4.9981179

>  <a_count>
13

$$$$

  MOE2015           2D

  6  6  0  0  0  0  0  0  0  0999 V2000
   -2.0490    2.0490    0.0000 C   0  0  0  0  0  0  0  0  0  0  0  0
   -2.0490    0.5490    0.0000 C   0  0  0  0  0  0  0  0  0  0  0  0
   -0.7500   -0.2010    0.0000 C   0  0  0  0  0  0  0  0  0  0  0  0
    0.5490    0.5490    0.0000 C   0  0  0  0  0  0  0  0  0  0  0  0
    0.5490    2.0490    0.0000 C   0  0  0  0  0  0  0  0  0  0  0  0
   -0.7500    2.7990    0.0000 C   0  0  0  0  0  0  0  0  0  0  0  0
  1  2  1  0  0  0  0
  1  6  2  0  0  0  0
  2  3  2  0  0  0  0
  3  4  1  0  0  0  0
  4  5  2  0  0  0  0
  5  6  1  0  0  0  0
M  END
>  <name>
[c;biphenyl]1[c;biphenyl]cccc1

>  <apo>
2

>  <freq>
5

>  <freq0>
0

>  <freq1>
5

>  <freqA>
4.9981179

>  <a_count>
12

$$$$

  MOE2015           2D

  5  4  0  0  0  0  0  0  0  0999 V2000
    0.1310   -1.0100    0.0000 O   0  0  0  0  0  0  0  0  0  0  0  0
    1.4300   -0.2600    0.0000 C   0  0  0  0  0  0  0  0  0  0  0  0
    2.7290   -1.0100    0.0000 O   0  0  0  0  0  0  0  0  0  0  0  0
    4.0280   -0.2600    0.0000 C   0  0  0  0  0  0  0  0  0  0  0  0
    1.4300    1.2400    0.0000 C   0  0  0  0  0  0  0  0  0  0  0  0
  1  2  2  0  0  0  0
  2  3  1  0  0  0  0
  2  5  1  0  0  0  0
  3  4  1  0  0  0  0
M  END
>  <name>
O=C(OC)[C;olefin]

>  <apo>
1

>  <freq>
5

>  <freq0>
0

>  <freq1>
5

>  <freqA>
4.9981179

>  <a_count>
11

$$$$

  MOE2015           2D

  3  2  0  0  0  0  0  0  0  0999 V2000
    0.2500    0.0670    0.0000 C   0  0  0  0  0  0  0  0  0  0  0  0
    1.5490   -0.6830    0.0000 C   0  0  0  0  0  0  0  0  0  0  0  0
   -1.0490   -0.6830    0.0000 C   0  0  0  0  0  0  0  0  0  0  0  0
  1  2  1  0  0  0  0
  1  3  1  0  0  0  0
M  END
>  <name>
[C;quatN](C)C

>  <apo>
1

>  <freq>
5

>  <freq0>
0

>  <freq1>
5

>  <freqA>
4.9981179

>  <a_count>
11

$$$$

  MOE2015           2D

 26 29  0  0  1  0  0  0  0  0999 V2000
    8.5510   -5.8990    0.0000 O   0  0  0  0  0  0  0  0  0  0  0  0
    8.0180   -4.4970    0.0000 C   0  0  0  0  0  0  0  0  0  0  0  0
    8.9660   -3.3350    0.0000 C   0  0  0  0  0  0  0  0  0  0  0  0
   10.4470   -3.5750    0.0000 O   0  0  0  0  0  0  0  0  0  0  0  0
    6.5370   -4.2570    0.0000 C   0  0  2  0  0  0  0  0  0  0  0  0
    7.0210   -5.6770    0.0000 O   0  0  0  0  0  0  0  0  0  0  0  0
    5.0690   -4.5640    0.0000 C   0  0  2  0  0  0  0  0  0  0  0  0
    5.9250   -5.7950    0.0000 C   0  0  0  0  0  0  0  0  0  0  0  0
    4.3240   -3.2620    0.0000 C   0  0  2  0  0  0  0  0  0  0  0  0
    2.8240   -3.2570    0.0000 C   0  0  1  0  0  0  0  0  0  0  0  0
    2.0690   -4.5530    0.0000 C   0  0  2  0  0  0  0  0  0  0  0  0
    2.8140   -5.8550    0.0000 C   0  0  1  0  0  0  0  0  0  0  0  0
    2.0600   -7.1510    0.0000 O   0  0  0  0  0  0  0  0  0  0  0  0
    4.3140   -5.8600    0.0000 C   0  0  0  0  0  0  0  0  0  0  0  0
    0.5690   -4.5470    0.0000 C   0  0  2  0  0  0  0  0  0  0  0  0
    1.3140   -5.8490    0.0000 C   0  0  0  0  0  0  0  0  0  0  0  0
   -0.1760   -3.2460    0.0000 C   0  0  0  0  0  0  0  0  0  0  0  0
   -1.6760   -3.2400    0.0000 C   0  0  0  0  0  0  0  0  0  0  0  0
   -2.4310   -4.5370    0.0000 C   0  0  0  0  0  0  0  0  0  0  0  0
   -3.9310   -4.5310    0.0000 O   0  0  0  0  0  0  0  0  0  0  0  0
   -1.6860   -5.8380    0.0000 C   0  0  0  0  0  0  0  0  0  0  0  0
   -0.1860   -5.8440    0.0000 C   0  0  0  0  0  0  0  0  0  0  0  0
    0.5780   -1.9490    0.0000 C   0  0  0  0  0  0  0  0  0  0  0  0
    2.0780   -1.9550    0.0000 C   0  0  0  0  0  0  0  0  0  0  0  0
    5.3310   -2.1510    0.0000 C   0  0  0  0  0  0  0  0  0  0  0  0
    6.7000   -2.7660    0.0000 C   0  0  0  0  0  0  0  0  0  0  0  0
  1  2  2  0  0  0  0
  2  3  1  0  0  0  0
  5  2  1  6  0  0  0
  3  4  1  0  0  0  0
  5  6  1  1  0  0  0
  5  7  1  0  0  0  0
  5 26  1  0  0  0  0
  7  8  1  6  0  0  0
  7  9  1  0  0  0  0
  7 14  1  0  0  0  0
  9 10  1  0  0  0  0
  9 25  1  6  0  0  0
 10 11  1  0  0  0  0
 10 24  1  1  0  0  0
 11 12  1  0  0  0  0
 11 15  1  6  0  0  0
 12 13  1  6  0  0  0
 12 14  1  0  0  0  0
 15 16  1  6  0  0  0
 15 17  1  0  0  0  0
 15 22  1  0  0  0  0
 17 18  2  0  0  0  0
 17 23  1  0  0  0  0
 18 19  1  0  0  0  0
 19 20  2  0  0  0  0
 19 21  1  0  0  0  0
 21 22  1  0  0  0  0
 23 24  1  0  0  0  0
 25 26  1  0  0  0  0
M  END
>  <name>
O=C(C[O;ester])[C@]1(O)[C@]2(C)[C@H]([C@H]3[C@H]([C@@H](O)C2)[C@]2(C)C(=CC(=O)CC2)CC3)CC1

>  <apo>
1

>  <freq>
4

>  <freq0>
0

>  <freq1>
4

>  <freqA>
3.9981933

>  <a_count>
56

$$$$

  MOE2015           2D

 21 24  0  0  1  0  0  0  0  0999 V2000
   12.4420   -0.5860    0.0000 O   0  0  0  0  0  0  0  0  0  0  0  0
   10.9420   -0.5960    0.0000 C   0  0  0  0  0  0  0  0  0  0  0  0
   10.1840    0.6990    0.0000 C   0  0  0  0  0  0  0  0  0  0  0  0
    8.6840    0.6890    0.0000 C   0  0  0  0  0  0  0  0  0  0  0  0
    7.9420   -0.6140    0.0000 C   0  0  1  0  0  0  0  0  0  0  0  0
    7.1550   -1.8910    0.0000 C   0  0  0  0  0  0  0  0  0  0  0  0
    6.4420   -0.6240    0.0000 C   0  0  2  0  0  0  0  0  0  0  0  0
    5.6840    0.6710    0.0000 C   0  0  2  0  0  0  0  0  0  0  0  0
    4.1840    0.6610    0.0000 C   0  0  1  0  0  0  0  0  0  0  0  0
    3.4420   -0.6420    0.0000 C   0  0  1  0  0  0  0  0  0  0  0  0
    2.5470   -1.8460    0.0000 C   0  0  0  0  0  0  0  0  0  0  0  0
    1.9730   -0.3400    0.0000 C   0  0  1  0  0  0  0  0  0  0  0  0
    0.8650   -1.3500    0.0000 O   0  0  0  0  0  0  0  0  0  0  0  0
    1.8070    1.1510    0.0000 C   0  0  0  0  0  0  0  0  0  0  0  0
    3.1740    1.7700    0.0000 C   0  0  0  0  0  0  0  0  0  0  0  0
    4.2010   -1.9370    0.0000 C   0  0  0  0  0  0  0  0  0  0  0  0
    5.7010   -1.9270    0.0000 C   0  0  0  0  0  0  0  0  0  0  0  0
    6.4260    1.9740    0.0000 C   0  0  0  0  0  0  0  0  0  0  0  0
    7.9260    1.9840    0.0000 C   0  0  0  0  0  0  0  0  0  0  0  0
    8.7000   -1.9090    0.0000 C   0  0  0  0  0  0  0  0  0  0  0  0
   10.2000   -1.8990    0.0000 C   0  0  0  0  0  0  0  0  0  0  0  0
  1  2  2  0  0  0  0
  2  3  1  0  0  0  0
  2 21  1  0  0  0  0
  3  4  2  0  0  0  0
  4  5  1  0  0  0  0
  4 19  1  0  0  0  0
  5  6  1  1  0  0  0
  5  7  1  0  0  0  0
  5 20  1  0  0  0  0
  7  8  1  0  0  0  0
  7 17  1  1  0  0  0
  8  9  1  0  0  0  0
  8 18  1  6  0  0  0
  9 10  1  0  0  0  0
  9 15  1  1  0  0  0
 10 11  1  1  0  0  0
 10 12  1  0  0  0  0
 10 16  1  0  0  0  0
 12 13  1  1  0  0  0
 12 14  1  0  0  0  0
 14 15  1  0  0  0  0
 16 17  1  0  0  0  0
 18 19  1  0  0  0  0
 20 21  1  0  0  0  0
M  END
>  <name>
O=C1C=C2[C@@](C)([C@@H]3[C@H]([C@H]4[C@@](C)([C@@H]([O;ester])CC4)CC3)CC2)CC1

>  <apo>
1

>  <freq>
4

>  <freq0>
0

>  <freq1>
4

>  <freqA>
3.9981933

>  <a_count>
49

$$$$

  MOE2015           2D

 23 24  0  0  1  0  0  0  0  0999 V2000
    6.3440   -2.6920    0.0000 O   0  0  0  0  0  0  0  0  0  0  0  0
    6.3440   -4.1920    0.0000 N   0  3  0  0  0  0  0  0  0  0  0  0
    7.6440   -4.9420    0.0000 O   0  5  0  0  0  0  0  0  0  0  0  0
    5.0450   -4.9420    0.0000 C   0  0  0  0  0  0  0  0  0  0  0  0
    3.7460   -4.1920    0.0000 C   0  0  0  0  0  0  0  0  0  0  0  0
    2.4470   -4.9420    0.0000 C   0  0  0  0  0  0  0  0  0  0  0  0
    1.1480   -4.1920    0.0000 C   0  0  3  0  0  0  0  0  0  0  0  0
   -0.1510   -4.9420    0.0000 C   0  0  0  0  0  0  0  0  0  0  0  0
   -0.1510   -6.4420    0.0000 C   0  0  0  0  0  0  0  0  0  0  0  0
    1.1480   -7.1920    0.0000 O   0  0  0  0  0  0  0  0  0  0  0  0
   -1.4500   -7.1920    0.0000 O   0  0  0  0  0  0  0  0  0  0  0  0
   -1.4500   -8.6920    0.0000 C   0  0  0  0  0  0  0  0  0  0  0  0
   -1.4500   -4.1920    0.0000 C   0  0  0  0  0  0  0  0  0  0  0  0
   -2.7490   -4.9420    0.0000 C   0  0  0  0  0  0  0  0  0  0  0  0
   -1.4500   -2.6920    0.0000 N   0  0  0  0  0  0  0  0  0  0  0  0
   -0.1510   -1.9420    0.0000 C   0  0  0  0  0  0  0  0  0  0  0  0
   -0.1510   -0.4420    0.0000 C   0  0  0  0  0  0  0  0  0  0  0  0
    1.1480   -2.6920    0.0000 C   0  0  0  0  0  0  0  0  0  0  0  0
    2.4470   -1.9420    0.0000 C   0  0  0  0  0  0  0  0  0  0  0  0
    2.4470   -0.4420    0.0000 O   0  0  0  0  0  0  0  0  0  0  0  0
    2.4470   -6.4420    0.0000 C   0  0  0  0  0  0  0  0  0  0  0  0
    3.7460   -7.1920    0.0000 C   0  0  0  0  0  0  0  0  0  0  0  0
    5.0450   -6.4420    0.0000 C   0  0  0  0  0  0  0  0  0  0  0  0
  1  2  2  0  0  0  0
  2  3  1  0  0  0  0
  2  4  1  0  0  0  0
  4  5  1  0  0  0  0
  4 23  2  0  0  0  0
  5  6  2  0  0  0  0
  6  7  1  0  0  0  0
  6 21  1  0  0  0  0
  7  8  1  0  0  0  0
  7 18  1  0  0  0  0
  8  9  1  0  0  0  0
  8 13  2  0  0  0  0
  9 10  2  0  0  0  0
  9 11  1  0  0  0  0
 11 12  1  0  0  0  0
 13 14  1  0  0  0  0
 13 15  1  0  0  0  0
 15 16  1  0  0  0  0
 16 17  1  0  0  0  0
 16 18  2  0  0  0  0
 18 19  1  0  0  0  0
 19 20  2  0  0  0  0
 21 22  2  0  0  0  0
 22 23  1  0  0  0  0
M  CHG  1   2   1
M  CHG  1   3  -1
M  END
>  <name>
O=[N+]([O-])c1cc(C2C(C(=O)OC)=C(C)NC(C)=C2[C;ester]=O)ccc1

>  <apo>
1

>  <freq>
4

>  <freq0>
0

>  <freq1>
4

>  <freqA>
3.9981933

>  <a_count>
39

$$$$

  MOE2015           2D

 13 14  0  0  1  0  0  0  0  0999 V2000
    0.3230   -2.1070    0.0000 C   0  0  0  0  0  0  0  0  0  0  0  0
    1.7540   -1.6580    0.0000 C   0  0  0  0  0  0  0  0  0  0  0  0
   -0.0040   -3.5710    0.0000 C   0  0  0  0  0  0  0  0  0  0  0  0
   -0.7820   -1.0920    0.0000 C   0  0  2  0  0  0  0  0  0  0  0  0
   -2.2520   -1.3890    0.0000 C   0  0  1  0  0  0  0  0  0  0  0  0
   -1.4040   -2.6270    0.0000 C   0  0  0  0  0  0  0  0  0  0  0  0
   -2.9890   -0.0830    0.0000 C   0  0  2  0  0  0  0  0  0  0  0  0
   -1.9740    1.0220    0.0000 C   0  0  0  0  0  0  0  0  0  0  0  0
   -0.6100    0.3980    0.0000 C   0  0  0  0  0  0  0  0  0  0  0  0
   -4.4890   -0.0680    0.0000 C   0  0  0  0  0  0  0  0  0  0  0  0
   -5.2520   -1.3590    0.0000 C   0  0  0  0  0  0  0  0  0  0  0  0
   -4.5150   -2.6660    0.0000 C   0  0  0  0  0  0  0  0  0  0  0  0
   -3.0150   -2.6810    0.0000 C   0  0  0  0  0  0  0  0  0  0  0  0
  1  2  1  0  0  0  0
  1  3  1  0  0  0  0
  4  1  1  6  0  0  0
  4  5  1  0  0  0  0
  4  9  1  0  0  0  0
  5  6  1  1  0  0  0
  5  7  1  0  0  0  0
  5 13  1  0  0  0  0
  7  8  1  1  0  0  0
  7 10  1  0  0  0  0
  8  9  1  0  0  0  0
 10 11  1  0  0  0  0
 11 12  1  0  0  0  0
 12 13  1  0  0  0  0
M  END
>  <name>
C(C)([C;olefin])[C@@H]1[C@@]2(C)[C@H](CC1)[C;olefin]CCC2

>  <apo>
2

>  <freq>
4

>  <freq0>
0

>  <freq1>
4

>  <freqA>
3.9981933

>  <a_count>
37

$$$$

  MOE2015           2D

 11 10  0  0  0  0  0  0  0  0999 V2000
   -0.4550    1.6980    0.0000 O   0  0  0  0  0  0  0  0  0  0  0  0
    0.8440    2.4480    0.0000 C   0  0  0  0  0  0  0  0  0  0  0  0
    0.8440    3.9480    0.0000 O   0  0  0  0  0  0  0  0  0  0  0  0
    2.1430    1.6980    0.0000 C   0  0  0  0  0  0  0  0  0  0  0  0
    3.4420    2.4480    0.0000 C   0  0  0  0  0  0  0  0  0  0  0  0
    4.7410    1.6980    0.0000 C   0  0  0  0  0  0  0  0  0  0  0  0
    6.0400    2.4480    0.0000 C   0  0  0  0  0  0  0  0  0  0  0  0
    7.3390    1.6980    0.0000 C   0  0  0  0  0  0  0  0  0  0  0  0
    8.6380    2.4480    0.0000 C   0  0  0  0  0  0  0  0  0  0  0  0
    9.9370    1.6980    0.0000 C   0  0  0  0  0  0  0  0  0  0  0  0
   11.2360    2.4480    0.0000 C   0  0  0  0  0  0  0  0  0  0  0  0
  1  2  2  0  0  0  0
  2  3  1  0  0  0  0
  2  4  1  0  0  0  0
  4  5  1  0  0  0  0
  5  6  1  0  0  0  0
  6  7  1  0  0  0  0
  7  8  1  0  0  0  0
  8  9  1  0  0  0  0
  9 10  1  0  0  0  0
 10 11  1  0  0  0  0
M  END
>  <name>
O=C(O)CCCCCCC[C;olefin]

>  <apo>
1

>  <freq>
4

>  <freq0>
0

>  <freq1>
4

>  <freqA>
3.9981933

>  <a_count>
29

$$$$

  MOE2015           2D

 15 17  0  0  0  0  0  0  0  0999 V2000
    1.6210   -0.9770    0.0000 N   0  0  0  0  0  0  0  0  0  0  0  0
    2.7570    0.0020    0.0000 C   0  0  0  0  0  0  0  0  0  0  0  0
    2.7010    1.5010    0.0000 C   0  0  0  0  0  0  0  0  0  0  0  0
    3.9710    2.3000    0.0000 C   0  0  0  0  0  0  0  0  0  0  0  0
    5.2970    1.5990    0.0000 C   0  0  0  0  0  0  0  0  0  0  0  0
    5.3530    0.1000    0.0000 C   0  0  0  0  0  0  0  0  0  0  0  0
    4.0830   -0.6980    0.0000 C   0  0  0  0  0  0  0  0  0  0  0  0
    1.4940    2.3930    0.0000 C   0  0  0  0  0  0  0  0  0  0  0  0
    0.0450    2.0060    0.0000 C   0  0  0  0  0  0  0  0  0  0  0  0
   -0.5540    0.6290    0.0000 C   0  0  0  0  0  0  0  0  0  0  0  0
    0.1470   -0.6970    0.0000 C   0  0  0  0  0  0  0  0  0  0  0  0
   -0.6510   -1.9670    0.0000 C   0  0  0  0  0  0  0  0  0  0  0  0
   -2.1500   -1.9110    0.0000 C   0  0  0  0  0  0  0  0  0  0  0  0
   -2.8510   -0.5840    0.0000 C   0  0  0  0  0  0  0  0  0  0  0  0
   -2.0530    0.6860    0.0000 C   0  0  0  0  0  0  0  0  0  0  0  0
  1  2  1  0  0  0  0
  1 11  1  0  0  0  0
  2  3  1  0  0  0  0
  2  7  2  0  0  0  0
  3  4  2  0  0  0  0
  3  8  1  0  0  0  0
  4  5  1  0  0  0  0
  5  6  2  0  0  0  0
  6  7  1  0  0  0  0
  8  9  1  0  0  0  0
  9 10  1  0  0  0  0
 10 11  1  0  0  0  0
 10 15  2  0  0  0  0
 11 12  2  0  0  0  0
 12 13  1  0  0  0  0
 13 14  2  0  0  0  0
 14 15  1  0  0  0  0
M  END
>  <name>
[N;amine]1c2c(cccc2)CCc2c1cccc2

>  <apo>
1

>  <freq>
4

>  <freq0>
0

>  <freq1>
4

>  <freqA>
3.9981933

>  <a_count>
28

$$$$

  MOE2015           2D

 15 16  0  0  1  0  0  0  0  0999 V2000
    1.4620    5.0230    0.0000 O   0  0  0  0  0  0  0  0  0  0  0  0
    0.7120    3.7240    0.0000 C   0  0  0  0  0  0  0  0  0  0  0  0
   -0.7880    3.7240    0.0000 O   0  0  0  0  0  0  0  0  0  0  0  0
    1.4620    2.4250    0.0000 C   0  0  0  0  0  0  0  0  0  0  0  0
    0.7120    1.1260    0.0000 C   0  0  0  0  0  0  0  0  0  0  0  0
   -0.7880    1.1260    0.0000 C   0  0  0  0  0  0  0  0  0  0  0  0
   -1.5380   -0.1730    0.0000 O   0  0  0  0  0  0  0  0  0  0  0  0
    1.4620   -0.1730    0.0000 C   0  0  0  0  0  0  0  0  0  0  0  0
    2.9620   -0.1730    0.0000 S   0  0  0  0  0  0  0  0  0  0  0  0
    3.7120    1.1260    0.0000 C   0  0  2  0  0  0  0  0  0  0  0  0
    5.0110    1.8760    0.0000 C   0  0  2  0  0  0  0  0  0  0  0  0
    6.4600    1.4880    0.0000 N   0  0  0  0  0  0  0  0  0  0  0  0
    4.2610    3.1750    0.0000 C   0  0  0  0  0  0  0  0  0  0  0  0
    4.6490    4.6240    0.0000 O   0  0  0  0  0  0  0  0  0  0  0  0
    2.9620    2.4250    0.0000 N   0  0  0  0  0  0  0  0  0  0  0  0
  1  2  2  0  0  0  0
  2  3  1  0  0  0  0
  2  4  1  0  0  0  0
  4  5  2  0  0  0  0
  4 15  1  0  0  0  0
  5  6  1  0  0  0  0
  5  8  1  0  0  0  0
  6  7  1  0  0  0  0
  8  9  1  0  0  0  0
 10  9  1  1  0  0  0
 10 11  1  0  0  0  0
 10 15  1  0  0  0  0
 11 12  1  1  0  0  0
 11 13  1  0  0  0  0
 13 14  2  0  0  0  0
 13 15  1  0  0  0  0
M  END
>  <name>
O=C(O)C1=C(C[O;ester])CS[C@@H]2[C@H]([N;amide])C(=O)N12

>  <apo>
2

>  <freq>
4

>  <freq0>
0

>  <freq1>
4

>  <freqA>
3.9981933

>  <a_count>
25

$$$$

  MOE2015           2D

 11 10  0  0  1  0  0  0  0  0999 V2000
   10.0870   -2.0210    0.0000 O   0  0  0  0  0  0  0  0  0  0  0  0
    8.7880   -2.7710    0.0000 C   0  0  0  0  0  0  0  0  0  0  0  0
    7.4890   -2.0210    0.0000 C   0  0  2  0  0  0  0  0  0  0  0  0
    7.4890   -0.5210    0.0000 N   0  0  0  0  0  0  0  0  0  0  0  0
    6.1900   -2.7710    0.0000 C   0  0  0  0  0  0  0  0  0  0  0  0
    4.8910   -2.0210    0.0000 C   0  0  0  0  0  0  0  0  0  0  0  0
    3.5920   -2.7710    0.0000 C   0  0  0  0  0  0  0  0  0  0  0  0
    2.2930   -2.0210    0.0000 N   0  0  0  0  0  0  0  0  0  0  0  0
    0.9940   -2.7710    0.0000 C   0  0  0  0  0  0  0  0  0  0  0  0
   -0.3050   -2.0210    0.0000 N   0  0  0  0  0  0  0  0  0  0  0  0
    0.9940   -4.2710    0.0000 N   0  0  0  0  0  0  0  0  0  0  0  0
  1  2  2  0  0  0  0
  2  3  1  0  0  0  0
  3  4  1  1  0  0  0
  3  5  1  0  0  0  0
  5  6  1  0  0  0  0
  6  7  1  0  0  0  0
  7  8  1  0  0  0  0
  8  9  1  0  0  0  0
  9 10  2  0  0  0  0
  9 11  1  0  0  0  0
M  END
>  <name>
O=[C;amide][C@H]([N;amide])CCCNC(=N)N

>  <apo>
2

>  <freq>
4

>  <freq0>
0

>  <freq1>
4

>  <freqA>
3.9981933

>  <a_count>
25

$$$$

  MOE2015           2D

 13 14  0  0  0  0  0  0  0  0999 V2000
    0.6920   -2.5840    0.0000 C   0  0  0  0  0  0  0  0  0  0  0  0
   -0.6070   -1.8340    0.0000 C   0  0  0  0  0  0  0  0  0  0  0  0
   -1.9060   -2.5840    0.0000 C   0  0  0  0  0  0  0  0  0  0  0  0
   -3.2050   -1.8340    0.0000 C   0  0  0  0  0  0  0  0  0  0  0  0
   -3.2050   -0.3340    0.0000 C   0  0  0  0  0  0  0  0  0  0  0  0
   -1.9060    0.4160    0.0000 C   0  0  0  0  0  0  0  0  0  0  0  0
   -0.6070   -0.3340    0.0000 C   0  0  0  0  0  0  0  0  0  0  0  0
    1.9910   -1.8340    0.0000 C   0  0  0  0  0  0  0  0  0  0  0  0
    1.9910   -0.3340    0.0000 C   0  0  0  0  0  0  0  0  0  0  0  0
    3.2900    0.4160    0.0000 C   0  0  0  0  0  0  0  0  0  0  0  0
    4.5890   -0.3340    0.0000 C   0  0  0  0  0  0  0  0  0  0  0  0
    4.5890   -1.8340    0.0000 C   0  0  0  0  0  0  0  0  0  0  0  0
    3.2900   -2.5840    0.0000 C   0  0  0  0  0  0  0  0  0  0  0  0
  1  2  1  0  0  0  0
  1  8  1  0  0  0  0
  2  3  1  0  0  0  0
  2  7  2  0  0  0  0
  3  4  2  0  0  0  0
  4  5  1  0  0  0  0
  5  6  2  0  0  0  0
  6  7  1  0  0  0  0
  8  9  1  0  0  0  0
  8 13  2  0  0  0  0
  9 10  2  0  0  0  0
 10 11  1  0  0  0  0
 11 12  2  0  0  0  0
 12 13  1  0  0  0  0
M  END
>  <name>
[C;amine](c1ccccc1)c1ccccc1

>  <apo>
1

>  <freq>
4

>  <freq0>
0

>  <freq1>
4

>  <freqA>
3.9981933

>  <a_count>
25

$$$$

  MOE2015           2D

 10 11  0  0  1  0  0  0  0  0999 V2000
    6.4800   -0.5090    0.0000 O   0  0  0  0  0  0  0  0  0  0  0  0
    5.1870   -1.2700    0.0000 C   0  0  0  0  0  0  0  0  0  0  0  0
    3.9650   -1.4890    0.0000 C   0  0  0  0  0  0  0  0  0  0  0  0
    2.4050   -0.6040    0.0000 C   0  0  2  0  0  0  0  0  0  0  0  0
    1.4490   -1.7850    0.0000 N   0  0  0  0  0  0  0  0  0  0  0  0
    0.1480   -2.5300    0.0000 C   0  0  0  0  0  0  0  0  0  0  0  0
    2.7490   -1.5870    0.0000 C   0  0  2  0  0  0  0  0  0  0  0  0
    4.2210   -2.4520    0.0000 C   0  0  0  0  0  0  0  0  0  0  0  0
    2.8770   -0.1530    0.0000 C   0  0  0  0  0  0  0  0  0  0  0  0
    2.2250    1.0110    0.0000 C   0  0  0  0  0  0  0  0  0  0  0  0
  1  2  1  0  0  0  0
  2  3  1  0  0  0  0
  2  8  1  0  0  0  0
  4  3  1  6  0  0  0
  4  5  1  0  0  0  0
  4 10  1  0  0  0  0
  5  6  1  0  0  0  0
  7  5  1  1  0  0  0
  7  8  1  0  0  0  0
  7  9  1  0  0  0  0
  9 10  1  0  0  0  0
M  END
>  <name>
[O;ester]C1C[C@@H]2N(C)[C@H](C1)CC2

>  <apo>
1

>  <freq>
4

>  <freq0>
0

>  <freq1>
4

>  <freqA>
3.9981933

>  <a_count>
25

$$$$

  MOE2015           2D

 10 10  0  0  0  0  0  0  0  0999 V2000
    7.3870   -1.9790    0.0000 O   0  0  0  0  0  0  0  0  0  0  0  0
    6.0880   -1.2290    0.0000 C   0  0  0  0  0  0  0  0  0  0  0  0
    4.7890   -1.9790    0.0000 N   0  0  0  0  0  0  0  0  0  0  0  0
    3.4900   -1.2290    0.0000 C   0  0  0  0  0  0  0  0  0  0  0  0
    3.4900    0.2710    0.0000 C   0  0  0  0  0  0  0  0  0  0  0  0
    2.1910    1.0210    0.0000 C   0  0  0  0  0  0  0  0  0  0  0  0
    0.8920    0.2710    0.0000 C   0  0  0  0  0  0  0  0  0  0  0  0
    0.8920   -1.2290    0.0000 C   0  0  0  0  0  0  0  0  0  0  0  0
    2.1910   -1.9790    0.0000 C   0  0  0  0  0  0  0  0  0  0  0  0
    6.0880    0.2710    0.0000 N   0  0  0  0  0  0  0  0  0  0  0  0
  1  2  2  0  0  0  0
  2  3  1  0  0  0  0
  2 10  1  0  0  0  0
  3  4  1  0  0  0  0
  4  5  1  0  0  0  0
  4  9  1  0  0  0  0
  5  6  1  0  0  0  0
  6  7  1  0  0  0  0
  7  8  1  0  0  0  0
  8  9  1  0  0  0  0
M  END
>  <name>
O=C(NC1CCCCC1)[N;so2amide]

>  <apo>
1

>  <freq>
4

>  <freq0>
0

>  <freq1>
4

>  <freqA>
3.9981933

>  <a_count>
24

$$$$

  MOE2015           2D

 14 15  0  0  1  0  0  0  0  0999 V2000
    0.9240    5.0110    0.0000 O   0  0  0  0  0  0  0  0  0  0  0  0
    0.1740    3.7120    0.0000 C   0  0  0  0  0  0  0  0  0  0  0  0
   -1.3260    3.7120    0.0000 O   0  0  0  0  0  0  0  0  0  0  0  0
    0.9240    2.4120    0.0000 C   0  0  0  0  0  0  0  0  0  0  0  0
    0.1740    1.1130    0.0000 C   0  0  0  0  0  0  0  0  0  0  0  0
   -1.3260    1.1130    0.0000 C   0  0  0  0  0  0  0  0  0  0  0  0
    0.9240   -0.1860    0.0000 C   0  0  0  0  0  0  0  0  0  0  0  0
    2.4240   -0.1860    0.0000 S   0  0  0  0  0  0  0  0  0  0  0  0
    3.1740    1.1130    0.0000 C   0  0  2  0  0  0  0  0  0  0  0  0
    4.4730    1.8630    0.0000 C   0  0  2  0  0  0  0  0  0  0  0  0
    5.9220    1.4750    0.0000 N   0  0  0  0  0  0  0  0  0  0  0  0
    3.7230    3.1620    0.0000 C   0  0  0  0  0  0  0  0  0  0  0  0
    4.1110    4.6110    0.0000 O   0  0  0  0  0  0  0  0  0  0  0  0
    2.4240    2.4120    0.0000 N   0  0  0  0  0  0  0  0  0  0  0  0
  1  2  2  0  0  0  0
  2  3  1  0  0  0  0
  2  4  1  0  0  0  0
  4  5  2  0  0  0  0
  4 14  1  0  0  0  0
  5  6  1  0  0  0  0
  5  7  1  0  0  0  0
  7  8  1  0  0  0  0
  9  8  1  1  0  0  0
  9 10  1  0  0  0  0
  9 14  1  0  0  0  0
 10 11  1  1  0  0  0
 10 12  1  0  0  0  0
 12 13  2  0  0  0  0
 12 14  1  0  0  0  0
M  END
>  <name>
O=C(O)C1=C([C;olefin])CS[C@@H]2[C@H]([N;amide])C(=O)N12

>  <apo>
2

>  <freq>
4

>  <freq0>
0

>  <freq1>
4

>  <freqA>
3.9981933

>  <a_count>
24

$$$$

  MOE2015           2D

 10  9  0  0  1  0  0  0  0  0999 V2000
   -0.3520   -1.3140    0.0000 O   0  0  0  0  0  0  0  0  0  0  0  0
    0.9470   -2.0640    0.0000 C   0  0  0  0  0  0  0  0  0  0  0  0
    0.9470   -3.5640    0.0000 O   0  0  0  0  0  0  0  0  0  0  0  0
    2.2460   -1.3140    0.0000 C   0  0  1  0  0  0  0  0  0  0  0  0
    2.2460    0.1860    0.0000 N   0  0  0  0  0  0  0  0  0  0  0  0
    3.5450   -2.0640    0.0000 C   0  0  0  0  0  0  0  0  0  0  0  0
    4.8440   -1.3140    0.0000 C   0  0  0  0  0  0  0  0  0  0  0  0
    6.1430   -2.0640    0.0000 C   0  0  0  0  0  0  0  0  0  0  0  0
    7.4420   -1.3140    0.0000 C   0  0  0  0  0  0  0  0  0  0  0  0
    8.7410   -2.0640    0.0000 N   0  0  0  0  0  0  0  0  0  0  0  0
  1  2  2  0  0  0  0
  2  3  1  0  0  0  0
  2  4  1  0  0  0  0
  4  5  1  1  0  0  0
  4  6  1  0  0  0  0
  6  7  1  0  0  0  0
  7  8  1  0  0  0  0
  8  9  1  0  0  0  0
  9 10  1  0  0  0  0
M  END
>  <name>
O=C(O)[C@@H]([N;urea])CCCC[N;amide]

>  <apo>
2

>  <freq>
4

>  <freq0>
0

>  <freq1>
4

>  <freqA>
3.9981933

>  <a_count>
24

$$$$

  MOE2015           2D

 11 11  0  0  1  0  0  0  0  0999 V2000
    6.5450    0.4720    0.0000 O   0  0  0  0  0  0  0  0  0  0  0  0
    5.7950    1.7710    0.0000 C   0  0  0  0  0  0  0  0  0  0  0  0
    4.2950    1.7710    0.0000 C   0  0  2  0  0  0  0  0  0  0  0  0
    3.5450    3.0700    0.0000 C   0  0  1  0  0  0  0  0  0  0  0  0
    4.2950    4.3690    0.0000 O   0  0  0  0  0  0  0  0  0  0  0  0
    2.0450    3.0700    0.0000 C   0  0  1  0  0  0  0  0  0  0  0  0
    1.2950    4.3690    0.0000 N   0  0  0  0  0  0  0  0  0  0  0  0
    1.2950    1.7710    0.0000 C   0  0  1  0  0  0  0  0  0  0  0  0
   -0.2050    1.7710    0.0000 O   0  0  0  0  0  0  0  0  0  0  0  0
    2.0450    0.4720    0.0000 C   0  0  0  0  0  0  0  0  0  0  0  0
    3.5450    0.4720    0.0000 O   0  0  0  0  0  0  0  0  0  0  0  0
  1  2  1  0  0  0  0
  3  2  1  1  0  0  0
  3  4  1  0  0  0  0
  3 11  1  0  0  0  0
  4  5  1  6  0  0  0
  4  6  1  0  0  0  0
  6  7  1  6  0  0  0
  6  8  1  0  0  0  0
  8  9  1  6  0  0  0
  8 10  1  0  0  0  0
 10 11  1  0  0  0  0
M  END
>  <name>
OC[C@@H]1[C@@H](O)[C@@H](N)[C@@H](O)[C;ether]O1

>  <apo>
1

>  <freq>
4

>  <freq0>
0

>  <freq1>
4

>  <freqA>
3.9981933

>  <a_count>
24

$$$$

  MOE2015           2D

 12 12  0  0  1  0  0  0  0  0999 V2000
    8.8090    3.4850    0.0000 O   0  0  0  0  0  0  0  0  0  0  0  0
    7.5100    4.2350    0.0000 C   0  0  0  0  0  0  0  0  0  0  0  0
    6.2110    3.4850    0.0000 C   0  0  3  0  0  0  0  0  0  0  0  0
    6.2110    1.9850    0.0000 N   0  0  0  0  0  0  0  0  0  0  0  0
    4.9120    4.2350    0.0000 C   0  0  0  0  0  0  0  0  0  0  0  0
    3.6130    3.4850    0.0000 C   0  0  0  0  0  0  0  0  0  0  0  0
    3.6130    1.9850    0.0000 C   0  0  0  0  0  0  0  0  0  0  0  0
    2.3140    1.2350    0.0000 C   0  0  0  0  0  0  0  0  0  0  0  0
    1.0150    1.9850    0.0000 C   0  0  0  0  0  0  0  0  0  0  0  0
   -0.2840    1.2350    0.0000 O   0  0  0  0  0  0  0  0  0  0  0  0
    1.0150    3.4850    0.0000 C   0  0  0  0  0  0  0  0  0  0  0  0
    2.3140    4.2350    0.0000 C   0  0  0  0  0  0  0  0  0  0  0  0
  1  2  2  0  0  0  0
  2  3  1  0  0  0  0
  3  4  1  0  0  0  0
  3  5  1  0  0  0  0
  5  6  1  0  0  0  0
  6  7  1  0  0  0  0
  6 12  2  0  0  0  0
  7  8  2  0  0  0  0
  8  9  1  0  0  0  0
  9 10  1  0  0  0  0
  9 11  2  0  0  0  0
 11 12  1  0  0  0  0
M  END
>  <name>
O=[C;amide]C([N;amide])Cc1ccc(O)cc1

>  <apo>
2

>  <freq>
4

>  <freq0>
0

>  <freq1>
4

>  <freqA>
3.9981933

>  <a_count>
23

$$$$

  MOE2015           2D

  9  9  0  0  1  0  0  0  0  0999 V2000
    2.3330   -2.3330    0.0000 O   0  0  0  0  0  0  0  0  0  0  0  0
    2.3330   -0.8330    0.0000 C   0  0  2  0  0  0  0  0  0  0  0  0
    3.6320   -0.0830    0.0000 C   0  0  2  0  0  0  0  0  0  0  0  0
    4.9310   -0.8330    0.0000 C   0  0  0  0  0  0  0  0  0  0  0  0
    3.6320    1.4170    0.0000 O   0  0  0  0  0  0  0  0  0  0  0  0
    2.3330    2.1670    0.0000 C   0  0  0  0  0  0  0  0  0  0  0  0
    1.0340    1.4170    0.0000 C   0  0  0  0  0  0  0  0  0  0  0  0
    1.0340   -0.0830    0.0000 C   0  0  1  0  0  0  0  0  0  0  0  0
   -0.2650   -0.8330    0.0000 C   0  0  0  0  0  0  0  0  0  0  0  0
  2  1  1  1  0  0  0
  2  3  1  0  0  0  0
  2  8  1  0  0  0  0
  3  4  1  1  0  0  0
  3  5  1  0  0  0  0
  5  6  1  0  0  0  0
  6  7  1  0  0  0  0
  7  8  1  0  0  0  0
  8  9  1  6  0  0  0
M  END
>  <name>
O[C@@H]1[C@H](C)O[C;ether]C[C@H;ether]1C

>  <apo>
2

>  <freq>
4

>  <freq0>
0

>  <freq1>
4

>  <freqA>
3.9981933

>  <a_count>
23

$$$$

  MOE2015           2D

 10 10  0  0  1  0  0  0  0  0999 V2000
    1.0500    2.3380    0.0000 O   0  0  0  0  0  0  0  0  0  0  0  0
    1.8000    1.0390    0.0000 C   0  0  1  0  0  0  0  0  0  0  0  0
    3.3000    1.0390    0.0000 C   0  0  1  0  0  0  0  0  0  0  0  0
    4.0500    2.3380    0.0000 N   0  0  0  0  0  0  0  0  0  0  0  0
    4.0500   -0.2600    0.0000 C   0  0  2  0  0  0  0  0  0  0  0  0
    5.5500   -0.2600    0.0000 O   0  0  0  0  0  0  0  0  0  0  0  0
    3.3000   -1.5590    0.0000 C   0  0  0  0  0  0  0  0  0  0  0  0
    1.8000   -1.5590    0.0000 O   0  0  0  0  0  0  0  0  0  0  0  0
    1.0500   -0.2600    0.0000 C   0  0  2  0  0  0  0  0  0  0  0  0
   -0.4500   -0.2600    0.0000 C   0  0  0  0  0  0  0  0  0  0  0  0
  2  1  1  1  0  0  0
  2  3  1  0  0  0  0
  2  9  1  0  0  0  0
  3  4  1  1  0  0  0
  3  5  1  0  0  0  0
  5  6  1  6  0  0  0
  5  7  1  0  0  0  0
  7  8  1  0  0  0  0
  8  9  1  0  0  0  0
  9 10  1  6  0  0  0
M  END
>  <name>
O[C@H]1[C@@H](N)[C@H](O)[C;ether]O[C@@H]1C

>  <apo>
1

>  <freq>
4

>  <freq0>
0

>  <freq1>
4

>  <freqA>
3.9981933

>  <a_count>
23

$$$$

  MOE2015           2D

 12 12  0  0  1  0  0  0  0  0999 V2000
    0.2780   -1.0380    0.0000 Cl  0  0  0  0  0  0  0  0  0  0  0  0
    1.5770   -0.2880    0.0000 C   0  0  0  0  0  0  0  0  0  0  0  0
    2.8760   -1.0380    0.0000 C   0  0  0  0  0  0  0  0  0  0  0  0
    4.1750   -0.2880    0.0000 C   0  0  0  0  0  0  0  0  0  0  0  0
    4.1750    1.2120    0.0000 C   0  0  0  0  0  0  0  0  0  0  0  0
    5.4740    1.9620    0.0000 C   0  0  0  0  0  0  0  0  0  0  0  0
    6.7730    1.2120    0.0000 C   0  0  1  0  0  0  0  0  0  0  0  0
    6.7730   -0.2880    0.0000 N   0  0  0  0  0  0  0  0  0  0  0  0
    8.0720    1.9620    0.0000 C   0  0  0  0  0  0  0  0  0  0  0  0
    9.3710    1.2120    0.0000 O   0  0  0  0  0  0  0  0  0  0  0  0
    2.8760    1.9620    0.0000 C   0  0  0  0  0  0  0  0  0  0  0  0
    1.5770    1.2120    0.0000 C   0  0  0  0  0  0  0  0  0  0  0  0
  1  2  1  0  0  0  0
  2  3  1  0  0  0  0
  2 12  2  0  0  0  0
  3  4  2  0  0  0  0
  4  5  1  0  0  0  0
  5  6  1  0  0  0  0
  5 11  2  0  0  0  0
  6  7  1  0  0  0  0
  7  8  1  6  0  0  0
  7  9  1  0  0  0  0
  9 10  2  0  0  0  0
 11 12  1  0  0  0  0
M  END
>  <name>
Clc1ccc(C[C@@H]([N;amide])[C;amide]=O)cc1

>  <apo>
2

>  <freq>
4

>  <freq0>
0

>  <freq1>
4

>  <freqA>
3.9981933

>  <a_count>
22

$$$$

  MOE2015           2D

 10 10  0  0  1  0  0  0  0  0999 V2000
    6.5070    1.7440    0.0000 O   0  0  0  0  0  0  0  0  0  0  0  0
    5.2080    0.9940    0.0000 C   0  0  0  0  0  0  0  0  0  0  0  0
    3.9090    1.7440    0.0000 C   0  0  2  0  0  0  0  0  0  0  0  0
    2.6100    0.9940    0.0000 C   0  0  1  0  0  0  0  0  0  0  0  0
    2.6100   -0.5060    0.0000 O   0  0  0  0  0  0  0  0  0  0  0  0
    1.3110    1.7440    0.0000 C   0  0  1  0  0  0  0  0  0  0  0  0
    0.0120    0.9940    0.0000 O   0  0  0  0  0  0  0  0  0  0  0  0
    1.3110    3.2440    0.0000 C   0  0  0  0  0  0  0  0  0  0  0  0
    2.6100    3.9940    0.0000 C   0  0  0  0  0  0  0  0  0  0  0  0
    3.9090    3.2440    0.0000 O   0  0  0  0  0  0  0  0  0  0  0  0
  1  2  1  0  0  0  0
  3  2  1  6  0  0  0
  3  4  1  0  0  0  0
  3 10  1  0  0  0  0
  4  5  1  1  0  0  0
  4  6  1  0  0  0  0
  6  7  1  1  0  0  0
  6  8  1  0  0  0  0
  8  9  1  0  0  0  0
  9 10  1  0  0  0  0
M  END
>  <name>
OC[C@@H]1[C@@H](O)[C@@H](O)[C;ether][C;ether]O1

>  <apo>
2

>  <freq>
4

>  <freq0>
0

>  <freq1>
4

>  <freqA>
3.9981933

>  <a_count>
22

$$$$

  MOE2015           2D

 10 10  0  0  1  0  0  0  0  0999 V2000
    1.0500    2.3380    0.0000 O   0  0  0  0  0  0  0  0  0  0  0  0
    1.8000    1.0390    0.0000 C   0  0  2  0  0  0  0  0  0  0  0  0
    3.3000    1.0390    0.0000 C   0  0  2  0  0  0  0  0  0  0  0  0
    4.0500    2.3380    0.0000 O   0  0  0  0  0  0  0  0  0  0  0  0
    4.0500   -0.2600    0.0000 C   0  0  2  0  0  0  0  0  0  0  0  0
    5.5500   -0.2600    0.0000 O   0  0  0  0  0  0  0  0  0  0  0  0
    3.3000   -1.5590    0.0000 C   0  0  0  0  0  0  0  0  0  0  0  0
    1.8000   -1.5590    0.0000 O   0  0  0  0  0  0  0  0  0  0  0  0
    1.0500   -0.2600    0.0000 C   0  0  1  0  0  0  0  0  0  0  0  0
   -0.4500   -0.2600    0.0000 C   0  0  0  0  0  0  0  0  0  0  0  0
  2  1  1  6  0  0  0
  2  3  1  0  0  0  0
  2  9  1  0  0  0  0
  3  4  1  6  0  0  0
  3  5  1  0  0  0  0
  5  6  1  6  0  0  0
  5  7  1  0  0  0  0
  7  8  1  0  0  0  0
  8  9  1  0  0  0  0
  9 10  1  1  0  0  0
M  END
>  <name>
O[C@@H]1[C@H](O)[C@H](O)[C;ether]O[C@H]1C

>  <apo>
1

>  <freq>
4

>  <freq0>
0

>  <freq1>
4

>  <freqA>
3.9981933

>  <a_count>
22

$$$$

  MOE2015           2D

 15 15  0  0  0  0  0  0  0  0999 V2000
    3.0000   -3.0000    0.0000 I   0  0  0  0  0  0  0  0  0  0  0  0
    3.0000   -1.5000    0.0000 C   0  0  0  0  0  0  0  0  0  0  0  0
    1.7010   -0.7500    0.0000 C   0  0  0  0  0  0  0  0  0  0  0  0
    0.4020   -1.5000    0.0000 N   0  0  0  0  0  0  0  0  0  0  0  0
    0.4020   -3.0000    0.0000 C   0  0  0  0  0  0  0  0  0  0  0  0
    1.7010    0.7500    0.0000 C   0  0  0  0  0  0  0  0  0  0  0  0
    0.4020    1.5000    0.0000 I   0  0  0  0  0  0  0  0  0  0  0  0
    3.0000    1.5000    0.0000 C   0  0  0  0  0  0  0  0  0  0  0  0
    3.0000    3.0000    0.0000 C   0  0  0  0  0  0  0  0  0  0  0  0
    1.7010    3.7500    0.0000 O   0  0  0  0  0  0  0  0  0  0  0  0
    4.2990    0.7500    0.0000 C   0  0  0  0  0  0  0  0  0  0  0  0
    5.5980    1.5000    0.0000 I   0  0  0  0  0  0  0  0  0  0  0  0
    4.2990   -0.7500    0.0000 C   0  0  0  0  0  0  0  0  0  0  0  0
    5.5980   -1.5000    0.0000 C   0  0  0  0  0  0  0  0  0  0  0  0
    6.8970   -0.7500    0.0000 O   0  0  0  0  0  0  0  0  0  0  0  0
  1  2  1  0  0  0  0
  2  3  1  0  0  0  0
  2 13  2  0  0  0  0
  3  4  1  0  0  0  0
  3  6  2  0  0  0  0
  4  5  1  0  0  0  0
  6  7  1  0  0  0  0
  6  8  1  0  0  0  0
  8  9  1  0  0  0  0
  8 11  2  0  0  0  0
  9 10  2  0  0  0  0
 11 12  1  0  0  0  0
 11 13  1  0  0  0  0
 13 14  1  0  0  0  0
 14 15  2  0  0  0  0
M  END
>  <name>
Ic1c([N;amide]C)c(I)c([C;amide]=O)c(I)c1[C;amide]=O

>  <apo>
3

>  <freq>
4

>  <freq0>
0

>  <freq1>
4

>  <freqA>
3.9981933

>  <a_count>
21

$$$$

  MOE2015           2D

  9  8  0  0  1  0  0  0  0  0999 V2000
    6.4030   -0.8820    0.0000 O   0  0  0  0  0  0  0  0  0  0  0  0
    5.1040   -1.6320    0.0000 C   0  0  0  0  0  0  0  0  0  0  0  0
    3.8050   -0.8820    0.0000 C   0  0  2  0  0  0  0  0  0  0  0  0
    3.8050    0.6180    0.0000 O   0  0  0  0  0  0  0  0  0  0  0  0
    2.5060   -1.6320    0.0000 C   0  0  0  0  0  0  0  0  0  0  0  0
    1.2070   -2.3820    0.0000 C   0  0  0  0  0  0  0  0  0  0  0  0
   -0.0920   -1.6320    0.0000 O   0  0  0  0  0  0  0  0  0  0  0  0
    3.2560   -2.9310    0.0000 C   0  0  0  0  0  0  0  0  0  0  0  0
    1.7560   -0.3330    0.0000 C   0  0  0  0  0  0  0  0  0  0  0  0
  1  2  2  0  0  0  0
  2  3  1  0  0  0  0
  3  4  1  1  0  0  0
  3  5  1  0  0  0  0
  5  6  1  0  0  0  0
  5  8  1  0  0  0  0
  5  9  1  0  0  0  0
  6  7  1  0  0  0  0
M  END
>  <name>
O=[C;amide][C@H](O)C(CO)(C)C

>  <apo>
1

>  <freq>
4

>  <freq0>
0

>  <freq1>
4

>  <freqA>
3.9981933

>  <a_count>
21

$$$$

  MOE2015           2D

 11 11  0  0  1  0  0  0  0  0999 V2000
    8.1690   -3.0070    0.0000 O   0  0  0  0  0  0  0  0  0  0  0  0
    6.8700   -3.7570    0.0000 C   0  0  0  0  0  0  0  0  0  0  0  0
    5.5710   -3.0070    0.0000 C   0  0  2  0  0  0  0  0  0  0  0  0
    5.5710   -1.5070    0.0000 N   0  0  0  0  0  0  0  0  0  0  0  0
    4.2720   -3.7570    0.0000 C   0  0  0  0  0  0  0  0  0  0  0  0
    2.9730   -3.0070    0.0000 C   0  0  0  0  0  0  0  0  0  0  0  0
    1.6740   -3.7570    0.0000 C   0  0  0  0  0  0  0  0  0  0  0  0
    0.3750   -3.0070    0.0000 N   0  0  0  0  0  0  0  0  0  0  0  0
    0.3750   -1.5070    0.0000 C   0  0  0  0  0  0  0  0  0  0  0  0
    1.6740   -0.7570    0.0000 C   0  0  0  0  0  0  0  0  0  0  0  0
    2.9730   -1.5070    0.0000 C   0  0  0  0  0  0  0  0  0  0  0  0
  1  2  2  0  0  0  0
  2  3  1  0  0  0  0
  3  4  1  1  0  0  0
  3  5  1  0  0  0  0
  5  6  1  0  0  0  0
  6  7  2  0  0  0  0
  6 11  1  0  0  0  0
  7  8  1  0  0  0  0
  8  9  2  0  0  0  0
  9 10  1  0  0  0  0
 10 11  2  0  0  0  0
M  END
>  <name>
O=[C;amide][C@H]([N;amide])Cc1cnccc1

>  <apo>
2

>  <freq>
4

>  <freq0>
0

>  <freq1>
4

>  <freqA>
3.9981933

>  <a_count>
21

$$$$

  MOE2015           2D

  9  9  0  0  1  0  0  0  0  0999 V2000
    1.3330    2.3090    0.0000 O   0  0  0  0  0  0  0  0  0  0  0  0
    2.0830    1.0100    0.0000 C   0  0  2  0  0  0  0  0  0  0  0  0
    1.3330   -0.2890    0.0000 C   0  0  0  0  0  0  0  0  0  0  0  0
   -0.1670   -0.2890    0.0000 C   0  0  0  0  0  0  0  0  0  0  0  0
    2.0830   -1.5880    0.0000 C   0  0  0  0  0  0  0  0  0  0  0  0
    3.5830   -1.5880    0.0000 C   0  0  0  0  0  0  0  0  0  0  0  0
    4.3330   -0.2890    0.0000 C   0  0  1  0  0  0  0  0  0  0  0  0
    5.8330   -0.2890    0.0000 O   0  0  0  0  0  0  0  0  0  0  0  0
    3.5830    1.0100    0.0000 C   0  0  0  0  0  0  0  0  0  0  0  0
  2  1  1  1  0  0  0
  2  3  1  0  0  0  0
  2  9  1  0  0  0  0
  3  4  2  0  0  0  0
  3  5  1  0  0  0  0
  5  6  1  0  0  0  0
  6  7  1  0  0  0  0
  7  8  1  6  0  0  0
  7  9  1  0  0  0  0
M  END
>  <name>
O[C@@H]1C(=C)[C;olefin]C[C@@H](O)C1

>  <apo>
1

>  <freq>
4

>  <freq0>
0

>  <freq1>
4

>  <freqA>
3.9981933

>  <a_count>
21

$$$$

  MOE2015           2D

 10 11  0  0  1  0  0  0  0  0999 V2000
   -0.5180   -0.7130    0.0000 C   0  0  1  0  0  0  0  0  0  0  0  0
    0.9820   -0.7130    0.0000 C   0  0  0  0  0  0  0  0  0  0  0  0
    1.8630    0.5000    0.0000 N   0  0  0  0  0  0  0  0  0  0  0  0
    3.2900    0.0370    0.0000 C   0  0  0  0  0  0  0  0  0  0  0  0
    3.2900   -1.4630    0.0000 C   0  0  0  0  0  0  0  0  0  0  0  0
    1.8630   -1.9270    0.0000 N   0  0  0  0  0  0  0  0  0  0  0  0
   -1.4000   -1.9270    0.0000 N   0  0  0  0  0  0  0  0  0  0  0  0
   -2.8260   -1.4630    0.0000 C   0  0  0  0  0  0  0  0  0  0  0  0
   -2.8260    0.0370    0.0000 C   0  0  0  0  0  0  0  0  0  0  0  0
   -1.4000    0.5000    0.0000 C   0  0  0  0  0  0  0  0  0  0  0  0
  1  2  1  1  0  0  0
  1  7  1  0  0  0  0
  1 10  1  0  0  0  0
  2  3  1  0  0  0  0
  2  6  2  0  0  0  0
  3  4  1  0  0  0  0
  4  5  2  0  0  0  0
  5  6  1  0  0  0  0
  7  8  1  0  0  0  0
  8  9  1  0  0  0  0
  9 10  1  0  0  0  0
M  END
>  <name>
[C@H]1(c2[nH][c;biphenyl]cn2)[N;amide]CCC1

>  <apo>
2

>  <freq>
4

>  <freq0>
0

>  <freq1>
4

>  <freqA>
3.9981933

>  <a_count>
21

$$$$

  MOE2015           2D

 10 10  0  0  0  0  0  0  0  0999 V2000
   -3.1280    1.0280    0.0000 O   0  0  0  0  0  0  0  0  0  0  0  0
   -3.1280   -0.4720    0.0000 C   0  0  0  0  0  0  0  0  0  0  0  0
   -1.8290    1.7780    0.0000 C   0  0  0  0  0  0  0  0  0  0  0  0
   -1.8290    3.2780    0.0000 C   0  0  0  0  0  0  0  0  0  0  0  0
   -3.1280    4.0280    0.0000 O   0  0  0  0  0  0  0  0  0  0  0  0
   -0.5300    4.0280    0.0000 C   0  0  0  0  0  0  0  0  0  0  0  0
    0.7690    3.2780    0.0000 C   0  0  0  0  0  0  0  0  0  0  0  0
    0.7690    1.7780    0.0000 C   0  0  0  0  0  0  0  0  0  0  0  0
    2.0680    1.0280    0.0000 C   0  0  0  0  0  0  0  0  0  0  0  0
   -0.5300    1.0280    0.0000 C   0  0  0  0  0  0  0  0  0  0  0  0
  1  2  1  0  0  0  0
  1  3  1  0  0  0  0
  3  4  1  0  0  0  0
  3 10  2  0  0  0  0
  4  5  1  0  0  0  0
  4  6  2  0  0  0  0
  6  7  1  0  0  0  0
  7  8  2  0  0  0  0
  8  9  1  0  0  0  0
  8 10  1  0  0  0  0
M  END
>  <name>
O(C)c1c(O)ccc([C;olefin])c1

>  <apo>
1

>  <freq>
4

>  <freq0>
0

>  <freq1>
4

>  <freqA>
3.9981933

>  <a_count>
20

$$$$

  MOE2015           2D

 11 11  0  0  1  0  0  0  0  0999 V2000
    8.1820   -2.3620    0.0000 O   0  0  0  0  0  0  0  0  0  0  0  0
    6.6820   -2.3620    0.0000 C   0  0  0  0  0  0  0  0  0  0  0  0
    5.9320   -1.0630    0.0000 C   0  0  2  0  0  0  0  0  0  0  0  0
    6.6820    0.2360    0.0000 N   0  0  0  0  0  0  0  0  0  0  0  0
    4.4320   -1.0630    0.0000 C   0  0  0  0  0  0  0  0  0  0  0  0
    3.6820   -2.3620    0.0000 C   0  0  0  0  0  0  0  0  0  0  0  0
    2.1820   -2.3620    0.0000 C   0  0  0  0  0  0  0  0  0  0  0  0
    1.4320   -1.0630    0.0000 C   0  0  0  0  0  0  0  0  0  0  0  0
   -0.0680   -1.0630    0.0000 O   0  0  0  0  0  0  0  0  0  0  0  0
    2.1820    0.2360    0.0000 C   0  0  0  0  0  0  0  0  0  0  0  0
    3.6820    0.2360    0.0000 C   0  0  0  0  0  0  0  0  0  0  0  0
  1  2  2  0  0  0  0
  2  3  1  0  0  0  0
  3  4  1  1  0  0  0
  3  5  1  0  0  0  0
  5  6  1  0  0  0  0
  5 11  2  0  0  0  0
  6  7  2  0  0  0  0
  7  8  1  0  0  0  0
  8  9  1  0  0  0  0
  8 10  2  0  0  0  0
 10 11  1  0  0  0  0
M  END
>  <name>
O=[C;amide][C@H]([N;amide])c1c[c;biphenyl]c(O)cc1

>  <apo>
3

>  <freq>
4

>  <freq0>
0

>  <freq1>
4

>  <freqA>
3.9981933

>  <a_count>
20

$$$$

  MOE2015           2D

  9  9  0  0  0  0  0  0  0  0999 V2000
    1.4170    2.4540    0.0000 O   0  0  0  0  0  0  0  0  0  0  0  0
    2.1670    1.1550    0.0000 C   0  0  0  0  0  0  0  0  0  0  0  0
   -0.0830    2.4540    0.0000 C   0  0  0  0  0  0  0  0  0  0  0  0
   -0.8330    3.7530    0.0000 C   0  0  0  0  0  0  0  0  0  0  0  0
   -2.3330    3.7530    0.0000 C   0  0  0  0  0  0  0  0  0  0  0  0
   -3.0830    2.4540    0.0000 C   0  0  0  0  0  0  0  0  0  0  0  0
   -4.5830    2.4540    0.0000 C   0  0  0  0  0  0  0  0  0  0  0  0
   -2.3330    1.1550    0.0000 C   0  0  0  0  0  0  0  0  0  0  0  0
   -0.8330    1.1550    0.0000 C   0  0  0  0  0  0  0  0  0  0  0  0
  1  2  1  0  0  0  0
  1  3  1  0  0  0  0
  3  4  1  0  0  0  0
  3  9  2  0  0  0  0
  4  5  2  0  0  0  0
  5  6  1  0  0  0  0
  6  7  1  0  0  0  0
  6  8  2  0  0  0  0
  8  9  1  0  0  0  0
M  END
>  <name>
O(C)c1ccc([C;olefin])cc1

>  <apo>
1

>  <freq>
4

>  <freq0>
0

>  <freq1>
4

>  <freqA>
3.9981933

>  <a_count>
19

$$$$

  MOE2015           2D

  8  7  0  0  1  0  0  0  0  0999 V2000
    2.5250    1.2250    0.0000 O   0  0  0  0  0  0  0  0  0  0  0  0
    2.5250   -0.2750    0.0000 C   0  0  3  0  0  0  0  0  0  0  0  0
    1.2250   -1.0250    0.0000 C   0  0  3  0  0  0  0  0  0  0  0  0
    1.2250   -2.5250    0.0000 N   0  0  0  0  0  0  0  0  0  0  0  0
   -0.0740   -0.2750    0.0000 C   0  0  0  0  0  0  0  0  0  0  0  0
   -1.3730   -1.0250    0.0000 O   0  0  0  0  0  0  0  0  0  0  0  0
    3.8240   -1.0250    0.0000 C   0  0  0  0  0  0  0  0  0  0  0  0
    5.1230   -0.2750    0.0000 O   0  0  0  0  0  0  0  0  0  0  0  0
  1  2  1  0  0  0  0
  2  3  1  0  0  0  0
  2  7  1  0  0  0  0
  3  4  1  0  0  0  0
  3  5  1  0  0  0  0
  5  6  1  0  0  0  0
  7  8  1  0  0  0  0
M  END
>  <name>
OC(C([N;amide])CO)CO

>  <apo>
1

>  <freq>
4

>  <freq0>
0

>  <freq1>
4

>  <freqA>
3.9981933

>  <a_count>
19

$$$$

  MOE2015           2D

  9  9  0  0  1  0  0  0  0  0999 V2000
    6.2940   -1.6200    0.0000 O   0  0  0  0  0  0  0  0  0  0  0  0
    4.9810   -0.8960    0.0000 C   0  0  0  0  0  0  0  0  0  0  0  0
    3.6970   -1.6710    0.0000 C   0  0  2  0  0  0  0  0  0  0  0  0
    2.3150   -1.0890    0.0000 C   0  0  1  0  0  0  0  0  0  0  0  0
    1.9740    0.3720    0.0000 O   0  0  0  0  0  0  0  0  0  0  0  0
    1.3330   -2.2230    0.0000 C   0  0  2  0  0  0  0  0  0  0  0  0
   -0.1610   -2.0960    0.0000 O   0  0  0  0  0  0  0  0  0  0  0  0
    2.1090   -3.5070    0.0000 C   0  0  0  0  0  0  0  0  0  0  0  0
    3.5690   -3.1660    0.0000 O   0  0  0  0  0  0  0  0  0  0  0  0
  1  2  1  0  0  0  0
  3  2  1  1  0  0  0
  3  4  1  0  0  0  0
  3  9  1  0  0  0  0
  4  5  1  6  0  0  0
  4  6  1  0  0  0  0
  6  7  1  1  0  0  0
  6  8  1  0  0  0  0
  8  9  1  0  0  0  0
M  END
>  <name>
OC[C@@H]1[C@@H](O)[C@H](O)[C;NaroC]O1

>  <apo>
1

>  <freq>
4

>  <freq0>
0

>  <freq1>
4

>  <freqA>
3.9981933

>  <a_count>
19

$$$$

  MOE2015           2D

 10 10  0  0  0  0  0  0  0  0999 V2000
    7.5000    0.0000    0.0000 O   0  0  0  0  0  0  0  0  0  0  0  0
    6.0000    0.0000    0.0000 C   0  0  0  0  0  0  0  0  0  0  0  0
    5.2500    1.2990    0.0000 C   0  0  0  0  0  0  0  0  0  0  0  0
    3.7500    1.2990    0.0000 C   0  0  0  0  0  0  0  0  0  0  0  0
    3.0000    0.0000    0.0000 C   0  0  0  0  0  0  0  0  0  0  0  0
    1.5000    0.0000    0.0000 C   0  0  0  0  0  0  0  0  0  0  0  0
    0.7500   -1.2990    0.0000 N   0  0  0  0  0  0  0  0  0  0  0  0
    0.7500    1.2990    0.0000 N   0  0  0  0  0  0  0  0  0  0  0  0
    3.7500   -1.2990    0.0000 C   0  0  0  0  0  0  0  0  0  0  0  0
    5.2500   -1.2990    0.0000 C   0  0  0  0  0  0  0  0  0  0  0  0
  1  2  1  0  0  0  0
  2  3  1  0  0  0  0
  2 10  2  0  0  0  0
  3  4  2  0  0  0  0
  4  5  1  0  0  0  0
  5  6  1  0  0  0  0
  5  9  2  0  0  0  0
  6  7  2  0  0  0  0
  6  8  1  0  0  0  0
  9 10  1  0  0  0  0
M  END
>  <name>
[O;ether]c1ccc(C(=N)N)cc1

>  <apo>
1

>  <freq>
4

>  <freq0>
0

>  <freq1>
4

>  <freqA>
3.9981933

>  <a_count>
18

$$$$

  MOE2015           2D

  9  9  0  0  0  0  0  0  0  0999 V2000
    0.9170    1.5880    0.0000 O   0  0  0  0  0  0  0  0  0  0  0  0
    1.6670    0.2890    0.0000 C   0  0  0  0  0  0  0  0  0  0  0  0
   -0.5830    1.5880    0.0000 C   0  0  0  0  0  0  0  0  0  0  0  0
   -1.3330    2.8870    0.0000 C   0  0  0  0  0  0  0  0  0  0  0  0
   -0.5830    4.1860    0.0000 O   0  0  0  0  0  0  0  0  0  0  0  0
   -2.8330    2.8870    0.0000 C   0  0  0  0  0  0  0  0  0  0  0  0
   -3.5830    1.5880    0.0000 C   0  0  0  0  0  0  0  0  0  0  0  0
   -2.8330    0.2890    0.0000 C   0  0  0  0  0  0  0  0  0  0  0  0
   -1.3330    0.2890    0.0000 C   0  0  0  0  0  0  0  0  0  0  0  0
  1  2  1  0  0  0  0
  1  3  1  0  0  0  0
  3  4  1  0  0  0  0
  3  9  2  0  0  0  0
  4  5  1  0  0  0  0
  4  6  2  0  0  0  0
  6  7  1  0  0  0  0
  7  8  2  0  0  0  0
  8  9  1  0  0  0  0
M  END
>  <name>
O(C)c1c([O;ether])cccc1

>  <apo>
1

>  <freq>
4

>  <freq0>
0

>  <freq1>
4

>  <freqA>
3.9981933

>  <a_count>
17

$$$$

  MOE2015           2D

  8  7  0  0  1  0  0  0  0  0999 V2000
   -0.0670   -1.3740    0.0000 O   0  0  0  0  0  0  0  0  0  0  0  0
    1.2320   -0.6240    0.0000 C   0  0  0  0  0  0  0  0  0  0  0  0
    1.2320    0.8760    0.0000 O   0  0  0  0  0  0  0  0  0  0  0  0
    2.5310   -1.3740    0.0000 C   0  0  1  0  0  0  0  0  0  0  0  0
    2.5310   -2.8740    0.0000 N   0  0  0  0  0  0  0  0  0  0  0  0
    3.8300   -0.6240    0.0000 C   0  0  2  0  0  0  0  0  0  0  0  0
    5.1290   -1.3740    0.0000 O   0  0  0  0  0  0  0  0  0  0  0  0
    3.8300    0.8760    0.0000 C   0  0  0  0  0  0  0  0  0  0  0  0
  1  2  2  0  0  0  0
  2  3  1  0  0  0  0
  2  4  1  0  0  0  0
  4  5  1  6  0  0  0
  4  6  1  0  0  0  0
  6  7  1  1  0  0  0
  6  8  1  0  0  0  0
M  END
>  <name>
O=C(O)[C@@H]([N;amide])[C@H](O)C

>  <apo>
1

>  <freq>
4

>  <freq0>
0

>  <freq1>
4

>  <freqA>
3.9981933

>  <a_count>
17

$$$$

  MOE2015           2D

  8  8  0  0  1  0  0  0  0  0999 V2000
    5.9390    1.4640    0.0000 O   0  0  0  0  0  0  0  0  0  0  0  0
    4.6100    0.7670    0.0000 C   0  0  0  0  0  0  0  0  0  0  0  0
    3.3430    1.5680    0.0000 C   0  0  1  0  0  0  0  0  0  0  0  0
    3.2460    3.0650    0.0000 N   0  0  0  0  0  0  0  0  0  0  0  0
    1.7930    3.4360    0.0000 C   0  0  0  0  0  0  0  0  0  0  0  0
    0.9910    2.1680    0.0000 C   0  0  2  0  0  0  0  0  0  0  0  0
   -0.5060    2.0720    0.0000 O   0  0  0  0  0  0  0  0  0  0  0  0
    1.9490    1.0140    0.0000 C   0  0  0  0  0  0  0  0  0  0  0  0
  1  2  2  0  0  0  0
  3  2  1  6  0  0  0
  3  4  1  0  0  0  0
  3  8  1  0  0  0  0
  4  5  1  0  0  0  0
  5  6  1  0  0  0  0
  6  7  1  1  0  0  0
  6  8  1  0  0  0  0
M  END
>  <name>
O=[C;amide][C@H]1[N;amide]C[C@H](O)C1

>  <apo>
2

>  <freq>
4

>  <freq0>
0

>  <freq1>
4

>  <freqA>
3.9981933

>  <a_count>
17

$$$$

  MOE2015           2D

  8  8  0  0  0  0  0  0  0  0999 V2000
    5.3440   -0.8120    0.0000 N   0  0  0  0  0  0  0  0  0  0  0  0
    4.5940   -2.1110    0.0000 C   0  0  0  0  0  0  0  0  0  0  0  0
    3.0940   -2.1110    0.0000 C   0  0  0  0  0  0  0  0  0  0  0  0
    2.3440   -3.4100    0.0000 C   0  0  0  0  0  0  0  0  0  0  0  0
    0.8440   -3.4100    0.0000 C   0  0  0  0  0  0  0  0  0  0  0  0
    0.0940   -2.1110    0.0000 C   0  0  0  0  0  0  0  0  0  0  0  0
    0.8440   -0.8120    0.0000 C   0  0  0  0  0  0  0  0  0  0  0  0
    2.3440   -0.8120    0.0000 C   0  0  0  0  0  0  0  0  0  0  0  0
  1  2  1  0  0  0  0
  2  3  1  0  0  0  0
  3  4  1  0  0  0  0
  3  8  2  0  0  0  0
  4  5  2  0  0  0  0
  5  6  1  0  0  0  0
  6  7  2  0  0  0  0
  7  8  1  0  0  0  0
M  END
>  <name>
[N;amide]Cc1ccccc1

>  <apo>
1

>  <freq>
4

>  <freq0>
0

>  <freq1>
4

>  <freqA>
3.9981933

>  <a_count>
17

$$$$

  MOE2015           2D

  7  6  0  0  1  0  0  0  0  0999 V2000
    5.3550   -0.7920    0.0000 O   0  0  0  0  0  0  0  0  0  0  0  0
    4.0560   -1.5420    0.0000 C   0  0  0  0  0  0  0  0  0  0  0  0
    2.7570   -0.7920    0.0000 C   0  0  1  0  0  0  0  0  0  0  0  0
    2.7570    0.7080    0.0000 N   0  0  0  0  0  0  0  0  0  0  0  0
    1.4580   -1.5420    0.0000 C   0  0  2  0  0  0  0  0  0  0  0  0
    1.4580   -3.0420    0.0000 O   0  0  0  0  0  0  0  0  0  0  0  0
    0.1590   -0.7920    0.0000 C   0  0  0  0  0  0  0  0  0  0  0  0
  1  2  2  0  0  0  0
  2  3  1  0  0  0  0
  3  4  1  6  0  0  0
  3  5  1  0  0  0  0
  5  6  1  0  0  0  0
  5  7  1  6  0  0  0
M  END
>  <name>
O=[C;amide][C@@H]([N;amide])[C@H]([O;ester])C

>  <apo>
3

>  <freq>
4

>  <freq0>
0

>  <freq1>
4

>  <freqA>
3.9981933

>  <a_count>
16

$$$$

  MOE2015           2D

  7  7  0  0  1  0  0  0  0  0999 V2000
    4.9030   -0.6040    0.0000 O   0  0  0  0  0  0  0  0  0  0  0  0
    4.1530   -1.9030    0.0000 C   0  0  0  0  0  0  0  0  0  0  0  0
    2.6530   -1.9030    0.0000 C   0  0  1  0  0  0  0  0  0  0  0  0
    1.7710   -3.1160    0.0000 N   0  0  0  0  0  0  0  0  0  0  0  0
    0.3450   -2.6530    0.0000 C   0  0  0  0  0  0  0  0  0  0  0  0
    0.3450   -1.1530    0.0000 C   0  0  0  0  0  0  0  0  0  0  0  0
    1.7710   -0.6890    0.0000 C   0  0  0  0  0  0  0  0  0  0  0  0
  1  2  2  0  0  0  0
  3  2  1  1  0  0  0
  3  4  1  0  0  0  0
  3  7  1  0  0  0  0
  4  5  1  0  0  0  0
  5  6  1  0  0  0  0
  6  7  1  0  0  0  0
M  END
>  <name>
O=[C;amide][C@H]1[N;amide]C[C;ether]C1

>  <apo>
3

>  <freq>
4

>  <freq0>
0

>  <freq1>
4

>  <freqA>
3.9981933

>  <a_count>
16

$$$$

  MOE2015           2D

  5  4  0  0  0  0  0  0  0  0999 V2000
    0.1500   -0.0400    0.0000 N   0  0  0  0  0  0  0  0  0  0  0  0
    1.4490    0.7100    0.0000 C   0  0  0  0  0  0  0  0  0  0  0  0
    2.7480   -0.0400    0.0000 C   0  0  0  0  0  0  0  0  0  0  0  0
   -1.1490    0.7100    0.0000 C   0  0  0  0  0  0  0  0  0  0  0  0
   -2.4480   -0.0400    0.0000 C   0  0  0  0  0  0  0  0  0  0  0  0
  1  2  1  0  0  0  0
  1  4  1  0  0  0  0
  2  3  1  0  0  0  0
  4  5  1  0  0  0  0
M  END
>  <name>
[N;amide](CC)CC

>  <apo>
1

>  <freq>
4

>  <freq0>
0

>  <freq1>
4

>  <freqA>
3.9981933

>  <a_count>
16

$$$$

  MOE2015           2D

  5  4  0  0  0  0  0  0  0  0999 V2000
    3.0000    0.0000    0.0000 N   0  0  0  0  0  0  0  0  0  0  0  0
    1.5000    0.0000    0.0000 C   0  0  0  0  0  0  0  0  0  0  0  0
    1.5000    1.5000    0.0000 C   0  0  0  0  0  0  0  0  0  0  0  0
    0.0000    0.0000    0.0000 C   0  0  0  0  0  0  0  0  0  0  0  0
    1.5000   -1.5000    0.0000 C   0  0  0  0  0  0  0  0  0  0  0  0
  1  2  1  0  0  0  0
  2  3  1  0  0  0  0
  2  4  1  0  0  0  0
  2  5  1  0  0  0  0
M  END
>  <name>
[N;amide]C(C)(C)C

>  <apo>
1

>  <freq>
4

>  <freq0>
0

>  <freq1>
4

>  <freqA>
3.9981933

>  <a_count>
16

$$$$

  MOE2015           2D

  9  9  0  0  0  0  0  0  0  0999 V2000
    6.0000   -3.4640    0.0000 O   0  0  0  0  0  0  0  0  0  0  0  0
    5.2500   -2.1650    0.0000 C   0  0  0  0  0  0  0  0  0  0  0  0
    3.7500   -2.1650    0.0000 C   0  0  0  0  0  0  0  0  0  0  0  0
    3.0000   -0.8660    0.0000 C   0  0  0  0  0  0  0  0  0  0  0  0
    1.5000   -0.8660    0.0000 C   0  0  0  0  0  0  0  0  0  0  0  0
    0.7500   -2.1650    0.0000 C   0  0  0  0  0  0  0  0  0  0  0  0
   -0.7500   -2.1650    0.0000 O   0  0  0  0  0  0  0  0  0  0  0  0
    1.5000   -3.4640    0.0000 C   0  0  0  0  0  0  0  0  0  0  0  0
    3.0000   -3.4640    0.0000 C   0  0  0  0  0  0  0  0  0  0  0  0
  1  2  2  0  0  0  0
  2  3  1  0  0  0  0
  3  4  1  0  0  0  0
  3  9  2  0  0  0  0
  4  5  2  0  0  0  0
  5  6  1  0  0  0  0
  6  7  1  0  0  0  0
  6  8  2  0  0  0  0
  8  9  1  0  0  0  0
M  END
>  <name>
O=[C;ester]c1ccc(O)cc1

>  <apo>
1

>  <freq>
4

>  <freq0>
0

>  <freq1>
4

>  <freqA>
3.9981933

>  <a_count>
15

$$$$

  MOE2015           2D

  6  5  0  0  1  0  0  0  0  0999 V2000
    3.3750    0.6500    0.0000 O   0  0  0  0  0  0  0  0  0  0  0  0
    2.6250   -0.6500    0.0000 C   0  0  0  0  0  0  0  0  0  0  0  0
    3.3750   -1.9490    0.0000 N   0  0  0  0  0  0  0  0  0  0  0  0
    1.1250   -0.6500    0.0000 C   0  0  2  0  0  0  0  0  0  0  0  0
    0.3750    0.6500    0.0000 N   0  0  0  0  0  0  0  0  0  0  0  0
    0.3750   -1.9490    0.0000 C   0  0  0  0  0  0  0  0  0  0  0  0
  1  2  2  0  0  0  0
  2  3  1  0  0  0  0
  2  4  1  0  0  0  0
  4  5  1  1  0  0  0
  4  6  1  0  0  0  0
M  END
>  <name>
O=C(N)[C@H]([N;amide])C

>  <apo>
1

>  <freq>
4

>  <freq0>
0

>  <freq1>
4

>  <freqA>
3.9981933

>  <a_count>
14

$$$$

  MOE2015           2D

  8  8  0  0  0  0  0  0  0  0999 V2000
    5.3440   -0.8120    0.0000 O   0  0  0  0  0  0  0  0  0  0  0  0
    4.5940   -2.1110    0.0000 C   0  0  0  0  0  0  0  0  0  0  0  0
    3.0940   -2.1110    0.0000 C   0  0  0  0  0  0  0  0  0  0  0  0
    2.3440   -3.4100    0.0000 C   0  0  0  0  0  0  0  0  0  0  0  0
    0.8440   -3.4100    0.0000 C   0  0  0  0  0  0  0  0  0  0  0  0
    0.0940   -2.1110    0.0000 C   0  0  0  0  0  0  0  0  0  0  0  0
    0.8440   -0.8120    0.0000 C   0  0  0  0  0  0  0  0  0  0  0  0
    2.3440   -0.8120    0.0000 C   0  0  0  0  0  0  0  0  0  0  0  0
  1  2  2  0  0  0  0
  2  3  1  0  0  0  0
  3  4  1  0  0  0  0
  3  8  2  0  0  0  0
  4  5  2  0  0  0  0
  5  6  1  0  0  0  0
  6  7  2  0  0  0  0
  7  8  1  0  0  0  0
M  END
>  <name>
O=[C;amide]c1ccccc1

>  <apo>
1

>  <freq>
4

>  <freq0>
0

>  <freq1>
4

>  <freqA>
3.9981933

>  <a_count>
14

$$$$

  MOE2015           2D

  8  8  0  0  0  0  0  0  0  0999 V2000
    0.0000    0.0000    0.0000 O   0  0  0  0  0  0  0  0  0  0  0  0
    1.5000    0.0000    0.0000 C   0  0  0  0  0  0  0  0  0  0  0  0
    2.2500   -1.2990    0.0000 C   0  0  0  0  0  0  0  0  0  0  0  0
    3.7500   -1.2990    0.0000 C   0  0  0  0  0  0  0  0  0  0  0  0
    4.5000    0.0000    0.0000 C   0  0  0  0  0  0  0  0  0  0  0  0
    6.0000    0.0000    0.0000 O   0  0  0  0  0  0  0  0  0  0  0  0
    3.7500    1.2990    0.0000 C   0  0  0  0  0  0  0  0  0  0  0  0
    2.2500    1.2990    0.0000 C   0  0  0  0  0  0  0  0  0  0  0  0
  1  2  1  0  0  0  0
  2  3  1  0  0  0  0
  2  8  2  0  0  0  0
  3  4  2  0  0  0  0
  4  5  1  0  0  0  0
  5  6  1  0  0  0  0
  5  7  2  0  0  0  0
  7  8  1  0  0  0  0
M  END
>  <name>
[O;ether]c1ccc(O)cc1

>  <apo>
1

>  <freq>
4

>  <freq0>
0

>  <freq1>
4

>  <freqA>
3.9981933

>  <a_count>
14

$$$$

  MOE2015           2D

  8  8  0  0  0  0  0  0  0  0999 V2000
    5.5980   -1.5700    0.0000 O   0  0  0  0  0  0  0  0  0  0  0  0
    4.3170   -0.7900    0.0000 C   0  0  0  0  0  0  0  0  0  0  0  0
    3.0000   -1.5100    0.0000 C   0  0  0  0  0  0  0  0  0  0  0  0
    1.6450   -0.8680    0.0000 C   0  0  0  0  0  0  0  0  0  0  0  0
    1.3670    0.6060    0.0000 C   0  0  0  0  0  0  0  0  0  0  0  0
    0.6150   -1.9590    0.0000 O   0  0  0  0  0  0  0  0  0  0  0  0
    1.3350   -3.2750    0.0000 N   0  0  0  0  0  0  0  0  0  0  0  0
    2.8090   -2.9970    0.0000 C   0  0  0  0  0  0  0  0  0  0  0  0
  1  2  2  0  0  0  0
  2  3  1  0  0  0  0
  3  4  2  0  0  0  0
  3  8  1  0  0  0  0
  4  5  1  0  0  0  0
  4  6  1  0  0  0  0
  6  7  1  0  0  0  0
  7  8  2  0  0  0  0
M  END
>  <name>
O=[C;amide]c1c(C)on[c;biphenyl]1

>  <apo>
2

>  <freq>
4

>  <freq0>
0

>  <freq1>
4

>  <freqA>
3.9981933

>  <a_count>
13

$$$$

  MOE2015           2D

  5  4  0  0  0  0  0  0  0  0999 V2000
    3.8780   -1.0390    0.0000 O   0  0  0  0  0  0  0  0  0  0  0  0
    2.5790   -1.7890    0.0000 C   0  0  0  0  0  0  0  0  0  0  0  0
    1.2800   -1.0390    0.0000 C   0  0  0  0  0  0  0  0  0  0  0  0
   -0.0190   -1.7890    0.0000 C   0  0  0  0  0  0  0  0  0  0  0  0
    1.2800    0.4610    0.0000 C   0  0  0  0  0  0  0  0  0  0  0  0
  1  2  2  0  0  0  0
  2  3  1  0  0  0  0
  3  4  1  0  0  0  0
  3  5  1  0  0  0  0
M  END
>  <name>
O=[C;ester]C(C)C

>  <apo>
1

>  <freq>
4

>  <freq0>
0

>  <freq1>
4

>  <freqA>
3.9981933

>  <a_count>
13

$$$$

  MOE2015           2D

  5  4  0  0  0  0  0  0  0  0999 V2000
    4.9980    0.7390    0.0000 O   0  0  0  0  0  0  0  0  0  0  0  0
    3.6990    1.4890    0.0000 C   0  0  0  0  0  0  0  0  0  0  0  0
    2.4000    0.7390    0.0000 C   0  0  0  0  0  0  0  0  0  0  0  0
    1.1010    1.4890    0.0000 C   0  0  0  0  0  0  0  0  0  0  0  0
   -0.1980    0.7390    0.0000 C   0  0  0  0  0  0  0  0  0  0  0  0
  1  2  2  0  0  0  0
  2  3  1  0  0  0  0
  3  4  1  0  0  0  0
  4  5  1  0  0  0  0
M  END
>  <name>
O=[C;ester]CCC

>  <apo>
1

>  <freq>
4

>  <freq0>
0

>  <freq1>
4

>  <freqA>
3.9981933

>  <a_count>
13

$$$$

  MOE2015           2D

  7  7  0  0  0  0  0  0  0  0999 V2000
    5.1430    0.0000    0.0000 N   0  0  0  0  0  0  0  0  0  0  0  0
    3.6430    0.0000    0.0000 C   0  0  0  0  0  0  0  0  0  0  0  0
    2.8930    1.2990    0.0000 N   0  0  0  0  0  0  0  0  0  0  0  0
    1.3930    1.2990    0.0000 C   0  0  0  0  0  0  0  0  0  0  0  0
    0.6430    0.0000    0.0000 C   0  0  0  0  0  0  0  0  0  0  0  0
    1.3930   -1.2990    0.0000 C   0  0  0  0  0  0  0  0  0  0  0  0
    2.8930   -1.2990    0.0000 C   0  0  0  0  0  0  0  0  0  0  0  0
  1  2  1  0  0  0  0
  2  3  1  0  0  0  0
  2  7  2  0  0  0  0
  3  4  2  0  0  0  0
  4  5  1  0  0  0  0
  5  6  2  0  0  0  0
  6  7  1  0  0  0  0
M  END
>  <name>
[N;amide]c1ncccc1

>  <apo>
1

>  <freq>
4

>  <freq0>
0

>  <freq1>
4

>  <freqA>
3.9981933

>  <a_count>
13

$$$$

  MOE2015           2D

  6  5  0  0  1  0  0  0  0  0999 V2000
   -0.3480   -1.2990    0.0000 S   0  0  0  0  0  0  0  0  0  0  0  0
    0.9510   -2.0490    0.0000 C   0  0  0  0  0  0  0  0  0  0  0  0
    2.2500   -1.2990    0.0000 C   0  0  3  0  0  0  0  0  0  0  0  0
    2.2500    0.2010    0.0000 N   0  0  0  0  0  0  0  0  0  0  0  0
    3.5490   -2.0490    0.0000 C   0  0  0  0  0  0  0  0  0  0  0  0
    4.8480   -1.2990    0.0000 O   0  0  0  0  0  0  0  0  0  0  0  0
  1  2  1  0  0  0  0
  2  3  1  0  0  0  0
  3  4  1  0  0  0  0
  3  5  1  0  0  0  0
  5  6  2  0  0  0  0
M  END
>  <name>
[S;disulfide]CC([N;amide])[C;amide]=O

>  <apo>
3

>  <freq>
4

>  <freq0>
0

>  <freq1>
4

>  <freqA>
3.9981933

>  <a_count>
13

$$$$

  MOE2015           2D

  5  4  0  0  0  0  0  0  0  0999 V2000
    4.9980   -1.3390    0.0000 O   0  0  0  0  0  0  0  0  0  0  0  0
    3.6990   -0.5890    0.0000 C   0  0  0  0  0  0  0  0  0  0  0  0
    2.4000   -1.3390    0.0000 C   0  0  0  0  0  0  0  0  0  0  0  0
    1.1010   -0.5890    0.0000 N   0  0  0  0  0  0  0  0  0  0  0  0
   -0.1980   -1.3390    0.0000 C   0  0  0  0  0  0  0  0  0  0  0  0
  1  2  2  0  0  0  0
  2  3  1  0  0  0  0
  3  4  1  0  0  0  0
  4  5  1  0  0  0  0
M  END
>  <name>
O=[C;amide]C[N;amide]C

>  <apo>
2

>  <freq>
4

>  <freq0>
0

>  <freq1>
4

>  <freqA>
3.9981933

>  <a_count>
12

$$$$

  MOE2015           2D

  4  3  0  0  0  0  0  0  0  0999 V2000
    3.0000    0.0000    0.0000 O   0  0  0  0  0  0  0  0  0  0  0  0
    1.5000    0.0000    0.0000 C   0  0  0  0  0  0  0  0  0  0  0  0
    0.7500   -1.2990    0.0000 C   0  0  0  0  0  0  0  0  0  0  0  0
    0.7500    1.2990    0.0000 C   0  0  0  0  0  0  0  0  0  0  0  0
  1  2  1  0  0  0  0
  2  3  1  0  0  0  0
  2  4  1  0  0  0  0
M  END
>  <name>
OC([C;amine])C

>  <apo>
1

>  <freq>
4

>  <freq0>
0

>  <freq1>
4

>  <freqA>
3.9981933

>  <a_count>
12

$$$$

  MOE2015           2D

  4  3  0  0  0  0  0  0  0  0999 V2000
   -0.0740   -0.2750    0.0000 O   0  0  0  0  0  0  0  0  0  0  0  0
    1.2250   -1.0250    0.0000 C   0  0  0  0  0  0  0  0  0  0  0  0
    2.5250   -0.2750    0.0000 C   0  0  0  0  0  0  0  0  0  0  0  0
    3.8240   -1.0250    0.0000 C   0  0  0  0  0  0  0  0  0  0  0  0
  1  2  1  0  0  0  0
  2  3  1  0  0  0  0
  3  4  1  0  0  0  0
M  END
>  <name>
[O;ester]CC[C;quatN]

>  <apo>
2

>  <freq>
4

>  <freq0>
0

>  <freq1>
4

>  <freqA>
3.9981933

>  <a_count>
12

$$$$

  MOE2015           2D

  6  6  0  0  0  0  0  0  0  0999 V2000
   -1.4000    0.8080    0.0000 S   0  0  0  0  0  0  0  0  0  0  0  0
   -2.1500    2.1070    0.0000 O   0  0  0  0  0  0  0  0  0  0  0  0
   -2.1500   -0.4910    0.0000 O   0  0  0  0  0  0  0  0  0  0  0  0
    0.1000    0.8080    0.0000 C   0  0  0  0  0  0  0  0  0  0  0  0
    1.4000    0.0580    0.0000 C   0  0  0  0  0  0  0  0  0  0  0  0
    1.4000    1.5580    0.0000 C   0  0  0  0  0  0  0  0  0  0  0  0
  1  2  2  0  0  0  0
  1  3  2  0  0  0  0
  1  4  1  0  0  0  0
  4  5  1  0  0  0  0
  4  6  1  0  0  0  0
  5  6  1  0  0  0  0
M  END
>  <name>
[SH;so2amide](=O)(=O)C1CC1

>  <apo>
1

>  <freq>
4

>  <freq0>
0

>  <freq1>
4

>  <freqA>
3.9981933

>  <a_count>
12

$$$$

  MOE2015           2D

  3  2  0  0  0  0  0  0  0  0999 V2000
    0.2500    0.0670    0.0000 C   0  0  0  0  0  0  0  0  0  0  0  0
    1.5490   -0.6830    0.0000 C   0  0  0  0  0  0  0  0  0  0  0  0
   -1.0490   -0.6830    0.0000 C   0  0  0  0  0  0  0  0  0  0  0  0
  1  2  1  0  0  0  0
  1  3  1  0  0  0  0
M  END
>  <name>
C([C;amine])[C;olefin]

>  <apo>
2

>  <freq>
4

>  <freq0>
0

>  <freq1>
4

>  <freqA>
3.9981933

>  <a_count>
11

$$$$

  MOE2015           2D

  3  2  0  0  0  0  0  0  0  0999 V2000
    0.2500    0.0670    0.0000 C   0  0  0  0  0  0  0  0  0  0  0  0
    1.5490   -0.6830    0.0000 C   0  0  0  0  0  0  0  0  0  0  0  0
   -1.0490   -0.6830    0.0000 C   0  0  0  0  0  0  0  0  0  0  0  0
  1  2  1  0  0  0  0
  1  3  1  0  0  0  0
M  END
>  <name>
C([C;ether])[C;amine]

>  <apo>
2

>  <freq>
4

>  <freq0>
0

>  <freq1>
4

>  <freqA>
3.9981933

>  <a_count>
11

$$$$

  MOE2015           2D

  3  2  0  0  0  0  0  0  0  0999 V2000
    0.2500    0.0670    0.0000 C   0  0  0  0  0  0  0  0  0  0  0  0
    1.5490   -0.6830    0.0000 C   0  0  0  0  0  0  0  0  0  0  0  0
   -1.0490   -0.6830    0.0000 C   0  0  0  0  0  0  0  0  0  0  0  0
  1  2  1  0  0  0  0
  1  3  1  0  0  0  0
M  END
>  <name>
C([C;olefin])C

>  <apo>
1

>  <freq>
4

>  <freq0>
0

>  <freq1>
4

>  <freqA>
3.9981933

>  <a_count>
11

$$$$

  MOE2015           2D

  4  3  0  0  0  0  0  0  0  0999 V2000
   -0.0740   -1.0250    0.0000 O   0  0  0  0  0  0  0  0  0  0  0  0
    1.2250   -0.2750    0.0000 C   0  0  0  0  0  0  0  0  0  0  0  0
    2.5250   -1.0250    0.0000 C   0  0  0  0  0  0  0  0  0  0  0  0
    3.8240   -0.2750    0.0000 N   0  0  0  0  0  0  0  0  0  0  0  0
  1  2  1  0  0  0  0
  2  3  1  0  0  0  0
  3  4  1  0  0  0  0
M  END
>  <name>
OCC[N;amide]

>  <apo>
1

>  <freq>
4

>  <freq0>
0

>  <freq1>
4

>  <freqA>
3.9981933

>  <a_count>
11

$$$$

  MOE2015           2D

  3  2  0  0  0  0  0  0  0  0999 V2000
    0.2500    0.0670    0.0000 C   0  0  0  0  0  0  0  0  0  0  0  0
    1.5490   -0.6830    0.0000 C   0  0  0  0  0  0  0  0  0  0  0  0
   -1.0490   -0.6830    0.0000 C   0  0  0  0  0  0  0  0  0  0  0  0
  1  2  1  0  0  0  0
  1  3  1  0  0  0  0
M  END
>  <name>
[C;NaroC](C)C

>  <apo>
1

>  <freq>
4

>  <freq0>
0

>  <freq1>
4

>  <freqA>
3.9981933

>  <a_count>
11

$$$$

  MOE2015           2D

  3  2  0  0  0  0  0  0  0  0999 V2000
    0.2500    0.0670    0.0000 C   0  0  0  0  0  0  0  0  0  0  0  0
    1.5490   -0.6830    0.0000 C   0  0  0  0  0  0  0  0  0  0  0  0
   -1.0490   -0.6830    0.0000 C   0  0  0  0  0  0  0  0  0  0  0  0
  1  2  1  0  0  0  0
  1  3  1  0  0  0  0
M  END
>  <name>
[C;ether](C)C

>  <apo>
1

>  <freq>
4

>  <freq0>
0

>  <freq1>
4

>  <freqA>
3.9981933

>  <a_count>
11

$$$$

  MOE2015           2D

 21 23  0  0  0  0  0  0  0  0999 V2000
   -7.0710    5.3200    0.0000 O   0  0  0  0  0  0  0  0  0  0  0  0
   -7.8210    4.0210    0.0000 C   0  0  0  0  0  0  0  0  0  0  0  0
   -5.5710    5.3200    0.0000 C   0  0  0  0  0  0  0  0  0  0  0  0
   -4.8210    6.6190    0.0000 C   0  0  0  0  0  0  0  0  0  0  0  0
   -5.5710    7.9180    0.0000 O   0  0  0  0  0  0  0  0  0  0  0  0
   -4.8210    9.2170    0.0000 C   0  0  0  0  0  0  0  0  0  0  0  0
   -3.3210    6.6190    0.0000 C   0  0  0  0  0  0  0  0  0  0  0  0
   -2.5710    5.3200    0.0000 C   0  0  0  0  0  0  0  0  0  0  0  0
   -1.0710    5.3200    0.0000 N   0  0  0  0  0  0  0  0  0  0  0  0
   -0.3210    4.0210    0.0000 C   0  0  0  0  0  0  0  0  0  0  0  0
    1.1790    4.0210    0.0000 N   0  0  0  0  0  0  0  0  0  0  0  0
    1.9290    5.3200    0.0000 C   0  0  0  0  0  0  0  0  0  0  0  0
    3.4290    5.3200    0.0000 C   0  0  0  0  0  0  0  0  0  0  0  0
    4.1790    4.0210    0.0000 N   0  0  0  0  0  0  0  0  0  0  0  0
    3.4290    2.7220    0.0000 C   0  0  0  0  0  0  0  0  0  0  0  0
    1.9290    2.7220    0.0000 C   0  0  0  0  0  0  0  0  0  0  0  0
   -1.0710    2.7220    0.0000 N   0  0  0  0  0  0  0  0  0  0  0  0
   -2.5710    2.7220    0.0000 C   0  0  0  0  0  0  0  0  0  0  0  0
   -3.3210    1.4230    0.0000 N   0  0  0  0  0  0  0  0  0  0  0  0
   -3.3210    4.0210    0.0000 C   0  0  0  0  0  0  0  0  0  0  0  0
   -4.8210    4.0210    0.0000 C   0  0  0  0  0  0  0  0  0  0  0  0
  1  2  1  0  0  0  0
  1  3  1  0  0  0  0
  3  4  1  0  0  0  0
  3 21  2  0  0  0  0
  4  5  1  0  0  0  0
  4  7  2  0  0  0  0
  5  6  1  0  0  0  0
  7  8  1  0  0  0  0
  8  9  1  0  0  0  0
  8 20  2  0  0  0  0
  9 10  2  0  0  0  0
 10 11  1  0  0  0  0
 10 17  1  0  0  0  0
 11 12  1  0  0  0  0
 11 16  1  0  0  0  0
 12 13  1  0  0  0  0
 13 14  1  0  0  0  0
 14 15  1  0  0  0  0
 15 16  1  0  0  0  0
 17 18  2  0  0  0  0
 18 19  1  0  0  0  0
 18 20  1  0  0  0  0
 20 21  1  0  0  0  0
M  END
>  <name>
O(C)c1c(OC)cc2nc(N3CC[N;amide]CC3)nc(N)c2c1

>  <apo>
1

>  <freq>
3

>  <freq0>
0

>  <freq1>
3

>  <freqA>
2.9983063

>  <a_count>
40

$$$$

  MOE2015           2D

 16 16  0  0  1  0  0  0  0  0999 V2000
    0.0140   -0.0080    0.0000 O   0  0  0  0  0  0  0  0  0  0  0  0
   -0.7360    1.2910    0.0000 C   0  0  0  0  0  0  0  0  0  0  0  0
   -2.2360    1.2910    0.0000 C   0  0  0  0  0  0  0  0  0  0  0  0
   -2.9860   -0.0080    0.0000 O   0  0  0  0  0  0  0  0  0  0  0  0
    0.0140    2.5900    0.0000 C   0  0  1  0  0  0  0  0  0  0  0  0
   -1.4860    2.5900    0.0000 O   0  0  0  0  0  0  0  0  0  0  0  0
    0.0140    4.0900    0.0000 C   0  0  2  0  0  0  0  0  0  0  0  0
   -1.2850    4.8400    0.0000 C   0  0  0  0  0  0  0  0  0  0  0  0
    1.3130    4.8400    0.0000 C   0  0  0  0  0  0  0  0  0  0  0  0
    2.6120    4.0900    0.0000 C   0  0  0  0  0  0  0  0  0  0  0  0
    2.6120    2.5900    0.0000 C   0  0  2  0  0  0  0  0  0  0  0  0
    3.9110    1.8400    0.0000 C   0  0  0  0  0  0  0  0  0  0  0  0
    5.2110    2.5900    0.0000 C   0  0  0  0  0  0  0  0  0  0  0  0
    6.5100    1.8400    0.0000 C   0  0  0  0  0  0  0  0  0  0  0  0
    7.8090    2.5900    0.0000 C   0  0  0  0  0  0  0  0  0  0  0  0
    1.3130    1.8400    0.0000 O   0  0  0  0  0  0  0  0  0  0  0  0
  1  2  2  0  0  0  0
  2  3  1  0  0  0  0
  5  2  1  1  0  0  0
  3  4  2  0  0  0  0
  5  6  1  6  0  0  0
  5  7  1  0  0  0  0
  5 16  1  0  0  0  0
  7  8  1  6  0  0  0
  7  9  1  0  0  0  0
  9 10  1  0  0  0  0
 10 11  1  0  0  0  0
 11 12  1  6  0  0  0
 11 16  1  0  0  0  0
 12 13  1  0  0  0  0
 13 14  1  0  0  0  0
 14 15  1  0  0  0  0
M  END
>  <name>
O=C([C;amide]=O)[C@@]1(O)[C@H](C)CC[C@H](C[C;ether][C;olefin]C)O1

>  <apo>
3

>  <freq>
3

>  <freq0>
0

>  <freq1>
3

>  <freqA>
2.9983063

>  <a_count>
36

$$$$

  MOE2015           2D

 12 11  0  0  0  0  0  0  0  0999 V2000
   -0.0740    1.0250    0.0000 P   0  0  0  0  0  0  0  0  0  0  0  0
    1.2250    0.2750    0.0000 C   0  0  0  0  0  0  0  0  0  0  0  0
    2.5250    1.0250    0.0000 C   0  0  0  0  0  0  0  0  0  0  0  0
    3.8240    0.2750    0.0000 P   0  0  0  0  0  0  0  0  0  0  0  0
    3.8240   -1.2250    0.0000 C   0  0  0  0  0  0  0  0  0  0  0  0
    5.1230   -1.9750    0.0000 C   0  0  0  0  0  0  0  0  0  0  0  0
    5.1230    1.0250    0.0000 C   0  0  0  0  0  0  0  0  0  0  0  0
    5.1230    2.5250    0.0000 C   0  0  0  0  0  0  0  0  0  0  0  0
   -1.3730    0.2750    0.0000 C   0  0  0  0  0  0  0  0  0  0  0  0
   -1.3730   -1.2250    0.0000 C   0  0  0  0  0  0  0  0  0  0  0  0
   -0.0740    2.5250    0.0000 C   0  0  0  0  0  0  0  0  0  0  0  0
   -1.3730    3.2750    0.0000 C   0  0  0  0  0  0  0  0  0  0  0  0
  1  2  1  0  0  0  0
  1  9  1  0  0  0  0
  1 11  1  0  0  0  0
  2  3  1  0  0  0  0
  3  4  1  0  0  0  0
  4  5  1  0  0  0  0
  4  7  1  0  0  0  0
  5  6  1  0  0  0  0
  7  8  1  0  0  0  0
  9 10  1  0  0  0  0
 11 12  1  0  0  0  0
M  END
>  <name>
P(CCP(C[C;ether])C[C;ether])(C[C;ether])C[C;ether]

>  <apo>
4

>  <freq>
3

>  <freq0>
0

>  <freq1>
3

>  <freqA>
2.9983063

>  <a_count>
36

$$$$

  MOE2015           2D

 13 12  0  0  1  0  0  0  0  0999 V2000
    2.0460    2.0460    0.0000 O   0  0  0  0  0  0  0  0  0  0  0  0
    2.0460    0.5460    0.0000 C   0  0  0  0  0  0  0  0  0  0  0  0
    0.7470   -0.2040    0.0000 C   0  0  1  0  0  0  0  0  0  0  0  0
   -0.5520    0.5460    0.0000 C   0  0  0  0  0  0  0  0  0  0  0  0
   -1.8510   -0.2040    0.0000 C   0  0  0  0  0  0  0  0  0  0  0  0
   -1.8510   -1.7040    0.0000 C   0  0  0  0  0  0  0  0  0  0  0  0
   -3.1500    0.5460    0.0000 C   0  0  0  0  0  0  0  0  0  0  0  0
    0.7470   -1.7040    0.0000 C   0  0  0  0  0  0  0  0  0  0  0  0
    3.3450   -0.2040    0.0000 C   0  0  0  0  0  0  0  0  0  0  0  0
    4.6440    0.5460    0.0000 C   0  0  2  0  0  0  0  0  0  0  0  0
    4.6440    2.0460    0.0000 O   0  0  0  0  0  0  0  0  0  0  0  0
    5.9430   -0.2040    0.0000 C   0  0  0  0  0  0  0  0  0  0  0  0
    7.2420    0.5460    0.0000 C   0  0  0  0  0  0  0  0  0  0  0  0
  1  2  2  0  0  0  0
  2  3  1  0  0  0  0
  2  9  1  0  0  0  0
  3  4  1  0  0  0  0
  3  8  1  6  0  0  0
  4  5  1  0  0  0  0
  5  6  1  0  0  0  0
  5  7  1  0  0  0  0
  9 10  1  0  0  0  0
 10 11  1  6  0  0  0
 10 12  1  0  0  0  0
 12 13  1  0  0  0  0
M  END
>  <name>
O=C([C@@H](CC([C;olefin])C)C)[C;ether][C@H](O)[C;olefin]C

>  <apo>
3

>  <freq>
3

>  <freq0>
0

>  <freq1>
3

>  <freqA>
2.9983063

>  <a_count>
35

$$$$

  MOE2015           2D

 19 22  0  0  1  0  0  0  0  0999 V2000
   10.5200   -3.3380    0.0000 O   0  0  0  0  0  0  0  0  0  0  0  0
    9.2250   -4.0950    0.0000 C   0  0  0  0  0  0  0  0  0  0  0  0
    7.9220   -3.3510    0.0000 C   0  0  2  0  0  0  0  0  0  0  0  0
    6.6270   -4.1070    0.0000 C   0  0  0  0  0  0  0  0  0  0  0  0
    5.3160   -3.3320    0.0000 C   0  0  0  0  0  0  0  0  0  0  0  0
    5.3250   -1.8680    0.0000 C   0  0  2  0  0  0  0  0  0  0  0  0
    6.6120   -1.1080    0.0000 N   0  0  0  0  0  0  0  0  0  0  0  0
    6.6000    0.3920    0.0000 C   0  0  0  0  0  0  0  0  0  0  0  0
    7.9150   -1.8510    0.0000 C   0  0  0  0  0  0  0  0  0  0  0  0
    4.0570   -1.1300    0.0000 C   0  0  0  0  0  0  0  0  0  0  0  0
    2.7840   -1.8570    0.0000 C   0  0  0  0  0  0  0  0  0  0  0  0
    2.7810   -3.3250    0.0000 C   0  0  0  0  0  0  0  0  0  0  0  0
    1.5060   -4.0520    0.0000 C   0  0  0  0  0  0  0  0  0  0  0  0
    0.4380   -2.9860    0.0000 N   0  0  0  0  0  0  0  0  0  0  0  0
    1.3680   -1.3690    0.0000 C   0  0  0  0  0  0  0  0  0  0  0  0
    1.5030   -5.5240    0.0000 C   0  0  0  0  0  0  0  0  0  0  0  0
    2.7740   -6.2620    0.0000 C   0  0  0  0  0  0  0  0  0  0  0  0
    4.0400   -5.5280    0.0000 C   0  0  0  0  0  0  0  0  0  0  0  0
    4.0480   -4.0660    0.0000 C   0  0  0  0  0  0  0  0  0  0  0  0
  1  2  2  0  0  0  0
  3  2  1  6  0  0  0
  3  4  1  0  0  0  0
  3  9  1  0  0  0  0
  4  5  2  0  0  0  0
  6  5  1  1  0  0  0
  5 19  1  0  0  0  0
  6  7  1  0  0  0  0
  6 10  1  0  0  0  0
  7  8  1  0  0  0  0
  7  9  1  0  0  0  0
 10 11  1  0  0  0  0
 11 12  1  0  0  0  0
 11 15  2  0  0  0  0
 12 13  2  0  0  0  0
 12 19  1  0  0  0  0
 13 14  1  0  0  0  0
 13 16  1  0  0  0  0
 14 15  1  0  0  0  0
 16 17  2  0  0  0  0
 17 18  1  0  0  0  0
 18 19  2  0  0  0  0
M  END
>  <name>
O=[C;amide][C@@H]1C=C2[C@H](N(C)C1)Cc1c3c([nH]c1)cccc23

>  <apo>
1

>  <freq>
3

>  <freq0>
0

>  <freq1>
3

>  <freqA>
2.9983063

>  <a_count>
35

$$$$

  MOE2015           2D

 18 19  0  0  0  0  0  0  0  0999 V2000
    0.3650   -1.3620    0.0000 F   0  0  0  0  0  0  0  0  0  0  0  0
    1.6640   -0.6120    0.0000 C   0  0  0  0  0  0  0  0  0  0  0  0
    2.9630   -1.3620    0.0000 C   0  0  0  0  0  0  0  0  0  0  0  0
    4.2620   -0.6120    0.0000 C   0  0  0  0  0  0  0  0  0  0  0  0
    4.2620    0.8880    0.0000 C   0  0  0  0  0  0  0  0  0  0  0  0
    5.5610    1.6380    0.0000 C   0  0  0  0  0  0  0  0  0  0  0  0
    5.5610    3.1380    0.0000 C   0  0  0  0  0  0  0  0  0  0  0  0
    4.2620    3.8880    0.0000 C   0  0  0  0  0  0  0  0  0  0  0  0
    4.2620    5.3880    0.0000 C   0  0  0  0  0  0  0  0  0  0  0  0
    6.8600    0.8880    0.0000 C   0  0  0  0  0  0  0  0  0  0  0  0
    6.8600   -0.6120    0.0000 C   0  0  0  0  0  0  0  0  0  0  0  0
    8.1590   -1.3620    0.0000 C   0  0  0  0  0  0  0  0  0  0  0  0
    9.4580   -0.6120    0.0000 C   0  0  0  0  0  0  0  0  0  0  0  0
   10.7570   -1.3620    0.0000 F   0  0  0  0  0  0  0  0  0  0  0  0
    9.4580    0.8880    0.0000 C   0  0  0  0  0  0  0  0  0  0  0  0
    8.1590    1.6380    0.0000 C   0  0  0  0  0  0  0  0  0  0  0  0
    2.9630    1.6380    0.0000 C   0  0  0  0  0  0  0  0  0  0  0  0
    1.6640    0.8880    0.0000 C   0  0  0  0  0  0  0  0  0  0  0  0
  1  2  1  0  0  0  0
  2  3  1  0  0  0  0
  2 18  2  0  0  0  0
  3  4  2  0  0  0  0
  4  5  1  0  0  0  0
  5  6  1  0  0  0  0
  5 17  2  0  0  0  0
  6  7  1  0  0  0  0
  6 10  1  0  0  0  0
  7  8  1  0  0  0  0
  8  9  1  0  0  0  0
 10 11  1  0  0  0  0
 10 16  2  0  0  0  0
 11 12  2  0  0  0  0
 12 13  1  0  0  0  0
 13 14  1  0  0  0  0
 13 15  2  0  0  0  0
 15 16  1  0  0  0  0
 17 18  1  0  0  0  0
M  END
>  <name>
Fc1ccc(C(CC[C;amine])c2ccc(F)cc2)cc1

>  <apo>
1

>  <freq>
3

>  <freq0>
0

>  <freq1>
3

>  <freqA>
2.9983063

>  <a_count>
34

$$$$

  MOE2015           2D

 16 17  0  0  1  0  0  0  0  0999 V2000
    0.8920    0.8920    0.0000 O   0  0  0  0  0  0  0  0  0  0  0  0
    2.1910    0.1420    0.0000 C   0  0  0  0  0  0  0  0  0  0  0  0
    2.1910   -1.3580    0.0000 C   0  0  3  0  0  0  0  0  0  0  0  0
    2.1910   -2.8580    0.0000 O   0  0  0  0  0  0  0  0  0  0  0  0
    3.6910   -1.3580    0.0000 C   0  0  0  0  0  0  0  0  0  0  0  0
    4.4410   -0.0590    0.0000 C   0  0  0  0  0  0  0  0  0  0  0  0
    5.9410   -0.0590    0.0000 C   0  0  0  0  0  0  0  0  0  0  0  0
    6.6910   -1.3580    0.0000 C   0  0  0  0  0  0  0  0  0  0  0  0
    5.9410   -2.6580    0.0000 C   0  0  0  0  0  0  0  0  0  0  0  0
    4.4410   -2.6580    0.0000 C   0  0  0  0  0  0  0  0  0  0  0  0
    0.6910   -1.3580    0.0000 C   0  0  0  0  0  0  0  0  0  0  0  0
   -0.0590   -2.6580    0.0000 C   0  0  0  0  0  0  0  0  0  0  0  0
   -1.5590   -2.6580    0.0000 C   0  0  0  0  0  0  0  0  0  0  0  0
   -2.3090   -1.3580    0.0000 C   0  0  0  0  0  0  0  0  0  0  0  0
   -1.5590   -0.0590    0.0000 C   0  0  0  0  0  0  0  0  0  0  0  0
   -0.0590   -0.0590    0.0000 C   0  0  0  0  0  0  0  0  0  0  0  0
  1  2  2  0  0  0  0
  2  3  1  0  0  0  0
  3  4  1  0  0  0  0
  3  5  1  0  0  0  0
  3 11  1  0  0  0  0
  5  6  1  0  0  0  0
  5 10  2  0  0  0  0
  6  7  2  0  0  0  0
  7  8  1  0  0  0  0
  8  9  2  0  0  0  0
  9 10  1  0  0  0  0
 11 12  1  0  0  0  0
 11 16  1  0  0  0  0
 12 13  1  0  0  0  0
 13 14  1  0  0  0  0
 14 15  1  0  0  0  0
 15 16  1  0  0  0  0
M  END
>  <name>
O=[C;ester]C(O)(c1ccccc1)C1CCCCC1

>  <apo>
1

>  <freq>
3

>  <freq0>
0

>  <freq1>
3

>  <freqA>
2.9983063

>  <a_count>
34

$$$$

  MOE2015           2D

 17 18  0  0  0  0  0  0  0  0999 V2000
    3.0320    2.8790    0.0000 N   0  0  0  0  0  0  0  0  0  0  0  0
    3.0320    1.3790    0.0000 C   0  0  0  0  0  0  0  0  0  0  0  0
    3.0320   -0.1210    0.0000 C   0  0  0  0  0  0  0  0  0  0  0  0
    3.0320   -1.6210    0.0000 C   0  0  0  0  0  0  0  0  0  0  0  0
    1.7330   -2.3710    0.0000 C   0  0  0  0  0  0  0  0  0  0  0  0
    1.5320   -0.1210    0.0000 C   0  0  0  0  0  0  0  0  0  0  0  0
    0.7820   -1.4200    0.0000 C   0  0  0  0  0  0  0  0  0  0  0  0
   -0.7180   -1.4200    0.0000 C   0  0  0  0  0  0  0  0  0  0  0  0
   -1.4680   -0.1210    0.0000 C   0  0  0  0  0  0  0  0  0  0  0  0
   -0.7180    1.1790    0.0000 C   0  0  0  0  0  0  0  0  0  0  0  0
    0.7820    1.1790    0.0000 C   0  0  0  0  0  0  0  0  0  0  0  0
    4.5320   -0.1210    0.0000 C   0  0  0  0  0  0  0  0  0  0  0  0
    5.2820    1.1790    0.0000 C   0  0  0  0  0  0  0  0  0  0  0  0
    6.7820    1.1790    0.0000 C   0  0  0  0  0  0  0  0  0  0  0  0
    7.5320   -0.1210    0.0000 C   0  0  0  0  0  0  0  0  0  0  0  0
    6.7820   -1.4200    0.0000 C   0  0  0  0  0  0  0  0  0  0  0  0
    5.2820   -1.4200    0.0000 C   0  0  0  0  0  0  0  0  0  0  0  0
  1  2  3  0  0  0  0
  2  3  1  0  0  0  0
  3  4  1  0  0  0  0
  3  6  1  0  0  0  0
  3 12  1  0  0  0  0
  4  5  1  0  0  0  0
  6  7  1  0  0  0  0
  6 11  2  0  0  0  0
  7  8  2  0  0  0  0
  8  9  1  0  0  0  0
  9 10  2  0  0  0  0
 10 11  1  0  0  0  0
 12 13  1  0  0  0  0
 12 17  2  0  0  0  0
 13 14  2  0  0  0  0
 14 15  1  0  0  0  0
 15 16  2  0  0  0  0
 16 17  1  0  0  0  0
M  END
>  <name>
N#CC(C[C;amine])(c1ccccc1)c1ccccc1

>  <apo>
1

>  <freq>
3

>  <freq0>
0

>  <freq1>
3

>  <freqA>
2.9983063

>  <a_count>
32

$$$$

  MOE2015           2D

 16 17  0  0  0  0  0  0  0  0999 V2000
   -0.1280    0.4770    0.0000 F   0  0  0  0  0  0  0  0  0  0  0  0
    1.1710    1.2270    0.0000 C   0  0  0  0  0  0  0  0  0  0  0  0
    0.4210    2.5260    0.0000 F   0  0  0  0  0  0  0  0  0  0  0  0
    1.9210   -0.0720    0.0000 F   0  0  0  0  0  0  0  0  0  0  0  0
    2.4700    1.9770    0.0000 C   0  0  0  0  0  0  0  0  0  0  0  0
    3.7690    1.2270    0.0000 C   0  0  0  0  0  0  0  0  0  0  0  0
    5.0680    1.9770    0.0000 C   0  0  0  0  0  0  0  0  0  0  0  0
    6.3670    1.2270    0.0000 N   0  0  0  0  0  0  0  0  0  0  0  0
    6.3670   -0.2730    0.0000 C   0  0  0  0  0  0  0  0  0  0  0  0
    7.6660   -1.0230    0.0000 C   0  0  0  0  0  0  0  0  0  0  0  0
    8.9650   -0.2730    0.0000 N   0  0  0  0  0  0  0  0  0  0  0  0
    8.9650    1.2270    0.0000 C   0  0  0  0  0  0  0  0  0  0  0  0
    7.6660    1.9770    0.0000 C   0  0  0  0  0  0  0  0  0  0  0  0
    5.0680    3.4770    0.0000 C   0  0  0  0  0  0  0  0  0  0  0  0
    3.7690    4.2270    0.0000 C   0  0  0  0  0  0  0  0  0  0  0  0
    2.4700    3.4770    0.0000 C   0  0  0  0  0  0  0  0  0  0  0  0
  1  2  1  0  0  0  0
  2  3  1  0  0  0  0
  2  4  1  0  0  0  0
  2  5  1  0  0  0  0
  5  6  1  0  0  0  0
  5 16  2  0  0  0  0
  6  7  2  0  0  0  0
  7  8  1  0  0  0  0
  7 14  1  0  0  0  0
  8  9  1  0  0  0  0
  8 13  1  0  0  0  0
  9 10  1  0  0  0  0
 10 11  1  0  0  0  0
 11 12  1  0  0  0  0
 12 13  1  0  0  0  0
 14 15  2  0  0  0  0
 15 16  1  0  0  0  0
M  END
>  <name>
FC(F)(F)c1cc(N2CC[N;amine]CC2)ccc1

>  <apo>
1

>  <freq>
3

>  <freq0>
0

>  <freq1>
3

>  <freqA>
2.9983063

>  <a_count>
29

$$$$

  MOE2015           2D

 16 18  0  0  0  0  0  0  0  0999 V2000
   -0.0050   -0.6240    0.0000 F   0  0  0  0  0  0  0  0  0  0  0  0
    1.4850   -0.4470    0.0000 C   0  0  0  0  0  0  0  0  0  0  0  0
    2.0760    0.9320    0.0000 C   0  0  0  0  0  0  0  0  0  0  0  0
    3.5650    1.1100    0.0000 C   0  0  0  0  0  0  0  0  0  0  0  0
    4.4300    2.3350    0.0000 O   0  0  0  0  0  0  0  0  0  0  0  0
    5.8630    1.8920    0.0000 N   0  0  0  0  0  0  0  0  0  0  0  0
    5.8840    0.3920    0.0000 C   0  0  0  0  0  0  0  0  0  0  0  0
    7.1090   -0.4730    0.0000 C   0  0  0  0  0  0  0  0  0  0  0  0
    6.9730   -1.9670    0.0000 C   0  0  0  0  0  0  0  0  0  0  0  0
    8.1990   -2.8310    0.0000 C   0  0  0  0  0  0  0  0  0  0  0  0
    9.5610   -2.2020    0.0000 N   0  0  0  0  0  0  0  0  0  0  0  0
    9.6970   -0.7080    0.0000 C   0  0  0  0  0  0  0  0  0  0  0  0
    8.4710    0.1560    0.0000 C   0  0  0  0  0  0  0  0  0  0  0  0
    4.4640   -0.0910    0.0000 C   0  0  0  0  0  0  0  0  0  0  0  0
    3.8730   -1.4700    0.0000 C   0  0  0  0  0  0  0  0  0  0  0  0
    2.3830   -1.6480    0.0000 C   0  0  0  0  0  0  0  0  0  0  0  0
  1  2  1  0  0  0  0
  2  3  1  0  0  0  0
  2 16  2  0  0  0  0
  3  4  2  0  0  0  0
  4  5  1  0  0  0  0
  4 14  1  0  0  0  0
  5  6  1  0  0  0  0
  6  7  2  0  0  0  0
  7  8  1  0  0  0  0
  7 14  1  0  0  0  0
  8  9  1  0  0  0  0
  8 13  1  0  0  0  0
  9 10  1  0  0  0  0
 10 11  1  0  0  0  0
 11 12  1  0  0  0  0
 12 13  1  0  0  0  0
 14 15  2  0  0  0  0
 15 16  1  0  0  0  0
M  END
>  <name>
Fc1cc2onc(C3CC[N;amine]CC3)c2cc1

>  <apo>
1

>  <freq>
3

>  <freq0>
0

>  <freq1>
3

>  <freqA>
2.9983063

>  <a_count>
29

$$$$

  MOE2015           2D

 15 17  0  0  0  0  0  0  0  0999 V2000
    2.4230   -1.4600    0.0000 C   0  0  0  0  0  0  0  0  0  0  0  0
    2.3660    0.0390    0.0000 C   0  0  0  0  0  0  0  0  0  0  0  0
    3.6360    0.8370    0.0000 C   0  0  0  0  0  0  0  0  0  0  0  0
    4.9630    0.1360    0.0000 C   0  0  0  0  0  0  0  0  0  0  0  0
    5.0190   -1.3620    0.0000 C   0  0  0  0  0  0  0  0  0  0  0  0
    3.7490   -2.1610    0.0000 C   0  0  0  0  0  0  0  0  0  0  0  0
    1.1600    0.9300    0.0000 C   0  0  0  0  0  0  0  0  0  0  0  0
   -0.2900    0.5430    0.0000 C   0  0  0  0  0  0  0  0  0  0  0  0
   -0.8890   -0.8320    0.0000 C   0  0  0  0  0  0  0  0  0  0  0  0
   -0.1870   -2.1590    0.0000 C   0  0  0  0  0  0  0  0  0  0  0  0
   -0.9860   -3.4290    0.0000 C   0  0  0  0  0  0  0  0  0  0  0  0
   -2.4850   -3.3730    0.0000 C   0  0  0  0  0  0  0  0  0  0  0  0
   -3.1860   -2.0460    0.0000 C   0  0  0  0  0  0  0  0  0  0  0  0
   -2.3880   -0.7760    0.0000 C   0  0  0  0  0  0  0  0  0  0  0  0
    1.2860   -2.4390    0.0000 C   0  0  0  0  0  0  0  0  0  0  0  0
  1  2  1  0  0  0  0
  1  6  2  0  0  0  0
  1 15  1  0  0  0  0
  2  3  2  0  0  0  0
  2  7  1  0  0  0  0
  3  4  1  0  0  0  0
  4  5  2  0  0  0  0
  5  6  1  0  0  0  0
  7  8  1  0  0  0  0
  8  9  1  0  0  0  0
  9 10  1  0  0  0  0
  9 14  2  0  0  0  0
 10 11  2  0  0  0  0
 10 15  1  0  0  0  0
 11 12  1  0  0  0  0
 12 13  2  0  0  0  0
 13 14  1  0  0  0  0
M  END
>  <name>
c12c(cccc1)CCc1c(cccc1)[C;olefin]2

>  <apo>
1

>  <freq>
3

>  <freq0>
0

>  <freq1>
3

>  <freqA>
2.9983063

>  <a_count>
29

$$$$

  MOE2015           2D

 16 18  0  0  0  0  0  0  0  0999 V2000
   10.5220   -1.7510    0.0000 Cl  0  0  0  0  0  0  0  0  0  0  0  0
    9.0230   -1.8030    0.0000 C   0  0  0  0  0  0  0  0  0  0  0  0
    8.2290   -0.5310    0.0000 C   0  0  0  0  0  0  0  0  0  0  0  0
    6.7300   -0.5820    0.0000 C   0  0  0  0  0  0  0  0  0  0  0  0
    6.0250   -1.9070    0.0000 C   0  0  0  0  0  0  0  0  0  0  0  0
    6.8190   -3.1790    0.0000 C   0  0  0  0  0  0  0  0  0  0  0  0
    8.3190   -3.1270    0.0000 C   0  0  0  0  0  0  0  0  0  0  0  0
    4.5510   -2.1820    0.0000 C   0  0  0  0  0  0  0  0  0  0  0  0
    3.4170   -1.1990    0.0000 C   0  0  0  0  0  0  0  0  0  0  0  0
    2.0890   -1.8960    0.0000 N   0  0  0  0  0  0  0  0  0  0  0  0
    0.8210   -1.0940    0.0000 C   0  0  0  0  0  0  0  0  0  0  0  0
    0.8820    0.4050    0.0000 C   0  0  0  0  0  0  0  0  0  0  0  0
    2.2100    1.1010    0.0000 C   0  0  0  0  0  0  0  0  0  0  0  0
    3.4780    0.2990    0.0000 C   0  0  0  0  0  0  0  0  0  0  0  0
    4.6870    1.1880    0.0000 C   0  0  0  0  0  0  0  0  0  0  0  0
    6.1350    0.7940    0.0000 C   0  0  0  0  0  0  0  0  0  0  0  0
  1  2  1  0  0  0  0
  2  3  1  0  0  0  0
  2  7  2  0  0  0  0
  3  4  2  0  0  0  0
  4  5  1  0  0  0  0
  4 16  1  0  0  0  0
  5  6  2  0  0  0  0
  5  8  1  0  0  0  0
  6  7  1  0  0  0  0
  8  9  1  0  0  0  0
  9 10  1  0  0  0  0
  9 14  2  0  0  0  0
 10 11  2  0  0  0  0
 11 12  1  0  0  0  0
 12 13  2  0  0  0  0
 13 14  1  0  0  0  0
 14 15  1  0  0  0  0
 15 16  1  0  0  0  0
M  END
>  <name>
Clc1cc2c(cc1)[C;olefin]c1ncccc1CC2

>  <apo>
1

>  <freq>
3

>  <freq0>
0

>  <freq1>
3

>  <freqA>
2.9983063

>  <a_count>
28

$$$$

  MOE2015           2D

 16 17  0  0  0  0  0  0  0  0999 V2000
    0.8920    0.8920    0.0000 O   0  0  0  0  0  0  0  0  0  0  0  0
    2.1910    0.1420    0.0000 C   0  0  0  0  0  0  0  0  0  0  0  0
    2.1910   -1.3580    0.0000 C   0  0  0  0  0  0  0  0  0  0  0  0
    2.1910   -2.8580    0.0000 O   0  0  0  0  0  0  0  0  0  0  0  0
    3.6910   -1.3580    0.0000 C   0  0  0  0  0  0  0  0  0  0  0  0
    4.4410   -0.0590    0.0000 C   0  0  0  0  0  0  0  0  0  0  0  0
    5.9410   -0.0590    0.0000 C   0  0  0  0  0  0  0  0  0  0  0  0
    6.6910   -1.3580    0.0000 C   0  0  0  0  0  0  0  0  0  0  0  0
    5.9410   -2.6580    0.0000 C   0  0  0  0  0  0  0  0  0  0  0  0
    4.4410   -2.6580    0.0000 C   0  0  0  0  0  0  0  0  0  0  0  0
    0.6910   -1.3580    0.0000 C   0  0  0  0  0  0  0  0  0  0  0  0
   -0.0590   -2.6580    0.0000 C   0  0  0  0  0  0  0  0  0  0  0  0
   -1.5590   -2.6580    0.0000 C   0  0  0  0  0  0  0  0  0  0  0  0
   -2.3090   -1.3580    0.0000 C   0  0  0  0  0  0  0  0  0  0  0  0
   -1.5590   -0.0590    0.0000 C   0  0  0  0  0  0  0  0  0  0  0  0
   -0.0590   -0.0590    0.0000 C   0  0  0  0  0  0  0  0  0  0  0  0
  1  2  2  0  0  0  0
  2  3  1  0  0  0  0
  3  4  1  0  0  0  0
  3  5  1  0  0  0  0
  3 11  1  0  0  0  0
  5  6  1  0  0  0  0
  5 10  2  0  0  0  0
  6  7  2  0  0  0  0
  7  8  1  0  0  0  0
  8  9  2  0  0  0  0
  9 10  1  0  0  0  0
 11 12  1  0  0  0  0
 11 16  2  0  0  0  0
 12 13  2  0  0  0  0
 13 14  1  0  0  0  0
 14 15  2  0  0  0  0
 15 16  1  0  0  0  0
M  END
>  <name>
O=[C;ester]C(O)(c1ccccc1)c1ccccc1

>  <apo>
1

>  <freq>
3

>  <freq0>
0

>  <freq1>
3

>  <freqA>
2.9983063

>  <a_count>
28

$$$$

  MOE2015           2D

 14 15  0  0  1  0  0  0  0  0999 V2000
    6.6680    0.2800    0.0000 O   0  0  0  0  0  0  0  0  0  0  0  0
    5.9280    1.5850    0.0000 C   0  0  0  0  0  0  0  0  0  0  0  0
    4.4280    1.5970    0.0000 C   0  0  1  0  0  0  0  0  0  0  0  0
    3.6880    2.9020    0.0000 C   0  0  2  0  0  0  0  0  0  0  0  0
    5.1750    3.0990    0.0000 O   0  0  0  0  0  0  0  0  0  0  0  0
    2.1880    2.9130    0.0000 C   0  0  1  0  0  0  0  0  0  0  0  0
    1.4280    1.6200    0.0000 C   0  0  2  0  0  0  0  0  0  0  0  0
   -0.0720    1.6320    0.0000 O   0  0  0  0  0  0  0  0  0  0  0  0
    2.1680    0.3150    0.0000 C   0  0  0  0  0  0  0  0  0  0  0  0
    1.4080   -0.9780    0.0000 C   0  0  0  0  0  0  0  0  0  0  0  0
    3.6680    0.3040    0.0000 C   0  0  0  0  0  0  0  0  0  0  0  0
    1.7360    4.3440    0.0000 O   0  0  0  0  0  0  0  0  0  0  0  0
    2.9570    5.2160    0.0000 C   0  0  0  0  0  0  0  0  0  0  0  0
    4.1630    4.3250    0.0000 C   0  0  0  0  0  0  0  0  0  0  0  0
  1  2  2  0  0  0  0
  3  2  1  6  0  0  0
  3  4  1  0  0  0  0
  3 11  1  0  0  0  0
  4  5  1  1  0  0  0
  4  6  1  0  0  0  0
  4 14  1  0  0  0  0
  6  7  1  0  0  0  0
  6 12  1  1  0  0  0
  7  8  1  1  0  0  0
  7  9  1  0  0  0  0
  9 10  1  0  0  0  0
  9 11  2  0  0  0  0
 12 13  1  0  0  0  0
 13 14  1  0  0  0  0
M  END
>  <name>
O=[C;ester][C@H]1[C@]2(O)[C@@H]([C@H](O)C(C)=C1)OC[C;olefin]2

>  <apo>
2

>  <freq>
3

>  <freq0>
0

>  <freq1>
3

>  <freqA>
2.9983063

>  <a_count>
28

$$$$

  MOE2015           2D

 12 14  0  0  1  0  0  0  0  0999 V2000
    6.5430   -2.5440    0.0000 O   0  0  0  0  0  0  0  0  0  0  0  0
    5.0430   -2.5710    0.0000 C   0  0  0  0  0  0  0  0  0  0  0  0
    3.8720   -2.1620    0.0000 C   0  0  0  0  0  0  0  0  0  0  0  0
    2.9470   -0.6250    0.0000 C   0  0  2  0  0  0  0  0  0  0  0  0
    1.5350   -1.1830    0.0000 N   0  3  0  0  0  0  0  0  0  0  0  0
    0.3550   -2.1100    0.0000 C   0  0  0  0  0  0  0  0  0  0  0  0
    0.3940   -0.2090    0.0000 C   0  0  0  0  0  0  0  0  0  0  0  0
    2.7650   -1.6500    0.0000 C   0  0  1  0  0  0  0  0  0  0  0  0
    3.5800   -0.4630    0.0000 C   0  0  1  0  0  0  0  0  0  0  0  0
    4.8800    0.1550    0.0000 O   0  0  0  0  0  0  0  0  0  0  0  0
    3.5840    0.8710    0.0000 C   0  0  1  0  0  0  0  0  0  0  0  0
    3.6210   -3.1260    0.0000 C   0  0  0  0  0  0  0  0  0  0  0  0
  1  2  1  0  0  0  0
  2  3  1  0  0  0  0
  2 12  1  0  0  0  0
  4  3  1  6  0  0  0
  4  5  1  0  0  0  0
  4 11  1  0  0  0  0
  5  6  1  0  0  0  0
  5  7  1  0  0  0  0
  8  5  1  1  0  0  0
  8  9  1  0  0  0  0
  8 12  1  0  0  0  0
  9 10  1  6  0  0  0
  9 11  1  0  0  0  0
 11 10  1  6  0  0  0
M  CHG  1   5   1
M  END
>  <name>
[O;ester]C1C[C@@H]2[N+](C)(C)[C@@H]([C@H]3O[C@@H]23)C1

>  <apo>
1

>  <freq>
3

>  <freq0>
0

>  <freq1>
3

>  <freqA>
2.9983063

>  <a_count>
28

$$$$

  MOE2015           2D

 11 11  0  0  0  0  0  0  0  0999 V2000
    0.5450    0.9450    0.0000 N   0  3  0  0  0  0  0  0  0  0  0  0
    1.2950    2.2440    0.0000 C   0  0  0  0  0  0  0  0  0  0  0  0
    2.7950    2.2440    0.0000 C   0  0  0  0  0  0  0  0  0  0  0  0
    1.2950   -0.3540    0.0000 C   0  0  0  0  0  0  0  0  0  0  0  0
    2.7950   -0.3540    0.0000 C   0  0  0  0  0  0  0  0  0  0  0  0
   -0.9550    0.9450    0.0000 C   0  0  0  0  0  0  0  0  0  0  0  0
   -1.7050   -0.3540    0.0000 C   0  0  0  0  0  0  0  0  0  0  0  0
   -3.2050   -0.3540    0.0000 C   0  0  0  0  0  0  0  0  0  0  0  0
   -3.9550    0.9450    0.0000 C   0  0  0  0  0  0  0  0  0  0  0  0
   -3.2050    2.2440    0.0000 C   0  0  0  0  0  0  0  0  0  0  0  0
   -1.7050    2.2440    0.0000 C   0  0  0  0  0  0  0  0  0  0  0  0
  1  2  1  0  0  0  0
  1  4  1  0  0  0  0
  1  6  2  0  0  0  0
  2  3  1  0  0  0  0
  4  5  1  0  0  0  0
  6  7  1  0  0  0  0
  6 11  1  0  0  0  0
  7  8  2  0  0  0  0
  8  9  1  0  0  0  0
  9 10  1  0  0  0  0
 10 11  2  0  0  0  0
M  CHG  1   1   1
M  END
>  <name>
[N+](CC)(CC)=C1C=C[C;olefin]C=C1

>  <apo>
1

>  <freq>
3

>  <freq0>
0

>  <freq1>
3

>  <freqA>
2.9983063

>  <a_count>
27

$$$$

  MOE2015           2D

 14 15  0  0  0  0  0  0  0  0999 V2000
    1.2860   -3.7120    0.0000 Cl  0  0  0  0  0  0  0  0  0  0  0  0
    0.5360   -2.4120    0.0000 C   0  0  0  0  0  0  0  0  0  0  0  0
   -0.9640   -2.4120    0.0000 C   0  0  0  0  0  0  0  0  0  0  0  0
   -1.7140   -3.7120    0.0000 Cl  0  0  0  0  0  0  0  0  0  0  0  0
   -1.7140   -1.1130    0.0000 C   0  0  0  0  0  0  0  0  0  0  0  0
   -0.9640    0.1860    0.0000 C   0  0  0  0  0  0  0  0  0  0  0  0
    0.5360    0.1860    0.0000 C   0  0  0  0  0  0  0  0  0  0  0  0
    1.2860   -1.1130    0.0000 C   0  0  0  0  0  0  0  0  0  0  0  0
    2.7860   -1.1130    0.0000 N   0  0  0  0  0  0  0  0  0  0  0  0
    3.5360    0.1860    0.0000 C   0  0  0  0  0  0  0  0  0  0  0  0
    5.0360    0.1860    0.0000 C   0  0  0  0  0  0  0  0  0  0  0  0
    5.7860   -1.1130    0.0000 N   0  0  0  0  0  0  0  0  0  0  0  0
    5.0360   -2.4120    0.0000 C   0  0  0  0  0  0  0  0  0  0  0  0
    3.5360   -2.4120    0.0000 C   0  0  0  0  0  0  0  0  0  0  0  0
  1  2  1  0  0  0  0
  2  3  1  0  0  0  0
  2  8  2  0  0  0  0
  3  4  1  0  0  0  0
  3  5  2  0  0  0  0
  5  6  1  0  0  0  0
  6  7  2  0  0  0  0
  7  8  1  0  0  0  0
  8  9  1  0  0  0  0
  9 10  1  0  0  0  0
  9 14  1  0  0  0  0
 10 11  1  0  0  0  0
 11 12  1  0  0  0  0
 12 13  1  0  0  0  0
 13 14  1  0  0  0  0
M  END
>  <name>
Clc1c(Cl)cccc1N1CC[N;amine]CC1

>  <apo>
1

>  <freq>
3

>  <freq0>
0

>  <freq1>
3

>  <freqA>
2.9983063

>  <a_count>
26

$$$$

  MOE2015           2D

 18 20  0  0  0  0  0  0  0  0999 V2000
   -2.2090    4.1740    0.0000 F   0  0  0  0  0  0  0  0  0  0  0  0
   -1.4590    2.8750    0.0000 C   0  0  0  0  0  0  0  0  0  0  0  0
   -2.7580    2.1250    0.0000 F   0  0  0  0  0  0  0  0  0  0  0  0
   -0.7090    1.5760    0.0000 F   0  0  0  0  0  0  0  0  0  0  0  0
   -0.1600    3.6250    0.0000 C   0  0  0  0  0  0  0  0  0  0  0  0
    1.1390    2.8750    0.0000 C   0  0  0  0  0  0  0  0  0  0  0  0
    2.4380    3.6250    0.0000 C   0  0  0  0  0  0  0  0  0  0  0  0
    3.7370    2.8750    0.0000 N   0  0  0  0  0  0  0  0  0  0  0  0
    5.0360    3.6250    0.0000 C   0  0  0  0  0  0  0  0  0  0  0  0
    5.0360    5.1250    0.0000 C   0  0  0  0  0  0  0  0  0  0  0  0
    3.7370    5.8750    0.0000 S   0  0  0  0  0  0  0  0  0  0  0  0
    2.4380    5.1250    0.0000 C   0  0  0  0  0  0  0  0  0  0  0  0
    1.1390    5.8750    0.0000 C   0  0  0  0  0  0  0  0  0  0  0  0
   -0.1600    5.1250    0.0000 C   0  0  0  0  0  0  0  0  0  0  0  0
    6.3350    5.8750    0.0000 C   0  0  0  0  0  0  0  0  0  0  0  0
    7.6340    5.1250    0.0000 C   0  0  0  0  0  0  0  0  0  0  0  0
    7.6340    3.6250    0.0000 C   0  0  0  0  0  0  0  0  0  0  0  0
    6.3350    2.8750    0.0000 C   0  0  0  0  0  0  0  0  0  0  0  0
  1  2  1  0  0  0  0
  2  3  1  0  0  0  0
  2  4  1  0  0  0  0
  2  5  1  0  0  0  0
  5  6  1  0  0  0  0
  5 14  2  0  0  0  0
  6  7  2  0  0  0  0
  7  8  1  0  0  0  0
  7 12  1  0  0  0  0
  8  9  1  0  0  0  0
  9 10  1  0  0  0  0
  9 18  2  0  0  0  0
 10 11  1  0  0  0  0
 10 15  2  0  0  0  0
 11 12  1  0  0  0  0
 12 13  2  0  0  0  0
 13 14  1  0  0  0  0
 15 16  1  0  0  0  0
 16 17  2  0  0  0  0
 17 18  1  0  0  0  0
M  END
>  <name>
FC(F)(F)c1cc2[N;amine]c3c(Sc2cc1)cccc3

>  <apo>
1

>  <freq>
3

>  <freq0>
0

>  <freq1>
3

>  <freqA>
2.9983063

>  <a_count>
26

$$$$

  MOE2015           2D

 10 10  0  0  1  0  0  0  0  0999 V2000
    1.3700   -2.3730    0.0000 O   0  0  0  0  0  0  0  0  0  0  0  0
    2.1200   -1.0740    0.0000 C   0  0  1  0  0  0  0  0  0  0  0  0
    3.6200   -1.0740    0.0000 C   0  0  0  0  0  0  0  0  0  0  0  0
    4.3700    0.2250    0.0000 C   0  0  0  0  0  0  0  0  0  0  0  0
    5.6690   -0.5250    0.0000 C   0  0  0  0  0  0  0  0  0  0  0  0
    5.6690    0.9750    0.0000 C   0  0  0  0  0  0  0  0  0  0  0  0
    3.6200    1.5240    0.0000 C   0  0  0  0  0  0  0  0  0  0  0  0
    2.1200    1.5240    0.0000 C   0  0  0  0  0  0  0  0  0  0  0  0
    1.3700    2.8230    0.0000 C   0  0  0  0  0  0  0  0  0  0  0  0
    1.3700    0.2250    0.0000 C   0  0  0  0  0  0  0  0  0  0  0  0
  2  1  1  6  0  0  0
  2  3  1  0  0  0  0
  2 10  1  0  0  0  0
  3  4  1  0  0  0  0
  4  5  1  0  0  0  0
  4  6  1  0  0  0  0
  4  7  1  0  0  0  0
  7  8  2  0  0  0  0
  8  9  1  0  0  0  0
  8 10  1  0  0  0  0
M  END
>  <name>
O[C@H]1CC(C)(C)[C;olefin]=C(C)C1

>  <apo>
1

>  <freq>
3

>  <freq0>
0

>  <freq1>
3

>  <freqA>
2.9983063

>  <a_count>
26

$$$$

  MOE2015           2D

 14 15  0  0  0  0  0  0  0  0999 V2000
    9.7540   -2.6130    0.0000 O   0  0  0  0  0  0  0  0  0  0  0  0
    8.4550   -1.8630    0.0000 C   0  0  0  0  0  0  0  0  0  0  0  0
    8.4550   -0.3630    0.0000 C   0  0  0  0  0  0  0  0  0  0  0  0
    7.1550    0.3870    0.0000 C   0  0  0  0  0  0  0  0  0  0  0  0
    5.8560   -0.3630    0.0000 C   0  0  0  0  0  0  0  0  0  0  0  0
    4.5570    0.3870    0.0000 C   0  0  0  0  0  0  0  0  0  0  0  0
    3.2580   -0.3630    0.0000 C   0  0  0  0  0  0  0  0  0  0  0  0
    3.2580   -1.8630    0.0000 C   0  0  0  0  0  0  0  0  0  0  0  0
    1.9590   -2.6130    0.0000 C   0  0  0  0  0  0  0  0  0  0  0  0
    0.6600   -1.8630    0.0000 C   0  0  0  0  0  0  0  0  0  0  0  0
    0.6600   -0.3630    0.0000 C   0  0  0  0  0  0  0  0  0  0  0  0
    1.9590    0.3870    0.0000 C   0  0  0  0  0  0  0  0  0  0  0  0
    5.8560   -1.8630    0.0000 C   0  0  0  0  0  0  0  0  0  0  0  0
    7.1550   -2.6130    0.0000 C   0  0  0  0  0  0  0  0  0  0  0  0
  1  2  1  0  0  0  0
  2  3  1  0  0  0  0
  2 14  2  0  0  0  0
  3  4  2  0  0  0  0
  4  5  1  0  0  0  0
  5  6  1  0  0  0  0
  5 13  2  0  0  0  0
  6  7  1  0  0  0  0
  7  8  1  0  0  0  0
  7 12  2  0  0  0  0
  8  9  2  0  0  0  0
  9 10  1  0  0  0  0
 10 11  2  0  0  0  0
 11 12  1  0  0  0  0
 13 14  1  0  0  0  0
M  END
>  <name>
[O;ether]c1ccc([C;olefin]c2ccccc2)cc1

>  <apo>
2

>  <freq>
3

>  <freq0>
0

>  <freq1>
3

>  <freqA>
2.9983063

>  <a_count>
26

$$$$

  MOE2015           2D

 11 11  0  0  0  0  0  0  0  0999 V2000
   -5.3180    3.0700    0.0000 O   0  0  0  0  0  0  0  0  0  0  0  0
   -6.0680    4.3690    0.0000 C   0  0  0  0  0  0  0  0  0  0  0  0
   -3.8180    3.0700    0.0000 C   0  0  0  0  0  0  0  0  0  0  0  0
   -3.0680    1.7710    0.0000 C   0  0  0  0  0  0  0  0  0  0  0  0
   -1.5680    1.7710    0.0000 C   0  0  0  0  0  0  0  0  0  0  0  0
   -0.8180    3.0700    0.0000 C   0  0  0  0  0  0  0  0  0  0  0  0
    0.6820    3.0700    0.0000 C   0  0  0  0  0  0  0  0  0  0  0  0
    1.4320    1.7710    0.0000 C   0  0  0  0  0  0  0  0  0  0  0  0
    2.9320    1.7710    0.0000 C   0  0  0  0  0  0  0  0  0  0  0  0
   -1.5680    4.3690    0.0000 C   0  0  0  0  0  0  0  0  0  0  0  0
   -3.0680    4.3690    0.0000 C   0  0  0  0  0  0  0  0  0  0  0  0
  1  2  1  0  0  0  0
  1  3  1  0  0  0  0
  3  4  1  0  0  0  0
  3 11  2  0  0  0  0
  4  5  2  0  0  0  0
  5  6  1  0  0  0  0
  6  7  1  0  0  0  0
  6 10  2  0  0  0  0
  7  8  1  0  0  0  0
  8  9  1  0  0  0  0
 10 11  1  0  0  0  0
M  END
>  <name>
O(C)c1ccc(C[C;amine]C)cc1

>  <apo>
1

>  <freq>
3

>  <freq0>
0

>  <freq1>
3

>  <freqA>
2.9983063

>  <a_count>
25

$$$$

  MOE2015           2D

 16 17  0  0  0  0  0  0  0  0999 V2000
    6.9940    1.8080    0.0000 O   0  0  0  0  0  0  0  0  0  0  0  0
    6.2440    3.1070    0.0000 C   0  0  0  0  0  0  0  0  0  0  0  0
    4.7440    3.1070    0.0000 C   0  0  0  0  0  0  0  0  0  0  0  0
    3.9940    4.4060    0.0000 N   0  0  0  0  0  0  0  0  0  0  0  0
    4.7440    5.7050    0.0000 C   0  0  0  0  0  0  0  0  0  0  0  0
    2.4940    4.4060    0.0000 S   0  0  0  0  0  0  0  0  0  0  0  0
    1.1950    5.1560    0.0000 O   0  0  0  0  0  0  0  0  0  0  0  0
    2.4940    5.9060    0.0000 O   0  0  0  0  0  0  0  0  0  0  0  0
    1.7440    3.1070    0.0000 C   0  0  0  0  0  0  0  0  0  0  0  0
    2.4940    1.8080    0.0000 C   0  0  0  0  0  0  0  0  0  0  0  0
    3.9940    1.8080    0.0000 C   0  0  0  0  0  0  0  0  0  0  0  0
    4.7440    0.5090    0.0000 O   0  0  0  0  0  0  0  0  0  0  0  0
    1.7440    0.5090    0.0000 C   0  0  0  0  0  0  0  0  0  0  0  0
    0.2440    0.5090    0.0000 C   0  0  0  0  0  0  0  0  0  0  0  0
   -0.5060    1.8080    0.0000 C   0  0  0  0  0  0  0  0  0  0  0  0
    0.2440    3.1070    0.0000 C   0  0  0  0  0  0  0  0  0  0  0  0
  1  2  2  0  0  0  0
  2  3  1  0  0  0  0
  3  4  1  0  0  0  0
  3 11  2  0  0  0  0
  4  5  1  0  0  0  0
  4  6  1  0  0  0  0
  6  7  2  0  0  0  0
  6  8  2  0  0  0  0
  6  9  1  0  0  0  0
  9 10  1  0  0  0  0
  9 16  2  0  0  0  0
 10 11  1  0  0  0  0
 10 13  2  0  0  0  0
 11 12  1  0  0  0  0
 13 14  1  0  0  0  0
 14 15  2  0  0  0  0
 15 16  1  0  0  0  0
M  END
>  <name>
O=[C;amide]C=1N(C)S(=O)(=O)c2c(C=1O)cccc2

>  <apo>
1

>  <freq>
3

>  <freq0>
0

>  <freq1>
3

>  <freqA>
2.9983063

>  <a_count>
25

$$$$

  MOE2015           2D

 11 10  0  0  1  0  0  0  0  0999 V2000
   10.0870   -2.0210    0.0000 O   0  0  0  0  0  0  0  0  0  0  0  0
    8.7880   -2.7710    0.0000 C   0  0  0  0  0  0  0  0  0  0  0  0
    7.4890   -2.0210    0.0000 C   0  0  1  0  0  0  0  0  0  0  0  0
    7.4890   -0.5210    0.0000 N   0  0  0  0  0  0  0  0  0  0  0  0
    6.1900   -2.7710    0.0000 C   0  0  0  0  0  0  0  0  0  0  0  0
    4.8910   -2.0210    0.0000 C   0  0  0  0  0  0  0  0  0  0  0  0
    3.5920   -2.7710    0.0000 C   0  0  0  0  0  0  0  0  0  0  0  0
    2.2930   -2.0210    0.0000 N   0  0  0  0  0  0  0  0  0  0  0  0
    0.9940   -2.7710    0.0000 C   0  0  0  0  0  0  0  0  0  0  0  0
    0.9940   -4.2710    0.0000 N   0  0  0  0  0  0  0  0  0  0  0  0
   -0.3050   -2.0210    0.0000 N   0  0  0  0  0  0  0  0  0  0  0  0
  1  2  2  0  0  0  0
  2  3  1  0  0  0  0
  3  4  1  6  0  0  0
  3  5  1  0  0  0  0
  5  6  1  0  0  0  0
  6  7  1  0  0  0  0
  7  8  1  0  0  0  0
  8  9  2  0  0  0  0
  9 10  1  0  0  0  0
  9 11  1  0  0  0  0
M  END
>  <name>
O=[C;amide][C@@H]([N;amide])CCC/N=C(\N)/N

>  <apo>
2

>  <freq>
3

>  <freq0>
0

>  <freq1>
3

>  <freqA>
2.9983063

>  <a_count>
25

$$$$

  MOE2015           2D

 13 14  0  0  1  0  0  0  0  0999 V2000
    1.8020    5.7010    0.0000 O   0  0  0  0  0  0  0  0  0  0  0  0
    0.8120    4.5730    0.0000 C   0  0  0  0  0  0  0  0  0  0  0  0
    1.2940    3.1530    0.0000 C   0  0  1  0  0  0  0  0  0  0  0  0
    0.4270    1.9280    0.0000 C   0  0  0  0  0  0  0  0  0  0  0  0
   -0.8610    2.6960    0.0000 C   0  0  0  0  0  0  0  0  0  0  0  0
   -0.8420    1.1280    0.0000 C   0  0  0  0  0  0  0  0  0  0  0  0
    1.3240    0.7260    0.0000 S   0  0  0  0  0  0  0  0  0  0  0  0
    2.7450    1.2070    0.0000 C   0  0  2  0  0  0  0  0  0  0  0  0
    4.2450    1.2260    0.0000 C   0  0  2  0  0  0  0  0  0  0  0  0
    5.3190    0.1790    0.0000 N   0  0  0  0  0  0  0  0  0  0  0  0
    4.2260    2.7260    0.0000 C   0  0  0  0  0  0  0  0  0  0  0  0
    5.2730    3.8000    0.0000 O   0  0  0  0  0  0  0  0  0  0  0  0
    2.7260    2.7070    0.0000 N   0  0  0  0  0  0  0  0  0  0  0  0
  1  2  2  0  0  0  0
  3  2  1  6  0  0  0
  3  4  1  0  0  0  0
  3 13  1  0  0  0  0
  4  5  1  0  0  0  0
  4  6  1  0  0  0  0
  4  7  1  0  0  0  0
  8  7  1  1  0  0  0
  8  9  1  0  0  0  0
  8 13  1  0  0  0  0
  9 10  1  1  0  0  0
  9 11  1  0  0  0  0
 11 12  2  0  0  0  0
 11 13  1  0  0  0  0
M  END
>  <name>
O=[C;ester][C@H]1C(C)(C)S[C@@H]2[C@H]([N;amide])C(=O)N12

>  <apo>
2

>  <freq>
3

>  <freq0>
0

>  <freq1>
3

>  <freqA>
2.9983063

>  <a_count>
25

$$$$

  MOE2015           2D

 16 16  0  0  0  0  0  0  0  0999 V2000
    0.4030   -1.5030    0.0000 F   0  0  0  0  0  0  0  0  0  0  0  0
    1.7020   -0.7530    0.0000 C   0  0  0  0  0  0  0  0  0  0  0  0
    2.4520   -2.0520    0.0000 F   0  0  0  0  0  0  0  0  0  0  0  0
    0.9520    0.5460    0.0000 F   0  0  0  0  0  0  0  0  0  0  0  0
    3.0010   -0.0030    0.0000 C   0  0  0  0  0  0  0  0  0  0  0  0
    4.3000   -0.7530    0.0000 C   0  0  0  0  0  0  0  0  0  0  0  0
    5.5990   -0.0030    0.0000 C   0  0  0  0  0  0  0  0  0  0  0  0
    6.8980   -0.7530    0.0000 C   0  0  0  0  0  0  0  0  0  0  0  0
    7.6480    0.5460    0.0000 F   0  0  0  0  0  0  0  0  0  0  0  0
    8.1970   -1.5030    0.0000 F   0  0  0  0  0  0  0  0  0  0  0  0
    6.1480   -2.0520    0.0000 F   0  0  0  0  0  0  0  0  0  0  0  0
    5.5990    1.4970    0.0000 C   0  0  0  0  0  0  0  0  0  0  0  0
    4.3000    2.2470    0.0000 C   0  0  0  0  0  0  0  0  0  0  0  0
    4.3000    3.7470    0.0000 C   0  0  0  0  0  0  0  0  0  0  0  0
    3.0010    4.4970    0.0000 C   0  0  0  0  0  0  0  0  0  0  0  0
    3.0010    1.4970    0.0000 C   0  0  0  0  0  0  0  0  0  0  0  0
  1  2  1  0  0  0  0
  2  3  1  0  0  0  0
  2  4  1  0  0  0  0
  2  5  1  0  0  0  0
  5  6  1  0  0  0  0
  5 16  2  0  0  0  0
  6  7  2  0  0  0  0
  7  8  1  0  0  0  0
  7 12  1  0  0  0  0
  8  9  1  0  0  0  0
  8 10  1  0  0  0  0
  8 11  1  0  0  0  0
 12 13  2  0  0  0  0
 13 14  1  0  0  0  0
 13 16  1  0  0  0  0
 14 15  1  0  0  0  0
M  END
>  <name>
FC(F)(F)c1cc(C(F)(F)F)cc([C;ether]C)c1

>  <apo>
1

>  <freq>
3

>  <freq0>
0

>  <freq1>
3

>  <freqA>
2.9983063

>  <a_count>
24

$$$$

  MOE2015           2D

 12 12  0  0  1  0  0  0  0  0999 V2000
    7.7840    2.0860    0.0000 O   0  0  0  0  0  0  0  0  0  0  0  0
    6.4850    1.3360    0.0000 C   0  0  0  0  0  0  0  0  0  0  0  0
    6.4850   -0.1640    0.0000 N   0  0  0  0  0  0  0  0  0  0  0  0
    5.1860    2.0860    0.0000 C   0  0  1  0  0  0  0  0  0  0  0  0
    5.1860    3.5860    0.0000 N   0  0  0  0  0  0  0  0  0  0  0  0
    3.8870    1.3360    0.0000 C   0  0  0  0  0  0  0  0  0  0  0  0
    2.5880    2.0860    0.0000 C   0  0  0  0  0  0  0  0  0  0  0  0
    2.5880    3.5860    0.0000 C   0  0  0  0  0  0  0  0  0  0  0  0
    1.2890    4.3360    0.0000 C   0  0  0  0  0  0  0  0  0  0  0  0
   -0.0100    3.5860    0.0000 C   0  0  0  0  0  0  0  0  0  0  0  0
   -0.0100    2.0860    0.0000 C   0  0  0  0  0  0  0  0  0  0  0  0
    1.2890    1.3360    0.0000 C   0  0  0  0  0  0  0  0  0  0  0  0
  1  2  2  0  0  0  0
  2  3  1  0  0  0  0
  2  4  1  0  0  0  0
  4  5  1  6  0  0  0
  4  6  1  0  0  0  0
  6  7  1  0  0  0  0
  7  8  1  0  0  0  0
  7 12  2  0  0  0  0
  8  9  2  0  0  0  0
  9 10  1  0  0  0  0
 10 11  2  0  0  0  0
 11 12  1  0  0  0  0
M  END
>  <name>
O=C(N)[C@@H]([N;amide])Cc1ccccc1

>  <apo>
1

>  <freq>
3

>  <freq0>
0

>  <freq1>
3

>  <freqA>
2.9983063

>  <a_count>
24

$$$$

  MOE2015           2D

 14 15  0  0  1  0  0  0  0  0999 V2000
    0.9240    5.0110    0.0000 O   0  0  0  0  0  0  0  0  0  0  0  0
    0.1740    3.7120    0.0000 C   0  0  0  0  0  0  0  0  0  0  0  0
   -1.3260    3.7120    0.0000 O   0  0  0  0  0  0  0  0  0  0  0  0
    0.9240    2.4120    0.0000 C   0  0  0  0  0  0  0  0  0  0  0  0
    0.1740    1.1130    0.0000 C   0  0  0  0  0  0  0  0  0  0  0  0
   -1.3260    1.1130    0.0000 C   0  0  0  0  0  0  0  0  0  0  0  0
    0.9240   -0.1860    0.0000 C   0  0  0  0  0  0  0  0  0  0  0  0
    2.4240   -0.1860    0.0000 S   0  0  0  0  0  0  0  0  0  0  0  0
    3.1740    1.1130    0.0000 C   0  0  2  0  0  0  0  0  0  0  0  0
    4.4730    1.8630    0.0000 C   0  0  2  0  0  0  0  0  0  0  0  0
    5.9220    1.4750    0.0000 N   0  0  0  0  0  0  0  0  0  0  0  0
    3.7230    3.1620    0.0000 C   0  0  0  0  0  0  0  0  0  0  0  0
    4.1110    4.6110    0.0000 O   0  0  0  0  0  0  0  0  0  0  0  0
    2.4240    2.4120    0.0000 N   0  0  0  0  0  0  0  0  0  0  0  0
  1  2  2  0  0  0  0
  2  3  1  0  0  0  0
  2  4  1  0  0  0  0
  4  5  2  0  0  0  0
  4 14  1  0  0  0  0
  5  6  1  0  0  0  0
  5  7  1  0  0  0  0
  7  8  1  0  0  0  0
  9  8  1  1  0  0  0
  9 10  1  0  0  0  0
  9 14  1  0  0  0  0
 10 11  1  1  0  0  0
 10 12  1  0  0  0  0
 12 13  2  0  0  0  0
 12 14  1  0  0  0  0
M  END
>  <name>
O=C(O)C1=C(C)CS[C@@H]2[C@H]([N;amide])C(=O)N12

>  <apo>
1

>  <freq>
3

>  <freq0>
0

>  <freq1>
3

>  <freqA>
2.9983063

>  <a_count>
24

$$$$

  MOE2015           2D

 15 16  0  0  1  0  0  0  0  0999 V2000
    0.2430   -0.2970    0.0000 O   0  0  0  0  0  0  0  0  0  0  0  0
    0.5440    1.1720    0.0000 C   0  0  0  0  0  0  0  0  0  0  0  0
    1.9100    1.7920    0.0000 C   0  0  3  0  0  0  0  0  0  0  0  0
    3.2140    1.0510    0.0000 C   0  0  0  0  0  0  0  0  0  0  0  0
    4.5080    1.8110    0.0000 C   0  0  0  0  0  0  0  0  0  0  0  0
    4.4970    3.3110    0.0000 C   0  0  0  0  0  0  0  0  0  0  0  0
    5.7900    4.0700    0.0000 C   0  0  0  0  0  0  0  0  0  0  0  0
    7.0950    3.3300    0.0000 C   0  0  0  0  0  0  0  0  0  0  0  0
    8.3880    4.0890    0.0000 O   0  0  0  0  0  0  0  0  0  0  0  0
    7.1060    1.8300    0.0000 C   0  0  0  0  0  0  0  0  0  0  0  0
    5.8120    1.0700    0.0000 C   0  0  0  0  0  0  0  0  0  0  0  0
    1.7420    3.2830    0.0000 S   0  0  0  0  0  0  0  0  0  0  0  0
    0.2730    3.5840    0.0000 C   0  0  0  0  0  0  0  0  0  0  0  0
   -0.3470    4.9500    0.0000 O   0  0  0  0  0  0  0  0  0  0  0  0
   -0.4680    2.2790    0.0000 N   0  0  0  0  0  0  0  0  0  0  0  0
  1  2  2  0  0  0  0
  2  3  1  0  0  0  0
  2 15  1  0  0  0  0
  3  4  1  0  0  0  0
  3 12  1  0  0  0  0
  4  5  1  0  0  0  0
  5  6  1  0  0  0  0
  5 11  2  0  0  0  0
  6  7  2  0  0  0  0
  7  8  1  0  0  0  0
  8  9  1  0  0  0  0
  8 10  2  0  0  0  0
 10 11  1  0  0  0  0
 12 13  1  0  0  0  0
 13 14  2  0  0  0  0
 13 15  1  0  0  0  0
M  END
>  <name>
O=C1C(Cc2ccc([O;ether])cc2)SC(=O)N1

>  <apo>
1

>  <freq>
3

>  <freq0>
0

>  <freq1>
3

>  <freqA>
2.9983063

>  <a_count>
24

$$$$

  MOE2015           2D

  8  8  0  0  0  0  0  0  0  0999 V2000
    4.2920    1.1500    0.0000 C   0  0  0  0  0  0  0  0  0  0  0  0
    2.9930    0.4000    0.0000 N   0  3  0  0  0  0  0  0  0  0  0  0
    4.2920   -0.3500    0.0000 C   0  0  0  0  0  0  0  0  0  0  0  0
    2.2430    1.6990    0.0000 C   0  0  0  0  0  0  0  0  0  0  0  0
    0.7430    1.6990    0.0000 C   0  0  0  0  0  0  0  0  0  0  0  0
   -0.0070    0.4000    0.0000 N   0  0  0  0  0  0  0  0  0  0  0  0
    0.7430   -0.8990    0.0000 C   0  0  0  0  0  0  0  0  0  0  0  0
    2.2430   -0.8990    0.0000 C   0  0  0  0  0  0  0  0  0  0  0  0
  1  2  1  0  0  0  0
  2  3  1  0  0  0  0
  2  4  1  0  0  0  0
  2  8  1  0  0  0  0
  4  5  1  0  0  0  0
  5  6  1  0  0  0  0
  6  7  1  0  0  0  0
  7  8  1  0  0  0  0
M  CHG  1   2   1
M  END
>  <name>
C[N+]1(C)CC[N;amine]CC1

>  <apo>
1

>  <freq>
3

>  <freq0>
0

>  <freq1>
3

>  <freqA>
2.9983063

>  <a_count>
23

$$$$

  MOE2015           2D

 15 17  0  0  0  0  0  0  0  0999 V2000
    9.7500   -2.6120    0.0000 Cl  0  0  0  0  0  0  0  0  0  0  0  0
    8.4510   -1.8620    0.0000 C   0  0  0  0  0  0  0  0  0  0  0  0
    7.1520   -2.6120    0.0000 C   0  0  0  0  0  0  0  0  0  0  0  0
    5.8530   -1.8620    0.0000 C   0  0  0  0  0  0  0  0  0  0  0  0
    4.5540   -2.6120    0.0000 N   0  0  0  0  0  0  0  0  0  0  0  0
    3.2550   -1.8620    0.0000 C   0  0  0  0  0  0  0  0  0  0  0  0
    3.2550   -0.3620    0.0000 C   0  0  0  0  0  0  0  0  0  0  0  0
    4.5540    0.3880    0.0000 S   0  0  0  0  0  0  0  0  0  0  0  0
    5.8530   -0.3620    0.0000 C   0  0  0  0  0  0  0  0  0  0  0  0
    7.1520    0.3880    0.0000 C   0  0  0  0  0  0  0  0  0  0  0  0
    8.4510   -0.3620    0.0000 C   0  0  0  0  0  0  0  0  0  0  0  0
    1.9560    0.3880    0.0000 C   0  0  0  0  0  0  0  0  0  0  0  0
    0.6560   -0.3620    0.0000 C   0  0  0  0  0  0  0  0  0  0  0  0
    0.6560   -1.8620    0.0000 C   0  0  0  0  0  0  0  0  0  0  0  0
    1.9560   -2.6120    0.0000 C   0  0  0  0  0  0  0  0  0  0  0  0
  1  2  1  0  0  0  0
  2  3  1  0  0  0  0
  2 11  2  0  0  0  0
  3  4  2  0  0  0  0
  4  5  1  0  0  0  0
  4  9  1  0  0  0  0
  5  6  1  0  0  0  0
  6  7  1  0  0  0  0
  6 15  2  0  0  0  0
  7  8  1  0  0  0  0
  7 12  2  0  0  0  0
  8  9  1  0  0  0  0
  9 10  2  0  0  0  0
 10 11  1  0  0  0  0
 12 13  1  0  0  0  0
 13 14  2  0  0  0  0
 14 15  1  0  0  0  0
M  END
>  <name>
Clc1cc2[N;amine]c3c(Sc2cc1)cccc3

>  <apo>
1

>  <freq>
3

>  <freq0>
0

>  <freq1>
3

>  <freqA>
2.9983063

>  <a_count>
23

$$$$

  MOE2015           2D

  9  8  0  0  1  0  0  0  0  0999 V2000
   -0.3080   -2.3150    0.0000 O   0  0  0  0  0  0  0  0  0  0  0  0
    0.9910   -1.5650    0.0000 C   0  0  0  0  0  0  0  0  0  0  0  0
    2.2900   -2.3150    0.0000 C   0  0  0  0  0  0  0  0  0  0  0  0
    3.5890   -1.5650    0.0000 C   0  0  1  0  0  0  0  0  0  0  0  0
    3.5890   -0.0650    0.0000 N   0  0  0  0  0  0  0  0  0  0  0  0
    4.8880   -2.3150    0.0000 C   0  0  0  0  0  0  0  0  0  0  0  0
    6.1870   -1.5650    0.0000 C   0  0  0  0  0  0  0  0  0  0  0  0
    7.4860   -2.3150    0.0000 C   0  0  0  0  0  0  0  0  0  0  0  0
    8.7850   -1.5650    0.0000 N   0  0  0  0  0  0  0  0  0  0  0  0
  1  2  2  0  0  0  0
  2  3  1  0  0  0  0
  3  4  1  0  0  0  0
  4  5  1  1  0  0  0
  4  6  1  0  0  0  0
  6  7  1  0  0  0  0
  7  8  1  0  0  0  0
  8  9  1  0  0  0  0
M  END
>  <name>
O=[C;amide]C[C@@H](N)CCCN

>  <apo>
1

>  <freq>
3

>  <freq0>
0

>  <freq1>
3

>  <freqA>
2.9983063

>  <a_count>
23

$$$$

  MOE2015           2D

  9  8  0  0  1  0  0  0  0  0999 V2000
   -0.4970   -1.8540    0.0000 O   0  0  0  0  0  0  0  0  0  0  0  0
    0.8020   -2.6040    0.0000 C   0  0  0  0  0  0  0  0  0  0  0  0
    2.1010   -1.8540    0.0000 C   0  0  1  0  0  0  0  0  0  0  0  0
    2.1010   -0.3540    0.0000 N   0  0  0  0  0  0  0  0  0  0  0  0
    3.4000   -2.6040    0.0000 C   0  0  0  0  0  0  0  0  0  0  0  0
    4.6990   -1.8540    0.0000 C   0  0  0  0  0  0  0  0  0  0  0  0
    5.9980   -2.6040    0.0000 C   0  0  0  0  0  0  0  0  0  0  0  0
    7.2970   -1.8540    0.0000 C   0  0  0  0  0  0  0  0  0  0  0  0
    8.5960   -2.6040    0.0000 N   0  0  0  0  0  0  0  0  0  0  0  0
  1  2  2  0  0  0  0
  2  3  1  0  0  0  0
  3  4  1  1  0  0  0
  3  5  1  0  0  0  0
  5  6  1  0  0  0  0
  6  7  1  0  0  0  0
  7  8  1  0  0  0  0
  8  9  1  0  0  0  0
M  END
>  <name>
O=[C;amide][C@@H](N)CCCCN

>  <apo>
1

>  <freq>
3

>  <freq0>
0

>  <freq1>
3

>  <freqA>
2.9983063

>  <a_count>
23

$$$$

  MOE2015           2D

  9  9  0  0  0  0  0  0  0  0999 V2000
    8.0540    2.1580    0.0000 O   0  0  0  0  0  0  0  0  0  0  0  0
    6.7550    1.4080    0.0000 C   0  0  0  0  0  0  0  0  0  0  0  0
    5.4560    2.1580    0.0000 C   0  0  0  0  0  0  0  0  0  0  0  0
    4.1570    1.4080    0.0000 C   0  0  0  0  0  0  0  0  0  0  0  0
    2.8580    2.1580    0.0000 C   0  0  0  0  0  0  0  0  0  0  0  0
    2.7020    3.6500    0.0000 C   0  0  0  0  0  0  0  0  0  0  0  0
    1.2340    3.9620    0.0000 C   0  0  0  0  0  0  0  0  0  0  0  0
    0.4840    2.6630    0.0000 C   0  0  0  0  0  0  0  0  0  0  0  0
    1.4880    1.5480    0.0000 C   0  0  0  0  0  0  0  0  0  0  0  0
  1  2  2  0  0  0  0
  2  3  1  0  0  0  0
  3  4  1  0  0  0  0
  4  5  1  0  0  0  0
  5  6  1  0  0  0  0
  5  9  1  0  0  0  0
  6  7  1  0  0  0  0
  7  8  1  0  0  0  0
  8  9  1  0  0  0  0
M  END
>  <name>
O=[C;ester]CCC1CCCC1

>  <apo>
1

>  <freq>
3

>  <freq0>
0

>  <freq1>
3

>  <freqA>
2.9983063

>  <a_count>
23

$$$$

  MOE2015           2D

 11 11  0  0  0  0  0  0  0  0999 V2000
   10.6140   -2.8440    0.0000 O   0  0  0  0  0  0  0  0  0  0  0  0
    9.3150   -2.0940    0.0000 C   0  0  0  0  0  0  0  0  0  0  0  0
    8.0160   -2.8440    0.0000 C   0  0  0  0  0  0  0  0  0  0  0  0
    6.7170   -2.0940    0.0000 C   0  0  0  0  0  0  0  0  0  0  0  0
    5.4180   -2.8440    0.0000 C   0  0  0  0  0  0  0  0  0  0  0  0
    4.1190   -2.0940    0.0000 C   0  0  0  0  0  0  0  0  0  0  0  0
    4.1190   -0.5940    0.0000 C   0  0  0  0  0  0  0  0  0  0  0  0
    2.8200    0.1560    0.0000 C   0  0  0  0  0  0  0  0  0  0  0  0
    1.5210   -0.5940    0.0000 C   0  0  0  0  0  0  0  0  0  0  0  0
    1.5210   -2.0940    0.0000 C   0  0  0  0  0  0  0  0  0  0  0  0
    2.8200   -2.8440    0.0000 C   0  0  0  0  0  0  0  0  0  0  0  0
  1  2  2  0  0  0  0
  2  3  1  0  0  0  0
  3  4  1  0  0  0  0
  4  5  1  0  0  0  0
  5  6  1  0  0  0  0
  6  7  1  0  0  0  0
  6 11  2  0  0  0  0
  7  8  2  0  0  0  0
  8  9  1  0  0  0  0
  9 10  2  0  0  0  0
 10 11  1  0  0  0  0
M  END
>  <name>
O=[C;ester]CCCc1ccccc1

>  <apo>
1

>  <freq>
3

>  <freq0>
0

>  <freq1>
3

>  <freqA>
2.9983063

>  <a_count>
23

$$$$

  MOE2015           2D

  9  9  0  0  1  0  0  0  0  0999 V2000
    0.0000    0.0000    0.0000 O   0  0  0  0  0  0  0  0  0  0  0  0
    1.5000    0.0000    0.0000 C   0  0  2  0  0  0  0  0  0  0  0  0
    2.2500    1.2990    0.0000 C   0  0  2  0  0  0  0  0  0  0  0  0
    1.5000    2.5980    0.0000 N   0  0  0  0  0  0  0  0  0  0  0  0
    3.7500    1.2990    0.0000 C   0  0  0  0  0  0  0  0  0  0  0  0
    4.5000    0.0000    0.0000 C   0  0  1  0  0  0  0  0  0  0  0  0
    6.0000    0.0000    0.0000 N   0  0  0  0  0  0  0  0  0  0  0  0
    3.7500   -1.2990    0.0000 C   0  0  0  0  0  0  0  0  0  0  0  0
    2.2500   -1.2990    0.0000 C   0  0  0  0  0  0  0  0  0  0  0  0
  2  1  1  6  0  0  0
  2  3  1  0  0  0  0
  2  9  1  0  0  0  0
  3  4  1  6  0  0  0
  3  5  1  0  0  0  0
  5  6  1  0  0  0  0
  6  7  1  1  0  0  0
  6  8  1  0  0  0  0
  8  9  1  0  0  0  0
M  END
>  <name>
O[C@@H]1[C@H](N)C[C@@H](N)[C;ether][C;ether]1

>  <apo>
2

>  <freq>
3

>  <freq0>
0

>  <freq1>
3

>  <freqA>
2.9983063

>  <a_count>
23

$$$$

  MOE2015           2D

 10  9  0  0  1  0  0  0  0  0999 V2000
    7.7220    0.2690    0.0000 O   0  0  0  0  0  0  0  0  0  0  0  0
    6.4230    1.0190    0.0000 C   0  0  0  0  0  0  0  0  0  0  0  0
    6.4230    2.5190    0.0000 O   0  0  0  0  0  0  0  0  0  0  0  0
    5.1240    0.2690    0.0000 C   0  0  0  0  0  0  0  0  0  0  0  0
    3.8250    1.0190    0.0000 C   0  0  2  0  0  0  0  0  0  0  0  0
    3.8250    2.5190    0.0000 O   0  0  0  0  0  0  0  0  0  0  0  0
    2.5260    0.2690    0.0000 C   0  0  0  0  0  0  0  0  0  0  0  0
    1.2270    1.0190    0.0000 C   0  0  1  0  0  0  0  0  0  0  0  0
    1.2270    2.5190    0.0000 O   0  0  0  0  0  0  0  0  0  0  0  0
   -0.0720    0.2690    0.0000 C   0  0  0  0  0  0  0  0  0  0  0  0
  1  2  2  0  0  0  0
  2  3  1  0  0  0  0
  2  4  1  0  0  0  0
  4  5  1  0  0  0  0
  5  6  1  1  0  0  0
  5  7  1  0  0  0  0
  7  8  1  0  0  0  0
  8  9  1  6  0  0  0
  8 10  1  0  0  0  0
M  END
>  <name>
O=C(O)C[C@H](O)C[C@@H](O)[C;olefin]

>  <apo>
1

>  <freq>
3

>  <freq0>
0

>  <freq1>
3

>  <freqA>
2.9983063

>  <a_count>
22

$$$$

  MOE2015           2D

  9  9  0  0  1  0  0  0  0  0999 V2000
    2.3330   -2.3330    0.0000 O   0  0  0  0  0  0  0  0  0  0  0  0
    2.3330   -0.8330    0.0000 C   0  0  2  0  0  0  0  0  0  0  0  0
    3.6320   -0.0830    0.0000 C   0  0  2  0  0  0  0  0  0  0  0  0
    4.9310   -0.8330    0.0000 C   0  0  0  0  0  0  0  0  0  0  0  0
    3.6320    1.4170    0.0000 O   0  0  0  0  0  0  0  0  0  0  0  0
    2.3330    2.1670    0.0000 C   0  0  0  0  0  0  0  0  0  0  0  0
    1.0340    1.4170    0.0000 C   0  0  0  0  0  0  0  0  0  0  0  0
    1.0340   -0.0830    0.0000 C   0  0  2  0  0  0  0  0  0  0  0  0
   -0.2650   -0.8330    0.0000 N   0  0  0  0  0  0  0  0  0  0  0  0
  2  1  1  1  0  0  0
  2  3  1  0  0  0  0
  2  8  1  0  0  0  0
  3  4  1  1  0  0  0
  3  5  1  0  0  0  0
  5  6  1  0  0  0  0
  6  7  1  0  0  0  0
  7  8  1  0  0  0  0
  8  9  1  1  0  0  0
M  END
>  <name>
O[C@@H]1[C@H](C)O[C;ether]C[C@@H]1N

>  <apo>
1

>  <freq>
3

>  <freq0>
0

>  <freq1>
3

>  <freqA>
2.9983063

>  <a_count>
22

$$$$

  MOE2015           2D

 10 10  0  0  1  0  0  0  0  0999 V2000
    4.5000    2.5980    0.0000 O   0  0  0  0  0  0  0  0  0  0  0  0
    3.7500    1.2990    0.0000 C   0  0  2  0  0  0  0  0  0  0  0  0
    4.5000    0.0000    0.0000 C   0  0  0  0  0  0  0  0  0  0  0  0
    6.0000    0.0000    0.0000 C   0  0  0  0  0  0  0  0  0  0  0  0
    2.2500    1.2990    0.0000 C   0  0  0  0  0  0  0  0  0  0  0  0
    1.5000    0.0000    0.0000 C   0  0  0  0  0  0  0  0  0  0  0  0
    0.0000    0.0000    0.0000 C   0  0  0  0  0  0  0  0  0  0  0  0
   -0.7500    1.2990    0.0000 C   0  0  0  0  0  0  0  0  0  0  0  0
    0.0000    2.5980    0.0000 C   0  0  0  0  0  0  0  0  0  0  0  0
    1.5000    2.5980    0.0000 C   0  0  0  0  0  0  0  0  0  0  0  0
  2  1  1  6  0  0  0
  2  3  1  0  0  0  0
  2  5  1  0  0  0  0
  3  4  1  0  0  0  0
  5  6  1  0  0  0  0
  5 10  2  0  0  0  0
  6  7  2  0  0  0  0
  7  8  1  0  0  0  0
  8  9  2  0  0  0  0
  9 10  1  0  0  0  0
M  END
>  <name>
O[C@H]([C;amine]C)c1ccccc1

>  <apo>
1

>  <freq>
3

>  <freq0>
0

>  <freq1>
3

>  <freqA>
2.9983063

>  <a_count>
22

$$$$

  MOE2015           2D

  7  7  0  0  0  0  0  0  0  0999 V2000
    5.1430    0.0000    0.0000 C   0  0  0  0  0  0  0  0  0  0  0  0
    3.6430    0.0000    0.0000 N   0  3  0  0  0  0  0  0  0  0  0  0
    2.8930    1.2990    0.0000 C   0  0  0  0  0  0  0  0  0  0  0  0
    1.3930    1.2990    0.0000 C   0  0  0  0  0  0  0  0  0  0  0  0
    0.6430    0.0000    0.0000 C   0  0  0  0  0  0  0  0  0  0  0  0
    1.3930   -1.2990    0.0000 C   0  0  0  0  0  0  0  0  0  0  0  0
    2.8930   -1.2990    0.0000 C   0  0  0  0  0  0  0  0  0  0  0  0
  1  2  1  0  0  0  0
  2  3  1  0  0  0  0
  2  7  1  0  0  0  0
  3  4  1  0  0  0  0
  4  5  1  0  0  0  0
  5  6  1  0  0  0  0
  6  7  1  0  0  0  0
M  CHG  1   2   1
M  END
>  <name>
C[N+;quatN]1CCCCC1

>  <apo>
1

>  <freq>
3

>  <freq0>
0

>  <freq1>
3

>  <freqA>
2.9983063

>  <a_count>
21

$$$$

  MOE2015           2D

 11 12  0  0  0  0  0  0  0  0999 V2000
    0.3550    1.6760    0.0000 C   0  0  0  0  0  0  0  0  0  0  0  0
    1.6540    0.9260    0.0000 C   0  0  0  0  0  0  0  0  0  0  0  0
    1.6540   -0.5740    0.0000 C   0  0  0  0  0  0  0  0  0  0  0  0
    0.3550   -1.3240    0.0000 C   0  0  0  0  0  0  0  0  0  0  0  0
    2.9530   -1.3240    0.0000 C   0  0  0  0  0  0  0  0  0  0  0  0
    4.2520   -0.5740    0.0000 C   0  0  0  0  0  0  0  0  0  0  0  0
    5.6790   -1.0380    0.0000 N   0  0  0  0  0  0  0  0  0  0  0  0
    6.5600    0.1760    0.0000 C   0  0  0  0  0  0  0  0  0  0  0  0
    5.6790    1.3890    0.0000 N   0  0  0  0  0  0  0  0  0  0  0  0
    4.2520    0.9260    0.0000 C   0  0  0  0  0  0  0  0  0  0  0  0
    2.9530    1.6760    0.0000 C   0  0  0  0  0  0  0  0  0  0  0  0
  1  2  1  0  0  0  0
  2  3  1  0  0  0  0
  2 11  2  0  0  0  0
  3  4  1  0  0  0  0
  3  5  2  0  0  0  0
  5  6  1  0  0  0  0
  6  7  1  0  0  0  0
  6 10  2  0  0  0  0
  7  8  2  0  0  0  0
  8  9  1  0  0  0  0
  9 10  1  0  0  0  0
 10 11  1  0  0  0  0
M  END
>  <name>
Cc1c(C)cc2nc[nH;NaroC]c2c1

>  <apo>
1

>  <freq>
3

>  <freq0>
0

>  <freq1>
3

>  <freqA>
2.9983063

>  <a_count>
21

$$$$

  MOE2015           2D

  8  7  0  0  1  0  0  0  0  0999 V2000
    6.3160   -1.8800    0.0000 O   0  0  0  0  0  0  0  0  0  0  0  0
    5.0170   -2.6300    0.0000 C   0  0  0  0  0  0  0  0  0  0  0  0
    3.7180   -1.8800    0.0000 C   0  0  3  0  0  0  0  0  0  0  0  0
    3.7180   -0.3800    0.0000 N   0  0  0  0  0  0  0  0  0  0  0  0
    2.4190   -2.6300    0.0000 C   0  0  0  0  0  0  0  0  0  0  0  0
    1.1200   -1.8800    0.0000 C   0  0  0  0  0  0  0  0  0  0  0  0
   -0.1790   -2.6300    0.0000 C   0  0  0  0  0  0  0  0  0  0  0  0
    1.1200   -0.3800    0.0000 C   0  0  0  0  0  0  0  0  0  0  0  0
  1  2  2  0  0  0  0
  2  3  1  0  0  0  0
  3  4  1  0  0  0  0
  3  5  1  0  0  0  0
  5  6  1  0  0  0  0
  6  7  1  0  0  0  0
  6  8  1  0  0  0  0
M  END
>  <name>
O=[C;amide]C([N;amide])CC(C)C

>  <apo>
2

>  <freq>
3

>  <freq0>
0

>  <freq1>
3

>  <freqA>
2.9983063

>  <a_count>
21

$$$$

  MOE2015           2D

 11 11  0  0  1  0  0  0  0  0999 V2000
    5.7270    0.7090    0.0000 O   0  0  0  0  0  0  0  0  0  0  0  0
    4.9770    2.0080    0.0000 C   0  0  3  0  0  0  0  0  0  0  0  0
    5.7270    3.3070    0.0000 C   0  0  0  0  0  0  0  0  0  0  0  0
    3.4770    2.0080    0.0000 C   0  0  0  0  0  0  0  0  0  0  0  0
    2.7270    3.3070    0.0000 C   0  0  0  0  0  0  0  0  0  0  0  0
    1.2270    3.3070    0.0000 C   0  0  0  0  0  0  0  0  0  0  0  0
    0.4770    4.6060    0.0000 O   0  0  0  0  0  0  0  0  0  0  0  0
    0.4770    2.0080    0.0000 C   0  0  0  0  0  0  0  0  0  0  0  0
    1.2270    0.7090    0.0000 C   0  0  0  0  0  0  0  0  0  0  0  0
    0.4770   -0.5900    0.0000 O   0  0  0  0  0  0  0  0  0  0  0  0
    2.7270    0.7090    0.0000 C   0  0  0  0  0  0  0  0  0  0  0  0
  1  2  1  0  0  0  0
  2  3  1  0  0  0  0
  2  4  1  0  0  0  0
  4  5  1  0  0  0  0
  4 11  2  0  0  0  0
  5  6  2  0  0  0  0
  6  7  1  0  0  0  0
  6  8  1  0  0  0  0
  8  9  2  0  0  0  0
  9 10  1  0  0  0  0
  9 11  1  0  0  0  0
M  END
>  <name>
OC([C;amine])c1cc(O)cc(O)c1

>  <apo>
1

>  <freq>
3

>  <freq0>
0

>  <freq1>
3

>  <freqA>
2.9983063

>  <a_count>
21

$$$$

  MOE2015           2D

 11 12  0  0  0  0  0  0  0  0999 V2000
    1.5460    1.5460    0.0000 C   0  0  0  0  0  0  0  0  0  0  0  0
    1.5460    0.0460    0.0000 C   0  0  0  0  0  0  0  0  0  0  0  0
    2.8450   -0.7040    0.0000 C   0  0  0  0  0  0  0  0  0  0  0  0
    2.8450   -2.2040    0.0000 C   0  0  0  0  0  0  0  0  0  0  0  0
    1.5460   -2.9540    0.0000 C   0  0  0  0  0  0  0  0  0  0  0  0
    0.2470   -2.2040    0.0000 C   0  0  0  0  0  0  0  0  0  0  0  0
    0.2470   -0.7040    0.0000 C   0  0  0  0  0  0  0  0  0  0  0  0
    4.1440   -2.9540    0.0000 C   0  0  0  0  0  0  0  0  0  0  0  0
    5.4430   -2.2040    0.0000 C   0  0  0  0  0  0  0  0  0  0  0  0
    5.4430   -0.7040    0.0000 C   0  0  0  0  0  0  0  0  0  0  0  0
    4.1440    0.0460    0.0000 C   0  0  0  0  0  0  0  0  0  0  0  0
  1  2  1  0  0  0  0
  2  3  1  0  0  0  0
  2  7  2  0  0  0  0
  3  4  1  0  0  0  0
  3 11  2  0  0  0  0
  4  5  1  0  0  0  0
  4  8  2  0  0  0  0
  5  6  2  0  0  0  0
  6  7  1  0  0  0  0
  8  9  1  0  0  0  0
  9 10  2  0  0  0  0
 10 11  1  0  0  0  0
M  END
>  <name>
[C;amine]c1c2c(ccc1)cccc2

>  <apo>
1

>  <freq>
3

>  <freq0>
0

>  <freq1>
3

>  <freqA>
2.9983063

>  <a_count>
21

$$$$

  MOE2015           2D

 11 11  0  0  1  0  0  0  0  0999 V2000
    8.1820   -2.3620    0.0000 O   0  0  0  0  0  0  0  0  0  0  0  0
    6.6820   -2.3620    0.0000 C   0  0  0  0  0  0  0  0  0  0  0  0
    5.9320   -1.0630    0.0000 C   0  0  2  0  0  0  0  0  0  0  0  0
    6.6820    0.2360    0.0000 N   0  0  0  0  0  0  0  0  0  0  0  0
    4.4320   -1.0630    0.0000 C   0  0  0  0  0  0  0  0  0  0  0  0
    3.6820   -2.3620    0.0000 C   0  0  0  0  0  0  0  0  0  0  0  0
    2.1820   -2.3620    0.0000 C   0  0  0  0  0  0  0  0  0  0  0  0
    1.4320   -1.0630    0.0000 C   0  0  0  0  0  0  0  0  0  0  0  0
   -0.0680   -1.0630    0.0000 O   0  0  0  0  0  0  0  0  0  0  0  0
    2.1820    0.2360    0.0000 C   0  0  0  0  0  0  0  0  0  0  0  0
    3.6820    0.2360    0.0000 C   0  0  0  0  0  0  0  0  0  0  0  0
  1  2  2  0  0  0  0
  2  3  1  0  0  0  0
  3  4  1  1  0  0  0
  3  5  1  0  0  0  0
  5  6  1  0  0  0  0
  5 11  2  0  0  0  0
  6  7  2  0  0  0  0
  7  8  1  0  0  0  0
  8  9  1  0  0  0  0
  8 10  2  0  0  0  0
 10 11  1  0  0  0  0
M  END
>  <name>
O=[C;amide][C@H](N)c1ccc(O)cc1

>  <apo>
1

>  <freq>
3

>  <freq0>
0

>  <freq1>
3

>  <freqA>
2.9983063

>  <a_count>
20

$$$$

  MOE2015           2D

  8  8  0  0  0  0  0  0  0  0999 V2000
    0.0000    0.0000    0.0000 O   0  0  0  0  0  0  0  0  0  0  0  0
    1.5000    0.0000    0.0000 C   0  0  0  0  0  0  0  0  0  0  0  0
    2.2500   -1.2990    0.0000 C   0  0  0  0  0  0  0  0  0  0  0  0
    3.7500   -1.2990    0.0000 C   0  0  0  0  0  0  0  0  0  0  0  0
    4.5000    0.0000    0.0000 C   0  0  0  0  0  0  0  0  0  0  0  0
    6.0000    0.0000    0.0000 C   0  0  0  0  0  0  0  0  0  0  0  0
    3.7500    1.2990    0.0000 C   0  0  0  0  0  0  0  0  0  0  0  0
    2.2500    1.2990    0.0000 C   0  0  0  0  0  0  0  0  0  0  0  0
  1  2  1  0  0  0  0
  2  3  1  0  0  0  0
  2  8  1  0  0  0  0
  3  4  1  0  0  0  0
  4  5  1  0  0  0  0
  5  6  2  0  0  0  0
  5  7  1  0  0  0  0
  7  8  1  0  0  0  0
M  END
>  <name>
OC1C[C;olefin]C(=C)CC1

>  <apo>
1

>  <freq>
3

>  <freq0>
0

>  <freq1>
3

>  <freqA>
2.9983063

>  <a_count>
20

$$$$

  MOE2015           2D

  7  7  0  0  1  0  0  0  0  0999 V2000
    5.1430    0.0000    0.0000 C   0  0  0  0  0  0  0  0  0  0  0  0
    3.6430    0.0000    0.0000 C   0  0  1  0  0  0  0  0  0  0  0  0
    2.8930    1.2990    0.0000 O   0  0  0  0  0  0  0  0  0  0  0  0
    1.3930    1.2990    0.0000 C   0  0  0  0  0  0  0  0  0  0  0  0
    0.6430    0.0000    0.0000 C   0  0  0  0  0  0  0  0  0  0  0  0
    1.3930   -1.2990    0.0000 C   0  0  0  0  0  0  0  0  0  0  0  0
    2.8930   -1.2990    0.0000 C   0  0  0  0  0  0  0  0  0  0  0  0
  2  1  1  6  0  0  0
  2  3  1  0  0  0  0
  2  7  1  0  0  0  0
  3  4  1  0  0  0  0
  4  5  1  0  0  0  0
  5  6  1  0  0  0  0
  6  7  1  0  0  0  0
M  END
>  <name>
C[C@H]1O[C;ether]CC[C;amine]1

>  <apo>
2

>  <freq>
3

>  <freq0>
0

>  <freq1>
3

>  <freqA>
2.9983063

>  <a_count>
19

$$$$

  MOE2015           2D

 15 15  0  0  0  0  0  0  0  0999 V2000
    0.5750    1.4540    0.0000 I   0  0  0  0  0  0  0  0  0  0  0  0
    1.8740    0.7040    0.0000 C   0  0  0  0  0  0  0  0  0  0  0  0
    3.1730    1.4540    0.0000 C   0  0  0  0  0  0  0  0  0  0  0  0
    3.1730    2.9540    0.0000 N   0  0  0  0  0  0  0  0  0  0  0  0
    4.4720    0.7040    0.0000 C   0  0  0  0  0  0  0  0  0  0  0  0
    5.7710    1.4540    0.0000 I   0  0  0  0  0  0  0  0  0  0  0  0
    4.4720   -0.7960    0.0000 C   0  0  0  0  0  0  0  0  0  0  0  0
    5.7710   -1.5460    0.0000 C   0  0  0  0  0  0  0  0  0  0  0  0
    7.0700   -0.7960    0.0000 O   0  0  0  0  0  0  0  0  0  0  0  0
    3.1730   -1.5460    0.0000 C   0  0  0  0  0  0  0  0  0  0  0  0
    3.1730   -3.0460    0.0000 I   0  0  0  0  0  0  0  0  0  0  0  0
    1.8740   -0.7960    0.0000 C   0  0  0  0  0  0  0  0  0  0  0  0
    0.5750   -1.5460    0.0000 C   0  0  0  0  0  0  0  0  0  0  0  0
   -0.7240   -0.7960    0.0000 O   0  0  0  0  0  0  0  0  0  0  0  0
    0.5750   -3.0460    0.0000 O   0  0  0  0  0  0  0  0  0  0  0  0
  1  2  1  0  0  0  0
  2  3  1  0  0  0  0
  2 12  2  0  0  0  0
  3  4  1  0  0  0  0
  3  5  2  0  0  0  0
  5  6  1  0  0  0  0
  5  7  1  0  0  0  0
  7  8  1  0  0  0  0
  7 10  2  0  0  0  0
  8  9  2  0  0  0  0
 10 11  1  0  0  0  0
 10 12  1  0  0  0  0
 12 13  1  0  0  0  0
 13 14  2  0  0  0  0
 13 15  1  0  0  0  0
M  END
>  <name>
Ic1c([N;amide])c(I)c([C;amide]=O)c(I)c1C(=O)O

>  <apo>
2

>  <freq>
3

>  <freq0>
0

>  <freq1>
3

>  <freqA>
2.9983063

>  <a_count>
19

$$$$

  MOE2015           2D

  9  9  0  0  0  0  0  0  0  0999 V2000
    1.4170    2.4540    0.0000 O   0  0  0  0  0  0  0  0  0  0  0  0
    2.1670    1.1550    0.0000 C   0  0  0  0  0  0  0  0  0  0  0  0
   -0.0830    2.4540    0.0000 C   0  0  0  0  0  0  0  0  0  0  0  0
   -0.8330    3.7530    0.0000 C   0  0  0  0  0  0  0  0  0  0  0  0
   -2.3330    3.7530    0.0000 C   0  0  0  0  0  0  0  0  0  0  0  0
   -3.0830    2.4540    0.0000 C   0  0  0  0  0  0  0  0  0  0  0  0
   -4.5830    2.4540    0.0000 C   0  0  0  0  0  0  0  0  0  0  0  0
   -2.3330    1.1550    0.0000 C   0  0  0  0  0  0  0  0  0  0  0  0
   -0.8330    1.1550    0.0000 C   0  0  0  0  0  0  0  0  0  0  0  0
  1  2  1  0  0  0  0
  1  3  1  0  0  0  0
  3  4  1  0  0  0  0
  3  9  2  0  0  0  0
  4  5  2  0  0  0  0
  5  6  1  0  0  0  0
  6  7  1  0  0  0  0
  6  8  2  0  0  0  0
  8  9  1  0  0  0  0
M  END
>  <name>
O(C)c1ccc([C;amine])cc1

>  <apo>
1

>  <freq>
3

>  <freq0>
0

>  <freq1>
3

>  <freqA>
2.9983063

>  <a_count>
19

$$$$

  MOE2015           2D

  7  6  0  0  0  0  0  0  0  0999 V2000
    6.6330   -1.5630    0.0000 O   0  0  0  0  0  0  0  0  0  0  0  0
    5.3340   -2.3130    0.0000 C   0  0  0  0  0  0  0  0  0  0  0  0
    4.0350   -1.5630    0.0000 C   0  0  0  0  0  0  0  0  0  0  0  0
    2.7360   -2.3130    0.0000 C   0  0  0  0  0  0  0  0  0  0  0  0
    1.4370   -1.5630    0.0000 C   0  0  0  0  0  0  0  0  0  0  0  0
    0.1380   -2.3130    0.0000 C   0  0  0  0  0  0  0  0  0  0  0  0
    1.4370   -0.0630    0.0000 C   0  0  0  0  0  0  0  0  0  0  0  0
  1  2  2  0  0  0  0
  2  3  1  0  0  0  0
  3  4  1  0  0  0  0
  4  5  1  0  0  0  0
  5  6  1  0  0  0  0
  5  7  1  0  0  0  0
M  END
>  <name>
O=[C;amide][C;amine]CC(C)C

>  <apo>
2

>  <freq>
3

>  <freq0>
0

>  <freq1>
3

>  <freqA>
2.9983063

>  <a_count>
19

$$$$

  MOE2015           2D

 10 10  0  0  1  0  0  0  0  0999 V2000
    7.3500   -2.3380    0.0000 O   0  0  0  0  0  0  0  0  0  0  0  0
    5.8500   -2.3380    0.0000 C   0  0  0  0  0  0  0  0  0  0  0  0
    5.1000   -1.0390    0.0000 C   0  0  2  0  0  0  0  0  0  0  0  0
    5.8500    0.2600    0.0000 N   0  0  0  0  0  0  0  0  0  0  0  0
    3.6000   -1.0390    0.0000 C   0  0  0  0  0  0  0  0  0  0  0  0
    2.8500   -2.3380    0.0000 C   0  0  0  0  0  0  0  0  0  0  0  0
    1.3500   -2.3380    0.0000 C   0  0  0  0  0  0  0  0  0  0  0  0
    0.6000   -1.0390    0.0000 C   0  0  0  0  0  0  0  0  0  0  0  0
    1.3500    0.2600    0.0000 C   0  0  0  0  0  0  0  0  0  0  0  0
    2.8500    0.2600    0.0000 C   0  0  0  0  0  0  0  0  0  0  0  0
  1  2  2  0  0  0  0
  2  3  1  0  0  0  0
  3  4  1  1  0  0  0
  3  5  1  0  0  0  0
  5  6  1  0  0  0  0
  5 10  2  0  0  0  0
  6  7  2  0  0  0  0
  7  8  1  0  0  0  0
  8  9  2  0  0  0  0
  9 10  1  0  0  0  0
M  END
>  <name>
O=[C;amide][C@H]([N;urea])c1ccccc1

>  <apo>
2

>  <freq>
3

>  <freq0>
0

>  <freq1>
3

>  <freqA>
2.9983063

>  <a_count>
19

$$$$

  MOE2015           2D

  9  9  0  0  1  0  0  0  0  0999 V2000
    6.2940   -1.6200    0.0000 O   0  0  0  0  0  0  0  0  0  0  0  0
    4.9810   -0.8960    0.0000 C   0  0  0  0  0  0  0  0  0  0  0  0
    3.6970   -1.6710    0.0000 C   0  0  2  0  0  0  0  0  0  0  0  0
    2.3150   -1.0890    0.0000 C   0  0  1  0  0  0  0  0  0  0  0  0
    1.9740    0.3720    0.0000 O   0  0  0  0  0  0  0  0  0  0  0  0
    1.3330   -2.2230    0.0000 C   0  0  1  0  0  0  0  0  0  0  0  0
   -0.1610   -2.0960    0.0000 O   0  0  0  0  0  0  0  0  0  0  0  0
    2.1090   -3.5070    0.0000 C   0  0  0  0  0  0  0  0  0  0  0  0
    3.5690   -3.1660    0.0000 O   0  0  0  0  0  0  0  0  0  0  0  0
  1  2  1  0  0  0  0
  3  2  1  1  0  0  0
  3  4  1  0  0  0  0
  3  9  1  0  0  0  0
  4  5  1  6  0  0  0
  4  6  1  0  0  0  0
  6  7  1  6  0  0  0
  6  8  1  0  0  0  0
  8  9  1  0  0  0  0
M  END
>  <name>
OC[C@@H]1[C@@H](O)[C@@H](O)[C;NaroC]O1

>  <apo>
1

>  <freq>
3

>  <freq0>
0

>  <freq1>
3

>  <freqA>
2.9983063

>  <a_count>
19

$$$$

  MOE2015           2D

  9  9  0  0  1  0  0  0  0  0999 V2000
    0.0690   -0.2560    0.0000 O   0  0  0  0  0  0  0  0  0  0  0  0
    1.3680    0.4940    0.0000 C   0  0  1  0  0  0  0  0  0  0  0  0
    2.6670   -0.2560    0.0000 C   0  0  0  0  0  0  0  0  0  0  0  0
    2.6670   -1.7560    0.0000 O   0  0  0  0  0  0  0  0  0  0  0  0
    3.9660    0.4940    0.0000 C   0  0  1  0  0  0  0  0  0  0  0  0
    5.2650   -0.2560    0.0000 O   0  0  0  0  0  0  0  0  0  0  0  0
    3.9660    1.9940    0.0000 C   0  0  0  0  0  0  0  0  0  0  0  0
    2.6670    2.7440    0.0000 O   0  0  0  0  0  0  0  0  0  0  0  0
    1.3680    1.9940    0.0000 C   0  0  0  0  0  0  0  0  0  0  0  0
  2  1  1  6  0  0  0
  2  3  1  0  0  0  0
  2  9  1  0  0  0  0
  3  4  1  0  0  0  0
  3  5  1  0  0  0  0
  5  6  1  6  0  0  0
  5  7  1  0  0  0  0
  7  8  1  0  0  0  0
  8  9  1  0  0  0  0
M  END
>  <name>
O[C@H]1C(O)[C@@H](O)[C;ether]O[C;ether]1

>  <apo>
2

>  <freq>
3

>  <freq0>
0

>  <freq1>
3

>  <freqA>
2.9983063

>  <a_count>
19

$$$$

  MOE2015           2D

  7  7  0  0  0  0  0  0  0  0999 V2000
    5.1430    0.0000    0.0000 N   0  0  0  0  0  0  0  0  0  0  0  0
    3.6430    0.0000    0.0000 C   0  0  0  0  0  0  0  0  0  0  0  0
    2.8930    1.2990    0.0000 C   0  0  0  0  0  0  0  0  0  0  0  0
    1.3930    1.2990    0.0000 C   0  0  0  0  0  0  0  0  0  0  0  0
    0.6430    0.0000    0.0000 N   0  0  0  0  0  0  0  0  0  0  0  0
    1.3930   -1.2990    0.0000 C   0  0  0  0  0  0  0  0  0  0  0  0
    2.8930   -1.2990    0.0000 C   0  0  0  0  0  0  0  0  0  0  0  0
  1  2  1  0  0  0  0
  2  3  1  0  0  0  0
  2  7  1  0  0  0  0
  3  4  1  0  0  0  0
  4  5  1  0  0  0  0
  5  6  1  0  0  0  0
  6  7  1  0  0  0  0
M  END
>  <name>
[N;amide]C1CC[N;amine]CC1

>  <apo>
2

>  <freq>
3

>  <freq0>
0

>  <freq1>
3

>  <freqA>
2.9983063

>  <a_count>
19

$$$$

  MOE2015           2D

  7  7  0  0  1  0  0  0  0  0999 V2000
    4.9030   -0.6040    0.0000 N   0  0  0  0  0  0  0  0  0  0  0  0
    4.1530   -1.9030    0.0000 C   0  0  0  0  0  0  0  0  0  0  0  0
    2.6530   -1.9030    0.0000 C   0  0  3  0  0  0  0  0  0  0  0  0
    1.7710   -3.1160    0.0000 N   0  0  0  0  0  0  0  0  0  0  0  0
    0.3450   -2.6530    0.0000 C   0  0  0  0  0  0  0  0  0  0  0  0
    0.3450   -1.1530    0.0000 C   0  0  0  0  0  0  0  0  0  0  0  0
    1.7710   -0.6890    0.0000 C   0  0  0  0  0  0  0  0  0  0  0  0
  1  2  1  0  0  0  0
  2  3  1  0  0  0  0
  3  4  1  0  0  0  0
  3  7  1  0  0  0  0
  4  5  1  0  0  0  0
  5  6  1  0  0  0  0
  6  7  1  0  0  0  0
M  END
>  <name>
[N;amide]CC1[N;amine]CCC1

>  <apo>
2

>  <freq>
3

>  <freq0>
0

>  <freq1>
3

>  <freqA>
2.9983063

>  <a_count>
19

$$$$

  MOE2015           2D

  9  9  0  0  0  0  0  0  0  0999 V2000
    0.0000    0.0000    0.0000 O   0  0  0  0  0  0  0  0  0  0  0  0
    1.5000    0.0000    0.0000 C   0  0  0  0  0  0  0  0  0  0  0  0
    2.2500    1.2990    0.0000 C   0  0  0  0  0  0  0  0  0  0  0  0
    3.7500    1.2990    0.0000 C   0  0  0  0  0  0  0  0  0  0  0  0
    4.5000    0.0000    0.0000 C   0  0  0  0  0  0  0  0  0  0  0  0
    6.0000    0.0000    0.0000 C   0  0  0  0  0  0  0  0  0  0  0  0
    6.7500   -1.2990    0.0000 C   0  0  0  0  0  0  0  0  0  0  0  0
    3.7500   -1.2990    0.0000 C   0  0  0  0  0  0  0  0  0  0  0  0
    2.2500   -1.2990    0.0000 C   0  0  0  0  0  0  0  0  0  0  0  0
  1  2  1  0  0  0  0
  2  3  1  0  0  0  0
  2  9  2  0  0  0  0
  3  4  2  0  0  0  0
  4  5  1  0  0  0  0
  5  6  1  0  0  0  0
  5  8  2  0  0  0  0
  6  7  1  0  0  0  0
  8  9  1  0  0  0  0
M  END
>  <name>
[O;ether]c1ccc(C[C;ether])cc1

>  <apo>
2

>  <freq>
3

>  <freq0>
0

>  <freq1>
3

>  <freqA>
2.9983063

>  <a_count>
19

$$$$

  MOE2015           2D

  6  6  0  0  0  0  0  0  0  0999 V2000
    4.6270    0.0000    0.0000 C   0  0  0  0  0  0  0  0  0  0  0  0
    3.1270    0.0000    0.0000 N   0  3  0  0  0  0  0  0  0  0  0  0
    2.2450   -1.2140    0.0000 C   0  0  0  0  0  0  0  0  0  0  0  0
    0.8180   -0.7500    0.0000 C   0  0  0  0  0  0  0  0  0  0  0  0
    0.8180    0.7500    0.0000 C   0  0  0  0  0  0  0  0  0  0  0  0
    2.2450    1.2140    0.0000 C   0  0  0  0  0  0  0  0  0  0  0  0
  1  2  1  0  0  0  0
  2  3  1  0  0  0  0
  2  6  1  0  0  0  0
  3  4  1  0  0  0  0
  4  5  1  0  0  0  0
  5  6  1  0  0  0  0
M  CHG  1   2   1
M  END
>  <name>
C[N+;quatN]1CCCC1

>  <apo>
1

>  <freq>
3

>  <freq0>
0

>  <freq1>
3

>  <freqA>
2.9983063

>  <a_count>
18

$$$$

  MOE2015           2D

 14 14  0  0  0  0  0  0  0  0999 V2000
    0.4550    1.5140    0.0000 I   0  0  0  0  0  0  0  0  0  0  0  0
    1.7550    0.7640    0.0000 C   0  0  0  0  0  0  0  0  0  0  0  0
    3.0540    1.5140    0.0000 C   0  0  0  0  0  0  0  0  0  0  0  0
    3.0540    3.0140    0.0000 N   0  0  0  0  0  0  0  0  0  0  0  0
    4.3530    0.7640    0.0000 C   0  0  0  0  0  0  0  0  0  0  0  0
    5.6520    1.5140    0.0000 I   0  0  0  0  0  0  0  0  0  0  0  0
    4.3530   -0.7360    0.0000 C   0  0  0  0  0  0  0  0  0  0  0  0
    5.6520   -1.4860    0.0000 C   0  0  0  0  0  0  0  0  0  0  0  0
    6.9510   -0.7360    0.0000 O   0  0  0  0  0  0  0  0  0  0  0  0
    3.0540   -1.4860    0.0000 C   0  0  0  0  0  0  0  0  0  0  0  0
    3.0540   -2.9860    0.0000 I   0  0  0  0  0  0  0  0  0  0  0  0
    1.7550   -0.7360    0.0000 C   0  0  0  0  0  0  0  0  0  0  0  0
    0.4550   -1.4860    0.0000 C   0  0  0  0  0  0  0  0  0  0  0  0
   -0.8440   -0.7360    0.0000 O   0  0  0  0  0  0  0  0  0  0  0  0
  1  2  1  0  0  0  0
  2  3  1  0  0  0  0
  2 12  2  0  0  0  0
  3  4  1  0  0  0  0
  3  5  2  0  0  0  0
  5  6  1  0  0  0  0
  5  7  1  0  0  0  0
  7  8  1  0  0  0  0
  7 10  2  0  0  0  0
  8  9  2  0  0  0  0
 10 11  1  0  0  0  0
 10 12  1  0  0  0  0
 12 13  1  0  0  0  0
 13 14  2  0  0  0  0
M  END
>  <name>
Ic1c([N;amide])c(I)c([C;amide]=O)c(I)c1[C;amide]=O

>  <apo>
3

>  <freq>
3

>  <freq0>
0

>  <freq1>
3

>  <freqA>
2.9983063

>  <a_count>
18

$$$$

  MOE2015           2D

  9  8  0  0  1  0  0  0  0  0999 V2000
   -0.2970   -1.1100    0.0000 O   0  0  0  0  0  0  0  0  0  0  0  0
    1.0020   -1.8600    0.0000 C   0  0  0  0  0  0  0  0  0  0  0  0
    1.0020   -3.3600    0.0000 O   0  0  0  0  0  0  0  0  0  0  0  0
    2.3010   -1.1100    0.0000 C   0  0  1  0  0  0  0  0  0  0  0  0
    2.3010    0.3900    0.0000 N   0  0  0  0  0  0  0  0  0  0  0  0
    3.6000   -1.8600    0.0000 C   0  0  0  0  0  0  0  0  0  0  0  0
    4.8990   -1.1100    0.0000 C   0  0  0  0  0  0  0  0  0  0  0  0
    6.1980   -1.8600    0.0000 C   0  0  0  0  0  0  0  0  0  0  0  0
    7.4970   -1.1100    0.0000 O   0  0  0  0  0  0  0  0  0  0  0  0
  1  2  2  0  0  0  0
  2  3  1  0  0  0  0
  2  4  1  0  0  0  0
  4  5  1  1  0  0  0
  4  6  1  0  0  0  0
  6  7  1  0  0  0  0
  7  8  1  0  0  0  0
  8  9  2  0  0  0  0
M  END
>  <name>
O=C(O)[C@@H](N)CC[C;amide]=O

>  <apo>
1

>  <freq>
3

>  <freq0>
0

>  <freq1>
3

>  <freqA>
2.9983063

>  <a_count>
18

$$$$

  MOE2015           2D

 10 10  0  0  1  0  0  0  0  0999 V2000
    7.3500   -2.3380    0.0000 O   0  0  0  0  0  0  0  0  0  0  0  0
    5.8500   -2.3380    0.0000 C   0  0  0  0  0  0  0  0  0  0  0  0
    5.1000   -1.0390    0.0000 C   0  0  3  0  0  0  0  0  0  0  0  0
    5.8500    0.2600    0.0000 O   0  0  0  0  0  0  0  0  0  0  0  0
    3.6000   -1.0390    0.0000 C   0  0  0  0  0  0  0  0  0  0  0  0
    2.8500   -2.3380    0.0000 C   0  0  0  0  0  0  0  0  0  0  0  0
    1.3500   -2.3380    0.0000 C   0  0  0  0  0  0  0  0  0  0  0  0
    0.6000   -1.0390    0.0000 C   0  0  0  0  0  0  0  0  0  0  0  0
    1.3500    0.2600    0.0000 C   0  0  0  0  0  0  0  0  0  0  0  0
    2.8500    0.2600    0.0000 C   0  0  0  0  0  0  0  0  0  0  0  0
  1  2  2  0  0  0  0
  2  3  1  0  0  0  0
  3  4  1  0  0  0  0
  3  5  1  0  0  0  0
  5  6  1  0  0  0  0
  5 10  2  0  0  0  0
  6  7  2  0  0  0  0
  7  8  1  0  0  0  0
  8  9  2  0  0  0  0
  9 10  1  0  0  0  0
M  END
>  <name>
O=[C;ester]C(O)c1ccccc1

>  <apo>
1

>  <freq>
3

>  <freq0>
0

>  <freq1>
3

>  <freqA>
2.9983063

>  <a_count>
18

$$$$

  MOE2015           2D

  7  6  0  0  1  0  0  0  0  0999 V2000
    5.3550   -0.7920    0.0000 O   0  0  0  0  0  0  0  0  0  0  0  0
    4.0560   -1.5420    0.0000 C   0  0  0  0  0  0  0  0  0  0  0  0
    2.7570   -0.7920    0.0000 C   0  0  1  0  0  0  0  0  0  0  0  0
    2.7570    0.7080    0.0000 N   0  0  0  0  0  0  0  0  0  0  0  0
    1.4580   -1.5420    0.0000 C   0  0  0  0  0  0  0  0  0  0  0  0
    1.4580   -3.0420    0.0000 C   0  0  0  0  0  0  0  0  0  0  0  0
    0.1590   -0.7920    0.0000 C   0  0  0  0  0  0  0  0  0  0  0  0
  1  2  2  0  0  0  0
  2  3  1  0  0  0  0
  3  4  1  6  0  0  0
  3  5  1  0  0  0  0
  5  6  1  0  0  0  0
  5  7  1  0  0  0  0
M  END
>  <name>
O=[C;ester][C@@H](N)C(C)C

>  <apo>
1

>  <freq>
3

>  <freq0>
0

>  <freq1>
3

>  <freqA>
2.9983063

>  <a_count>
18

$$$$

  MOE2015           2D

  7  6  0  0  1  0  0  0  0  0999 V2000
    1.0500    2.1640    0.0000 O   0  0  0  0  0  0  0  0  0  0  0  0
    1.0500    0.6640    0.0000 C   0  0  3  0  0  0  0  0  0  0  0  0
   -0.2490   -0.0860    0.0000 C   0  0  0  0  0  0  0  0  0  0  0  0
   -1.5480    0.6640    0.0000 O   0  0  0  0  0  0  0  0  0  0  0  0
    2.3490   -0.0860    0.0000 C   0  0  0  0  0  0  0  0  0  0  0  0
    3.6480    0.6640    0.0000 N   0  0  0  0  0  0  0  0  0  0  0  0
    4.9480   -0.0860    0.0000 C   0  0  0  0  0  0  0  0  0  0  0  0
  1  2  1  0  0  0  0
  2  3  1  0  0  0  0
  2  5  1  0  0  0  0
  3  4  1  0  0  0  0
  5  6  1  0  0  0  0
  6  7  1  0  0  0  0
M  END
>  <name>
OC(CO)C[N;amide]C

>  <apo>
1

>  <freq>
3

>  <freq0>
0

>  <freq1>
3

>  <freqA>
2.9983063

>  <a_count>
18

$$$$

  MOE2015           2D

  6  6  0  0  0  0  0  0  0  0999 V2000
   -2.0490    2.0490    0.0000 C   0  0  0  0  0  0  0  0  0  0  0  0
   -2.0490    0.5490    0.0000 C   0  0  0  0  0  0  0  0  0  0  0  0
   -0.7500   -0.2010    0.0000 C   0  0  0  0  0  0  0  0  0  0  0  0
    0.5490    0.5490    0.0000 C   0  0  0  0  0  0  0  0  0  0  0  0
    0.5490    2.0490    0.0000 C   0  0  0  0  0  0  0  0  0  0  0  0
   -0.7500    2.7990    0.0000 C   0  0  0  0  0  0  0  0  0  0  0  0
  1  2  1  0  0  0  0
  1  6  1  0  0  0  0
  2  3  1  0  0  0  0
  3  4  1  0  0  0  0
  4  5  1  0  0  0  0
  5  6  1  0  0  0  0
M  END
>  <name>
[C;amine]1CCCCC1

>  <apo>
1

>  <freq>
3

>  <freq0>
0

>  <freq1>
3

>  <freqA>
2.9983063

>  <a_count>
18

$$$$

  MOE2015           2D

 10 10  0  0  0  0  0  0  0  0999 V2000
   -3.3750    1.9490    0.0000 S   0  0  0  0  0  0  0  0  0  0  0  0
   -4.1250    3.2480    0.0000 O   0  0  0  0  0  0  0  0  0  0  0  0
   -4.1250    0.6500    0.0000 O   0  0  0  0  0  0  0  0  0  0  0  0
   -1.8750    1.9490    0.0000 C   0  0  0  0  0  0  0  0  0  0  0  0
   -1.1250    0.6500    0.0000 C   0  0  0  0  0  0  0  0  0  0  0  0
    0.3750    0.6500    0.0000 C   0  0  0  0  0  0  0  0  0  0  0  0
    1.1250    1.9490    0.0000 C   0  0  0  0  0  0  0  0  0  0  0  0
    2.6250    1.9490    0.0000 C   0  0  0  0  0  0  0  0  0  0  0  0
    0.3750    3.2480    0.0000 C   0  0  0  0  0  0  0  0  0  0  0  0
   -1.1250    3.2480    0.0000 C   0  0  0  0  0  0  0  0  0  0  0  0
  1  2  2  0  0  0  0
  1  3  2  0  0  0  0
  1  4  1  0  0  0  0
  4  5  1  0  0  0  0
  4 10  2  0  0  0  0
  5  6  2  0  0  0  0
  6  7  1  0  0  0  0
  7  8  1  0  0  0  0
  7  9  2  0  0  0  0
  9 10  1  0  0  0  0
M  END
>  <name>
[SH;so2amide](=O)(=O)c1ccc(C)cc1

>  <apo>
1

>  <freq>
3

>  <freq0>
0

>  <freq1>
3

>  <freqA>
2.9983063

>  <a_count>
18

$$$$

  MOE2015           2D

  5  4  0  0  0  0  0  0  0  0999 V2000
    0.1500   -0.0400    0.0000 C   0  0  0  0  0  0  0  0  0  0  0  0
    1.4490    0.7100    0.0000 C   0  0  0  0  0  0  0  0  0  0  0  0
    2.7480   -0.0400    0.0000 C   0  0  0  0  0  0  0  0  0  0  0  0
   -1.1490    0.7100    0.0000 C   0  0  0  0  0  0  0  0  0  0  0  0
   -2.4480   -0.0400    0.0000 C   0  0  0  0  0  0  0  0  0  0  0  0
  1  2  1  0  0  0  0
  1  4  1  0  0  0  0
  2  3  1  0  0  0  0
  4  5  1  0  0  0  0
M  END
>  <name>
C(C[C;olefin])[C;olefin]C

>  <apo>
2

>  <freq>
3

>  <freq0>
0

>  <freq1>
3

>  <freqA>
2.9983063

>  <a_count>
17

$$$$

  MOE2015           2D

 10 10  0  0  0  0  0  0  0  0999 V2000
   -0.3750    3.2480    0.0000 O   0  0  0  0  0  0  0  0  0  0  0  0
    0.3750    1.9490    0.0000 C   0  0  0  0  0  0  0  0  0  0  0  0
   -0.3750    0.6500    0.0000 O   0  0  0  0  0  0  0  0  0  0  0  0
    1.8750    1.9490    0.0000 C   0  0  0  0  0  0  0  0  0  0  0  0
    2.6250    0.6500    0.0000 C   0  0  0  0  0  0  0  0  0  0  0  0
    4.1250    0.6500    0.0000 C   0  0  0  0  0  0  0  0  0  0  0  0
    4.8750    1.9490    0.0000 C   0  0  0  0  0  0  0  0  0  0  0  0
    6.3750    1.9490    0.0000 N   0  0  0  0  0  0  0  0  0  0  0  0
    4.1250    3.2480    0.0000 C   0  0  0  0  0  0  0  0  0  0  0  0
    2.6250    3.2480    0.0000 C   0  0  0  0  0  0  0  0  0  0  0  0
  1  2  2  0  0  0  0
  2  3  1  0  0  0  0
  2  4  1  0  0  0  0
  4  5  1  0  0  0  0
  4 10  2  0  0  0  0
  5  6  2  0  0  0  0
  6  7  1  0  0  0  0
  7  8  1  0  0  0  0
  7  9  2  0  0  0  0
  9 10  1  0  0  0  0
M  END
>  <name>
O=C(O)c1ccc([N;amide])cc1

>  <apo>
1

>  <freq>
3

>  <freq0>
0

>  <freq1>
3

>  <freqA>
2.9983063

>  <a_count>
17

$$$$

  MOE2015           2D

  7  6  0  0  1  0  0  0  0  0999 V2000
    5.3550   -0.7920    0.0000 O   0  0  0  0  0  0  0  0  0  0  0  0
    4.0560   -1.5420    0.0000 C   0  0  0  0  0  0  0  0  0  0  0  0
    2.7570   -0.7920    0.0000 C   0  0  3  0  0  0  0  0  0  0  0  0
    2.7570    0.7080    0.0000 O   0  0  0  0  0  0  0  0  0  0  0  0
    1.4580   -1.5420    0.0000 C   0  0  0  0  0  0  0  0  0  0  0  0
    1.4580   -3.0420    0.0000 C   0  0  0  0  0  0  0  0  0  0  0  0
    0.1590   -0.7920    0.0000 C   0  0  0  0  0  0  0  0  0  0  0  0
  1  2  2  0  0  0  0
  2  3  1  0  0  0  0
  3  4  1  0  0  0  0
  3  5  1  0  0  0  0
  5  6  1  0  0  0  0
  5  7  1  0  0  0  0
M  END
>  <name>
O=[C;amide]C([O;ester])C(C)C

>  <apo>
2

>  <freq>
3

>  <freq0>
0

>  <freq1>
3

>  <freqA>
2.9983063

>  <a_count>
17

$$$$

  MOE2015           2D

  9  9  0  0  0  0  0  0  0  0999 V2000
    7.8330    0.0000    0.0000 O   0  0  0  0  0  0  0  0  0  0  0  0
    6.3330    0.0000    0.0000 C   0  0  0  0  0  0  0  0  0  0  0  0
    5.5830   -1.2990    0.0000 C   0  0  0  0  0  0  0  0  0  0  0  0
    4.0830   -1.2990    0.0000 C   0  0  0  0  0  0  0  0  0  0  0  0
    3.3330    0.0000    0.0000 C   0  0  0  0  0  0  0  0  0  0  0  0
    1.8330    0.0000    0.0000 C   0  0  0  0  0  0  0  0  0  0  0  0
    1.0830   -1.2990    0.0000 C   0  0  0  0  0  0  0  0  0  0  0  0
    1.8330   -2.5980    0.0000 C   0  0  0  0  0  0  0  0  0  0  0  0
    3.3330   -2.5980    0.0000 C   0  0  0  0  0  0  0  0  0  0  0  0
  1  2  2  0  0  0  0
  2  3  1  0  0  0  0
  3  4  1  0  0  0  0
  4  5  1  0  0  0  0
  4  9  2  0  0  0  0
  5  6  2  0  0  0  0
  6  7  1  0  0  0  0
  7  8  2  0  0  0  0
  8  9  1  0  0  0  0
M  END
>  <name>
O=[C;amide]Cc1ccccc1

>  <apo>
1

>  <freq>
3

>  <freq0>
0

>  <freq1>
3

>  <freqA>
2.9983063

>  <a_count>
17

$$$$

  MOE2015           2D

  6  6  0  0  0  0  0  0  0  0999 V2000
   -2.0490    2.0490    0.0000 O   0  0  0  0  0  0  0  0  0  0  0  0
   -2.0490    0.5490    0.0000 C   0  0  0  0  0  0  0  0  0  0  0  0
   -0.7500   -0.2010    0.0000 C   0  0  0  0  0  0  0  0  0  0  0  0
    0.5490    0.5490    0.0000 C   0  0  0  0  0  0  0  0  0  0  0  0
    0.5490    2.0490    0.0000 C   0  0  0  0  0  0  0  0  0  0  0  0
   -0.7500    2.7990    0.0000 C   0  0  0  0  0  0  0  0  0  0  0  0
  1  2  1  0  0  0  0
  1  6  1  0  0  0  0
  2  3  1  0  0  0  0
  3  4  1  0  0  0  0
  4  5  1  0  0  0  0
  5  6  1  0  0  0  0
M  END
>  <name>
O1CC[C;amine]CC1

>  <apo>
1

>  <freq>
3

>  <freq0>
0

>  <freq1>
3

>  <freqA>
2.9983063

>  <a_count>
16

$$$$

  MOE2015           2D

  7  7  0  0  1  0  0  0  0  0999 V2000
    4.9030   -0.6040    0.0000 O   0  0  0  0  0  0  0  0  0  0  0  0
    4.1530   -1.9030    0.0000 C   0  0  0  0  0  0  0  0  0  0  0  0
    2.6530   -1.9030    0.0000 C   0  0  3  0  0  0  0  0  0  0  0  0
    1.7710   -3.1160    0.0000 N   0  0  0  0  0  0  0  0  0  0  0  0
    0.3450   -2.6530    0.0000 C   0  0  0  0  0  0  0  0  0  0  0  0
    0.3450   -1.1530    0.0000 C   0  0  0  0  0  0  0  0  0  0  0  0
    1.7710   -0.6890    0.0000 C   0  0  0  0  0  0  0  0  0  0  0  0
  1  2  2  0  0  0  0
  2  3  1  0  0  0  0
  3  4  1  0  0  0  0
  3  7  1  0  0  0  0
  4  5  1  0  0  0  0
  5  6  1  0  0  0  0
  6  7  1  0  0  0  0
M  END
>  <name>
O=[C;amide]C1[N;amide]CCC1

>  <apo>
2

>  <freq>
3

>  <freq0>
0

>  <freq1>
3

>  <freqA>
2.9983063

>  <a_count>
16

$$$$

  MOE2015           2D

  6  5  0  0  0  0  0  0  0  0999 V2000
   -0.2480   -1.6740    0.0000 O   0  0  0  0  0  0  0  0  0  0  0  0
    1.0510   -0.9240    0.0000 C   0  0  0  0  0  0  0  0  0  0  0  0
    2.3500   -1.6740    0.0000 C   0  0  0  0  0  0  0  0  0  0  0  0
    3.6500   -0.9240    0.0000 C   0  0  0  0  0  0  0  0  0  0  0  0
    4.9490   -1.6740    0.0000 C   0  0  0  0  0  0  0  0  0  0  0  0
    6.2480   -0.9240    0.0000 C   0  0  0  0  0  0  0  0  0  0  0  0
  1  2  2  0  0  0  0
  2  3  1  0  0  0  0
  3  4  1  0  0  0  0
  4  5  1  0  0  0  0
  5  6  1  0  0  0  0
M  END
>  <name>
O=[C;ester]CCCC

>  <apo>
1

>  <freq>
3

>  <freq0>
0

>  <freq1>
3

>  <freqA>
2.9983063

>  <a_count>
16

$$$$

  MOE2015           2D

  8  8  0  0  0  0  0  0  0  0999 V2000
    0.0000    0.0000    0.0000 O   0  0  0  0  0  0  0  0  0  0  0  0
    1.5000    0.0000    0.0000 C   0  0  0  0  0  0  0  0  0  0  0  0
    2.2500   -1.2990    0.0000 C   0  0  0  0  0  0  0  0  0  0  0  0
    3.7500   -1.2990    0.0000 C   0  0  0  0  0  0  0  0  0  0  0  0
    4.5000    0.0000    0.0000 C   0  0  0  0  0  0  0  0  0  0  0  0
    6.0000    0.0000    0.0000 C   0  0  0  0  0  0  0  0  0  0  0  0
    3.7500    1.2990    0.0000 C   0  0  0  0  0  0  0  0  0  0  0  0
    2.2500    1.2990    0.0000 C   0  0  0  0  0  0  0  0  0  0  0  0
  1  2  1  0  0  0  0
  2  3  1  0  0  0  0
  2  8  2  0  0  0  0
  3  4  2  0  0  0  0
  4  5  1  0  0  0  0
  5  6  1  0  0  0  0
  5  7  2  0  0  0  0
  7  8  1  0  0  0  0
M  END
>  <name>
Oc1ccc([C;olefin])cc1

>  <apo>
1

>  <freq>
3

>  <freq0>
0

>  <freq1>
3

>  <freqA>
2.9983063

>  <a_count>
16

$$$$

  MOE2015           2D

  6  6  0  0  0  0  0  0  0  0999 V2000
   -2.0490    2.0490    0.0000 N   0  0  0  0  0  0  0  0  0  0  0  0
   -2.0490    0.5490    0.0000 C   0  0  0  0  0  0  0  0  0  0  0  0
   -0.7500   -0.2010    0.0000 C   0  0  0  0  0  0  0  0  0  0  0  0
    0.5490    0.5490    0.0000 N   0  0  0  0  0  0  0  0  0  0  0  0
    0.5490    2.0490    0.0000 C   0  0  0  0  0  0  0  0  0  0  0  0
   -0.7500    2.7990    0.0000 C   0  0  0  0  0  0  0  0  0  0  0  0
  1  2  1  0  0  0  0
  1  6  1  0  0  0  0
  2  3  1  0  0  0  0
  3  4  1  0  0  0  0
  4  5  1  0  0  0  0
  5  6  1  0  0  0  0
M  END
>  <name>
[N;amide]1CC[N;amide]CC1

>  <apo>
2

>  <freq>
3

>  <freq0>
0

>  <freq1>
3

>  <freqA>
2.9983063

>  <a_count>
16

$$$$

  MOE2015           2D

  5  4  0  0  0  0  0  0  0  0999 V2000
    0.1500   -0.0400    0.0000 N   0  0  0  0  0  0  0  0  0  0  0  0
    1.4490    0.7100    0.0000 C   0  0  0  0  0  0  0  0  0  0  0  0
    2.7480   -0.0400    0.0000 C   0  0  0  0  0  0  0  0  0  0  0  0
   -1.1490    0.7100    0.0000 C   0  0  0  0  0  0  0  0  0  0  0  0
   -2.4480   -0.0400    0.0000 C   0  0  0  0  0  0  0  0  0  0  0  0
  1  2  1  0  0  0  0
  1  4  1  0  0  0  0
  2  3  1  0  0  0  0
  4  5  1  0  0  0  0
M  END
>  <name>
[N;urea](CC)CC

>  <apo>
1

>  <freq>
3

>  <freq0>
0

>  <freq1>
3

>  <freqA>
2.9983063

>  <a_count>
16

$$$$

  MOE2015           2D

  8  7  0  0  0  0  0  0  0  0999 V2000
   -0.1970   -1.8620    0.0000 O   0  0  0  0  0  0  0  0  0  0  0  0
    1.1020   -1.1120    0.0000 C   0  0  0  0  0  0  0  0  0  0  0  0
    1.1020    0.3880    0.0000 O   0  5  0  0  0  0  0  0  0  0  0  0
    2.4010   -1.8620    0.0000 C   0  0  0  0  0  0  0  0  0  0  0  0
    3.7000   -1.1120    0.0000 C   0  0  0  0  0  0  0  0  0  0  0  0
    4.9990   -1.8620    0.0000 C   0  0  0  0  0  0  0  0  0  0  0  0
    6.2980   -1.1120    0.0000 C   0  0  0  0  0  0  0  0  0  0  0  0
    7.5970   -1.8620    0.0000 O   0  0  0  0  0  0  0  0  0  0  0  0
  1  2  2  0  0  0  0
  2  3  1  0  0  0  0
  2  4  1  0  0  0  0
  4  5  1  0  0  0  0
  5  6  1  0  0  0  0
  6  7  1  0  0  0  0
  7  8  2  0  0  0  0
M  CHG  1   3  -1
M  END
>  <name>
O=C([O-])[C;amine]CC[C;amide]=O

>  <apo>
2

>  <freq>
3

>  <freq0>
0

>  <freq1>
3

>  <freqA>
2.9983063

>  <a_count>
15

$$$$

  MOE2015           2D

  7  7  0  0  0  0  0  0  0  0999 V2000
    5.1430    0.0000    0.0000 C   0  0  0  0  0  0  0  0  0  0  0  0
    3.6430    0.0000    0.0000 C   0  0  0  0  0  0  0  0  0  0  0  0
    2.8930    1.2990    0.0000 C   0  0  0  0  0  0  0  0  0  0  0  0
    1.3930    1.2990    0.0000 C   0  0  0  0  0  0  0  0  0  0  0  0
    0.6430    0.0000    0.0000 C   0  0  0  0  0  0  0  0  0  0  0  0
    1.3930   -1.2990    0.0000 C   0  0  0  0  0  0  0  0  0  0  0  0
    2.8930   -1.2990    0.0000 C   0  0  0  0  0  0  0  0  0  0  0  0
  1  2  1  0  0  0  0
  2  3  1  0  0  0  0
  2  7  2  0  0  0  0
  3  4  2  0  0  0  0
  4  5  1  0  0  0  0
  5  6  2  0  0  0  0
  6  7  1  0  0  0  0
M  END
>  <name>
[C;NaroC]c1ccccc1

>  <apo>
1

>  <freq>
3

>  <freq0>
0

>  <freq1>
3

>  <freqA>
2.9983063

>  <a_count>
15

$$$$

  MOE2015           2D

  7  7  0  0  0  0  0  0  0  0999 V2000
    5.1430    0.0000    0.0000 C   0  0  0  0  0  0  0  0  0  0  0  0
    3.6430    0.0000    0.0000 C   0  0  0  0  0  0  0  0  0  0  0  0
    2.8930    1.2990    0.0000 C   0  0  0  0  0  0  0  0  0  0  0  0
    1.3930    1.2990    0.0000 C   0  0  0  0  0  0  0  0  0  0  0  0
    0.6430    0.0000    0.0000 C   0  0  0  0  0  0  0  0  0  0  0  0
    1.3930   -1.2990    0.0000 C   0  0  0  0  0  0  0  0  0  0  0  0
    2.8930   -1.2990    0.0000 C   0  0  0  0  0  0  0  0  0  0  0  0
  1  2  1  0  0  0  0
  2  3  1  0  0  0  0
  2  7  2  0  0  0  0
  3  4  2  0  0  0  0
  4  5  1  0  0  0  0
  5  6  2  0  0  0  0
  6  7  1  0  0  0  0
M  END
>  <name>
[C;amine]c1cc[c;biphenyl]cc1

>  <apo>
2

>  <freq>
3

>  <freq0>
0

>  <freq1>
3

>  <freqA>
2.9983063

>  <a_count>
15

$$$$

  MOE2015           2D

  8  8  0  0  0  0  0  0  0  0999 V2000
    0.0000    0.0000    0.0000 O   0  0  0  0  0  0  0  0  0  0  0  0
    1.5000    0.0000    0.0000 C   0  0  0  0  0  0  0  0  0  0  0  0
    2.2500   -1.2990    0.0000 C   0  0  0  0  0  0  0  0  0  0  0  0
    3.7500   -1.2990    0.0000 C   0  0  0  0  0  0  0  0  0  0  0  0
    4.5000    0.0000    0.0000 C   0  0  0  0  0  0  0  0  0  0  0  0
    6.0000    0.0000    0.0000 N   0  0  0  0  0  0  0  0  0  0  0  0
    3.7500    1.2990    0.0000 C   0  0  0  0  0  0  0  0  0  0  0  0
    2.2500    1.2990    0.0000 C   0  0  0  0  0  0  0  0  0  0  0  0
  1  2  1  0  0  0  0
  2  3  1  0  0  0  0
  2  8  2  0  0  0  0
  3  4  2  0  0  0  0
  4  5  1  0  0  0  0
  5  6  1  0  0  0  0
  5  7  2  0  0  0  0
  7  8  1  0  0  0  0
M  END
>  <name>
[O;ether]c1ccc([N;amide])cc1

>  <apo>
2

>  <freq>
3

>  <freq0>
0

>  <freq1>
3

>  <freqA>
2.9983063

>  <a_count>
15

$$$$

  MOE2015           2D

  4  3  0  0  0  0  0  0  0  0999 V2000
    0.1000   -0.3750    0.0000 C   0  0  0  0  0  0  0  0  0  0  0  0
    1.4000    0.3750    0.0000 C   0  0  0  0  0  0  0  0  0  0  0  0
    2.6990   -0.3750    0.0000 C   0  0  0  0  0  0  0  0  0  0  0  0
   -1.1990    0.3750    0.0000 C   0  0  0  0  0  0  0  0  0  0  0  0
  1  2  1  0  0  0  0
  1  4  1  0  0  0  0
  2  3  1  0  0  0  0
M  END
>  <name>
C(C[C;ether])C

>  <apo>
1

>  <freq>
3

>  <freq0>
0

>  <freq1>
3

>  <freqA>
2.9983063

>  <a_count>
14

$$$$

  MOE2015           2D

  4  3  0  0  0  0  0  0  0  0999 V2000
    0.0000    0.0000    0.0000 C   0  0  0  0  0  0  0  0  0  0  0  0
   -1.2990   -0.7500    0.0000 C   0  0  0  0  0  0  0  0  0  0  0  0
    0.0000    1.5000    0.0000 C   0  0  0  0  0  0  0  0  0  0  0  0
    1.2990   -0.7500    0.0000 C   0  0  0  0  0  0  0  0  0  0  0  0
  1  2  1  0  0  0  0
  1  3  1  0  0  0  0
  1  4  1  0  0  0  0
M  END
>  <name>
C([C;amine])([C;amine])C

>  <apo>
2

>  <freq>
3

>  <freq0>
0

>  <freq1>
3

>  <freqA>
2.9983063

>  <a_count>
14

$$$$

  MOE2015           2D

  9  9  0  0  0  0  0  0  0  0999 V2000
    0.0000    0.0000    0.0000 Cl  0  0  0  0  0  0  0  0  0  0  0  0
    1.5000    0.0000    0.0000 C   0  0  0  0  0  0  0  0  0  0  0  0
    2.2500    1.2990    0.0000 C   0  0  0  0  0  0  0  0  0  0  0  0
    3.7500    1.2990    0.0000 C   0  0  0  0  0  0  0  0  0  0  0  0
    4.5000    0.0000    0.0000 C   0  0  0  0  0  0  0  0  0  0  0  0
    6.0000    0.0000    0.0000 C   0  0  0  0  0  0  0  0  0  0  0  0
    6.7500   -1.2990    0.0000 O   0  0  0  0  0  0  0  0  0  0  0  0
    3.7500   -1.2990    0.0000 C   0  0  0  0  0  0  0  0  0  0  0  0
    2.2500   -1.2990    0.0000 C   0  0  0  0  0  0  0  0  0  0  0  0
  1  2  1  0  0  0  0
  2  3  1  0  0  0  0
  2  9  2  0  0  0  0
  3  4  2  0  0  0  0
  4  5  1  0  0  0  0
  5  6  1  0  0  0  0
  5  8  2  0  0  0  0
  6  7  2  0  0  0  0
  8  9  1  0  0  0  0
M  END
>  <name>
Clc1ccc([C;amide]=O)cc1

>  <apo>
1

>  <freq>
3

>  <freq0>
0

>  <freq1>
3

>  <freqA>
2.9983063

>  <a_count>
14

$$$$

  MOE2015           2D

  6  5  0  0  0  0  0  0  0  0999 V2000
    3.3750    0.6500    0.0000 O   0  0  0  0  0  0  0  0  0  0  0  0
    2.6250   -0.6500    0.0000 C   0  0  0  0  0  0  0  0  0  0  0  0
    3.3750   -1.9490    0.0000 O   0  0  0  0  0  0  0  0  0  0  0  0
    1.1250   -0.6500    0.0000 C   0  0  0  0  0  0  0  0  0  0  0  0
    0.3750    0.6500    0.0000 C   0  0  0  0  0  0  0  0  0  0  0  0
    0.3750   -1.9490    0.0000 C   0  0  0  0  0  0  0  0  0  0  0  0
  1  2  2  0  0  0  0
  2  3  1  0  0  0  0
  2  4  1  0  0  0  0
  4  5  1  0  0  0  0
  4  6  1  0  0  0  0
M  END
>  <name>
O=C(O)[C;ether](C)C

>  <apo>
1

>  <freq>
3

>  <freq0>
0

>  <freq1>
3

>  <freqA>
2.9983063

>  <a_count>
14

$$$$

  MOE2015           2D

  8  8  0  0  0  0  0  0  0  0999 V2000
    7.2200    0.0000    0.0000 O   0  0  0  0  0  0  0  0  0  0  0  0
    5.7200    0.0000    0.0000 C   0  0  0  0  0  0  0  0  0  0  0  0
    4.9700   -1.2990    0.0000 C   0  0  0  0  0  0  0  0  0  0  0  0
    3.4700   -1.2990    0.0000 C   0  0  0  0  0  0  0  0  0  0  0  0
    2.5880   -0.0860    0.0000 S   0  0  0  0  0  0  0  0  0  0  0  0
    1.1620   -0.5490    0.0000 C   0  0  0  0  0  0  0  0  0  0  0  0
    1.1620   -2.0490    0.0000 C   0  0  0  0  0  0  0  0  0  0  0  0
    2.5880   -2.5130    0.0000 C   0  0  0  0  0  0  0  0  0  0  0  0
  1  2  2  0  0  0  0
  2  3  1  0  0  0  0
  3  4  1  0  0  0  0
  4  5  1  0  0  0  0
  4  8  2  0  0  0  0
  5  6  1  0  0  0  0
  6  7  2  0  0  0  0
  7  8  1  0  0  0  0
M  END
>  <name>
O=[C;amide]Cc1sccc1

>  <apo>
1

>  <freq>
3

>  <freq0>
0

>  <freq1>
3

>  <freqA>
2.9983063

>  <a_count>
14

$$$$

  MOE2015           2D

  6  5  0  0  1  0  0  0  0  0999 V2000
   -0.3480   -1.2990    0.0000 O   0  0  0  0  0  0  0  0  0  0  0  0
    0.9510   -2.0490    0.0000 C   0  0  0  0  0  0  0  0  0  0  0  0
    2.2500   -1.2990    0.0000 C   0  0  1  0  0  0  0  0  0  0  0  0
    2.2500    0.2010    0.0000 N   0  0  0  0  0  0  0  0  0  0  0  0
    3.5490   -2.0490    0.0000 C   0  0  0  0  0  0  0  0  0  0  0  0
    4.8480   -1.2990    0.0000 N   0  0  0  0  0  0  0  0  0  0  0  0
  1  2  2  0  0  0  0
  2  3  1  0  0  0  0
  3  4  1  1  0  0  0
  3  5  1  0  0  0  0
  5  6  1  0  0  0  0
M  END
>  <name>
O=[C;amide][C@@H]([N;amide])C[N;amide]

>  <apo>
3

>  <freq>
3

>  <freq0>
0

>  <freq1>
3

>  <freqA>
2.9983063

>  <a_count>
14

$$$$

  MOE2015           2D

  8  8  0  0  0  0  0  0  0  0999 V2000
    5.3440   -0.8120    0.0000 O   0  0  0  0  0  0  0  0  0  0  0  0
    4.5940   -2.1110    0.0000 C   0  0  0  0  0  0  0  0  0  0  0  0
    3.0940   -2.1110    0.0000 C   0  0  0  0  0  0  0  0  0  0  0  0
    2.3440   -3.4100    0.0000 C   0  0  0  0  0  0  0  0  0  0  0  0
    0.8440   -3.4100    0.0000 C   0  0  0  0  0  0  0  0  0  0  0  0
    0.0940   -2.1110    0.0000 C   0  0  0  0  0  0  0  0  0  0  0  0
    0.8440   -0.8120    0.0000 C   0  0  0  0  0  0  0  0  0  0  0  0
    2.3440   -0.8120    0.0000 C   0  0  0  0  0  0  0  0  0  0  0  0
  1  2  2  0  0  0  0
  2  3  1  0  0  0  0
  3  4  1  0  0  0  0
  3  8  2  0  0  0  0
  4  5  2  0  0  0  0
  5  6  1  0  0  0  0
  6  7  2  0  0  0  0
  7  8  1  0  0  0  0
M  END
>  <name>
O=[C;amide]c1cc[c;biphenyl]cc1

>  <apo>
2

>  <freq>
3

>  <freq0>
0

>  <freq1>
3

>  <freqA>
2.9983063

>  <a_count>
14

$$$$

  MOE2015           2D

  8  8  0  0  0  0  0  0  0  0999 V2000
    5.3440   -0.8120    0.0000 O   0  0  0  0  0  0  0  0  0  0  0  0
    4.5940   -2.1110    0.0000 C   0  0  0  0  0  0  0  0  0  0  0  0
    3.0940   -2.1110    0.0000 C   0  0  0  0  0  0  0  0  0  0  0  0
    2.3440   -3.4100    0.0000 C   0  0  0  0  0  0  0  0  0  0  0  0
    0.8440   -3.4100    0.0000 C   0  0  0  0  0  0  0  0  0  0  0  0
    0.0940   -2.1110    0.0000 C   0  0  0  0  0  0  0  0  0  0  0  0
    0.8440   -0.8120    0.0000 C   0  0  0  0  0  0  0  0  0  0  0  0
    2.3440   -0.8120    0.0000 C   0  0  0  0  0  0  0  0  0  0  0  0
  1  2  2  0  0  0  0
  2  3  1  0  0  0  0
  3  4  1  0  0  0  0
  3  8  2  0  0  0  0
  4  5  2  0  0  0  0
  5  6  1  0  0  0  0
  6  7  2  0  0  0  0
  7  8  1  0  0  0  0
M  END
>  <name>
O=[C;thioester]c1ccccc1

>  <apo>
1

>  <freq>
3

>  <freq0>
0

>  <freq1>
3

>  <freqA>
2.9983063

>  <a_count>
14

$$$$

  MOE2015           2D

  9  9  0  0  0  0  0  0  0  0999 V2000
   -0.0830   -0.1460    0.0000 O   0  0  0  0  0  0  0  0  0  0  0  0
    0.6880   -1.4330    0.0000 N   0  3  0  0  0  0  0  0  0  0  0  0
   -0.0420   -2.7440    0.0000 O   0  5  0  0  0  0  0  0  0  0  0  0
    2.1870   -1.4090    0.0000 C   0  0  0  0  0  0  0  0  0  0  0  0
    3.0880   -2.6090    0.0000 N   0  0  0  0  0  0  0  0  0  0  0  0
    4.5070   -2.1230    0.0000 C   0  0  0  0  0  0  0  0  0  0  0  0
    5.7350   -2.9850    0.0000 C   0  0  0  0  0  0  0  0  0  0  0  0
    4.4830   -0.6230    0.0000 N   0  0  0  0  0  0  0  0  0  0  0  0
    3.0500   -0.1820    0.0000 C   0  0  0  0  0  0  0  0  0  0  0  0
  1  2  2  0  0  0  0
  2  3  1  0  0  0  0
  2  4  1  0  0  0  0
  4  5  1  0  0  0  0
  4  9  2  0  0  0  0
  5  6  1  0  0  0  0
  6  7  1  0  0  0  0
  6  8  2  0  0  0  0
  8  9  1  0  0  0  0
M  CHG  1   2   1
M  CHG  1   3  -1
M  END
>  <name>
O=[N+]([O-])c1[nH;NaroC]c(C)nc1

>  <apo>
1

>  <freq>
3

>  <freq0>
0

>  <freq1>
3

>  <freqA>
2.9983063

>  <a_count>
14

$$$$

  MOE2015           2D

  7  6  0  0  0  0  0  0  0  0999 V2000
   -0.5570   -0.9640    0.0000 S   0  0  0  0  0  0  0  0  0  0  0  0
    0.1930   -2.2630    0.0000 O   0  0  0  0  0  0  0  0  0  0  0  0
   -1.3070    0.3350    0.0000 O   0  0  0  0  0  0  0  0  0  0  0  0
   -1.8560   -1.7140    0.0000 O   0  0  0  0  0  0  0  0  0  0  0  0
    0.7420   -0.2140    0.0000 C   0  0  0  0  0  0  0  0  0  0  0  0
    2.0410   -0.9640    0.0000 C   0  0  0  0  0  0  0  0  0  0  0  0
    3.3400   -0.2140    0.0000 N   0  0  0  0  0  0  0  0  0  0  0  0
  1  2  2  0  0  0  0
  1  3  2  0  0  0  0
  1  4  1  0  0  0  0
  1  5  1  0  0  0  0
  5  6  1  0  0  0  0
  6  7  1  0  0  0  0
M  END
>  <name>
S(=O)(=O)(O)CC[N;amide]

>  <apo>
1

>  <freq>
3

>  <freq0>
0

>  <freq1>
3

>  <freqA>
2.9983063

>  <a_count>
14

$$$$

  MOE2015           2D

  7  7  0  0  0  0  0  0  0  0999 V2000
    5.1430    0.0000    0.0000 N   0  0  0  0  0  0  0  0  0  0  0  0
    3.6430    0.0000    0.0000 C   0  0  0  0  0  0  0  0  0  0  0  0
    2.8930    1.2990    0.0000 C   0  0  0  0  0  0  0  0  0  0  0  0
    1.3930    1.2990    0.0000 C   0  0  0  0  0  0  0  0  0  0  0  0
    0.6430    0.0000    0.0000 C   0  0  0  0  0  0  0  0  0  0  0  0
    1.3930   -1.2990    0.0000 C   0  0  0  0  0  0  0  0  0  0  0  0
    2.8930   -1.2990    0.0000 C   0  0  0  0  0  0  0  0  0  0  0  0
  1  2  1  0  0  0  0
  2  3  1  0  0  0  0
  2  7  2  0  0  0  0
  3  4  2  0  0  0  0
  4  5  1  0  0  0  0
  5  6  2  0  0  0  0
  6  7  1  0  0  0  0
M  END
>  <name>
[N;amide]c1ccccc1

>  <apo>
1

>  <freq>
3

>  <freq0>
0

>  <freq1>
3

>  <freqA>
2.9983063

>  <a_count>
14

$$$$

  MOE2015           2D

  7  7  0  0  0  0  0  0  0  0999 V2000
    5.1430    0.0000    0.0000 N   0  0  0  0  0  0  0  0  0  0  0  0
    3.6430    0.0000    0.0000 C   0  0  0  0  0  0  0  0  0  0  0  0
    2.8930    1.2990    0.0000 C   0  0  0  0  0  0  0  0  0  0  0  0
    1.3930    1.2990    0.0000 C   0  0  0  0  0  0  0  0  0  0  0  0
    0.6430    0.0000    0.0000 C   0  0  0  0  0  0  0  0  0  0  0  0
    1.3930   -1.2990    0.0000 C   0  0  0  0  0  0  0  0  0  0  0  0
    2.8930   -1.2990    0.0000 C   0  0  0  0  0  0  0  0  0  0  0  0
  1  2  1  0  0  0  0
  2  3  1  0  0  0  0
  2  7  2  0  0  0  0
  3  4  2  0  0  0  0
  4  5  1  0  0  0  0
  5  6  2  0  0  0  0
  6  7  1  0  0  0  0
M  END
>  <name>
[N;amine]c1ccccc1

>  <apo>
1

>  <freq>
3

>  <freq0>
0

>  <freq1>
3

>  <freqA>
2.9983063

>  <a_count>
14

$$$$

  MOE2015           2D

  7  6  0  0  1  0  0  0  0  0999 V2000
    5.3550   -0.7920    0.0000 S   0  0  0  0  0  0  0  0  0  0  0  0
    4.0560   -1.5420    0.0000 C   0  0  0  0  0  0  0  0  0  0  0  0
    2.7570   -0.7920    0.0000 C   0  0  2  0  0  0  0  0  0  0  0  0
    2.7570    0.7080    0.0000 N   0  0  0  0  0  0  0  0  0  0  0  0
    1.4580   -1.5420    0.0000 C   0  0  0  0  0  0  0  0  0  0  0  0
    1.4580   -3.0420    0.0000 O   0  0  0  0  0  0  0  0  0  0  0  0
    0.1590   -0.7920    0.0000 O   0  0  0  0  0  0  0  0  0  0  0  0
  1  2  1  0  0  0  0
  2  3  1  0  0  0  0
  3  4  1  1  0  0  0
  3  5  1  0  0  0  0
  5  6  2  0  0  0  0
  5  7  1  0  0  0  0
M  END
>  <name>
[S;disulfide]C[C@H](N)C(=O)O

>  <apo>
1

>  <freq>
3

>  <freq0>
0

>  <freq1>
3

>  <freqA>
2.9983063

>  <a_count>
14

$$$$

  MOE2015           2D

  8  8  0  0  0  0  0  0  0  0999 V2000
    0.0000    0.0000    0.0000 Cl  0  0  0  0  0  0  0  0  0  0  0  0
    1.5000    0.0000    0.0000 C   0  0  0  0  0  0  0  0  0  0  0  0
    2.2500   -1.2990    0.0000 C   0  0  0  0  0  0  0  0  0  0  0  0
    3.7500   -1.2990    0.0000 C   0  0  0  0  0  0  0  0  0  0  0  0
    4.5000    0.0000    0.0000 C   0  0  0  0  0  0  0  0  0  0  0  0
    6.0000    0.0000    0.0000 O   0  0  0  0  0  0  0  0  0  0  0  0
    3.7500    1.2990    0.0000 C   0  0  0  0  0  0  0  0  0  0  0  0
    2.2500    1.2990    0.0000 C   0  0  0  0  0  0  0  0  0  0  0  0
  1  2  1  0  0  0  0
  2  3  1  0  0  0  0
  2  8  2  0  0  0  0
  3  4  2  0  0  0  0
  4  5  1  0  0  0  0
  5  6  1  0  0  0  0
  5  7  2  0  0  0  0
  7  8  1  0  0  0  0
M  END
>  <name>
Clc1ccc([O;ether])cc1

>  <apo>
1

>  <freq>
3

>  <freq0>
0

>  <freq1>
3

>  <freqA>
2.9983063

>  <a_count>
13

$$$$

  MOE2015           2D

  6  6  0  0  0  0  0  0  0  0999 V2000
    4.6270    0.0000    0.0000 O   0  0  0  0  0  0  0  0  0  0  0  0
    3.1270    0.0000    0.0000 C   0  0  0  0  0  0  0  0  0  0  0  0
    2.2450   -1.2140    0.0000 N   0  0  0  0  0  0  0  0  0  0  0  0
    0.8180   -0.7500    0.0000 C   0  0  0  0  0  0  0  0  0  0  0  0
    0.8180    0.7500    0.0000 C   0  0  0  0  0  0  0  0  0  0  0  0
    2.2450    1.2140    0.0000 C   0  0  0  0  0  0  0  0  0  0  0  0
  1  2  2  0  0  0  0
  2  3  1  0  0  0  0
  2  6  1  0  0  0  0
  3  4  1  0  0  0  0
  4  5  1  0  0  0  0
  5  6  1  0  0  0  0
M  END
>  <name>
O=C1[N;lactam]CCC1

>  <apo>
1

>  <freq>
3

>  <freq0>
0

>  <freq1>
3

>  <freqA>
2.9983063

>  <a_count>
13

$$$$

  MOE2015           2D

  5  4  0  0  1  0  0  0  0  0999 V2000
    0.1310   -1.0100    0.0000 O   0  0  0  0  0  0  0  0  0  0  0  0
    1.4300   -0.2600    0.0000 C   0  0  3  0  0  0  0  0  0  0  0  0
    2.7290   -1.0100    0.0000 C   0  0  0  0  0  0  0  0  0  0  0  0
    4.0280   -0.2600    0.0000 O   0  0  0  0  0  0  0  0  0  0  0  0
    1.4300    1.2400    0.0000 C   0  0  0  0  0  0  0  0  0  0  0  0
  1  2  1  0  0  0  0
  2  3  1  0  0  0  0
  2  5  1  0  0  0  0
  3  4  1  0  0  0  0
M  END
>  <name>
OC(CO)[C;ether]

>  <apo>
1

>  <freq>
3

>  <freq0>
0

>  <freq1>
3

>  <freqA>
2.9983063

>  <a_count>
13

$$$$

  MOE2015           2D

  7  7  0  0  0  0  0  0  0  0999 V2000
    5.1430    0.0000    0.0000 N   0  0  0  0  0  0  0  0  0  0  0  0
    3.6430    0.0000    0.0000 C   0  0  0  0  0  0  0  0  0  0  0  0
    2.8930    1.2990    0.0000 N   0  0  0  0  0  0  0  0  0  0  0  0
    1.3930    1.2990    0.0000 C   0  0  0  0  0  0  0  0  0  0  0  0
    0.6430    0.0000    0.0000 C   0  0  0  0  0  0  0  0  0  0  0  0
    1.3930   -1.2990    0.0000 C   0  0  0  0  0  0  0  0  0  0  0  0
    2.8930   -1.2990    0.0000 C   0  0  0  0  0  0  0  0  0  0  0  0
  1  2  1  0  0  0  0
  2  3  1  0  0  0  0
  2  7  2  0  0  0  0
  3  4  2  0  0  0  0
  4  5  1  0  0  0  0
  5  6  2  0  0  0  0
  6  7  1  0  0  0  0
M  END
>  <name>
[N;amine]c1ncccc1

>  <apo>
1

>  <freq>
3

>  <freq0>
0

>  <freq1>
3

>  <freqA>
2.9983063

>  <a_count>
13

$$$$

  MOE2015           2D

  6  5  0  0  1  0  0  0  0  0999 V2000
   -0.3480   -1.2990    0.0000 S   0  0  0  0  0  0  0  0  0  0  0  0
    0.9510   -2.0490    0.0000 C   0  0  0  0  0  0  0  0  0  0  0  0
    2.2500   -1.2990    0.0000 C   0  0  2  0  0  0  0  0  0  0  0  0
    2.2500    0.2010    0.0000 N   0  0  0  0  0  0  0  0  0  0  0  0
    3.5490   -2.0490    0.0000 C   0  0  0  0  0  0  0  0  0  0  0  0
    4.8480   -1.2990    0.0000 O   0  0  0  0  0  0  0  0  0  0  0  0
  1  2  1  0  0  0  0
  2  3  1  0  0  0  0
  3  4  1  6  0  0  0
  3  5  1  0  0  0  0
  5  6  2  0  0  0  0
M  END
>  <name>
[S;disulfide]C[C@H](N)[C;amide]=O

>  <apo>
2

>  <freq>
3

>  <freq0>
0

>  <freq1>
3

>  <freqA>
2.9983063

>  <a_count>
13

$$$$

  MOE2015           2D

  5  4  0  0  1  0  0  0  0  0999 V2000
    3.8780   -1.0390    0.0000 O   0  0  0  0  0  0  0  0  0  0  0  0
    2.5790   -1.7890    0.0000 C   0  0  0  0  0  0  0  0  0  0  0  0
    1.2800   -1.0390    0.0000 C   0  0  2  0  0  0  0  0  0  0  0  0
   -0.0190   -1.7890    0.0000 N   0  0  0  0  0  0  0  0  0  0  0  0
    1.2800    0.4610    0.0000 C   0  0  0  0  0  0  0  0  0  0  0  0
  1  2  2  0  0  0  0
  2  3  1  0  0  0  0
  3  4  1  0  0  0  0
  3  5  1  6  0  0  0
M  END
>  <name>
O=[C;amide][C@H]([N;amide])[C;ether]

>  <apo>
3

>  <freq>
3

>  <freq0>
0

>  <freq1>
3

>  <freqA>
2.9983063

>  <a_count>
12

$$$$

  MOE2015           2D

  8  8  0  0  0  0  0  0  0  0999 V2000
    5.3440   -0.8120    0.0000 O   0  0  0  0  0  0  0  0  0  0  0  0
    4.5940   -2.1110    0.0000 C   0  0  0  0  0  0  0  0  0  0  0  0
    3.0940   -2.1110    0.0000 C   0  0  0  0  0  0  0  0  0  0  0  0
    2.3440   -3.4100    0.0000 N   0  0  0  0  0  0  0  0  0  0  0  0
    0.8440   -3.4100    0.0000 C   0  0  0  0  0  0  0  0  0  0  0  0
    0.0940   -2.1110    0.0000 C   0  0  0  0  0  0  0  0  0  0  0  0
    0.8440   -0.8120    0.0000 N   0  0  0  0  0  0  0  0  0  0  0  0
    2.3440   -0.8120    0.0000 C   0  0  0  0  0  0  0  0  0  0  0  0
  1  2  2  0  0  0  0
  2  3  1  0  0  0  0
  3  4  1  0  0  0  0
  3  8  2  0  0  0  0
  4  5  2  0  0  0  0
  5  6  1  0  0  0  0
  6  7  2  0  0  0  0
  7  8  1  0  0  0  0
M  END
>  <name>
O=[C;amide]c1nccnc1

>  <apo>
1

>  <freq>
3

>  <freq0>
0

>  <freq1>
3

>  <freqA>
2.9983063

>  <a_count>
12

$$$$

  MOE2015           2D

  4  4  0  0  0  0  0  0  0  0999 V2000
    3.5490    0.0000    0.0000 C   0  0  0  0  0  0  0  0  0  0  0  0
    2.0490    0.0000    0.0000 C   0  0  0  0  0  0  0  0  0  0  0  0
    0.7500   -0.7500    0.0000 C   0  0  0  0  0  0  0  0  0  0  0  0
    0.7500    0.7500    0.0000 C   0  0  0  0  0  0  0  0  0  0  0  0
  1  2  1  0  0  0  0
  2  3  1  0  0  0  0
  2  4  1  0  0  0  0
  3  4  1  0  0  0  0
M  END
>  <name>
[C;ether]C1CC1

>  <apo>
1

>  <freq>
3

>  <freq0>
0

>  <freq1>
3

>  <freqA>
2.9983063

>  <a_count>
12

$$$$

  MOE2015           2D

  4  3  0  0  0  0  0  0  0  0999 V2000
   -0.0740   -0.2750    0.0000 O   0  0  0  0  0  0  0  0  0  0  0  0
    1.2250   -1.0250    0.0000 C   0  0  0  0  0  0  0  0  0  0  0  0
    2.5250   -0.2750    0.0000 C   0  0  0  0  0  0  0  0  0  0  0  0
    3.8240   -1.0250    0.0000 C   0  0  0  0  0  0  0  0  0  0  0  0
  1  2  1  0  0  0  0
  2  3  1  0  0  0  0
  3  4  1  0  0  0  0
M  END
>  <name>
[O;ester]CC[C;amine]

>  <apo>
2

>  <freq>
3

>  <freq0>
0

>  <freq1>
3

>  <freqA>
2.9983063

>  <a_count>
12

$$$$

  MOE2015           2D

  6  6  0  0  0  0  0  0  0  0999 V2000
   -2.0490    2.0490    0.0000 C   0  0  0  0  0  0  0  0  0  0  0  0
   -2.0490    0.5490    0.0000 C   0  0  0  0  0  0  0  0  0  0  0  0
   -0.7500   -0.2010    0.0000 C   0  0  0  0  0  0  0  0  0  0  0  0
    0.5490    0.5490    0.0000 C   0  0  0  0  0  0  0  0  0  0  0  0
    0.5490    2.0490    0.0000 C   0  0  0  0  0  0  0  0  0  0  0  0
   -0.7500    2.7990    0.0000 C   0  0  0  0  0  0  0  0  0  0  0  0
  1  2  1  0  0  0  0
  1  6  2  0  0  0  0
  2  3  2  0  0  0  0
  3  4  1  0  0  0  0
  4  5  2  0  0  0  0
  5  6  1  0  0  0  0
M  END
>  <name>
[c;biphenyl]1cc[c;biphenyl]cc1

>  <apo>
2

>  <freq>
3

>  <freq0>
0

>  <freq1>
3

>  <freqA>
2.9983063

>  <a_count>
12

$$$$

  MOE2015           2D

  6  6  0  0  0  0  0  0  0  0999 V2000
   -2.0490    2.0490    0.0000 C   0  0  0  0  0  0  0  0  0  0  0  0
   -2.0490    0.5490    0.0000 C   0  0  0  0  0  0  0  0  0  0  0  0
   -0.7500   -0.2010    0.0000 C   0  0  0  0  0  0  0  0  0  0  0  0
    0.5490    0.5490    0.0000 C   0  0  0  0  0  0  0  0  0  0  0  0
    0.5490    2.0490    0.0000 C   0  0  0  0  0  0  0  0  0  0  0  0
   -0.7500    2.7990    0.0000 C   0  0  0  0  0  0  0  0  0  0  0  0
  1  2  1  0  0  0  0
  1  6  2  0  0  0  0
  2  3  2  0  0  0  0
  3  4  1  0  0  0  0
  4  5  2  0  0  0  0
  5  6  1  0  0  0  0
M  END
>  <name>
c1cc[c;biphenyl]cc1

>  <apo>
1

>  <freq>
3

>  <freq0>
0

>  <freq1>
3

>  <freqA>
2.9983063

>  <a_count>
12

$$$$

  MOE2015           2D

  3  2  0  0  0  0  0  0  0  0999 V2000
    0.2500    0.0670    0.0000 C   0  0  0  0  0  0  0  0  0  0  0  0
    1.5490   -0.6830    0.0000 C   0  0  0  0  0  0  0  0  0  0  0  0
   -1.0490   -0.6830    0.0000 C   0  0  0  0  0  0  0  0  0  0  0  0
  1  2  1  0  0  0  0
  1  3  1  0  0  0  0
M  END
>  <name>
C([C;ether])C

>  <apo>
1

>  <freq>
3

>  <freq0>
0

>  <freq1>
3

>  <freqA>
2.9983063

>  <a_count>
11

$$$$

  MOE2015           2D

  5  5  0  0  0  0  0  0  0  0999 V2000
    4.1780   -1.3390    0.0000 O   0  0  0  0  0  0  0  0  0  0  0  0
    2.8790   -2.0890    0.0000 C   0  0  0  0  0  0  0  0  0  0  0  0
    1.5800   -1.3390    0.0000 C   0  0  0  0  0  0  0  0  0  0  0  0
    0.8300   -0.0400    0.0000 C   0  0  0  0  0  0  0  0  0  0  0  0
    0.0800   -1.3390    0.0000 C   0  0  0  0  0  0  0  0  0  0  0  0
  1  2  2  0  0  0  0
  2  3  1  0  0  0  0
  3  4  1  0  0  0  0
  3  5  1  0  0  0  0
  4  5  1  0  0  0  0
M  END
>  <name>
O=[C;amide]C1CC1

>  <apo>
1

>  <freq>
3

>  <freq0>
0

>  <freq1>
3

>  <freqA>
2.9983063

>  <a_count>
11

$$$$

  MOE2015           2D

  7  7  0  0  0  0  0  0  0  0999 V2000
    4.9030   -0.6040    0.0000 O   0  0  0  0  0  0  0  0  0  0  0  0
    4.1530   -1.9030    0.0000 C   0  0  0  0  0  0  0  0  0  0  0  0
    2.6530   -1.9030    0.0000 C   0  0  0  0  0  0  0  0  0  0  0  0
    1.7710   -3.1160    0.0000 O   0  0  0  0  0  0  0  0  0  0  0  0
    0.3450   -2.6530    0.0000 C   0  0  0  0  0  0  0  0  0  0  0  0
    0.3450   -1.1530    0.0000 C   0  0  0  0  0  0  0  0  0  0  0  0
    1.7710   -0.6890    0.0000 C   0  0  0  0  0  0  0  0  0  0  0  0
  1  2  2  0  0  0  0
  2  3  1  0  0  0  0
  3  4  1  0  0  0  0
  3  7  2  0  0  0  0
  4  5  1  0  0  0  0
  5  6  2  0  0  0  0
  6  7  1  0  0  0  0
M  END
>  <name>
O=[C;ester]c1occc1

>  <apo>
1

>  <freq>
3

>  <freq0>
0

>  <freq1>
3

>  <freqA>
2.9983063

>  <a_count>
11

$$$$

  MOE2015           2D

  6  6  0  0  0  0  0  0  0  0999 V2000
   -2.0490    2.0490    0.0000 N   0  0  0  0  0  0  0  0  0  0  0  0
   -2.0490    0.5490    0.0000 C   0  0  0  0  0  0  0  0  0  0  0  0
   -0.7500   -0.2010    0.0000 C   0  0  0  0  0  0  0  0  0  0  0  0
    0.5490    0.5490    0.0000 C   0  0  0  0  0  0  0  0  0  0  0  0
    0.5490    2.0490    0.0000 C   0  0  0  0  0  0  0  0  0  0  0  0
   -0.7500    2.7990    0.0000 C   0  0  0  0  0  0  0  0  0  0  0  0
  1  2  1  0  0  0  0
  1  6  2  0  0  0  0
  2  3  2  0  0  0  0
  3  4  1  0  0  0  0
  4  5  2  0  0  0  0
  5  6  1  0  0  0  0
M  END
>  <name>
n1c[c;biphenyl]ccc1

>  <apo>
1

>  <freq>
3

>  <freq0>
0

>  <freq1>
3

>  <freqA>
2.9983063

>  <a_count>
11

$$$$

  MOE2015           2D

 62 66  0  0  1  0  0  0  0  0999 V2000
    2.8050   -0.4330    0.0000 O   0  0  0  0  0  0  0  0  0  0  0  0
    1.3750    0.0190    0.0000 C   0  0  0  0  0  0  0  0  0  0  0  0
    0.2680   -0.9930    0.0000 N   0  0  0  0  0  0  0  0  0  0  0  0
    1.0520    1.4840    0.0000 C   0  0  0  0  0  0  0  0  0  0  0  0
    2.1580    2.4960    0.0000 C   0  0  0  0  0  0  0  0  0  0  0  0
    1.8350    3.9610    0.0000 C   0  0  1  0  0  0  0  0  0  0  0  0
    0.4530    4.5150    0.0000 C   0  0  1  0  0  0  0  0  0  0  0  0
   -0.1490    3.1410    0.0000 C   0  0  0  0  0  0  0  0  0  0  0  0
   -1.6390    2.9750    0.0000 C   0  0  0  0  0  0  0  0  0  0  0  0
   -2.5290    4.1830    0.0000 O   0  0  0  0  0  0  0  0  0  0  0  0
   -2.2410    1.6010    0.0000 N   0  0  0  0  0  0  0  0  0  0  0  0
   -1.0410    4.3800    0.0000 C   0  0  0  0  0  0  0  0  0  0  0  0
    0.4570    6.0320    0.0000 C   0  0  1  0  0  0  0  0  0  0  0  0
   -0.9870    5.6240    0.0000 C   0  0  0  0  0  0  0  0  0  0  0  0
    2.0040    6.3370    0.0000 N   0  0  0  0  0  0  0  0  0  0  0  0
    2.8850    5.0780    0.0000 C   0  0  0  0  0  0  0  0  0  0  0  0
    4.5300    5.2140    0.0000 C   0  0  0  0  0  0  0  0  0  0  0  0
    5.2770    3.9140    0.0000 C   0  0  0  0  0  0  0  0  0  0  0  0
    5.4310    6.4980    0.0000 C   0  0  0  0  0  0  0  0  0  0  0  0
    6.9230    6.2520    0.0000 C   0  0  2  0  0  0  0  0  0  0  0  0
    6.7860    4.7590    0.0000 C   0  0  0  0  0  0  0  0  0  0  0  0
    8.0110    3.8930    0.0000 C   0  0  0  0  0  0  0  0  0  0  0  0
    9.3730    4.5210    0.0000 O   0  0  0  0  0  0  0  0  0  0  0  0
    7.8740    2.3990    0.0000 N   0  0  0  0  0  0  0  0  0  0  0  0
    8.1780    5.4300    0.0000 C   0  0  0  0  0  0  0  0  0  0  0  0
    7.6720    7.5370    0.0000 C   0  0  2  0  0  0  0  0  0  0  0  0
    9.1680    7.6550    0.0000 C   0  0  0  0  0  0  0  0  0  0  0  0
    9.8130    9.0090    0.0000 C   0  0  0  0  0  0  0  0  0  0  0  0
   11.3090    9.1270    0.0000 C   0  0  0  0  0  0  0  0  0  0  0  0
   12.1590    7.8900    0.0000 O   0  0  0  0  0  0  0  0  0  0  0  0
   11.9540   10.4800    0.0000 N   0  0  0  0  0  0  0  0  0  0  0  0
    6.7220    8.7000    0.0000 C   0  0  0  0  0  0  0  0  0  0  0  0
    5.3320    8.0470    0.0000 N   0  0  0  0  0  0  0  0  0  0  0  0
    6.2890   10.2690    0.0000 C   0  0  0  0  0  0  0  0  0  0  0  0
    5.0060    9.4900    0.0000 C   0  0  0  0  0  0  0  0  0  0  0  0
    4.9310   11.1030    0.0000 C   0  0  0  0  0  0  0  0  0  0  0  0
    5.9620   12.1920    0.0000 C   0  0  0  0  0  0  0  0  0  0  0  0
    6.4250   10.9710    0.0000 C   0  0  0  0  0  0  0  0  0  0  0  0
    4.0360   12.4320    0.0000 C   0  0  2  0  0  0  0  0  0  0  0  0
    4.3510   13.8980    0.0000 C   0  0  0  0  0  0  0  0  0  0  0  0
    3.2390   14.9050    0.0000 C   0  0  0  0  0  0  0  0  0  0  0  0
    3.5550   16.3710    0.0000 C   0  0  0  0  0  0  0  0  0  0  0  0
    4.9830   16.8310    0.0000 O   0  0  0  0  0  0  0  0  0  0  0  0
    2.4430   17.3780    0.0000 N   0  0  0  0  0  0  0  0  0  0  0  0
    2.6740   11.5890    0.0000 C   0  0  0  0  0  0  0  0  0  0  0  0
    1.0340   11.5360    0.0000 C   0  0  0  0  0  0  0  0  0  0  0  0
    0.3030   12.8460    0.0000 C   0  0  0  0  0  0  0  0  0  0  0  0
    0.1180   10.1540    0.0000 C   0  0  0  0  0  0  0  0  0  0  0  0
   -1.3840    9.8360    0.0000 C   0  0  1  0  0  0  0  0  0  0  0  0
   -2.8440   10.1810    0.0000 C   0  0  0  0  0  0  0  0  0  0  0  0
   -3.2750   11.6180    0.0000 C   0  0  0  0  0  0  0  0  0  0  0  0
   -4.7350   11.9630    0.0000 C   0  0  0  0  0  0  0  0  0  0  0  0
   -5.1660   13.3990    0.0000 O   0  0  0  0  0  0  0  0  0  0  0  0
   -1.7670   11.2860    0.0000 C   0  0  0  0  0  0  0  0  0  0  0  0
   -1.6410    8.3620    0.0000 C   0  0  1  0  0  0  0  0  0  0  0  0
   -3.0080    7.7440    0.0000 C   0  0  0  0  0  0  0  0  0  0  0  0
   -4.2270    8.6180    0.0000 C   0  0  0  0  0  0  0  0  0  0  0  0
   -4.0790   10.1110    0.0000 O   0  0  0  0  0  0  0  0  0  0  0  0
   -5.5930    7.9990    0.0000 N   0  0  0  0  0  0  0  0  0  0  0  0
   -0.3460    7.5700    0.0000 C   0  0  3  0  0  0  0  0  0  0  0  0
    0.7380    8.7310    0.0000 N   0  5  0  0  0  0  0  0  0  0  0  0
    3.6280   10.3260    0.0000 N   0  0  0  0  0  0  0  0  0  0  0  0
  1  2  2  0  0  0  0
  2  3  1  0  0  0  0
  2  4  1  0  0  0  0
  4  5  1  0  0  0  0
  6  5  1  1  0  0  0
  6  7  1  0  0  0  0
  6 16  1  0  0  0  0
  7  8  1  6  0  0  0
  7 12  1  1  0  0  0
  7 13  1  0  0  0  0
  8  9  1  0  0  0  0
  9 10  2  0  0  0  0
  9 11  1  0  0  0  0
 13 14  1  1  0  0  0
 13 15  1  0  0  0  0
 13 60  1  0  0  0  0
 15 16  2  0  0  0  0
 16 17  1  0  0  0  0
 17 18  1  0  0  0  0
 17 19  2  0  0  0  0
 19 20  1  0  0  0  0
 19 33  1  0  0  0  0
 20 21  1  6  0  0  0
 20 25  1  1  0  0  0
 20 26  1  0  0  0  0
 21 22  1  0  0  0  0
 22 23  2  0  0  0  0
 22 24  1  0  0  0  0
 26 27  1  1  0  0  0
 26 32  1  0  0  0  0
 27 28  1  0  0  0  0
 28 29  1  0  0  0  0
 29 30  2  0  0  0  0
 29 31  1  0  0  0  0
 32 33  2  0  0  0  0
 32 34  1  0  0  0  0
 34 35  2  0  0  0  0
 35 36  1  0  0  0  0
 35 62  1  0  0  0  0
 36 37  1  0  0  0  0
 36 38  1  0  0  0  0
 36 39  1  0  0  0  0
 39 40  1  1  0  0  0
 39 45  1  0  0  0  0
 40 41  1  0  0  0  0
 41 42  1  0  0  0  0
 42 43  2  0  0  0  0
 42 44  1  0  0  0  0
 45 46  1  0  0  0  0
 45 62  2  0  0  0  0
 46 47  1  0  0  0  0
 46 48  2  0  0  0  0
 48 49  1  0  0  0  0
 48 61  1  0  0  0  0
 49 50  1  1  0  0  0
 49 54  1  6  0  0  0
 49 55  1  0  0  0  0
 50 51  1  0  0  0  0
 51 52  1  0  0  0  0
 52 53  2  0  0  0  0
 55 56  1  6  0  0  0
 55 60  1  0  0  0  0
 56 57  1  0  0  0  0
 57 58  2  0  0  0  0
 57 59  1  0  0  0  0
 60 61  1  0  0  0  0
M  CHG  1  61  -1
M  END
>  <name>
O=C(N)CC[C@H]1[C@@](CC(=O)N)(C)[C@@]2(C)N=C1/C(/C)=C\1/[C@](CC(=O)N)(C)[C@H](CCC(=O)N)C(=N/1)/C=C/1\C(C)(C)[C@H](CCC(=O)N)C(/C(/C)=C\3/[C@@](CC[C;amide]=O)(C)[C@@H](CC(=O)N)C2[N-]/3)=N\1

>  <apo>
1

>  <freq>
2

>  <freq0>
0

>  <freq1>
2

>  <freqA>
1.9984947

>  <a_count>
127

$$$$

  MOE2015           2D

 31 32  0  0  1  0  0  0  0  0999 V2000
   -0.4350   -0.7540    0.0000 O   0  0  0  0  0  0  0  0  0  0  0  0
    0.3150   -2.0530    0.0000 C   0  0  0  0  0  0  0  0  0  0  0  0
   -0.4350   -3.3520    0.0000 C   0  0  0  0  0  0  0  0  0  0  0  0
   -1.9350   -3.3520    0.0000 C   0  0  0  0  0  0  0  0  0  0  0  0
    0.3150   -4.6510    0.0000 C   0  0  0  0  0  0  0  0  0  0  0  0
   -0.4350   -5.9500    0.0000 C   0  0  0  0  0  0  0  0  0  0  0  0
    1.8150   -4.6510    0.0000 C   0  0  0  0  0  0  0  0  0  0  0  0
    2.5650   -5.9500    0.0000 O   0  0  0  0  0  0  0  0  0  0  0  0
    4.0650   -5.9500    0.0000 C   0  0  1  0  0  0  0  0  0  0  0  0
    5.3640   -6.7000    0.0000 C   0  0  0  0  0  0  0  0  0  0  0  0
    6.6630   -5.9500    0.0000 C   0  0  0  0  0  0  0  0  0  0  0  0
    7.9620   -6.7000    0.0000 C   0  0  0  0  0  0  0  0  0  0  0  0
    9.2610   -5.9500    0.0000 C   0  0  1  0  0  0  0  0  0  0  0  0
   10.5600   -6.7000    0.0000 C   0  0  0  0  0  0  0  0  0  0  0  0
   11.8590   -5.9500    0.0000 C   0  0  0  0  0  0  0  0  0  0  0  0
   13.1580   -6.7000    0.0000 C   0  0  0  0  0  0  0  0  0  0  0  0
   14.4570   -5.9500    0.0000 C   0  0  1  0  0  0  0  0  0  0  0  0
   15.7560   -6.7000    0.0000 C   0  0  0  0  0  0  0  0  0  0  0  0
   17.0550   -5.9500    0.0000 C   0  0  0  0  0  0  0  0  0  0  0  0
   18.3540   -6.7000    0.0000 C   0  0  0  0  0  0  0  0  0  0  0  0
   19.6530   -5.9500    0.0000 C   0  0  0  0  0  0  0  0  0  0  0  0
   19.6530   -4.4500    0.0000 C   0  0  0  0  0  0  0  0  0  0  0  0
   20.9520   -6.7000    0.0000 C   0  0  0  0  0  0  0  0  0  0  0  0
   14.4570   -4.4500    0.0000 C   0  0  0  0  0  0  0  0  0  0  0  0
    9.2610   -4.4500    0.0000 C   0  0  0  0  0  0  0  0  0  0  0  0
    4.0650   -7.4500    0.0000 C   0  0  0  0  0  0  0  0  0  0  0  0
    4.8150   -4.6510    0.0000 C   0  0  0  0  0  0  0  0  0  0  0  0
    4.0650   -3.3520    0.0000 C   0  0  0  0  0  0  0  0  0  0  0  0
    2.5650   -3.3520    0.0000 C   0  0  0  0  0  0  0  0  0  0  0  0
    1.8150   -2.0530    0.0000 C   0  0  0  0  0  0  0  0  0  0  0  0
    2.5650   -0.7540    0.0000 C   0  0  0  0  0  0  0  0  0  0  0  0
  1  2  1  0  0  0  0
  2  3  1  0  0  0  0
  2 30  2  0  0  0  0
  3  4  1  0  0  0  0
  3  5  2  0  0  0  0
  5  6  1  0  0  0  0
  5  7  1  0  0  0  0
  7  8  1  0  0  0  0
  7 29  2  0  0  0  0
  8  9  1  0  0  0  0
  9 10  1  1  0  0  0
  9 26  1  6  0  0  0
  9 27  1  0  0  0  0
 10 11  1  0  0  0  0
 11 12  1  0  0  0  0
 12 13  1  0  0  0  0
 13 14  1  0  0  0  0
 13 25  1  6  0  0  0
 14 15  1  0  0  0  0
 15 16  1  0  0  0  0
 16 17  1  0  0  0  0
 17 18  1  0  0  0  0
 17 24  1  6  0  0  0
 18 19  1  0  0  0  0
 19 20  1  0  0  0  0
 20 21  1  0  0  0  0
 21 22  1  0  0  0  0
 21 23  1  0  0  0  0
 27 28  1  0  0  0  0
 28 29  1  0  0  0  0
 29 30  1  0  0  0  0
 30 31  1  0  0  0  0
M  END
>  <name>
[O;ester]c1c(C)c(C)c2O[C@@](CCC[C@@H](CCC[C@@H](CCCC(C)C)C)C)(C)CCc2c1C

>  <apo>
1

>  <freq>
2

>  <freq0>
0

>  <freq1>
2

>  <freqA>
1.9984947

>  <a_count>
81

$$$$

  MOE2015           2D

 39 41  0  0  1  0  0  0  0  0999 V2000
    8.5810   -8.5810    0.0000 Cl  0  0  0  0  0  0  0  0  0  0  0  0
    8.5810   -7.0810    0.0000 C   0  0  0  0  0  0  0  0  0  0  0  0
    7.2820   -6.3310    0.0000 C   0  0  0  0  0  0  0  0  0  0  0  0
    5.9830   -7.0810    0.0000 O   0  0  0  0  0  0  0  0  0  0  0  0
    4.6840   -6.3310    0.0000 C   0  0  0  0  0  0  0  0  0  0  0  0
    3.3850   -7.0810    0.0000 C   0  0  0  0  0  0  0  0  0  0  0  0
    3.3850   -8.5810    0.0000 O   0  0  0  0  0  0  0  0  0  0  0  0
    2.0860   -6.3310    0.0000 C   0  0  0  0  0  0  0  0  0  0  0  0
    0.7870   -7.0810    0.0000 O   0  0  0  0  0  0  0  0  0  0  0  0
   -0.5120   -6.3310    0.0000 C   0  0  0  0  0  0  0  0  0  0  0  0
   -1.8120   -7.0810    0.0000 C   0  0  0  0  0  0  0  0  0  0  0  0
   -1.8120   -8.5810    0.0000 Cl  0  0  0  0  0  0  0  0  0  0  0  0
   -3.1110   -6.3310    0.0000 C   0  0  0  0  0  0  0  0  0  0  0  0
   -3.1110   -4.8310    0.0000 C   0  0  0  0  0  0  0  0  0  0  0  0
   -4.4100   -4.0810    0.0000 C   0  0  1  0  0  0  0  0  0  0  0  0
   -4.4100   -2.5810    0.0000 O   0  0  0  0  0  0  0  0  0  0  0  0
   -5.7090   -4.8310    0.0000 C   0  0  1  0  0  0  0  0  0  0  0  0
   -7.0080   -4.0810    0.0000 N   0  0  0  0  0  0  0  0  0  0  0  0
   -5.7090   -6.3310    0.0000 C   0  0  0  0  0  0  0  0  0  0  0  0
   -7.0080   -7.0810    0.0000 O   0  0  0  0  0  0  0  0  0  0  0  0
   -1.8120   -4.0810    0.0000 C   0  0  0  0  0  0  0  0  0  0  0  0
   -0.5120   -4.8310    0.0000 C   0  0  0  0  0  0  0  0  0  0  0  0
    2.0860   -4.8310    0.0000 C   0  0  0  0  0  0  0  0  0  0  0  0
    3.3850   -4.0810    0.0000 C   0  0  0  0  0  0  0  0  0  0  0  0
    3.3850   -2.5810    0.0000 C   0  0  1  0  0  0  0  0  0  0  0  0
    4.6840   -1.8310    0.0000 N   0  0  0  0  0  0  0  0  0  0  0  0
    2.0860   -1.8310    0.0000 C   0  0  0  0  0  0  0  0  0  0  0  0
    2.0860   -0.3310    0.0000 O   0  0  0  0  0  0  0  0  0  0  0  0
    4.6840   -4.8310    0.0000 C   0  0  0  0  0  0  0  0  0  0  0  0
    7.2820   -4.8310    0.0000 C   0  0  0  0  0  0  0  0  0  0  0  0
    8.5810   -4.0810    0.0000 C   0  0  0  0  0  0  0  0  0  0  0  0
    9.8800   -4.8310    0.0000 C   0  0  0  0  0  0  0  0  0  0  0  0
   11.1790   -4.0810    0.0000 C   0  0  1  0  0  0  0  0  0  0  0  0
   11.1790   -2.5810    0.0000 O   0  0  0  0  0  0  0  0  0  0  0  0
   12.4780   -4.8310    0.0000 C   0  0  2  0  0  0  0  0  0  0  0  0
   12.4780   -6.3310    0.0000 N   0  0  0  0  0  0  0  0  0  0  0  0
   13.7770   -4.0810    0.0000 C   0  0  0  0  0  0  0  0  0  0  0  0
   15.0760   -4.8310    0.0000 O   0  0  0  0  0  0  0  0  0  0  0  0
    9.8800   -6.3310    0.0000 C   0  0  0  0  0  0  0  0  0  0  0  0
  1  2  1  0  0  0  0
  2  3  1  0  0  0  0
  2 39  2  0  0  0  0
  3  4  1  0  0  0  0
  3 30  2  0  0  0  0
  4  5  1  0  0  0  0
  5  6  2  0  0  0  0
  5 29  1  0  0  0  0
  6  7  1  0  0  0  0
  6  8  1  0  0  0  0
  8  9  1  0  0  0  0
  8 23  2  0  0  0  0
  9 10  1  0  0  0  0
 10 11  2  0  0  0  0
 10 22  1  0  0  0  0
 11 12  1  0  0  0  0
 11 13  1  0  0  0  0
 13 14  2  0  0  0  0
 14 15  1  0  0  0  0
 14 21  1  0  0  0  0
 15 16  1  6  0  0  0
 15 17  1  0  0  0  0
 17 18  1  6  0  0  0
 17 19  1  0  0  0  0
 19 20  2  0  0  0  0
 21 22  2  0  0  0  0
 23 24  1  0  0  0  0
 24 25  1  0  0  0  0
 24 29  2  0  0  0  0
 25 26  1  6  0  0  0
 25 27  1  0  0  0  0
 27 28  2  0  0  0  0
 30 31  1  0  0  0  0
 31 32  2  0  0  0  0
 32 33  1  0  0  0  0
 32 39  1  0  0  0  0
 33 34  1  1  0  0  0
 33 35  1  0  0  0  0
 35 36  1  1  0  0  0
 35 37  1  0  0  0  0
 37 38  2  0  0  0  0
M  END
>  <name>
Clc1c(Oc2c([O;ether])c(Oc3c(Cl)cc([C@@H](O)[C@@H]([N;amide])[C;amide]=O)cc3)cc([C@@H]([N;amide])[C;amide]=O)c2)ccc([C@@H](O)[C@H]([N;amide])[C;amide]=O)c1

>  <apo>
7

>  <freq>
2

>  <freq0>
0

>  <freq1>
2

>  <freqA>
1.9984947

>  <a_count>
64

$$$$

  MOE2015           2D

 34 39  0  0  1  0  0  0  0  0999 V2000
    3.0110    4.9970    0.0000 O   0  0  0  0  0  0  0  0  0  0  0  0
    3.8020    3.7420    0.0000 C   0  0  0  0  0  0  0  0  0  0  0  0
    1.5110    4.9910    0.0000 C   0  0  0  0  0  0  0  0  0  0  0  0
    0.7630    6.2990    0.0000 C   0  0  0  0  0  0  0  0  0  0  0  0
    1.5230    7.5920    0.0000 O   0  0  0  0  0  0  0  0  0  0  0  0
   -0.7390    6.3050    0.0000 C   0  0  0  0  0  0  0  0  0  0  0  0
   -2.0860    7.4540    0.0000 C   0  0  1  0  0  0  0  0  0  0  0  0
   -2.9330    8.6450    0.0000 N   0  0  0  0  0  0  0  0  0  0  0  0
   -3.2760   10.1050    0.0000 C   0  0  0  0  0  0  0  0  0  0  0  0
   -3.0400    7.3850    0.0000 C   0  0  2  0  0  0  0  0  0  0  0  0
   -4.2070    6.2130    0.0000 C   0  0  2  0  0  0  0  0  0  0  0  0
   -5.6020    5.7670    0.0000 O   0  0  0  0  0  0  0  0  0  0  0  0
   -3.3760    5.0300    0.0000 N   0  0  0  0  0  0  0  0  0  0  0  0
   -4.6570    4.2620    0.0000 C   0  0  1  0  0  0  0  0  0  0  0  0
   -4.5990    2.7450    0.0000 C   0  0  0  0  0  0  0  0  0  0  0  0
   -3.3240    2.0090    0.0000 O   0  0  0  0  0  0  0  0  0  0  0  0
   -5.9690    4.9550    0.0000 C   0  0  0  0  0  0  0  0  0  0  0  0
   -7.2650    4.2550    0.0000 C   0  0  0  0  0  0  0  0  0  0  0  0
   -7.5950    2.7700    0.0000 O   0  0  0  0  0  0  0  0  0  0  0  0
   -9.0760    2.6270    0.0000 C   0  0  0  0  0  0  0  0  0  0  0  0
   -9.6850    3.9940    0.0000 O   0  0  0  0  0  0  0  0  0  0  0  0
   -8.5690    4.9980    0.0000 C   0  0  0  0  0  0  0  0  0  0  0  0
   -8.5750    6.4970    0.0000 C   0  0  0  0  0  0  0  0  0  0  0  0
   -9.8690    7.2530    0.0000 C   0  0  0  0  0  0  0  0  0  0  0  0
   -7.2650    7.2450    0.0000 C   0  0  0  0  0  0  0  0  0  0  0  0
   -7.3340    8.7750    0.0000 O   0  0  0  0  0  0  0  0  0  0  0  0
   -5.9760    6.5550    0.0000 C   0  0  0  0  0  0  0  0  0  0  0  0
   -4.6580    7.2190    0.0000 C   0  0  0  0  0  0  0  0  0  0  0  0
   -3.2820    6.2200    0.0000 C   0  0  2  0  0  0  0  0  0  0  0  0
   -1.7550    6.2730    0.0000 C   0  0  0  0  0  0  0  0  0  0  0  0
   -1.4970    5.0160    0.0000 C   0  0  0  0  0  0  0  0  0  0  0  0
   -0.7520    3.7110    0.0000 C   0  0  0  0  0  0  0  0  0  0  0  0
    0.7500    3.7020    0.0000 C   0  0  0  0  0  0  0  0  0  0  0  0
    1.4860    2.3880    0.0000 C   0  0  0  0  0  0  0  0  0  0  0  0
  1  2  1  0  0  0  0
  1  3  1  0  0  0  0
  3  4  2  0  0  0  0
  3 33  1  0  0  0  0
  4  5  1  0  0  0  0
  4  6  1  0  0  0  0
  7  6  1  6  0  0  0
  6 31  2  0  0  0  0
  7  8  1  0  0  0  0
  7 29  1  0  0  0  0
  8  9  1  0  0  0  0
  8 10  1  0  0  0  0
 10 11  1  0  0  0  0
 10 30  1  1  0  0  0
 11 12  1  1  0  0  0
 11 13  1  0  0  0  0
 13 14  1  0  0  0  0
 13 29  1  0  0  0  0
 14 15  1  1  0  0  0
 14 17  1  0  0  0  0
 15 16  1  0  0  0  0
 17 18  1  0  0  0  0
 17 27  2  0  0  0  0
 18 19  1  0  0  0  0
 18 22  2  0  0  0  0
 19 20  1  0  0  0  0
 20 21  1  0  0  0  0
 21 22  1  0  0  0  0
 22 23  1  0  0  0  0
 23 24  1  0  0  0  0
 23 25  2  0  0  0  0
 25 26  1  0  0  0  0
 25 27  1  0  0  0  0
 27 28  1  0  0  0  0
 29 28  1  6  0  0  0
 30 31  1  0  0  0  0
 31 32  1  0  0  0  0
 32 33  2  0  0  0  0
 33 34  1  0  0  0  0
M  END
>  <name>
O(C)c1c(O)c2[C@H]3N(C)[C@H]([C@H](O)N4[C@@H](C[O;ester])c5c6OCOc6c(C)c([O;ester])c5[C;thioether][C@H]34)Cc2cc1C

>  <apo>
3

>  <freq>
2

>  <freq0>
0

>  <freq1>
2

>  <freqA>
1.9984947

>  <a_count>
64

$$$$

  MOE2015           2D

 30 32  0  0  1  0  0  0  0  0999 V2000
    0.0000    0.0000    0.0000 O   0  0  0  0  0  0  0  0  0  0  0  0
    1.5000    0.0000    0.0000 C   0  0  0  0  0  0  0  0  0  0  0  0
   -0.7500   -1.2990    0.0000 C   0  0  0  0  0  0  0  0  0  0  0  0
   -2.2500   -1.2990    0.0000 C   0  0  0  0  0  0  0  0  0  0  0  0
   -3.0000    0.0000    0.0000 O   0  0  0  0  0  0  0  0  0  0  0  0
   -2.2500    1.2990    0.0000 C   0  0  0  0  0  0  0  0  0  0  0  0
   -3.0000   -2.5980    0.0000 C   0  0  0  0  0  0  0  0  0  0  0  0
   -4.5000   -2.5980    0.0000 C   0  0  3  0  0  0  0  0  0  0  0  0
   -5.2500   -1.2990    0.0000 C   0  0  0  0  0  0  0  0  0  0  0  0
   -6.7500   -1.2990    0.0000 C   0  0  0  0  0  0  0  0  0  0  0  0
   -7.5000    0.0000    0.0000 C   0  0  0  0  0  0  0  0  0  0  0  0
   -9.0000    0.0000    0.0000 C   0  0  0  0  0  0  0  0  0  0  0  0
   -9.7500    1.2990    0.0000 O   0  0  0  0  0  0  0  0  0  0  0  0
   -9.0000    2.5980    0.0000 C   0  0  0  0  0  0  0  0  0  0  0  0
   -9.7500   -1.2990    0.0000 C   0  0  0  0  0  0  0  0  0  0  0  0
  -11.2500   -1.2990    0.0000 O   0  0  0  0  0  0  0  0  0  0  0  0
  -12.0000    0.0000    0.0000 C   0  0  0  0  0  0  0  0  0  0  0  0
   -9.0000   -2.5980    0.0000 C   0  0  0  0  0  0  0  0  0  0  0  0
   -9.7500   -3.8970    0.0000 O   0  0  0  0  0  0  0  0  0  0  0  0
  -11.2500   -3.8970    0.0000 C   0  0  0  0  0  0  0  0  0  0  0  0
   -7.5000   -2.5980    0.0000 C   0  0  0  0  0  0  0  0  0  0  0  0
   -5.2500   -3.8970    0.0000 N   0  3  3  0  0  0  0  0  0  0  0  0
   -6.7500   -3.8970    0.0000 C   0  0  0  0  0  0  0  0  0  0  0  0
   -4.5000   -5.1960    0.0000 C   0  0  0  0  0  0  0  0  0  0  0  0
   -3.0000   -5.1960    0.0000 C   0  0  0  0  0  0  0  0  0  0  0  0
   -2.2500   -3.8970    0.0000 C   0  0  0  0  0  0  0  0  0  0  0  0
   -0.7500   -3.8970    0.0000 C   0  0  0  0  0  0  0  0  0  0  0  0
    0.0000   -2.5980    0.0000 C   0  0  0  0  0  0  0  0  0  0  0  0
    1.5000   -2.5980    0.0000 O   0  0  0  0  0  0  0  0  0  0  0  0
    2.2500   -3.8970    0.0000 C   0  0  0  0  0  0  0  0  0  0  0  0
  1  2  1  0  0  0  0
  1  3  1  0  0  0  0
  3  4  1  0  0  0  0
  3 28  2  0  0  0  0
  4  5  1  0  0  0  0
  4  7  2  0  0  0  0
  5  6  1  0  0  0  0
  7  8  1  0  0  0  0
  7 26  1  0  0  0  0
  8  9  1  0  0  0  0
  8 22  1  0  0  0  0
  9 10  1  0  0  0  0
 10 11  1  0  0  0  0
 10 21  2  0  0  0  0
 11 12  2  0  0  0  0
 12 13  1  0  0  0  0
 12 15  1  0  0  0  0
 13 14  1  0  0  0  0
 15 16  1  0  0  0  0
 15 18  2  0  0  0  0
 16 17  1  0  0  0  0
 18 19  1  0  0  0  0
 18 21  1  0  0  0  0
 19 20  1  0  0  0  0
 22 23  1  0  0  0  0
 22 24  1  0  0  0  0
 24 25  1  0  0  0  0
 25 26  1  0  0  0  0
 26 27  2  0  0  0  0
 27 28  1  0  0  0  0
 28 29  1  0  0  0  0
 29 30  1  0  0  0  0
M  CHG  1  22   1
M  END
>  <name>
O(C)c1c(OC)c2C(Cc3cc(OC)c(OC)c(OC)c3)[N+;quatN](C)CCc2cc1OC

>  <apo>
1

>  <freq>
2

>  <freq0>
0

>  <freq1>
2

>  <freqA>
1.9984947

>  <a_count>
62

$$$$

  MOE2015           2D

 27 31  0  0  1  0  0  0  0  0999 V2000
   14.9150   -2.6920    0.0000 O   0  0  0  0  0  0  0  0  0  0  0  0
   13.4230   -2.5410    0.0000 C   0  0  0  0  0  0  0  0  0  0  0  0
   12.4230   -3.6590    0.0000 O   0  0  0  0  0  0  0  0  0  0  0  0
   11.0510   -3.0540    0.0000 C   0  0  0  0  0  0  0  0  0  0  0  0
   11.2020   -1.5620    0.0000 C   0  0  0  0  0  0  0  0  0  0  0  0
   10.0830   -0.5620    0.0000 C   0  0  2  0  0  0  0  0  0  0  0  0
    8.6170   -0.8800    0.0000 C   0  0  1  0  0  0  0  0  0  0  0  0
    9.4820   -2.1050    0.0000 C   0  0  0  0  0  0  0  0  0  0  0  0
    7.8720   -2.1810    0.0000 C   0  0  2  0  0  0  0  0  0  0  0  0
    8.6270   -3.4780    0.0000 O   0  0  0  0  0  0  0  0  0  0  0  0
    6.3720   -2.1870    0.0000 C   0  0  0  0  0  0  0  0  0  0  0  0
    5.6170   -0.8910    0.0000 C   0  0  2  0  0  0  0  0  0  0  0  0
    4.1170   -0.8960    0.0000 C   0  0  2  0  0  0  0  0  0  0  0  0
    4.8720   -2.1920    0.0000 C   0  0  0  0  0  0  0  0  0  0  0  0
    3.3630    0.4000    0.0000 C   0  0  1  0  0  0  0  0  0  0  0  0
    4.1080    1.7020    0.0000 C   0  0  0  0  0  0  0  0  0  0  0  0
    5.6080    1.7070    0.0000 C   0  0  0  0  0  0  0  0  0  0  0  0
    6.3630    0.4110    0.0000 C   0  0  1  0  0  0  0  0  0  0  0  0
    7.8630    0.4170    0.0000 C   0  0  2  0  0  0  0  0  0  0  0  0
    7.2240    1.7740    0.0000 O   0  0  0  0  0  0  0  0  0  0  0  0
    8.8620    1.5350    0.0000 C   0  0  0  0  0  0  0  0  0  0  0  0
   10.2350    0.9300    0.0000 C   0  0  0  0  0  0  0  0  0  0  0  0
    1.8630    0.3950    0.0000 C   0  0  0  0  0  0  0  0  0  0  0  0
    1.1170   -0.9070    0.0000 C   0  0  0  0  0  0  0  0  0  0  0  0
    1.8720   -2.2030    0.0000 C   0  0  0  0  0  0  0  0  0  0  0  0
    3.3720   -2.1980    0.0000 C   0  0  0  0  0  0  0  0  0  0  0  0
   12.6680   -1.2450    0.0000 C   0  0  0  0  0  0  0  0  0  0  0  0
  1  2  2  0  0  0  0
  2  3  1  0  0  0  0
  2 27  1  0  0  0  0
  3  4  1  0  0  0  0
  4  5  1  0  0  0  0
  6  5  1  6  0  0  0
  5 27  2  0  0  0  0
  6  7  1  0  0  0  0
  6 22  1  0  0  0  0
  7  8  1  6  0  0  0
  7  9  1  0  0  0  0
  7 19  1  0  0  0  0
  9 10  1  6  0  0  0
  9 11  1  0  0  0  0
 12 11  1  6  0  0  0
 12 13  1  0  0  0  0
 12 18  1  0  0  0  0
 13 14  1  6  0  0  0
 13 15  1  0  0  0  0
 13 26  1  0  0  0  0
 15 16  1  6  0  0  0
 15 23  1  0  0  0  0
 16 17  1  0  0  0  0
 18 17  1  1  0  0  0
 18 19  1  0  0  0  0
 19 20  1  6  0  0  0
 19 21  1  0  0  0  0
 21 22  1  0  0  0  0
 23 24  1  0  0  0  0
 24 25  1  0  0  0  0
 25 26  1  0  0  0  0
M  END
>  <name>
O=C1OCC([C@@H]2[C@@]3(C)[C@H](O)C[C@@H]4[C@]5(C)[C@@H](CC[C@H]4[C@@]3(O)CC2)C[C;ether]CC5)=C1

>  <apo>
1

>  <freq>
2

>  <freq0>
0

>  <freq1>
2

>  <freqA>
1.9984947

>  <a_count>
61

$$$$

  MOE2015           2D

 26 30  0  0  1  0  0  0  0  0999 V2000
   15.0100   -2.8790    0.0000 O   0  0  0  0  0  0  0  0  0  0  0  0
   13.5170   -2.7280    0.0000 C   0  0  0  0  0  0  0  0  0  0  0  0
   12.5180   -3.8470    0.0000 O   0  0  0  0  0  0  0  0  0  0  0  0
   11.1450   -3.2420    0.0000 C   0  0  0  0  0  0  0  0  0  0  0  0
   11.2960   -1.7500    0.0000 C   0  0  0  0  0  0  0  0  0  0  0  0
   10.1780   -0.7500    0.0000 C   0  0  2  0  0  0  0  0  0  0  0  0
    8.7120   -1.0680    0.0000 C   0  0  2  0  0  0  0  0  0  0  0  0
    9.5770   -2.2930    0.0000 C   0  0  0  0  0  0  0  0  0  0  0  0
    7.9570    0.2280    0.0000 C   0  0  1  0  0  0  0  0  0  0  0  0
    7.3170    1.5850    0.0000 O   0  0  0  0  0  0  0  0  0  0  0  0
    6.4570    0.2230    0.0000 C   0  0  1  0  0  0  0  0  0  0  0  0
    5.7120   -1.0790    0.0000 C   0  0  1  0  0  0  0  0  0  0  0  0
    4.2120   -1.0850    0.0000 C   0  0  2  0  0  0  0  0  0  0  0  0
    4.9670   -2.3810    0.0000 C   0  0  0  0  0  0  0  0  0  0  0  0
    3.4570    0.2110    0.0000 C   0  0  1  0  0  0  0  0  0  0  0  0
    4.2020    1.5130    0.0000 C   0  0  0  0  0  0  0  0  0  0  0  0
    5.7020    1.5190    0.0000 C   0  0  0  0  0  0  0  0  0  0  0  0
    1.9570    0.2050    0.0000 C   0  0  0  0  0  0  0  0  0  0  0  0
    1.2120   -1.0970    0.0000 C   0  0  0  0  0  0  0  0  0  0  0  0
    1.9670   -2.3930    0.0000 C   0  0  0  0  0  0  0  0  0  0  0  0
    3.4670   -2.3870    0.0000 C   0  0  0  0  0  0  0  0  0  0  0  0
    6.4670   -2.3750    0.0000 C   0  0  0  0  0  0  0  0  0  0  0  0
    7.9670   -2.3700    0.0000 C   0  0  0  0  0  0  0  0  0  0  0  0
    8.9560    1.3470    0.0000 C   0  0  0  0  0  0  0  0  0  0  0  0
   10.3290    0.7420    0.0000 C   0  0  0  0  0  0  0  0  0  0  0  0
   12.7620   -1.4320    0.0000 C   0  0  0  0  0  0  0  0  0  0  0  0
  1  2  2  0  0  0  0
  2  3  1  0  0  0  0
  2 26  1  0  0  0  0
  3  4  1  0  0  0  0
  4  5  1  0  0  0  0
  6  5  1  6  0  0  0
  5 26  2  0  0  0  0
  6  7  1  0  0  0  0
  6 25  1  0  0  0  0
  7  8  1  6  0  0  0
  7  9  1  0  0  0  0
  7 23  1  0  0  0  0
  9 10  1  6  0  0  0
  9 11  1  0  0  0  0
  9 24  1  0  0  0  0
 11 12  1  0  0  0  0
 11 17  1  1  0  0  0
 12 13  1  0  0  0  0
 12 22  1  6  0  0  0
 13 14  1  6  0  0  0
 13 15  1  0  0  0  0
 13 21  1  0  0  0  0
 15 16  1  6  0  0  0
 15 18  1  0  0  0  0
 16 17  1  0  0  0  0
 18 19  1  0  0  0  0
 19 20  1  0  0  0  0
 20 21  1  0  0  0  0
 22 23  1  0  0  0  0
 24 25  1  0  0  0  0
M  END
>  <name>
O=C1OCC([C@@H]2[C@]3(C)[C@@](O)([C@H]4[C@@H]([C@]5(C)[C@@H](CC4)C[C;ether]CC5)CC3)CC2)=C1

>  <apo>
1

>  <freq>
2

>  <freq0>
0

>  <freq1>
2

>  <freqA>
1.9984947

>  <a_count>
60

$$$$

  MOE2015           2D

 28 30  0  0  1  0  0  0  0  0999 V2000
   -9.5620    5.5210    0.0000 O   0  0  0  0  0  0  0  0  0  0  0  0
  -10.3120    6.8200    0.0000 C   0  0  0  0  0  0  0  0  0  0  0  0
   -8.0620    5.5210    0.0000 C   0  0  0  0  0  0  0  0  0  0  0  0
   -7.3120    6.8200    0.0000 C   0  0  0  0  0  0  0  0  0  0  0  0
   -8.0620    8.1190    0.0000 O   0  0  0  0  0  0  0  0  0  0  0  0
   -7.3120    9.4180    0.0000 C   0  0  0  0  0  0  0  0  0  0  0  0
   -5.8120    6.8200    0.0000 C   0  0  0  0  0  0  0  0  0  0  0  0
   -5.0620    5.5210    0.0000 C   0  0  0  0  0  0  0  0  0  0  0  0
   -3.5620    5.5210    0.0000 C   0  0  0  0  0  0  0  0  0  0  0  0
   -2.8120    4.2220    0.0000 C   0  0  1  0  0  0  0  0  0  0  0  0
   -3.5620    2.9230    0.0000 N   0  3  3  0  0  0  0  0  0  0  0  0
   -5.0620    2.9230    0.0000 C   0  0  0  0  0  0  0  0  0  0  0  0
   -2.8120    1.6240    0.0000 C   0  0  0  0  0  0  0  0  0  0  0  0
   -1.3130    1.6240    0.0000 C   0  0  0  0  0  0  0  0  0  0  0  0
   -0.5630    2.9230    0.0000 C   0  0  0  0  0  0  0  0  0  0  0  0
   -1.3120    4.2220    0.0000 C   0  0  0  0  0  0  0  0  0  0  0  0
   -0.5620    5.5210    0.0000 C   0  0  0  0  0  0  0  0  0  0  0  0
    0.9380    5.5210    0.0000 C   0  0  0  0  0  0  0  0  0  0  0  0
    1.6870    6.8200    0.0000 O   0  0  0  0  0  0  0  0  0  0  0  0
    0.9370    8.1190    0.0000 C   0  0  0  0  0  0  0  0  0  0  0  0
    1.6870    4.2220    0.0000 C   0  0  0  0  0  0  0  0  0  0  0  0
    3.1870    4.2220    0.0000 O   0  0  0  0  0  0  0  0  0  0  0  0
    3.9370    2.9230    0.0000 C   0  0  0  0  0  0  0  0  0  0  0  0
    0.9370    2.9230    0.0000 C   0  0  0  0  0  0  0  0  0  0  0  0
   -5.8120    4.2220    0.0000 C   0  0  0  0  0  0  0  0  0  0  0  0
   -7.3120    4.2220    0.0000 C   0  0  0  0  0  0  0  0  0  0  0  0
   -8.0620    2.9230    0.0000 O   0  0  0  0  0  0  0  0  0  0  0  0
   -9.5620    2.9230    0.0000 C   0  0  0  0  0  0  0  0  0  0  0  0
  1  2  1  0  0  0  0
  1  3  1  0  0  0  0
  3  4  1  0  0  0  0
  3 26  2  0  0  0  0
  4  5  1  0  0  0  0
  4  7  2  0  0  0  0
  5  6  1  0  0  0  0
  7  8  1  0  0  0  0
  8  9  1  0  0  0  0
  8 25  2  0  0  0  0
 10  9  1  6  0  0  0
 10 11  1  0  0  0  0
 10 16  1  0  0  0  0
 11 12  1  0  0  0  0
 11 13  1  0  0  0  0
 13 14  1  0  0  0  0
 14 15  1  0  0  0  0
 15 16  2  0  0  0  0
 15 24  1  0  0  0  0
 16 17  1  0  0  0  0
 17 18  2  0  0  0  0
 18 19  1  0  0  0  0
 18 21  1  0  0  0  0
 19 20  1  0  0  0  0
 21 22  1  0  0  0  0
 21 24  2  0  0  0  0
 22 23  1  0  0  0  0
 25 26  1  0  0  0  0
 26 27  1  0  0  0  0
 27 28  1  0  0  0  0
M  CHG  1  11   1
M  END
>  <name>
O(C)c1c(OC)cc(C[C@H]2[N+;quatN](C)CCc3c2cc(OC)c(OC)c3)cc1OC

>  <apo>
1

>  <freq>
2

>  <freq0>
0

>  <freq1>
2

>  <freqA>
1.9984947

>  <a_count>
58

$$$$

  MOE2015           2D

 28 31  0  0  1  0  0  0  0  0999 V2000
    4.2220   -0.4770    0.0000 F   0  0  0  0  0  0  0  0  0  0  0  0
    3.4680    0.8190    0.0000 C   0  0  2  0  0  0  0  0  0  0  0  0
    2.7220   -0.4820    0.0000 C   0  0  1  0  0  0  0  0  0  0  0  0
    3.4760   -1.7790    0.0000 O   0  0  0  0  0  0  0  0  0  0  0  0
    1.2220   -0.4870    0.0000 C   0  0  0  0  0  0  0  0  0  0  0  0
    0.4680    0.8090    0.0000 C   0  0  2  0  0  0  0  0  0  0  0  0
   -0.3890   -0.4220    0.0000 C   0  0  0  0  0  0  0  0  0  0  0  0
   -1.0010    1.1170    0.0000 C   0  0  1  0  0  0  0  0  0  0  0  0
   -1.4840   -0.3030    0.0000 O   0  0  0  0  0  0  0  0  0  0  0  0
   -2.4810    0.8770    0.0000 C   0  0  0  0  0  0  0  0  0  0  0  0
   -3.4290    2.0400    0.0000 O   0  0  0  0  0  0  0  0  0  0  0  0
   -3.0140   -0.5250    0.0000 C   0  0  0  0  0  0  0  0  0  0  0  0
   -4.4950   -0.7650    0.0000 O   0  0  0  0  0  0  0  0  0  0  0  0
   -1.1620    2.6080    0.0000 C   0  0  2  0  0  0  0  0  0  0  0  0
   -2.4640    3.3540    0.0000 C   0  0  0  0  0  0  0  0  0  0  0  0
    0.2060    3.2220    0.0000 C   0  0  0  0  0  0  0  0  0  0  0  0
    1.2130    2.1110    0.0000 C   0  0  1  0  0  0  0  0  0  0  0  0
    2.7130    2.1160    0.0000 C   0  0  2  0  0  0  0  0  0  0  0  0
    3.4590    3.4170    0.0000 C   0  0  0  0  0  0  0  0  0  0  0  0
    4.9590    3.4220    0.0000 C   0  0  0  0  0  0  0  0  0  0  0  0
    5.7130    2.1260    0.0000 C   0  0  0  0  0  0  0  0  0  0  0  0
    4.9680    0.8240    0.0000 C   0  0  1  0  0  0  0  0  0  0  0  0
    6.4680    0.8290    0.0000 C   0  0  0  0  0  0  0  0  0  0  0  0
    5.7220   -0.4720    0.0000 C   0  0  0  0  0  0  0  0  0  0  0  0
    7.2220   -0.4680    0.0000 C   0  0  0  0  0  0  0  0  0  0  0  0
    7.9680    0.8340    0.0000 C   0  0  0  0  0  0  0  0  0  0  0  0
    9.4680    0.8390    0.0000 O   0  0  0  0  0  0  0  0  0  0  0  0
    7.2130    2.1310    0.0000 C   0  0  0  0  0  0  0  0  0  0  0  0
  2  1  1  6  0  0  0
  2  3  1  0  0  0  0
  2 18  1  0  0  0  0
  2 22  1  0  0  0  0
  3  4  1  1  0  0  0
  3  5  1  0  0  0  0
  5  6  1  0  0  0  0
  6  7  1  1  0  0  0
  6  8  1  0  0  0  0
  6 17  1  0  0  0  0
  8  9  1  6  0  0  0
  8 10  1  1  0  0  0
  8 14  1  0  0  0  0
 10 11  2  0  0  0  0
 10 12  1  0  0  0  0
 12 13  1  0  0  0  0
 14 15  1  6  0  0  0
 14 16  1  0  0  0  0
 17 16  1  1  0  0  0
 17 18  1  0  0  0  0
 18 19  1  6  0  0  0
 19 20  1  0  0  0  0
 20 21  1  0  0  0  0
 21 22  1  0  0  0  0
 21 28  2  0  0  0  0
 22 23  1  1  0  0  0
 22 24  1  0  0  0  0
 24 25  2  0  0  0  0
 25 26  1  0  0  0  0
 26 27  2  0  0  0  0
 26 28  1  0  0  0  0
M  END
>  <name>
F[C@]12[C@@H](O)C[C@]3(C)[C@@](O)(C(=O)C[O;ester])[C@H](C)C[C@H]3[C@@H]1CCC=1[C@]2(C)C=CC(=O)C=1

>  <apo>
1

>  <freq>
2

>  <freq0>
0

>  <freq1>
2

>  <freqA>
1.9984947

>  <a_count>
57

$$$$

  MOE2015           2D

 18 17  0  0  0  0  0  0  0  0999 V2000
    1.4000    0.3750    0.0000 C   0  0  0  0  0  0  0  0  0  0  0  0
    0.1000   -0.3750    0.0000 C   0  0  0  0  0  0  0  0  0  0  0  0
   -1.1990    0.3750    0.0000 C   0  0  0  0  0  0  0  0  0  0  0  0
   -2.4980   -0.3750    0.0000 C   0  0  0  0  0  0  0  0  0  0  0  0
   -3.7970    0.3750    0.0000 C   0  0  0  0  0  0  0  0  0  0  0  0
   -5.0960   -0.3750    0.0000 C   0  0  0  0  0  0  0  0  0  0  0  0
   -6.3950    0.3750    0.0000 C   0  0  0  0  0  0  0  0  0  0  0  0
   -7.6940   -0.3750    0.0000 C   0  0  0  0  0  0  0  0  0  0  0  0
   -8.9930    0.3750    0.0000 C   0  0  0  0  0  0  0  0  0  0  0  0
  -10.2920   -0.3750    0.0000 C   0  0  0  0  0  0  0  0  0  0  0  0
    2.6990   -0.3750    0.0000 C   0  0  0  0  0  0  0  0  0  0  0  0
    3.9980    0.3750    0.0000 C   0  0  0  0  0  0  0  0  0  0  0  0
    5.2970   -0.3750    0.0000 C   0  0  0  0  0  0  0  0  0  0  0  0
    6.5960    0.3750    0.0000 C   0  0  0  0  0  0  0  0  0  0  0  0
    7.8950   -0.3750    0.0000 C   0  0  0  0  0  0  0  0  0  0  0  0
    9.1940    0.3750    0.0000 C   0  0  0  0  0  0  0  0  0  0  0  0
   10.4930   -0.3750    0.0000 C   0  0  0  0  0  0  0  0  0  0  0  0
   11.7920    0.3750    0.0000 C   0  0  0  0  0  0  0  0  0  0  0  0
  1  2  1  0  0  0  0
  1 11  1  0  0  0  0
  2  3  1  0  0  0  0
  3  4  1  0  0  0  0
  4  5  1  0  0  0  0
  5  6  1  0  0  0  0
  6  7  1  0  0  0  0
  7  8  1  0  0  0  0
  8  9  1  0  0  0  0
  9 10  1  0  0  0  0
 11 12  1  0  0  0  0
 12 13  1  0  0  0  0
 13 14  1  0  0  0  0
 14 15  1  0  0  0  0
 15 16  1  0  0  0  0
 16 17  1  0  0  0  0
 17 18  1  0  0  0  0
M  END
>  <name>
C(CCCCCCCC[C;quatN])CCCCCCCC

>  <apo>
1

>  <freq>
2

>  <freq0>
0

>  <freq1>
2

>  <freqA>
1.9984947

>  <a_count>
56

$$$$

  MOE2015           2D

 26 29  0  0  1  0  0  0  0  0999 V2000
    8.5510   -5.8990    0.0000 O   0  0  0  0  0  0  0  0  0  0  0  0
    8.0180   -4.4970    0.0000 C   0  0  0  0  0  0  0  0  0  0  0  0
    8.9660   -3.3350    0.0000 C   0  0  0  0  0  0  0  0  0  0  0  0
   10.4470   -3.5750    0.0000 O   0  0  0  0  0  0  0  0  0  0  0  0
    6.5370   -4.2570    0.0000 C   0  0  2  0  0  0  0  0  0  0  0  0
    7.0210   -5.6770    0.0000 O   0  0  0  0  0  0  0  0  0  0  0  0
    5.0690   -4.5640    0.0000 C   0  0  2  0  0  0  0  0  0  0  0  0
    5.9250   -5.7950    0.0000 C   0  0  0  0  0  0  0  0  0  0  0  0
    4.3240   -3.2620    0.0000 C   0  0  2  0  0  0  0  0  0  0  0  0
    2.8240   -3.2570    0.0000 C   0  0  1  0  0  0  0  0  0  0  0  0
    2.0690   -4.5530    0.0000 C   0  0  2  0  0  0  0  0  0  0  0  0
    2.8140   -5.8550    0.0000 C   0  0  1  0  0  0  0  0  0  0  0  0
    2.0600   -7.1510    0.0000 O   0  0  0  0  0  0  0  0  0  0  0  0
    4.3140   -5.8600    0.0000 C   0  0  0  0  0  0  0  0  0  0  0  0
    0.5690   -4.5470    0.0000 C   0  0  2  0  0  0  0  0  0  0  0  0
    1.3140   -5.8490    0.0000 C   0  0  0  0  0  0  0  0  0  0  0  0
   -0.1760   -3.2460    0.0000 C   0  0  0  0  0  0  0  0  0  0  0  0
   -1.6760   -3.2400    0.0000 C   0  0  0  0  0  0  0  0  0  0  0  0
   -2.4310   -4.5370    0.0000 C   0  0  0  0  0  0  0  0  0  0  0  0
   -3.9310   -4.5310    0.0000 O   0  0  0  0  0  0  0  0  0  0  0  0
   -1.6860   -5.8380    0.0000 C   0  0  0  0  0  0  0  0  0  0  0  0
   -0.1860   -5.8440    0.0000 C   0  0  0  0  0  0  0  0  0  0  0  0
    0.5780   -1.9490    0.0000 C   0  0  0  0  0  0  0  0  0  0  0  0
    2.0780   -1.9550    0.0000 C   0  0  0  0  0  0  0  0  0  0  0  0
    5.3310   -2.1510    0.0000 C   0  0  0  0  0  0  0  0  0  0  0  0
    6.7000   -2.7660    0.0000 C   0  0  0  0  0  0  0  0  0  0  0  0
  1  2  2  0  0  0  0
  2  3  1  0  0  0  0
  5  2  1  6  0  0  0
  3  4  1  0  0  0  0
  5  6  1  1  0  0  0
  5  7  1  0  0  0  0
  5 26  1  0  0  0  0
  7  8  1  6  0  0  0
  7  9  1  0  0  0  0
  7 14  1  0  0  0  0
  9 10  1  0  0  0  0
  9 25  1  6  0  0  0
 10 11  1  0  0  0  0
 10 24  1  1  0  0  0
 11 12  1  0  0  0  0
 11 15  1  6  0  0  0
 12 13  1  6  0  0  0
 12 14  1  0  0  0  0
 15 16  1  6  0  0  0
 15 17  1  0  0  0  0
 15 22  1  0  0  0  0
 17 18  2  0  0  0  0
 17 23  1  0  0  0  0
 18 19  1  0  0  0  0
 19 20  2  0  0  0  0
 19 21  1  0  0  0  0
 21 22  1  0  0  0  0
 23 24  1  0  0  0  0
 25 26  1  0  0  0  0
M  END
>  <name>
O=C(CO)[C@]1([O;ester])[C@]2(C)[C@H]([C@H]3[C@H]([C@@H](O)C2)[C@]2(C)C(=CC(=O)CC2)CC3)CC1

>  <apo>
1

>  <freq>
2

>  <freq0>
0

>  <freq1>
2

>  <freqA>
1.9984947

>  <a_count>
56

$$$$

  MOE2015           2D

 28 32  0  0  1  0  0  0  0  0999 V2000
   -2.5640    6.3050    0.0000 O   0  0  0  0  0  0  0  0  0  0  0  0
   -4.0640    6.2710    0.0000 C   0  0  0  0  0  0  0  0  0  0  0  0
   -4.8430    7.5520    0.0000 O   0  0  0  0  0  0  0  0  0  0  0  0
   -4.1230    8.8680    0.0000 C   0  0  0  0  0  0  0  0  0  0  0  0
   -4.7840    4.9550    0.0000 C   0  0  2  0  0  0  0  0  0  0  0  0
   -4.0050    3.6730    0.0000 C   0  0  2  0  0  0  0  0  0  0  0  0
   -4.7250    2.3580    0.0000 C   0  0  2  0  0  0  0  0  0  0  0  0
   -6.2250    2.3240    0.0000 C   0  0  0  0  0  0  0  0  0  0  0  0
   -7.0040    3.6050    0.0000 C   0  0  1  0  0  0  0  0  0  0  0  0
   -8.5040    3.5710    0.0000 O   0  0  0  0  0  0  0  0  0  0  0  0
   -6.2840    4.9210    0.0000 C   0  0  0  0  0  0  0  0  0  0  0  0
   -3.9460    1.0760    0.0000 C   0  0  0  0  0  0  0  0  0  0  0  0
   -2.4460    1.1100    0.0000 N   0  0  0  0  0  0  0  0  0  0  0  0
   -1.7260    2.4260    0.0000 C   0  0  1  0  0  0  0  0  0  0  0  0
   -0.2260    2.4600    0.0000 C   0  0  0  0  0  0  0  0  0  0  0  0
    0.7520    3.5970    0.0000 N   0  0  0  0  0  0  0  0  0  0  0  0
    2.1350    3.0180    0.0000 C   0  0  0  0  0  0  0  0  0  0  0  0
    2.0130    1.5240    0.0000 C   0  0  0  0  0  0  0  0  0  0  0  0
    0.5530    1.1780    0.0000 C   0  0  0  0  0  0  0  0  0  0  0  0
   -0.1670   -0.1370    0.0000 C   0  0  0  0  0  0  0  0  0  0  0  0
   -1.6670   -0.1720    0.0000 C   0  0  0  0  0  0  0  0  0  0  0  0
    3.2460    0.6700    0.0000 C   0  0  0  0  0  0  0  0  0  0  0  0
    4.6020    1.3110    0.0000 C   0  0  0  0  0  0  0  0  0  0  0  0
    4.7250    2.8060    0.0000 C   0  0  0  0  0  0  0  0  0  0  0  0
    6.0810    3.4470    0.0000 O   0  0  0  0  0  0  0  0  0  0  0  0
    7.3140    2.5930    0.0000 C   0  0  0  0  0  0  0  0  0  0  0  0
    3.4920    3.6600    0.0000 C   0  0  0  0  0  0  0  0  0  0  0  0
   -2.5050    3.7080    0.0000 C   0  0  0  0  0  0  0  0  0  0  0  0
  1  2  2  0  0  0  0
  2  3  1  0  0  0  0
  5  2  1  6  0  0  0
  3  4  1  0  0  0  0
  5  6  1  0  0  0  0
  5 11  1  0  0  0  0
  6  7  1  0  0  0  0
  6 28  1  1  0  0  0
  7  8  1  0  0  0  0
  7 12  1  1  0  0  0
  8  9  1  0  0  0  0
  9 10  1  1  0  0  0
  9 11  1  0  0  0  0
 12 13  1  0  0  0  0
 14 13  1  6  0  0  0
 13 21  1  0  0  0  0
 14 15  1  0  0  0  0
 14 28  1  0  0  0  0
 15 16  1  0  0  0  0
 15 19  2  0  0  0  0
 16 17  1  0  0  0  0
 17 18  2  0  0  0  0
 17 27  1  0  0  0  0
 18 19  1  0  0  0  0
 18 22  1  0  0  0  0
 19 20  1  0  0  0  0
 20 21  1  0  0  0  0
 22 23  2  0  0  0  0
 23 24  1  0  0  0  0
 24 25  1  0  0  0  0
 24 27  2  0  0  0  0
 25 26  1  0  0  0  0
M  END
>  <name>
O=C(OC)[C@@H]1[C@@H]2[C@H](C[C@@H]([O;ester])[C;ether]1)CN1[C@@H](c3[nH]c4c(c3CC1)ccc(OC)c4)C2

>  <apo>
2

>  <freq>
2

>  <freq0>
0

>  <freq1>
2

>  <freqA>
1.9984947

>  <a_count>
56

$$$$

  MOE2015           2D

 19 18  0  0  0  0  0  0  0  0999 V2000
   -1.3890    5.1830    0.0000 O   0  0  0  0  0  0  0  0  0  0  0  0
   -0.0900    5.9330    0.0000 C   0  0  0  0  0  0  0  0  0  0  0  0
    1.2090    5.1830    0.0000 C   0  0  0  0  0  0  0  0  0  0  0  0
    2.5080    5.9330    0.0000 C   0  0  0  0  0  0  0  0  0  0  0  0
    3.8070    5.1830    0.0000 C   0  0  0  0  0  0  0  0  0  0  0  0
    5.1060    5.9330    0.0000 C   0  0  0  0  0  0  0  0  0  0  0  0
    6.4060    5.1830    0.0000 C   0  0  0  0  0  0  0  0  0  0  0  0
    7.7050    5.9330    0.0000 C   0  0  0  0  0  0  0  0  0  0  0  0
    9.0040    5.1830    0.0000 C   0  0  0  0  0  0  0  0  0  0  0  0
   10.3030    5.9330    0.0000 C   0  0  0  0  0  0  0  0  0  0  0  0
   11.6020    5.1830    0.0000 C   0  0  0  0  0  0  0  0  0  0  0  0
   12.9010    5.9330    0.0000 C   0  0  0  0  0  0  0  0  0  0  0  0
   14.2000    5.1830    0.0000 C   0  0  0  0  0  0  0  0  0  0  0  0
   15.4990    5.9330    0.0000 C   0  0  0  0  0  0  0  0  0  0  0  0
   16.7980    5.1830    0.0000 C   0  0  0  0  0  0  0  0  0  0  0  0
   18.0970    5.9330    0.0000 C   0  0  0  0  0  0  0  0  0  0  0  0
   19.3960    5.1830    0.0000 C   0  0  0  0  0  0  0  0  0  0  0  0
   20.6950    5.9330    0.0000 C   0  0  0  0  0  0  0  0  0  0  0  0
   21.9940    5.1830    0.0000 C   0  0  0  0  0  0  0  0  0  0  0  0
  1  2  2  0  0  0  0
  2  3  1  0  0  0  0
  3  4  1  0  0  0  0
  4  5  1  0  0  0  0
  5  6  1  0  0  0  0
  6  7  1  0  0  0  0
  7  8  1  0  0  0  0
  8  9  1  0  0  0  0
  9 10  1  0  0  0  0
 10 11  1  0  0  0  0
 11 12  1  0  0  0  0
 12 13  1  0  0  0  0
 13 14  1  0  0  0  0
 14 15  1  0  0  0  0
 15 16  1  0  0  0  0
 16 17  1  0  0  0  0
 17 18  1  0  0  0  0
 18 19  1  0  0  0  0
M  END
>  <name>
O=[C;ester]CCCCCCCCCCCCCCCCC

>  <apo>
1

>  <freq>
2

>  <freq0>
0

>  <freq1>
2

>  <freqA>
1.9984947

>  <a_count>
55

$$$$

  MOE2015           2D

 26 28  0  0  1  0  0  0  0  0999 V2000
    4.5000   -2.5980    0.0000 O   0  0  0  0  0  0  0  0  0  0  0  0
    3.7500   -1.2990    0.0000 C   0  0  0  0  0  0  0  0  0  0  0  0
    3.7500   -3.8970    0.0000 C   0  0  0  0  0  0  0  0  0  0  0  0
    4.5000   -5.1960    0.0000 C   0  0  0  0  0  0  0  0  0  0  0  0
    6.0000   -5.1960    0.0000 O   0  0  0  0  0  0  0  0  0  0  0  0
    6.7500   -6.4950    0.0000 C   0  0  0  0  0  0  0  0  0  0  0  0
    3.7500   -6.4950    0.0000 C   0  0  0  0  0  0  0  0  0  0  0  0
    2.2500   -6.4950    0.0000 C   0  0  0  0  0  0  0  0  0  0  0  0
    1.5000   -5.1960    0.0000 C   0  0  0  0  0  0  0  0  0  0  0  0
    0.0000   -5.1960    0.0000 C   0  0  0  0  0  0  0  0  0  0  0  0
   -0.7500   -6.4950    0.0000 C   0  0  3  0  0  0  0  0  0  0  0  0
    0.0000   -7.7940    0.0000 N   0  3  3  0  0  0  0  0  0  0  0  0
    1.5000   -7.7940    0.0000 C   0  0  0  0  0  0  0  0  0  0  0  0
   -0.7500   -9.0930    0.0000 C   0  0  0  0  0  0  0  0  0  0  0  0
   -2.2500   -9.0930    0.0000 C   0  0  0  0  0  0  0  0  0  0  0  0
   -3.0000   -7.7940    0.0000 C   0  0  0  0  0  0  0  0  0  0  0  0
   -2.2500   -6.4950    0.0000 C   0  0  0  0  0  0  0  0  0  0  0  0
   -3.0000   -5.1960    0.0000 C   0  0  0  0  0  0  0  0  0  0  0  0
   -4.5000   -5.1960    0.0000 C   0  0  0  0  0  0  0  0  0  0  0  0
   -5.2500   -3.8970    0.0000 O   0  0  0  0  0  0  0  0  0  0  0  0
   -4.5000   -2.5980    0.0000 C   0  0  0  0  0  0  0  0  0  0  0  0
   -5.2500   -6.4950    0.0000 C   0  0  0  0  0  0  0  0  0  0  0  0
   -6.7500   -6.4950    0.0000 O   0  0  0  0  0  0  0  0  0  0  0  0
   -7.5000   -7.7940    0.0000 C   0  0  0  0  0  0  0  0  0  0  0  0
   -4.5000   -7.7940    0.0000 C   0  0  0  0  0  0  0  0  0  0  0  0
    2.2500   -3.8970    0.0000 C   0  0  0  0  0  0  0  0  0  0  0  0
  1  2  1  0  0  0  0
  1  3  1  0  0  0  0
  3  4  1  0  0  0  0
  3 26  2  0  0  0  0
  4  5  1  0  0  0  0
  4  7  2  0  0  0  0
  5  6  1  0  0  0  0
  7  8  1  0  0  0  0
  8  9  2  0  0  0  0
  9 10  1  0  0  0  0
  9 26  1  0  0  0  0
 10 11  1  0  0  0  0
 11 12  1  0  0  0  0
 11 17  1  0  0  0  0
 12 13  1  0  0  0  0
 12 14  1  0  0  0  0
 14 15  1  0  0  0  0
 15 16  1  0  0  0  0
 16 17  1  0  0  0  0
 16 25  2  0  0  0  0
 17 18  2  0  0  0  0
 18 19  1  0  0  0  0
 19 20  1  0  0  0  0
 19 22  2  0  0  0  0
 20 21  1  0  0  0  0
 22 23  1  0  0  0  0
 22 25  1  0  0  0  0
 23 24  1  0  0  0  0
M  CHG  1  12   1
M  END
>  <name>
O(C)c1c(OC)ccc(CC2[N+;quatN](C)CCc3c2cc(OC)c(OC)c3)c1

>  <apo>
1

>  <freq>
2

>  <freq0>
0

>  <freq1>
2

>  <freqA>
1.9984947

>  <a_count>
54

$$$$

  MOE2015           2D

 26 28  0  0  1  0  0  0  0  0999 V2000
    4.5000   -2.5980    0.0000 O   0  0  0  0  0  0  0  0  0  0  0  0
    3.7500   -1.2990    0.0000 C   0  0  0  0  0  0  0  0  0  0  0  0
    3.7500   -3.8970    0.0000 C   0  0  0  0  0  0  0  0  0  0  0  0
    4.5000   -5.1960    0.0000 C   0  0  0  0  0  0  0  0  0  0  0  0
    6.0000   -5.1960    0.0000 O   0  0  0  0  0  0  0  0  0  0  0  0
    6.7500   -6.4950    0.0000 C   0  0  0  0  0  0  0  0  0  0  0  0
    3.7500   -6.4950    0.0000 C   0  0  0  0  0  0  0  0  0  0  0  0
    2.2500   -6.4950    0.0000 C   0  0  0  0  0  0  0  0  0  0  0  0
    1.5000   -5.1960    0.0000 C   0  0  0  0  0  0  0  0  0  0  0  0
    0.0000   -5.1960    0.0000 C   0  0  0  0  0  0  0  0  0  0  0  0
   -0.7500   -6.4950    0.0000 C   0  0  1  0  0  0  0  0  0  0  0  0
    0.0000   -7.7940    0.0000 N   0  3  2  0  0  0  0  0  0  0  0  0
    1.5000   -7.7940    0.0000 C   0  0  0  0  0  0  0  0  0  0  0  0
   -0.7500   -9.0930    0.0000 C   0  0  0  0  0  0  0  0  0  0  0  0
   -2.2500   -9.0930    0.0000 C   0  0  0  0  0  0  0  0  0  0  0  0
   -3.0000   -7.7940    0.0000 C   0  0  0  0  0  0  0  0  0  0  0  0
   -2.2500   -6.4950    0.0000 C   0  0  0  0  0  0  0  0  0  0  0  0
   -3.0000   -5.1960    0.0000 C   0  0  0  0  0  0  0  0  0  0  0  0
   -4.5000   -5.1960    0.0000 C   0  0  0  0  0  0  0  0  0  0  0  0
   -5.2500   -3.8970    0.0000 O   0  0  0  0  0  0  0  0  0  0  0  0
   -4.5000   -2.5980    0.0000 C   0  0  0  0  0  0  0  0  0  0  0  0
   -5.2500   -6.4950    0.0000 C   0  0  0  0  0  0  0  0  0  0  0  0
   -6.7500   -6.4950    0.0000 O   0  0  0  0  0  0  0  0  0  0  0  0
   -7.5000   -7.7940    0.0000 C   0  0  0  0  0  0  0  0  0  0  0  0
   -4.5000   -7.7940    0.0000 C   0  0  0  0  0  0  0  0  0  0  0  0
    2.2500   -3.8970    0.0000 C   0  0  0  0  0  0  0  0  0  0  0  0
  1  2  1  0  0  0  0
  1  3  1  0  0  0  0
  3  4  1  0  0  0  0
  3 26  2  0  0  0  0
  4  5  1  0  0  0  0
  4  7  2  0  0  0  0
  5  6  1  0  0  0  0
  7  8  1  0  0  0  0
  8  9  2  0  0  0  0
  9 10  1  0  0  0  0
  9 26  1  0  0  0  0
 11 10  1  1  0  0  0
 11 12  1  0  0  0  0
 11 17  1  0  0  0  0
 12 13  1  6  0  0  0
 12 14  1  0  0  0  0
 14 15  1  0  0  0  0
 15 16  1  0  0  0  0
 16 17  2  0  0  0  0
 16 25  1  0  0  0  0
 17 18  1  0  0  0  0
 18 19  2  0  0  0  0
 19 20  1  0  0  0  0
 19 22  1  0  0  0  0
 20 21  1  0  0  0  0
 22 23  1  0  0  0  0
 22 25  2  0  0  0  0
 23 24  1  0  0  0  0
M  CHG  1  12   1
M  END
>  <name>
O(C)c1c(OC)ccc(C[C@H]2[N+@H;quatN](C)CCc3c2cc(OC)c(OC)c3)c1

>  <apo>
1

>  <freq>
2

>  <freq0>
0

>  <freq1>
2

>  <freqA>
1.9984947

>  <a_count>
54

$$$$

  MOE2015           2D

 26 29  0  0  1  0  0  0  0  0999 V2000
    8.5510   -5.8990    0.0000 O   0  0  0  0  0  0  0  0  0  0  0  0
    8.0180   -4.4970    0.0000 C   0  0  0  0  0  0  0  0  0  0  0  0
    8.9660   -3.3350    0.0000 C   0  0  0  0  0  0  0  0  0  0  0  0
   10.4470   -3.5750    0.0000 O   0  0  0  0  0  0  0  0  0  0  0  0
    6.5370   -4.2570    0.0000 C   0  0  2  0  0  0  0  0  0  0  0  0
    7.0210   -5.6770    0.0000 O   0  0  0  0  0  0  0  0  0  0  0  0
    5.0690   -4.5640    0.0000 C   0  0  2  0  0  0  0  0  0  0  0  0
    5.9250   -5.7950    0.0000 C   0  0  0  0  0  0  0  0  0  0  0  0
    4.3240   -3.2620    0.0000 C   0  0  2  0  0  0  0  0  0  0  0  0
    2.8240   -3.2570    0.0000 C   0  0  1  0  0  0  0  0  0  0  0  0
    2.0690   -4.5530    0.0000 C   0  0  2  0  0  0  0  0  0  0  0  0
    2.8140   -5.8550    0.0000 C   0  0  1  0  0  0  0  0  0  0  0  0
    2.0600   -7.1510    0.0000 O   0  0  0  0  0  0  0  0  0  0  0  0
    4.3140   -5.8600    0.0000 C   0  0  0  0  0  0  0  0  0  0  0  0
    0.5690   -4.5470    0.0000 C   0  0  2  0  0  0  0  0  0  0  0  0
    1.3140   -5.8490    0.0000 C   0  0  0  0  0  0  0  0  0  0  0  0
   -0.1760   -3.2460    0.0000 C   0  0  0  0  0  0  0  0  0  0  0  0
   -1.6760   -3.2400    0.0000 C   0  0  0  0  0  0  0  0  0  0  0  0
   -2.4310   -4.5370    0.0000 C   0  0  0  0  0  0  0  0  0  0  0  0
   -3.9310   -4.5310    0.0000 O   0  0  0  0  0  0  0  0  0  0  0  0
   -1.6860   -5.8380    0.0000 C   0  0  0  0  0  0  0  0  0  0  0  0
   -0.1860   -5.8440    0.0000 C   0  0  0  0  0  0  0  0  0  0  0  0
    0.5780   -1.9490    0.0000 C   0  0  0  0  0  0  0  0  0  0  0  0
    2.0780   -1.9550    0.0000 C   0  0  0  0  0  0  0  0  0  0  0  0
    5.3310   -2.1510    0.0000 C   0  0  0  0  0  0  0  0  0  0  0  0
    6.7000   -2.7660    0.0000 C   0  0  0  0  0  0  0  0  0  0  0  0
  1  2  2  0  0  0  0
  2  3  1  0  0  0  0
  5  2  1  6  0  0  0
  3  4  1  0  0  0  0
  5  6  1  1  0  0  0
  5  7  1  0  0  0  0
  5 26  1  0  0  0  0
  7  8  1  6  0  0  0
  7  9  1  0  0  0  0
  7 14  1  0  0  0  0
  9 10  1  0  0  0  0
  9 25  1  6  0  0  0
 10 11  1  0  0  0  0
 10 24  1  1  0  0  0
 11 12  1  0  0  0  0
 11 15  1  6  0  0  0
 12 13  1  6  0  0  0
 12 14  1  0  0  0  0
 15 16  1  6  0  0  0
 15 17  1  0  0  0  0
 15 22  1  0  0  0  0
 17 18  2  0  0  0  0
 17 23  1  0  0  0  0
 18 19  1  0  0  0  0
 19 20  2  0  0  0  0
 19 21  1  0  0  0  0
 21 22  2  0  0  0  0
 23 24  1  0  0  0  0
 25 26  1  0  0  0  0
M  END
>  <name>
O=C(C[O;ester])[C@]1(O)[C@]2(C)[C@H]([C@H]3[C@H]([C@@H](O)C2)[C@]2(C)C(=CC(=O)C=C2)CC3)CC1

>  <apo>
1

>  <freq>
2

>  <freq0>
0

>  <freq1>
2

>  <freqA>
1.9984947

>  <a_count>
54

$$$$

  MOE2015           2D

 27 30  0  0  1  0  0  0  0  0999 V2000
    7.6030    4.3950    0.0000 F   0  0  0  0  0  0  0  0  0  0  0  0
    6.8540    3.0950    0.0000 C   0  0  2  0  0  0  0  0  0  0  0  0
    7.6060    1.7970    0.0000 C   0  0  0  0  0  0  0  0  0  0  0  0
    6.8570    0.4970    0.0000 C   0  0  1  0  0  0  0  0  0  0  0  0
    6.1320   -0.8150    0.0000 C   0  0  0  0  0  0  0  0  0  0  0  0
    5.3570    0.4960    0.0000 C   0  0  1  0  0  0  0  0  0  0  0  0
    3.8580    0.4680    0.0000 F   0  0  0  0  0  0  0  0  0  0  0  0
    4.6090   -0.8040    0.0000 C   0  0  1  0  0  0  0  0  0  0  0  0
    5.3600   -2.1020    0.0000 O   0  0  0  0  0  0  0  0  0  0  0  0
    3.1090   -0.8060    0.0000 C   0  0  0  0  0  0  0  0  0  0  0  0
    2.3570    0.4920    0.0000 C   0  0  2  0  0  0  0  0  0  0  0  0
    1.5200   -0.7520    0.0000 C   0  0  0  0  0  0  0  0  0  0  0  0
    0.8900    0.8020    0.0000 C   0  0  1  0  0  0  0  0  0  0  0  0
    0.4340   -0.6270    0.0000 O   0  0  0  0  0  0  0  0  0  0  0  0
   -0.5880    0.5460    0.0000 C   0  0  0  0  0  0  0  0  0  0  0  0
   -1.5490    1.6990    0.0000 O   0  0  0  0  0  0  0  0  0  0  0  0
    0.7310    2.2940    0.0000 C   0  0  2  0  0  0  0  0  0  0  0  0
   -0.5690    3.0420    0.0000 C   0  0  0  0  0  0  0  0  0  0  0  0
    2.1010    2.9060    0.0000 C   0  0  0  0  0  0  0  0  0  0  0  0
    3.1060    1.7920    0.0000 C   0  0  1  0  0  0  0  0  0  0  0  0
    4.6060    1.7940    0.0000 C   0  0  2  0  0  0  0  0  0  0  0  0
    5.3540    3.0940    0.0000 C   0  0  0  0  0  0  0  0  0  0  0  0
    7.6090   -0.8010    0.0000 C   0  0  0  0  0  0  0  0  0  0  0  0
    9.1090   -0.7990    0.0000 C   0  0  0  0  0  0  0  0  0  0  0  0
    9.8570    0.5010    0.0000 C   0  0  0  0  0  0  0  0  0  0  0  0
   11.3570    0.5030    0.0000 O   0  0  0  0  0  0  0  0  0  0  0  0
    9.1060    1.7990    0.0000 C   0  0  0  0  0  0  0  0  0  0  0  0
  2  1  1  6  0  0  0
  2  3  1  0  0  0  0
  2 22  1  0  0  0  0
  3  4  1  0  0  0  0
  3 27  2  0  0  0  0
  4  5  1  1  0  0  0
  4  6  1  0  0  0  0
  4 23  1  0  0  0  0
  6  7  1  6  0  0  0
  6  8  1  0  0  0  0
  6 21  1  0  0  0  0
  8  9  1  1  0  0  0
  8 10  1  0  0  0  0
 10 11  1  0  0  0  0
 11 12  1  1  0  0  0
 11 13  1  0  0  0  0
 11 20  1  0  0  0  0
 13 14  1  6  0  0  0
 13 15  1  1  0  0  0
 13 17  1  0  0  0  0
 15 16  2  0  0  0  0
 17 18  1  6  0  0  0
 17 19  1  0  0  0  0
 20 19  1  1  0  0  0
 20 21  1  0  0  0  0
 21 22  1  6  0  0  0
 23 24  2  0  0  0  0
 24 25  1  0  0  0  0
 25 26  2  0  0  0  0
 25 27  1  0  0  0  0
M  END
>  <name>
F[C@@H]1C=2[C@@](C)([C@@]3(F)[C@@H](O)C[C@]4(C)[C@@]([O;ester])([C;thioester]=O)[C@H](C)C[C@H]4[C@@H]3C1)C=CC(=O)C=2

>  <apo>
2

>  <freq>
2

>  <freq0>
0

>  <freq1>
2

>  <freqA>
1.9984947

>  <a_count>
53

$$$$

  MOE2015           2D

 19 20  0  0  1  0  0  0  0  0999 V2000
   12.7790   -3.4770    0.0000 O   0  0  0  0  0  0  0  0  0  0  0  0
   11.4860   -2.7170    0.0000 C   0  0  0  0  0  0  0  0  0  0  0  0
   10.1930   -1.9570    0.0000 C   0  0  0  0  0  0  0  0  0  0  0  0
    8.8880   -2.6970    0.0000 C   0  0  0  0  0  0  0  0  0  0  0  0
    7.5950   -1.9370    0.0000 C   0  0  0  0  0  0  0  0  0  0  0  0
    6.2900   -2.6770    0.0000 C   0  0  1  0  0  0  0  0  0  0  0  0
    6.2780   -4.1770    0.0000 C   0  0  0  0  0  0  0  0  0  0  0  0
    4.9970   -1.9170    0.0000 C   0  0  2  0  0  0  0  0  0  0  0  0
    3.6220   -2.5170    0.0000 C   0  0  1  0  0  0  0  0  0  0  0  0
    4.7110   -3.5480    0.0000 C   0  0  0  0  0  0  0  0  0  0  0  0
    2.6270   -1.3940    0.0000 C   0  0  2  0  0  0  0  0  0  0  0  0
    3.3870   -0.1010    0.0000 C   0  0  0  0  0  0  0  0  0  0  0  0
    4.8510   -0.4240    0.0000 C   0  0  0  0  0  0  0  0  0  0  0  0
    1.1570   -1.6950    0.0000 C   0  0  0  0  0  0  0  0  0  0  0  0
    0.6830   -3.1180    0.0000 C   0  0  0  0  0  0  0  0  0  0  0  0
    1.6780   -4.2400    0.0000 C   0  0  0  0  0  0  0  0  0  0  0  0
    3.1470   -3.9400    0.0000 C   0  0  0  0  0  0  0  0  0  0  0  0
   10.7260   -4.0100    0.0000 C   0  0  0  0  0  0  0  0  0  0  0  0
   12.2460   -1.4240    0.0000 C   0  0  0  0  0  0  0  0  0  0  0  0
  1  2  1  0  0  0  0
  2  3  1  0  0  0  0
  2 18  1  0  0  0  0
  2 19  1  0  0  0  0
  3  4  1  0  0  0  0
  4  5  1  0  0  0  0
  5  6  1  0  0  0  0
  6  7  1  1  0  0  0
  6  8  1  0  0  0  0
  8  9  1  0  0  0  0
  8 13  1  6  0  0  0
  9 10  1  1  0  0  0
  9 11  1  0  0  0  0
  9 17  1  0  0  0  0
 11 12  1  1  0  0  0
 11 14  1  0  0  0  0
 12 13  1  0  0  0  0
 14 15  1  0  0  0  0
 15 16  1  0  0  0  0
 16 17  1  0  0  0  0
M  END
>  <name>
OC(CCC[C@@H](C)[C@@H]1[C@@]2(C)[C@H](CC1)[C;olefin]CCC2)(C)C

>  <apo>
1

>  <freq>
2

>  <freq0>
0

>  <freq1>
2

>  <freqA>
1.9984947

>  <a_count>
53

$$$$

  MOE2015           2D

 21 24  0  0  1  0  0  0  0  0999 V2000
   -0.7040   -3.8680    0.0000 O   0  0  0  0  0  0  0  0  0  0  0  0
    0.4070   -2.8600    0.0000 C   0  0  1  0  0  0  0  0  0  0  0  0
    1.8750   -3.1660    0.0000 C   0  0  2  0  0  0  0  0  0  0  0  0
    1.0190   -4.3980    0.0000 C   0  0  0  0  0  0  0  0  0  0  0  0
    2.6200   -1.8650    0.0000 C   0  0  2  0  0  0  0  0  0  0  0  0
    4.1200   -1.8590    0.0000 C   0  0  1  0  0  0  0  0  0  0  0  0
    4.8750   -3.1550    0.0000 C   0  0  1  0  0  0  0  0  0  0  0  0
    6.3750   -3.1490    0.0000 C   0  0  2  0  0  0  0  0  0  0  0  0
    5.6300   -4.4510    0.0000 C   0  0  0  0  0  0  0  0  0  0  0  0
    7.1200   -1.8480    0.0000 C   0  0  2  0  0  0  0  0  0  0  0  0
    8.6200   -1.8420    0.0000 C   0  0  0  0  0  0  0  0  0  0  0  0
    9.3750   -3.1380    0.0000 C   0  0  1  0  0  0  0  0  0  0  0  0
   10.8750   -3.1320    0.0000 O   0  0  0  0  0  0  0  0  0  0  0  0
    8.6300   -4.4400    0.0000 C   0  0  0  0  0  0  0  0  0  0  0  0
    7.1300   -4.4460    0.0000 C   0  0  0  0  0  0  0  0  0  0  0  0
    6.3650   -0.5510    0.0000 C   0  0  0  0  0  0  0  0  0  0  0  0
    4.8650   -0.5570    0.0000 C   0  0  0  0  0  0  0  0  0  0  0  0
    4.1300   -4.4570    0.0000 C   0  0  0  0  0  0  0  0  0  0  0  0
    2.6300   -4.4630    0.0000 C   0  0  0  0  0  0  0  0  0  0  0  0
    1.6120   -0.7540    0.0000 C   0  0  0  0  0  0  0  0  0  0  0  0
    0.2440   -1.3690    0.0000 C   0  0  0  0  0  0  0  0  0  0  0  0
  2  1  1  6  0  0  0
  2  3  1  0  0  0  0
  2 21  1  0  0  0  0
  3  4  1  1  0  0  0
  3  5  1  0  0  0  0
  3 19  1  0  0  0  0
  5  6  1  0  0  0  0
  5 20  1  1  0  0  0
  6  7  1  0  0  0  0
  6 17  1  6  0  0  0
  7  8  1  0  0  0  0
  7 18  1  1  0  0  0
  8  9  1  1  0  0  0
  8 10  1  0  0  0  0
  8 15  1  0  0  0  0
 10 11  1  0  0  0  0
 10 16  1  1  0  0  0
 11 12  1  0  0  0  0
 12 13  1  1  0  0  0
 12 14  1  0  0  0  0
 14 15  1  0  0  0  0
 16 17  1  0  0  0  0
 18 19  1  0  0  0  0
 20 21  1  0  0  0  0
M  END
>  <name>
[O;ester][C@H]1[C@]2(C)[C@H]([C@H]3[C@@H]([C@]4(C)[C@H](C[C@@H]([O;ester])[C;amine]C4)CC3)CC2)C[C;quatN]1

>  <apo>
4

>  <freq>
2

>  <freq0>
0

>  <freq1>
2

>  <freqA>
1.9984947

>  <a_count>
53

$$$$

  MOE2015           2D

 18 19  0  0  1  0  0  0  0  0999 V2000
    0.1340   -0.5070    0.0000 C   0  0  1  0  0  0  0  0  0  0  0  0
    1.4390    0.2320    0.0000 C   0  0  0  0  0  0  0  0  0  0  0  0
    2.7320   -0.5290    0.0000 C   0  0  0  0  0  0  0  0  0  0  0  0
    4.0370    0.2100    0.0000 C   0  0  0  0  0  0  0  0  0  0  0  0
    5.3300   -0.5510    0.0000 C   0  0  0  0  0  0  0  0  0  0  0  0
    6.6350    0.1880    0.0000 C   0  0  0  0  0  0  0  0  0  0  0  0
    5.3170   -2.0510    0.0000 C   0  0  0  0  0  0  0  0  0  0  0  0
    0.1210   -2.0070    0.0000 C   0  0  0  0  0  0  0  0  0  0  0  0
   -1.1590    0.2540    0.0000 C   0  0  2  0  0  0  0  0  0  0  0  0
   -2.5340   -0.3450    0.0000 C   0  0  1  0  0  0  0  0  0  0  0  0
   -1.4460   -1.3770    0.0000 C   0  0  0  0  0  0  0  0  0  0  0  0
   -3.5290    0.7780    0.0000 C   0  0  2  0  0  0  0  0  0  0  0  0
   -2.7680    2.0710    0.0000 C   0  0  0  0  0  0  0  0  0  0  0  0
   -1.3030    1.7470    0.0000 C   0  0  0  0  0  0  0  0  0  0  0  0
   -4.9980    0.4790    0.0000 C   0  0  0  0  0  0  0  0  0  0  0  0
   -5.4740   -0.9440    0.0000 C   0  0  0  0  0  0  0  0  0  0  0  0
   -4.4800   -2.0670    0.0000 C   0  0  0  0  0  0  0  0  0  0  0  0
   -3.0100   -1.7670    0.0000 C   0  0  0  0  0  0  0  0  0  0  0  0
  1  2  1  0  0  0  0
  1  8  1  1  0  0  0
  1  9  1  0  0  0  0
  2  3  1  0  0  0  0
  3  4  1  0  0  0  0
  4  5  1  0  0  0  0
  5  6  1  0  0  0  0
  5  7  1  0  0  0  0
  9 10  1  0  0  0  0
  9 14  1  6  0  0  0
 10 11  1  1  0  0  0
 10 12  1  0  0  0  0
 10 18  1  0  0  0  0
 12 13  1  1  0  0  0
 12 15  1  0  0  0  0
 13 14  1  0  0  0  0
 15 16  1  0  0  0  0
 16 17  1  0  0  0  0
 17 18  1  0  0  0  0
M  END
>  <name>
[C@H](CCCC(C)C)(C)[C@@H]1[C@@]2(C)[C@H](CC1)[C;olefin]CCC2

>  <apo>
1

>  <freq>
2

>  <freq0>
0

>  <freq1>
2

>  <freqA>
1.9984947

>  <a_count>
52

$$$$

  MOE2015           2D

 23 25  0  0  1  0  0  0  0  0999 V2000
   13.0150    3.4870    0.0000 O   0  0  0  0  0  0  0  0  0  0  0  0
   11.7160    2.7370    0.0000 C   0  0  0  0  0  0  0  0  0  0  0  0
   10.4170    3.4870    0.0000 O   0  0  0  0  0  0  0  0  0  0  0  0
    9.1170    2.7370    0.0000 C   0  0  2  0  0  0  0  0  0  0  0  0
    7.8180    3.4870    0.0000 C   0  0  0  0  0  0  0  0  0  0  0  0
    6.5190    2.7370    0.0000 C   0  0  0  0  0  0  0  0  0  0  0  0
    5.2200    3.4870    0.0000 C   0  0  1  0  0  0  0  0  0  0  0  0
    5.2200    4.9870    0.0000 C   0  0  1  0  0  0  0  0  0  0  0  0
    6.5190    5.7370    0.0000 C   0  0  0  0  0  0  0  0  0  0  0  0
    3.9210    5.7370    0.0000 C   0  0  0  0  0  0  0  0  0  0  0  0
    2.6220    4.9870    0.0000 C   0  0  0  0  0  0  0  0  0  0  0  0
    2.6220    3.4870    0.0000 C   0  0  0  0  0  0  0  0  0  0  0  0
    3.9210    2.7370    0.0000 C   0  0  2  0  0  0  0  0  0  0  0  0
    3.9210    1.2370    0.0000 C   0  0  1  0  0  0  0  0  0  0  0  0
    5.2200    0.4870    0.0000 O   0  0  0  0  0  0  0  0  0  0  0  0
    2.6220    0.4870    0.0000 C   0  0  0  0  0  0  0  0  0  0  0  0
    1.3230    1.2370    0.0000 C   0  0  1  0  0  0  0  0  0  0  0  0
    0.0240    0.4870    0.0000 C   0  0  0  0  0  0  0  0  0  0  0  0
    1.3230    2.7370    0.0000 C   0  0  0  0  0  0  0  0  0  0  0  0
    9.1170    1.2370    0.0000 C   0  0  0  0  0  0  0  0  0  0  0  0
   10.4170    0.4870    0.0000 C   0  0  1  0  0  0  0  0  0  0  0  0
   10.4170   -1.0130    0.0000 O   0  0  0  0  0  0  0  0  0  0  0  0
   11.7160    1.2370    0.0000 C   0  0  0  0  0  0  0  0  0  0  0  0
  1  2  2  0  0  0  0
  2  3  1  0  0  0  0
  2 23  1  0  0  0  0
  3  4  1  0  0  0  0
  4  5  1  1  0  0  0
  4 20  1  0  0  0  0
  5  6  1  0  0  0  0
  7  6  1  6  0  0  0
  7  8  1  0  0  0  0
  7 13  1  0  0  0  0
  8  9  1  6  0  0  0
  8 10  1  0  0  0  0
 10 11  2  0  0  0  0
 11 12  1  0  0  0  0
 13 12  1  1  0  0  0
 12 19  2  0  0  0  0
 13 14  1  0  0  0  0
 14 15  1  1  0  0  0
 14 16  1  0  0  0  0
 16 17  1  0  0  0  0
 17 18  1  1  0  0  0
 17 19  1  0  0  0  0
 20 21  1  0  0  0  0
 21 22  1  6  0  0  0
 21 23  1  0  0  0  0
M  END
>  <name>
O=C1O[C@H](CC[C@H]2[C@@H](C)C=CC=3[C@@H]2[C@@H]([O;ester])C[C@@H](C)C=3)C[C@@H](O)C1

>  <apo>
1

>  <freq>
2

>  <freq0>
0

>  <freq1>
2

>  <freqA>
1.9984947

>  <a_count>
51

$$$$

  MOE2015           2D

 16 15  0  0  0  0  0  0  0  0999 V2000
    1.4000    0.3750    0.0000 C   0  0  0  0  0  0  0  0  0  0  0  0
    0.1000   -0.3750    0.0000 C   0  0  0  0  0  0  0  0  0  0  0  0
   -1.1990    0.3750    0.0000 C   0  0  0  0  0  0  0  0  0  0  0  0
   -2.4980   -0.3750    0.0000 C   0  0  0  0  0  0  0  0  0  0  0  0
   -3.7970    0.3750    0.0000 C   0  0  0  0  0  0  0  0  0  0  0  0
   -5.0960   -0.3750    0.0000 C   0  0  0  0  0  0  0  0  0  0  0  0
   -6.3950    0.3750    0.0000 C   0  0  0  0  0  0  0  0  0  0  0  0
   -7.6940   -0.3750    0.0000 C   0  0  0  0  0  0  0  0  0  0  0  0
   -8.9930    0.3750    0.0000 C   0  0  0  0  0  0  0  0  0  0  0  0
    2.6990   -0.3750    0.0000 C   0  0  0  0  0  0  0  0  0  0  0  0
    3.9980    0.3750    0.0000 C   0  0  0  0  0  0  0  0  0  0  0  0
    5.2970   -0.3750    0.0000 C   0  0  0  0  0  0  0  0  0  0  0  0
    6.5960    0.3750    0.0000 C   0  0  0  0  0  0  0  0  0  0  0  0
    7.8950   -0.3750    0.0000 C   0  0  0  0  0  0  0  0  0  0  0  0
    9.1940    0.3750    0.0000 C   0  0  0  0  0  0  0  0  0  0  0  0
   10.4930   -0.3750    0.0000 C   0  0  0  0  0  0  0  0  0  0  0  0
  1  2  1  0  0  0  0
  1 10  1  0  0  0  0
  2  3  1  0  0  0  0
  3  4  1  0  0  0  0
  4  5  1  0  0  0  0
  5  6  1  0  0  0  0
  6  7  1  0  0  0  0
  7  8  1  0  0  0  0
  8  9  1  0  0  0  0
 10 11  1  0  0  0  0
 11 12  1  0  0  0  0
 12 13  1  0  0  0  0
 13 14  1  0  0  0  0
 14 15  1  0  0  0  0
 15 16  1  0  0  0  0
M  END
>  <name>
C(CCCCCCCC)CCCCCC[C;quatN]

>  <apo>
1

>  <freq>
2

>  <freq0>
0

>  <freq1>
2

>  <freqA>
1.9984947

>  <a_count>
50

$$$$

  MOE2015           2D

 23 25  0  0  1  0  0  0  0  0999 V2000
   -0.0080    1.4540    0.0000 O   0  0  0  0  0  0  0  0  0  0  0  0
    1.4920    1.4710    0.0000 C   0  0  0  0  0  0  0  0  0  0  0  0
    2.2560    0.1800    0.0000 C   0  0  2  0  0  0  0  0  0  0  0  0
    1.5210   -1.1270    0.0000 C   0  0  0  0  0  0  0  0  0  0  0  0
    0.0210   -1.1440    0.0000 C   0  0  0  0  0  0  0  0  0  0  0  0
   -0.7140   -2.4520    0.0000 C   0  0  0  0  0  0  0  0  0  0  0  0
   -0.7430    0.1460    0.0000 C   0  0  0  0  0  0  0  0  0  0  0  0
    3.7560    0.1970    0.0000 N   0  0  0  0  0  0  0  0  0  0  0  0
    4.7730   -0.9060    0.0000 C   0  0  0  0  0  0  0  0  0  0  0  0
    4.4770   -2.3760    0.0000 O   0  0  0  0  0  0  0  0  0  0  0  0
    6.1360   -0.2800    0.0000 C   0  0  1  0  0  0  0  0  0  0  0  0
    6.8320   -1.6090    0.0000 N   0  0  0  0  0  0  0  0  0  0  0  0
    7.6360   -0.2890    0.0000 C   0  0  0  0  0  0  0  0  0  0  0  0
    8.3780   -1.5930    0.0000 C   0  0  0  0  0  0  0  0  0  0  0  0
    8.3940    1.0050    0.0000 C   0  0  0  0  0  0  0  0  0  0  0  0
    5.9620    1.2100    0.0000 O   0  0  0  0  0  0  0  0  0  0  0  0
    4.4910    1.5050    0.0000 C   0  0  2  0  0  0  0  0  0  0  0  0
    5.3810    2.7130    0.0000 O   0  0  0  0  0  0  0  0  0  0  0  0
    3.7270    2.7950    0.0000 C   0  0  1  0  0  0  0  0  0  0  0  0
    2.2270    2.7780    0.0000 N   0  0  0  0  0  0  0  0  0  0  0  0
    1.7470    4.2000    0.0000 C   0  0  0  0  0  0  0  0  0  0  0  0
    2.9510    5.0950    0.0000 C   0  0  0  0  0  0  0  0  0  0  0  0
    4.1740    4.2270    0.0000 C   0  0  0  0  0  0  0  0  0  0  0  0
  1  2  2  0  0  0  0
  2  3  1  0  0  0  0
  2 20  1  0  0  0  0
  3  4  1  1  0  0  0
  3  8  1  0  0  0  0
  4  5  1  0  0  0  0
  5  6  1  0  0  0  0
  5  7  1  0  0  0  0
  8  9  1  0  0  0  0
  8 17  1  0  0  0  0
  9 10  2  0  0  0  0
  9 11  1  0  0  0  0
 11 12  1  1  0  0  0
 11 13  1  6  0  0  0
 11 16  1  0  0  0  0
 13 14  1  0  0  0  0
 13 15  1  0  0  0  0
 16 17  1  0  0  0  0
 17 18  1  1  0  0  0
 17 19  1  0  0  0  0
 19 20  1  0  0  0  0
 19 23  1  1  0  0  0
 20 21  1  0  0  0  0
 21 22  1  0  0  0  0
 22 23  1  0  0  0  0
M  END
>  <name>
O=C1[C@H](CC(C)C)N2C(=O)[C@@]([N;amide])(C(C)C)O[C@@]2(O)[C@H]2N1CCC2

>  <apo>
1

>  <freq>
2

>  <freq0>
0

>  <freq1>
2

>  <freqA>
1.9984947

>  <a_count>
50

$$$$

  MOE2015           2D

 22 25  0  0  1  0  0  0  0  0999 V2000
   -0.4740    1.9540    0.0000 O   0  0  0  0  0  0  0  0  0  0  0  0
    0.9540    1.4960    0.0000 C   0  0  0  0  0  0  0  0  0  0  0  0
    2.0650    2.5040    0.0000 C   0  0  2  0  0  0  0  0  0  0  0  0
    3.5340    2.1970    0.0000 C   0  0  2  0  0  0  0  0  0  0  0  0
    2.6780    0.9650    0.0000 C   0  0  0  0  0  0  0  0  0  0  0  0
    4.2790    3.4990    0.0000 C   0  0  2  0  0  0  0  0  0  0  0  0
    5.7790    3.5050    0.0000 C   0  0  1  0  0  0  0  0  0  0  0  0
    6.5340    2.2090    0.0000 C   0  0  1  0  0  0  0  0  0  0  0  0
    8.0340    2.2140    0.0000 C   0  0  2  0  0  0  0  0  0  0  0  0
    7.2880    0.9130    0.0000 C   0  0  0  0  0  0  0  0  0  0  0  0
    8.7790    3.5160    0.0000 C   0  0  2  0  0  0  0  0  0  0  0  0
   10.2790    3.5220    0.0000 N   0  0  0  0  0  0  0  0  0  0  0  0
   11.0340    2.2260    0.0000 C   0  0  0  0  0  0  0  0  0  0  0  0
   12.5330    2.2310    0.0000 O   0  0  0  0  0  0  0  0  0  0  0  0
   10.2880    0.9240    0.0000 C   0  0  0  0  0  0  0  0  0  0  0  0
    8.7880    0.9180    0.0000 C   0  0  0  0  0  0  0  0  0  0  0  0
    8.0240    4.8120    0.0000 C   0  0  0  0  0  0  0  0  0  0  0  0
    6.5240    4.8070    0.0000 C   0  0  0  0  0  0  0  0  0  0  0  0
    5.7880    0.9070    0.0000 C   0  0  0  0  0  0  0  0  0  0  0  0
    4.2880    0.9010    0.0000 C   0  0  0  0  0  0  0  0  0  0  0  0
    3.2710    4.6100    0.0000 C   0  0  0  0  0  0  0  0  0  0  0  0
    1.9030    3.9950    0.0000 C   0  0  0  0  0  0  0  0  0  0  0  0
  1  2  2  0  0  0  0
  3  2  1  1  0  0  0
  3  4  1  0  0  0  0
  3 22  1  0  0  0  0
  4  5  1  1  0  0  0
  4  6  1  0  0  0  0
  4 20  1  0  0  0  0
  6  7  1  0  0  0  0
  6 21  1  1  0  0  0
  7  8  1  0  0  0  0
  7 18  1  6  0  0  0
  8  9  1  0  0  0  0
  8 19  1  1  0  0  0
  9 10  1  1  0  0  0
  9 11  1  0  0  0  0
  9 16  1  0  0  0  0
 11 12  1  1  0  0  0
 11 17  1  0  0  0  0
 12 13  1  0  0  0  0
 13 14  2  0  0  0  0
 13 15  1  0  0  0  0
 15 16  2  0  0  0  0
 17 18  1  0  0  0  0
 19 20  1  0  0  0  0
 21 22  1  0  0  0  0
M  END
>  <name>
O=[C;amide][C@@H]1[C@]2(C)[C@H]([C@H]3[C@@H]([C@]4(C)[C@H](NC(=O)C=C4)CC3)CC2)CC1

>  <apo>
1

>  <freq>
2

>  <freq0>
0

>  <freq1>
2

>  <freqA>
1.9984947

>  <a_count>
49

$$$$

  MOE2015           2D

 21 22  0  0  1  0  0  0  0  0999 V2000
    3.1200   -1.5060    0.0000 O   0  0  0  0  0  0  0  0  0  0  0  0
    3.1280   -0.0060    0.0000 C   0  0  2  0  0  0  0  0  0  0  0  0
    1.8330    0.7500    0.0000 C   0  0  0  0  0  0  0  0  0  0  0  0
    0.5300    0.0070    0.0000 C   0  0  0  0  0  0  0  0  0  0  0  0
   -0.7650    0.7640    0.0000 C   0  0  2  0  0  0  0  0  0  0  0  0
   -2.1380    0.1610    0.0000 C   0  0  1  0  0  0  0  0  0  0  0  0
   -2.4580   -1.3040    0.0000 C   0  0  0  0  0  0  0  0  0  0  0  0
   -3.8870   -1.7600    0.0000 C   0  0  0  0  0  0  0  0  0  0  0  0
   -3.1360    1.2810    0.0000 C   0  0  1  0  0  0  0  0  0  0  0  0
   -4.6290    1.1330    0.0000 O   0  0  0  0  0  0  0  0  0  0  0  0
   -2.3790    2.5760    0.0000 C   0  0  0  0  0  0  0  0  0  0  0  0
   -0.9140    2.2570    0.0000 C   0  0  1  0  0  0  0  0  0  0  0  0
    0.2060    3.2550    0.0000 O   0  0  0  0  0  0  0  0  0  0  0  0
    4.4310    0.7370    0.0000 C   0  0  0  0  0  0  0  0  0  0  0  0
    5.7260   -0.0200    0.0000 C   0  0  0  0  0  0  0  0  0  0  0  0
    7.0290    0.7230    0.0000 C   0  0  0  0  0  0  0  0  0  0  0  0
    8.3240   -0.0340    0.0000 C   0  0  0  0  0  0  0  0  0  0  0  0
    9.6270    0.7090    0.0000 C   0  0  0  0  0  0  0  0  0  0  0  0
    9.6350    2.2090    0.0000 C   0  0  0  0  0  0  0  0  0  0  0  0
    8.3400    2.9660    0.0000 C   0  0  0  0  0  0  0  0  0  0  0  0
    7.0370    2.2230    0.0000 C   0  0  0  0  0  0  0  0  0  0  0  0
  2  1  1  6  0  0  0
  2  3  1  0  0  0  0
  2 14  1  0  0  0  0
  3  4  1  0  0  0  0
  5  4  1  6  0  0  0
  5  6  1  0  0  0  0
  5 12  1  0  0  0  0
  6  7  1  1  0  0  0
  6  9  1  0  0  0  0
  7  8  1  0  0  0  0
  9 10  1  1  0  0  0
  9 11  1  0  0  0  0
 11 12  1  0  0  0  0
 12 13  1  1  0  0  0
 14 15  1  0  0  0  0
 15 16  1  0  0  0  0
 16 17  1  0  0  0  0
 16 21  2  0  0  0  0
 17 18  2  0  0  0  0
 18 19  1  0  0  0  0
 19 20  2  0  0  0  0
 20 21  1  0  0  0  0
M  END
>  <name>
O[C@H](CC[C@@H]1[C@@H](C[C;olefin])[C@@H](O)C[C@H]1O)CCc1ccccc1

>  <apo>
1

>  <freq>
2

>  <freq0>
0

>  <freq1>
2

>  <freqA>
1.9984947

>  <a_count>
49

$$$$

  MOE2015           2D

 28 32  0  0  1  0  0  0  0  0999 V2000
    1.1160   -2.2870    0.0000 O   0  0  0  0  0  0  0  0  0  0  0  0
    2.4150   -3.0370    0.0000 C   0  0  0  0  0  0  0  0  0  0  0  0
   -0.1830   -3.0370    0.0000 C   0  0  0  0  0  0  0  0  0  0  0  0
   -0.1830   -4.5370    0.0000 C   0  0  0  0  0  0  0  0  0  0  0  0
    1.1160   -5.2870    0.0000 O   0  0  0  0  0  0  0  0  0  0  0  0
   -1.4820   -5.2870    0.0000 C   0  0  0  0  0  0  0  0  0  0  0  0
   -1.4820   -6.7870    0.0000 O   0  0  0  0  0  0  0  0  0  0  0  0
   -0.1830   -7.5370    0.0000 C   0  0  0  0  0  0  0  0  0  0  0  0
   -2.7810   -4.5370    0.0000 C   0  0  0  0  0  0  0  0  0  0  0  0
   -2.7810   -3.0370    0.0000 C   0  0  0  0  0  0  0  0  0  0  0  0
   -4.0800   -2.2870    0.0000 C   0  0  1  0  0  0  0  0  0  0  0  0
   -4.0800   -0.7870    0.0000 C   0  0  1  0  0  0  0  0  0  0  0  0
   -2.9650    0.2170    0.0000 C   0  0  0  0  0  0  0  0  0  0  0  0
   -1.4980   -0.0950    0.0000 O   0  0  0  0  0  0  0  0  0  0  0  0
   -3.5750    1.5870    0.0000 O   0  0  0  0  0  0  0  0  0  0  0  0
   -5.0670    1.4300    0.0000 C   0  0  0  0  0  0  0  0  0  0  0  0
   -5.3790   -0.0370    0.0000 C   0  0  2  0  0  0  0  0  0  0  0  0
   -6.6780   -0.7870    0.0000 C   0  0  0  0  0  0  0  0  0  0  0  0
   -6.6780   -2.2870    0.0000 C   0  0  0  0  0  0  0  0  0  0  0  0
   -5.3790   -3.0370    0.0000 C   0  0  0  0  0  0  0  0  0  0  0  0
   -5.3790   -4.5370    0.0000 C   0  0  0  0  0  0  0  0  0  0  0  0
   -6.6780   -5.2870    0.0000 C   0  0  0  0  0  0  0  0  0  0  0  0
   -6.9900   -6.7540    0.0000 O   0  0  0  0  0  0  0  0  0  0  0  0
   -8.4820   -6.9110    0.0000 C   0  0  0  0  0  0  0  0  0  0  0  0
   -9.0920   -5.5410    0.0000 O   0  0  0  0  0  0  0  0  0  0  0  0
   -7.9770   -4.5370    0.0000 C   0  0  0  0  0  0  0  0  0  0  0  0
   -7.9770   -3.0370    0.0000 C   0  0  0  0  0  0  0  0  0  0  0  0
   -1.4820   -2.2870    0.0000 C   0  0  0  0  0  0  0  0  0  0  0  0
  1  2  1  0  0  0  0
  1  3  1  0  0  0  0
  3  4  2  0  0  0  0
  3 28  1  0  0  0  0
  4  5  1  0  0  0  0
  4  6  1  0  0  0  0
  6  7  1  0  0  0  0
  6  9  2  0  0  0  0
  7  8  1  0  0  0  0
  9 10  1  0  0  0  0
 11 10  1  6  0  0  0
 10 28  2  0  0  0  0
 11 12  1  0  0  0  0
 11 20  1  0  0  0  0
 12 13  1  6  0  0  0
 12 17  1  0  0  0  0
 13 14  2  0  0  0  0
 13 15  1  0  0  0  0
 15 16  1  0  0  0  0
 17 16  1  1  0  0  0
 17 18  1  0  0  0  0
 18 19  1  0  0  0  0
 19 20  2  0  0  0  0
 19 27  1  0  0  0  0
 20 21  1  0  0  0  0
 21 22  2  0  0  0  0
 22 23  1  0  0  0  0
 22 26  1  0  0  0  0
 23 24  1  0  0  0  0
 24 25  1  0  0  0  0
 25 26  1  0  0  0  0
 26 27  2  0  0  0  0
M  END
>  <name>
O(C)c1c(O)c(OC)cc([C@H]2[C@H]3C(=O)OC[C@@H]3[C;ether]c3c2cc2OCOc2c3)c1

>  <apo>
1

>  <freq>
2

>  <freq0>
0

>  <freq1>
2

>  <freqA>
1.9984947

>  <a_count>
48

$$$$

  MOE2015           2D

 26 28  0  0  1  0  0  0  0  0999 V2000
    1.4800    2.3240    0.0000 Cl  0  0  0  0  0  0  0  0  0  0  0  0
    2.7790    1.5740    0.0000 C   0  0  0  0  0  0  0  0  0  0  0  0
    2.7790    0.0740    0.0000 C   0  0  0  0  0  0  0  0  0  0  0  0
    1.4800   -0.6760    0.0000 C   0  0  0  0  0  0  0  0  0  0  0  0
    1.4800   -2.1760    0.0000 C   0  0  0  0  0  0  0  0  0  0  0  0
    2.7790   -2.9260    0.0000 C   0  0  0  0  0  0  0  0  0  0  0  0
    2.7790   -4.4260    0.0000 C   0  0  0  0  0  0  0  0  0  0  0  0
    1.4800   -5.1760    0.0000 C   0  0  0  0  0  0  0  0  0  0  0  0
    1.4800   -6.6760    0.0000 O   0  0  0  0  0  0  0  0  0  0  0  0
    0.1810   -4.4260    0.0000 C   0  0  0  0  0  0  0  0  0  0  0  0
    0.1810   -2.9260    0.0000 C   0  0  0  0  0  0  0  0  0  0  0  0
    4.0780   -0.6760    0.0000 C   0  0  0  0  0  0  0  0  0  0  0  0
    5.3770    0.0740    0.0000 C   0  0  0  0  0  0  0  0  0  0  0  0
    6.6760   -0.6760    0.0000 C   0  0  1  0  0  0  0  0  0  0  0  0
    7.9750    0.0740    0.0000 C   0  0  2  0  0  0  0  0  0  0  0  0
    7.9750    1.5740    0.0000 O   0  0  0  0  0  0  0  0  0  0  0  0
    9.2740   -0.6760    0.0000 C   0  0  1  0  0  0  0  0  0  0  0  0
   10.5730    0.0740    0.0000 O   0  0  0  0  0  0  0  0  0  0  0  0
    9.2740   -2.1760    0.0000 C   0  0  2  0  0  0  0  0  0  0  0  0
   10.5730   -2.9260    0.0000 O   0  0  0  0  0  0  0  0  0  0  0  0
    7.9750   -2.9260    0.0000 C   0  0  1  0  0  0  0  0  0  0  0  0
    7.9750   -4.4260    0.0000 C   0  0  0  0  0  0  0  0  0  0  0  0
    9.2740   -5.1760    0.0000 O   0  0  0  0  0  0  0  0  0  0  0  0
    6.6760   -2.1760    0.0000 O   0  0  0  0  0  0  0  0  0  0  0  0
    5.3770    1.5740    0.0000 C   0  0  0  0  0  0  0  0  0  0  0  0
    4.0780    2.3240    0.0000 C   0  0  0  0  0  0  0  0  0  0  0  0
  1  2  1  0  0  0  0
  2  3  2  0  0  0  0
  2 26  1  0  0  0  0
  3  4  1  0  0  0  0
  3 12  1  0  0  0  0
  4  5  1  0  0  0  0
  5  6  1  0  0  0  0
  5 11  2  0  0  0  0
  6  7  2  0  0  0  0
  7  8  1  0  0  0  0
  8  9  1  0  0  0  0
  8 10  2  0  0  0  0
 10 11  1  0  0  0  0
 12 13  2  0  0  0  0
 14 13  1  1  0  0  0
 13 25  1  0  0  0  0
 14 15  1  0  0  0  0
 14 24  1  0  0  0  0
 15 16  1  6  0  0  0
 15 17  1  0  0  0  0
 17 18  1  1  0  0  0
 17 19  1  0  0  0  0
 19 20  1  6  0  0  0
 19 21  1  0  0  0  0
 21 22  1  1  0  0  0
 21 24  1  0  0  0  0
 22 23  1  0  0  0  0
 25 26  2  0  0  0  0
M  END
>  <name>
Clc1c(Cc2ccc([O;ether])cc2)cc([C@H]2[C@H](O)[C@@H](O)[C@H](O)[C@@H](CO)O2)cc1

>  <apo>
1

>  <freq>
2

>  <freq0>
0

>  <freq1>
2

>  <freqA>
1.9984947

>  <a_count>
47

$$$$

  MOE2015           2D

 29 32  0  0  1  0  0  0  0  0999 V2000
   11.6170   -2.4020    0.0000 O   0  0  0  0  0  0  0  0  0  0  0  0
   10.8670   -3.7010    0.0000 C   0  0  0  0  0  0  0  0  0  0  0  0
   11.6170   -5.0000    0.0000 C   0  0  0  0  0  0  0  0  0  0  0  0
   13.1170   -5.0000    0.0000 O   0  0  0  0  0  0  0  0  0  0  0  0
    9.3670   -3.7010    0.0000 C   0  0  1  0  0  0  0  0  0  0  0  0
   10.1170   -2.4020    0.0000 O   0  0  0  0  0  0  0  0  0  0  0  0
    8.0680   -2.9510    0.0000 C   0  0  0  0  0  0  0  0  0  0  0  0
    6.7690   -3.7010    0.0000 C   0  0  0  0  0  0  0  0  0  0  0  0
    5.4700   -2.9510    0.0000 C   0  0  0  0  0  0  0  0  0  0  0  0
    5.4700   -1.4510    0.0000 O   0  0  0  0  0  0  0  0  0  0  0  0
    4.1710   -3.7010    0.0000 C   0  0  0  0  0  0  0  0  0  0  0  0
    2.8720   -2.9510    0.0000 C   0  0  0  0  0  0  0  0  0  0  0  0
    2.8720   -1.4510    0.0000 O   0  0  0  0  0  0  0  0  0  0  0  0
    1.5730   -3.7010    0.0000 C   0  0  0  0  0  0  0  0  0  0  0  0
    1.5730   -5.2010    0.0000 C   0  0  0  0  0  0  0  0  0  0  0  0
    0.2730   -5.9510    0.0000 C   0  0  0  0  0  0  0  0  0  0  0  0
    0.2730   -7.4510    0.0000 O   0  0  0  0  0  0  0  0  0  0  0  0
   -1.0260   -8.2010    0.0000 C   0  0  0  0  0  0  0  0  0  0  0  0
   -1.0260   -5.2010    0.0000 C   0  0  0  0  0  0  0  0  0  0  0  0
   -1.0260   -3.7010    0.0000 C   0  0  0  0  0  0  0  0  0  0  0  0
    0.2730   -2.9510    0.0000 C   0  0  0  0  0  0  0  0  0  0  0  0
    2.8720   -5.9510    0.0000 C   0  0  0  0  0  0  0  0  0  0  0  0
    2.8720   -7.4510    0.0000 O   0  0  0  0  0  0  0  0  0  0  0  0
    4.1710   -5.2010    0.0000 C   0  0  0  0  0  0  0  0  0  0  0  0
    5.4700   -5.9510    0.0000 C   0  0  0  0  0  0  0  0  0  0  0  0
    5.4700   -7.4510    0.0000 O   0  0  0  0  0  0  0  0  0  0  0  0
    6.7690   -5.2010    0.0000 C   0  0  0  0  0  0  0  0  0  0  0  0
    8.0680   -5.9510    0.0000 C   0  0  0  0  0  0  0  0  0  0  0  0
    9.3670   -5.2010    0.0000 C   0  0  0  0  0  0  0  0  0  0  0  0
  1  2  2  0  0  0  0
  2  3  1  0  0  0  0
  5  2  1  6  0  0  0
  3  4  1  0  0  0  0
  5  6  1  1  0  0  0
  5  7  1  0  0  0  0
  5 29  1  0  0  0  0
  7  8  1  0  0  0  0
  8  9  2  0  0  0  0
  8 27  1  0  0  0  0
  9 10  1  0  0  0  0
  9 11  1  0  0  0  0
 11 12  1  0  0  0  0
 11 24  2  0  0  0  0
 12 13  2  0  0  0  0
 12 14  1  0  0  0  0
 14 15  2  0  0  0  0
 14 21  1  0  0  0  0
 15 16  1  0  0  0  0
 15 22  1  0  0  0  0
 16 17  1  0  0  0  0
 16 19  2  0  0  0  0
 17 18  1  0  0  0  0
 19 20  1  0  0  0  0
 20 21  2  0  0  0  0
 22 23  2  0  0  0  0
 22 24  1  0  0  0  0
 24 25  1  0  0  0  0
 25 26  1  0  0  0  0
 25 27  2  0  0  0  0
 27 28  1  0  0  0  0
 28 29  1  0  0  0  0
M  END
>  <name>
O=C(CO)[C@@]1(O)Cc2c(O)c3C(=O)c4c(c(OC)ccc4)C(=O)c3c(O)c2[C;ether]C1

>  <apo>
1

>  <freq>
2

>  <freq0>
0

>  <freq1>
2

>  <freqA>
1.9984947

>  <a_count>
47

$$$$

  MOE2015           2D

 20 23  0  0  1  0  0  0  0  0999 V2000
   12.5350   -0.7540    0.0000 O   0  0  0  0  0  0  0  0  0  0  0  0
   11.0350   -0.7610    0.0000 C   0  0  0  0  0  0  0  0  0  0  0  0
   10.2790    0.5340    0.0000 C   0  0  0  0  0  0  0  0  0  0  0  0
    8.7790    0.5270    0.0000 C   0  0  0  0  0  0  0  0  0  0  0  0
    8.0350   -0.7750    0.0000 C   0  0  1  0  0  0  0  0  0  0  0  0
    6.5350   -0.7820    0.0000 C   0  0  2  0  0  0  0  0  0  0  0  0
    5.7790    0.5130    0.0000 C   0  0  2  0  0  0  0  0  0  0  0  0
    4.2790    0.5060    0.0000 C   0  0  1  0  0  0  0  0  0  0  0  0
    3.5350   -0.7960    0.0000 C   0  0  1  0  0  0  0  0  0  0  0  0
    2.6380   -1.9980    0.0000 C   0  0  0  0  0  0  0  0  0  0  0  0
    2.0660   -0.4910    0.0000 C   0  0  1  0  0  0  0  0  0  0  0  0
    0.9560   -1.5000    0.0000 O   0  0  0  0  0  0  0  0  0  0  0  0
    1.9020    1.0000    0.0000 C   0  0  0  0  0  0  0  0  0  0  0  0
    3.2700    1.6160    0.0000 C   0  0  0  0  0  0  0  0  0  0  0  0
    4.2910   -2.0920    0.0000 C   0  0  0  0  0  0  0  0  0  0  0  0
    5.7910   -2.0850    0.0000 C   0  0  0  0  0  0  0  0  0  0  0  0
    6.5230    1.8160    0.0000 C   0  0  0  0  0  0  0  0  0  0  0  0
    8.0230    1.8230    0.0000 C   0  0  0  0  0  0  0  0  0  0  0  0
    8.7910   -2.0710    0.0000 C   0  0  0  0  0  0  0  0  0  0  0  0
   10.2910   -2.0640    0.0000 C   0  0  0  0  0  0  0  0  0  0  0  0
  1  2  2  0  0  0  0
  2  3  1  0  0  0  0
  2 20  1  0  0  0  0
  3  4  2  0  0  0  0
  5  4  1  6  0  0  0
  4 18  1  0  0  0  0
  5  6  1  0  0  0  0
  5 19  1  0  0  0  0
  6  7  1  0  0  0  0
  6 16  1  1  0  0  0
  7  8  1  0  0  0  0
  7 17  1  6  0  0  0
  8  9  1  0  0  0  0
  8 14  1  1  0  0  0
  9 10  1  1  0  0  0
  9 11  1  0  0  0  0
  9 15  1  0  0  0  0
 11 12  1  1  0  0  0
 11 13  1  0  0  0  0
 13 14  1  0  0  0  0
 15 16  1  0  0  0  0
 17 18  1  0  0  0  0
 19 20  1  0  0  0  0
M  END
>  <name>
O=C1C=C2[C@@H]([C@@H]3[C@H]([C@H]4[C@@](C)([C@@H]([O;ester])CC4)CC3)CC2)CC1

>  <apo>
1

>  <freq>
2

>  <freq0>
0

>  <freq1>
2

>  <freqA>
1.9984947

>  <a_count>
46

$$$$

  MOE2015           2D

 28 31  0  0  1  0  0  0  0  0999 V2000
   12.9520   -4.2990    0.0000 O   0  0  0  0  0  0  0  0  0  0  0  0
   11.6530   -5.0490    0.0000 C   0  0  0  0  0  0  0  0  0  0  0  0
   10.3540   -4.2990    0.0000 C   0  0  0  0  0  0  0  0  0  0  0  0
    9.0550   -5.0490    0.0000 C   0  0  0  0  0  0  0  0  0  0  0  0
    9.0550   -6.5490    0.0000 O   0  0  0  0  0  0  0  0  0  0  0  0
    7.7560   -4.2990    0.0000 C   0  0  1  0  0  0  0  0  0  0  0  0
    7.7560   -5.7990    0.0000 O   0  0  0  0  0  0  0  0  0  0  0  0
    6.4570   -5.0490    0.0000 C   0  0  0  0  0  0  0  0  0  0  0  0
    6.4570   -6.5490    0.0000 O   0  0  0  0  0  0  0  0  0  0  0  0
    5.1580   -4.2990    0.0000 C   0  0  0  0  0  0  0  0  0  0  0  0
    3.8590   -5.0490    0.0000 C   0  0  0  0  0  0  0  0  0  0  0  0
    3.8590   -6.5490    0.0000 O   0  0  0  0  0  0  0  0  0  0  0  0
    2.5600   -4.2990    0.0000 C   0  0  0  0  0  0  0  0  0  0  0  0
    1.2610   -5.0490    0.0000 C   0  0  0  0  0  0  0  0  0  0  0  0
    1.2610   -6.5490    0.0000 O   0  0  0  0  0  0  0  0  0  0  0  0
   -0.0380   -4.2990    0.0000 C   0  0  0  0  0  0  0  0  0  0  0  0
   -0.0380   -2.7990    0.0000 C   0  0  0  0  0  0  0  0  0  0  0  0
    1.2610   -2.0490    0.0000 C   0  0  0  0  0  0  0  0  0  0  0  0
    2.5600   -2.7990    0.0000 C   0  0  0  0  0  0  0  0  0  0  0  0
    3.8590   -2.0490    0.0000 C   0  0  2  0  0  0  0  0  0  0  0  0
    4.6090   -0.7500    0.0000 O   0  0  0  0  0  0  0  0  0  0  0  0
    3.1090   -0.7500    0.0000 C   0  0  0  0  0  0  0  0  0  0  0  0
    5.1580   -2.7990    0.0000 C   0  0  1  0  0  0  0  0  0  0  0  0
    6.4570   -2.0490    0.0000 C   0  0  0  0  0  0  0  0  0  0  0  0
    7.7560   -2.7990    0.0000 C   0  0  1  0  0  0  0  0  0  0  0  0
    9.0550   -2.0490    0.0000 C   0  0  0  0  0  0  0  0  0  0  0  0
   10.3540   -2.7990    0.0000 C   0  0  0  0  0  0  0  0  0  0  0  0
   11.6530   -2.0490    0.0000 O   0  0  0  0  0  0  0  0  0  0  0  0
  1  2  2  0  0  0  0
  2  3  1  0  0  0  0
  3  4  1  0  0  0  0
  3 27  2  0  0  0  0
  4  5  2  0  0  0  0
  4  6  1  0  0  0  0
  6  7  1  6  0  0  0
  6  8  1  0  0  0  0
  6 25  1  0  0  0  0
  8  9  1  0  0  0  0
  8 10  2  0  0  0  0
 10 11  1  0  0  0  0
 23 10  1  1  0  0  0
 11 12  2  0  0  0  0
 11 13  1  0  0  0  0
 13 14  2  0  0  0  0
 13 19  1  0  0  0  0
 14 15  1  0  0  0  0
 14 16  1  0  0  0  0
 16 17  2  0  0  0  0
 17 18  1  0  0  0  0
 18 19  2  0  0  0  0
 19 20  1  0  0  0  0
 20 21  1  1  0  0  0
 20 22  1  6  0  0  0
 20 23  1  0  0  0  0
 23 24  1  0  0  0  0
 24 25  1  0  0  0  0
 25 26  1  1  0  0  0
 26 27  1  0  0  0  0
 27 28  1  0  0  0  0
M  END
>  <name>
O=[C;amide]C=1C(=O)[C@@]2(O)C(O)=C3C(=O)c4c(O)cccc4[C@](O)(C)[C@H]3C[C@H]2[C;amine]C=1O

>  <apo>
2

>  <freq>
2

>  <freq0>
0

>  <freq1>
2

>  <freqA>
1.9984947

>  <a_count>
46

$$$$

  MOE2015           2D

 24 27  0  0  1  0  0  0  0  0999 V2000
    4.2860    2.9050    0.0000 O   0  0  0  0  0  0  0  0  0  0  0  0
    2.9810    2.1660    0.0000 C   0  0  0  0  0  0  0  0  0  0  0  0
    2.9680    0.6660    0.0000 C   0  0  2  0  0  0  0  0  0  0  0  0
    4.2610   -0.0940    0.0000 C   0  0  0  0  0  0  0  0  0  0  0  0
    5.5660    0.6450    0.0000 C   0  0  0  0  0  0  0  0  0  0  0  0
    5.5790    2.1450    0.0000 C   0  0  0  0  0  0  0  0  0  0  0  0
    6.8840    2.8840    0.0000 C   0  0  0  0  0  0  0  0  0  0  0  0
    8.1770    2.1230    0.0000 C   0  0  0  0  0  0  0  0  0  0  0  0
    8.1640    0.6240    0.0000 C   0  0  0  0  0  0  0  0  0  0  0  0
    6.8590   -0.1160    0.0000 C   0  0  0  0  0  0  0  0  0  0  0  0
    1.6630   -0.0730    0.0000 N   0  0  0  0  0  0  0  0  0  0  0  0
    1.3390   -1.5380    0.0000 C   0  0  0  0  0  0  0  0  0  0  0  0
    2.3340   -2.6610    0.0000 O   0  0  0  0  0  0  0  0  0  0  0  0
   -0.1540   -1.6820    0.0000 C   0  0  1  0  0  0  0  0  0  0  0  0
   -1.4460   -2.4440    0.0000 N   0  0  0  0  0  0  0  0  0  0  0  0
   -0.0880   -3.1810    0.0000 C   0  0  0  0  0  0  0  0  0  0  0  0
   -0.7530   -0.3070    0.0000 O   0  0  0  0  0  0  0  0  0  0  0  0
    0.3700    0.6870    0.0000 C   0  0  2  0  0  0  0  0  0  0  0  0
   -1.0060    1.2850    0.0000 O   0  0  0  0  0  0  0  0  0  0  0  0
    0.3830    2.1870    0.0000 C   0  0  1  0  0  0  0  0  0  0  0  0
    1.6880    2.9270    0.0000 N   0  0  0  0  0  0  0  0  0  0  0  0
    1.3880    4.3960    0.0000 C   0  0  0  0  0  0  0  0  0  0  0  0
   -0.1020    4.5650    0.0000 C   0  0  0  0  0  0  0  0  0  0  0  0
   -0.7240    3.2000    0.0000 C   0  0  0  0  0  0  0  0  0  0  0  0
  1  2  2  0  0  0  0
  2  3  1  0  0  0  0
  2 21  1  0  0  0  0
  3  4  1  6  0  0  0
  3 11  1  0  0  0  0
  4  5  1  0  0  0  0
  5  6  1  0  0  0  0
  5 10  2  0  0  0  0
  6  7  2  0  0  0  0
  7  8  1  0  0  0  0
  8  9  2  0  0  0  0
  9 10  1  0  0  0  0
 11 12  1  0  0  0  0
 11 18  1  0  0  0  0
 12 13  2  0  0  0  0
 12 14  1  0  0  0  0
 14 15  1  6  0  0  0
 14 16  1  1  0  0  0
 14 17  1  0  0  0  0
 17 18  1  0  0  0  0
 18 19  1  6  0  0  0
 18 20  1  0  0  0  0
 20 21  1  6  0  0  0
 20 24  1  0  0  0  0
 21 22  1  0  0  0  0
 22 23  1  0  0  0  0
 23 24  1  0  0  0  0
M  END
>  <name>
O=C1[C@H](Cc2ccccc2)N2C(=O)[C@@]([N;amide])(C)O[C@@]2(O)[C@H]2N1CCC2

>  <apo>
1

>  <freq>
2

>  <freq0>
0

>  <freq1>
2

>  <freqA>
1.9984947

>  <a_count>
45

$$$$

  MOE2015           2D

 20 23  0  0  1  0  0  0  0  0999 V2000
   -0.6370   -3.8570    0.0000 O   0  0  0  0  0  0  0  0  0  0  0  0
    0.4730   -2.8490    0.0000 C   0  0  2  0  0  0  0  0  0  0  0  0
    1.9420   -3.1550    0.0000 C   0  0  2  0  0  0  0  0  0  0  0  0
    1.0860   -4.3870    0.0000 C   0  0  0  0  0  0  0  0  0  0  0  0
    2.6870   -1.8530    0.0000 C   0  0  2  0  0  0  0  0  0  0  0  0
    4.1870   -1.8470    0.0000 C   0  0  1  0  0  0  0  0  0  0  0  0
    4.9420   -3.1430    0.0000 C   0  0  1  0  0  0  0  0  0  0  0  0
    6.4420   -3.1370    0.0000 C   0  0  0  0  0  0  0  0  0  0  0  0
    7.1870   -1.8350    0.0000 C   0  0  0  0  0  0  0  0  0  0  0  0
    8.6860   -1.8290    0.0000 C   0  0  0  0  0  0  0  0  0  0  0  0
    9.4420   -3.1250    0.0000 C   0  0  0  0  0  0  0  0  0  0  0  0
   10.9420   -3.1190    0.0000 O   0  0  0  0  0  0  0  0  0  0  0  0
    8.6970   -4.4270    0.0000 C   0  0  0  0  0  0  0  0  0  0  0  0
    7.1970   -4.4330    0.0000 C   0  0  0  0  0  0  0  0  0  0  0  0
    6.4310   -0.5390    0.0000 C   0  0  0  0  0  0  0  0  0  0  0  0
    4.9310   -0.5450    0.0000 C   0  0  0  0  0  0  0  0  0  0  0  0
    4.1970   -4.4450    0.0000 C   0  0  0  0  0  0  0  0  0  0  0  0
    2.6970   -4.4510    0.0000 C   0  0  0  0  0  0  0  0  0  0  0  0
    1.6780   -0.7420    0.0000 C   0  0  0  0  0  0  0  0  0  0  0  0
    0.3110   -1.3580    0.0000 C   0  0  0  0  0  0  0  0  0  0  0  0
  2  1  1  1  0  0  0
  2  3  1  0  0  0  0
  2 20  1  0  0  0  0
  3  4  1  1  0  0  0
  3  5  1  0  0  0  0
  3 18  1  0  0  0  0
  5  6  1  0  0  0  0
  5 19  1  1  0  0  0
  6  7  1  0  0  0  0
  6 16  1  6  0  0  0
  7  8  1  0  0  0  0
  7 17  1  1  0  0  0
  8  9  1  0  0  0  0
  8 14  2  0  0  0  0
  9 10  2  0  0  0  0
  9 15  1  0  0  0  0
 10 11  1  0  0  0  0
 11 12  1  0  0  0  0
 11 13  2  0  0  0  0
 13 14  1  0  0  0  0
 15 16  1  0  0  0  0
 17 18  1  0  0  0  0
 19 20  1  0  0  0  0
M  END
>  <name>
O[C@@H]1[C@]2(C)[C@H]([C@H]3[C@@H](c4c(cc([O;ester])cc4)CC3)CC2)CC1

>  <apo>
1

>  <freq>
2

>  <freq0>
0

>  <freq1>
2

>  <freqA>
1.9984947

>  <a_count>
44

$$$$

  MOE2015           2D

 29 31  0  0  0  0  0  0  0  0999 V2000
   -0.5250    0.1410    0.0000 S   0  0  0  0  0  0  0  0  0  0  0  0
   -1.8240    0.8910    0.0000 O   0  0  0  0  0  0  0  0  0  0  0  0
    0.7740   -0.6090    0.0000 O   0  0  0  0  0  0  0  0  0  0  0  0
    0.2250    1.4400    0.0000 O   0  0  0  0  0  0  0  0  0  0  0  0
   -1.2750   -1.1580    0.0000 C   0  0  0  0  0  0  0  0  0  0  0  0
   -0.5250   -2.4570    0.0000 C   0  0  0  0  0  0  0  0  0  0  0  0
    0.9750   -2.4570    0.0000 N   0  0  0  0  0  0  0  0  0  0  0  0
    1.7250   -3.7560    0.0000 N   0  0  0  0  0  0  0  0  0  0  0  0
    3.2250   -3.7560    0.0000 C   0  0  0  0  0  0  0  0  0  0  0  0
    3.9750   -5.0550    0.0000 C   0  0  0  0  0  0  0  0  0  0  0  0
    3.2250   -6.3550    0.0000 C   0  0  0  0  0  0  0  0  0  0  0  0
    5.4750   -5.0550    0.0000 C   0  0  0  0  0  0  0  0  0  0  0  0
    6.2250   -3.7560    0.0000 C   0  0  0  0  0  0  0  0  0  0  0  0
    5.4750   -2.4570    0.0000 C   0  0  0  0  0  0  0  0  0  0  0  0
    3.9750   -2.4570    0.0000 C   0  0  0  0  0  0  0  0  0  0  0  0
   -1.2750   -3.7560    0.0000 C   0  0  0  0  0  0  0  0  0  0  0  0
   -0.5250   -5.0550    0.0000 O   0  0  0  0  0  0  0  0  0  0  0  0
   -2.7750   -3.7560    0.0000 C   0  0  0  0  0  0  0  0  0  0  0  0
   -3.5250   -5.0550    0.0000 C   0  0  0  0  0  0  0  0  0  0  0  0
   -2.7750   -6.3550    0.0000 N   0  0  0  0  0  0  0  0  0  0  0  0
   -5.0250   -5.0550    0.0000 C   0  0  0  0  0  0  0  0  0  0  0  0
   -5.7750   -3.7560    0.0000 C   0  0  0  0  0  0  0  0  0  0  0  0
   -7.2750   -3.7560    0.0000 S   0  0  0  0  0  0  0  0  0  0  0  0
   -7.2750   -2.2560    0.0000 O   0  0  0  0  0  0  0  0  0  0  0  0
   -7.2750   -5.2560    0.0000 O   0  0  0  0  0  0  0  0  0  0  0  0
   -8.7750   -3.7560    0.0000 O   0  0  0  0  0  0  0  0  0  0  0  0
   -5.0250   -2.4570    0.0000 C   0  0  0  0  0  0  0  0  0  0  0  0
   -3.5250   -2.4570    0.0000 C   0  0  0  0  0  0  0  0  0  0  0  0
   -2.7750   -1.1580    0.0000 C   0  0  0  0  0  0  0  0  0  0  0  0
  1  2  2  0  0  0  0
  1  3  2  0  0  0  0
  1  4  1  0  0  0  0
  1  5  1  0  0  0  0
  5  6  1  0  0  0  0
  5 29  2  0  0  0  0
  6  7  1  0  0  0  0
  6 16  2  0  0  0  0
  7  8  2  0  0  0  0
  8  9  1  0  0  0  0
  9 10  1  0  0  0  0
  9 15  2  0  0  0  0
 10 11  1  0  0  0  0
 10 12  2  0  0  0  0
 12 13  1  0  0  0  0
 13 14  2  0  0  0  0
 14 15  1  0  0  0  0
 16 17  1  0  0  0  0
 16 18  1  0  0  0  0
 18 19  1  0  0  0  0
 18 28  2  0  0  0  0
 19 20  1  0  0  0  0
 19 21  2  0  0  0  0
 21 22  1  0  0  0  0
 22 23  1  0  0  0  0
 22 27  2  0  0  0  0
 23 24  2  0  0  0  0
 23 25  2  0  0  0  0
 23 26  1  0  0  0  0
 27 28  1  0  0  0  0
 28 29  1  0  0  0  0
M  END
>  <name>
S(=O)(=O)(O)c1c(N=Nc2c(C)c[c;biphenyl]cc2)c(O)c2c(N)cc(S(=O)(=O)O)cc2c1

>  <apo>
1

>  <freq>
2

>  <freq0>
0

>  <freq1>
2

>  <freqA>
1.9984947

>  <a_count>
44

$$$$

  MOE2015           2D

 20 23  0  0  1  0  0  0  0  0999 V2000
   -0.6370   -3.8570    0.0000 O   0  0  0  0  0  0  0  0  0  0  0  0
    0.4730   -2.8490    0.0000 C   0  0  2  0  0  0  0  0  0  0  0  0
    1.9420   -3.1550    0.0000 C   0  0  2  0  0  0  0  0  0  0  0  0
    1.0860   -4.3870    0.0000 C   0  0  0  0  0  0  0  0  0  0  0  0
    2.6870   -1.8530    0.0000 C   0  0  2  0  0  0  0  0  0  0  0  0
    4.1870   -1.8470    0.0000 C   0  0  1  0  0  0  0  0  0  0  0  0
    4.9420   -3.1430    0.0000 C   0  0  1  0  0  0  0  0  0  0  0  0
    6.4420   -3.1370    0.0000 C   0  0  0  0  0  0  0  0  0  0  0  0
    7.1870   -1.8350    0.0000 C   0  0  0  0  0  0  0  0  0  0  0  0
    8.6860   -1.8290    0.0000 C   0  0  0  0  0  0  0  0  0  0  0  0
    9.4420   -3.1250    0.0000 C   0  0  0  0  0  0  0  0  0  0  0  0
   10.9420   -3.1190    0.0000 O   0  0  0  0  0  0  0  0  0  0  0  0
    8.6970   -4.4270    0.0000 C   0  0  0  0  0  0  0  0  0  0  0  0
    7.1970   -4.4330    0.0000 C   0  0  0  0  0  0  0  0  0  0  0  0
    6.4310   -0.5390    0.0000 C   0  0  0  0  0  0  0  0  0  0  0  0
    4.9310   -0.5450    0.0000 C   0  0  0  0  0  0  0  0  0  0  0  0
    4.1970   -4.4450    0.0000 C   0  0  0  0  0  0  0  0  0  0  0  0
    2.6970   -4.4510    0.0000 C   0  0  0  0  0  0  0  0  0  0  0  0
    1.6780   -0.7420    0.0000 C   0  0  0  0  0  0  0  0  0  0  0  0
    0.3110   -1.3580    0.0000 C   0  0  0  0  0  0  0  0  0  0  0  0
  2  1  1  1  0  0  0
  2  3  1  0  0  0  0
  2 20  1  0  0  0  0
  3  4  1  1  0  0  0
  3  5  1  0  0  0  0
  3 18  1  0  0  0  0
  5  6  1  0  0  0  0
  5 19  1  1  0  0  0
  6  7  1  0  0  0  0
  6 16  1  6  0  0  0
  7  8  1  0  0  0  0
  7 17  1  1  0  0  0
  8  9  1  0  0  0  0
  8 14  2  0  0  0  0
  9 10  2  0  0  0  0
  9 15  1  0  0  0  0
 10 11  1  0  0  0  0
 11 12  1  0  0  0  0
 11 13  2  0  0  0  0
 13 14  1  0  0  0  0
 15 16  1  0  0  0  0
 17 18  1  0  0  0  0
 19 20  1  0  0  0  0
M  END
>  <name>
[O;ester][C@@H]1[C@]2(C)[C@H]([C@H]3[C@@H](c4c(cc(O)cc4)CC3)CC2)CC1

>  <apo>
1

>  <freq>
2

>  <freq0>
0

>  <freq1>
2

>  <freqA>
1.9984947

>  <a_count>
44

$$$$

  MOE2015           2D

 19 22  0  0  1  0  0  0  0  0999 V2000
   -0.0940   -2.6780    0.0000 C   0  0  0  0  0  0  0  0  0  0  0  0
    1.4020   -2.7830    0.0000 C   0  0  2  0  0  0  0  0  0  0  0  0
    2.1600   -1.4540    0.0000 C   0  0  1  0  0  0  0  0  0  0  0  0
    3.6720   -1.4380    0.0000 C   0  0  1  0  0  0  0  0  0  0  0  0
    4.9930   -2.1910    0.0000 O   0  0  0  0  0  0  0  0  0  0  0  0
    5.8940   -1.3850    0.0000 O   0  0  0  0  0  0  0  0  0  0  0  0
    6.9680   -2.4300    0.0000 C   0  0  1  0  0  0  0  0  0  0  0  0
    8.2710   -3.1730    0.0000 C   0  0  0  0  0  0  0  0  0  0  0  0
    5.6890   -3.2840    0.0000 O   0  0  0  0  0  0  0  0  0  0  0  0
    4.2360   -2.9030    0.0000 C   0  0  1  0  0  0  0  0  0  0  0  0
    3.5200   -4.1590    0.0000 O   0  0  0  0  0  0  0  0  0  0  0  0
    1.9430   -4.1480    0.0000 C   0  0  0  0  0  0  0  0  0  0  0  0
    7.0510   -0.8950    0.0000 C   0  0  0  0  0  0  0  0  0  0  0  0
    5.9400    0.0850    0.0000 C   0  0  0  0  0  0  0  0  0  0  0  0
    4.4300   -0.1090    0.0000 C   0  0  1  0  0  0  0  0  0  0  0  0
    3.6730    1.2000    0.0000 C   0  0  2  0  0  0  0  0  0  0  0  0
    4.4150    2.5040    0.0000 C   0  0  0  0  0  0  0  0  0  0  0  0
    2.1650    1.1810    0.0000 C   0  0  0  0  0  0  0  0  0  0  0  0
    1.4080   -0.1470    0.0000 C   0  0  0  0  0  0  0  0  0  0  0  0
  2  1  1  6  0  0  0
  2  3  1  0  0  0  0
  2 12  1  0  0  0  0
  3  4  1  0  0  0  0
  3 19  1  6  0  0  0
  4  5  1  1  0  0  0
  4 10  1  0  0  0  0
  4 15  1  0  0  0  0
  5  6  1  0  0  0  0
  6  7  1  0  0  0  0
  7  8  1  1  0  0  0
  7  9  1  0  0  0  0
  7 13  1  0  0  0  0
  9 10  1  0  0  0  0
 10 11  1  1  0  0  0
 11 12  1  0  0  0  0
 13 14  1  0  0  0  0
 15 14  1  6  0  0  0
 15 16  1  0  0  0  0
 16 17  1  1  0  0  0
 16 18  1  0  0  0  0
 18 19  1  0  0  0  0
M  END
>  <name>
C[C@@H]1[C@H]2[C@@]34OO[C@@](C)(O[C@H]3O[C;ether]1)CC[C@H]4[C@H](C)CC2

>  <apo>
1

>  <freq>
2

>  <freq0>
0

>  <freq1>
2

>  <freqA>
1.9984947

>  <a_count>
43

$$$$

  MOE2015           2D

 23 25  0  0  1  0  0  0  0  0999 V2000
    1.2810   -0.6650    0.0000 S   0  0  0  0  0  0  0  0  0  0  0  0
    2.4090   -1.6550    0.0000 C   0  0  1  0  0  0  0  0  0  0  0  0
    3.8720   -1.3240    0.0000 C   0  0  0  0  0  0  0  0  0  0  0  0
    4.6380   -2.6140    0.0000 C   0  0  1  0  0  0  0  0  0  0  0  0
    6.1320   -2.7520    0.0000 C   0  0  0  0  0  0  0  0  0  0  0  0
    6.7590   -4.1140    0.0000 O   0  0  0  0  0  0  0  0  0  0  0  0
    3.6490   -3.7410    0.0000 N   0  0  0  0  0  0  0  0  0  0  0  0
    2.2710   -3.1480    0.0000 C   0  0  0  0  0  0  0  0  0  0  0  0
   -0.1390   -1.1470    0.0000 C   0  0  0  0  0  0  0  0  0  0  0  0
   -0.5850   -2.5790    0.0000 C   0  0  2  0  0  0  0  0  0  0  0  0
    0.3120   -3.7810    0.0000 C   0  0  0  0  0  0  0  0  0  0  0  0
   -2.0850   -2.5980    0.0000 C   0  0  2  0  0  0  0  0  0  0  0  0
   -3.5050   -3.0800    0.0000 C   0  0  1  0  0  0  0  0  0  0  0  0
   -4.1690   -4.4250    0.0000 C   0  0  2  0  0  0  0  0  0  0  0  0
   -5.6660   -4.5220    0.0000 O   0  0  0  0  0  0  0  0  0  0  0  0
   -3.3360   -5.6720    0.0000 C   0  0  0  0  0  0  0  0  0  0  0  0
   -3.9870   -1.6590    0.0000 C   0  0  0  0  0  0  0  0  0  0  0  0
   -5.3320   -0.9950    0.0000 O   0  0  0  0  0  0  0  0  0  0  0  0
   -2.5660   -1.1780    0.0000 N   0  0  0  0  0  0  0  0  0  0  0  0
   -1.3640   -0.2810    0.0000 C   0  0  0  0  0  0  0  0  0  0  0  0
   -1.3830    1.2190    0.0000 C   0  0  0  0  0  0  0  0  0  0  0  0
   -0.0940    1.9860    0.0000 O   0  0  0  0  0  0  0  0  0  0  0  0
   -2.6910    1.9530    0.0000 O   0  0  0  0  0  0  0  0  0  0  0  0
  2  1  1  1  0  0  0
  1  9  1  0  0  0  0
  2  3  1  0  0  0  0
  2  8  1  0  0  0  0
  3  4  1  0  0  0  0
  4  5  1  1  0  0  0
  4  7  1  0  0  0  0
  5  6  2  0  0  0  0
  7  8  1  0  0  0  0
  9 10  1  0  0  0  0
  9 20  2  0  0  0  0
 10 11  1  6  0  0  0
 10 12  1  0  0  0  0
 12 13  1  0  0  0  0
 12 19  1  6  0  0  0
 13 14  1  0  0  0  0
 13 17  1  1  0  0  0
 14 15  1  1  0  0  0
 14 16  1  0  0  0  0
 17 18  2  0  0  0  0
 17 19  1  0  0  0  0
 19 20  1  0  0  0  0
 20 21  1  0  0  0  0
 21 22  2  0  0  0  0
 21 23  1  0  0  0  0
M  END
>  <name>
S([C@H]1C[C@@H]([C;amide]=O)NC1)C=1[C@H](C)[C@@H]2[C@@H]([C@H](O)C)C(=O)N2C=1C(=O)O

>  <apo>
1

>  <freq>
2

>  <freq0>
0

>  <freq1>
2

>  <freqA>
1.9984947

>  <a_count>
43

$$$$

  MOE2015           2D

 20 22  0  0  0  0  0  0  0  0999 V2000
    2.3250   -2.3250    0.0000 O   0  0  0  0  0  0  0  0  0  0  0  0
    2.3250   -0.8250    0.0000 C   0  0  0  0  0  0  0  0  0  0  0  0
    2.3250    0.6750    0.0000 C   0  0  0  0  0  0  0  0  0  0  0  0
    1.0260    1.4250    0.0000 C   0  0  0  0  0  0  0  0  0  0  0  0
    1.0260    2.9250    0.0000 C   0  0  0  0  0  0  0  0  0  0  0  0
    2.3250    3.6750    0.0000 C   0  0  0  0  0  0  0  0  0  0  0  0
    3.6240    2.9250    0.0000 C   0  0  0  0  0  0  0  0  0  0  0  0
    3.6240    1.4250    0.0000 C   0  0  0  0  0  0  0  0  0  0  0  0
    0.8250   -0.8250    0.0000 C   0  0  0  0  0  0  0  0  0  0  0  0
    0.0750   -2.1240    0.0000 C   0  0  0  0  0  0  0  0  0  0  0  0
   -1.4250   -2.1240    0.0000 C   0  0  0  0  0  0  0  0  0  0  0  0
   -2.1750   -0.8250    0.0000 C   0  0  0  0  0  0  0  0  0  0  0  0
   -1.4250    0.4740    0.0000 C   0  0  0  0  0  0  0  0  0  0  0  0
    0.0750    0.4740    0.0000 C   0  0  0  0  0  0  0  0  0  0  0  0
    3.8250   -0.8250    0.0000 C   0  0  0  0  0  0  0  0  0  0  0  0
    4.5750    0.4740    0.0000 C   0  0  0  0  0  0  0  0  0  0  0  0
    6.0750    0.4740    0.0000 C   0  0  0  0  0  0  0  0  0  0  0  0
    6.8250   -0.8250    0.0000 N   0  0  0  0  0  0  0  0  0  0  0  0
    6.0750   -2.1240    0.0000 C   0  0  0  0  0  0  0  0  0  0  0  0
    4.5750   -2.1240    0.0000 C   0  0  0  0  0  0  0  0  0  0  0  0
  1  2  1  0  0  0  0
  2  3  1  0  0  0  0
  2  9  1  0  0  0  0
  2 15  1  0  0  0  0
  3  4  1  0  0  0  0
  3  8  2  0  0  0  0
  4  5  2  0  0  0  0
  5  6  1  0  0  0  0
  6  7  2  0  0  0  0
  7  8  1  0  0  0  0
  9 10  1  0  0  0  0
  9 14  2  0  0  0  0
 10 11  2  0  0  0  0
 11 12  1  0  0  0  0
 12 13  2  0  0  0  0
 13 14  1  0  0  0  0
 15 16  1  0  0  0  0
 15 20  1  0  0  0  0
 16 17  1  0  0  0  0
 17 18  1  0  0  0  0
 18 19  1  0  0  0  0
 19 20  1  0  0  0  0
M  END
>  <name>
OC(c1ccccc1)(c1ccccc1)C1CC[N;amine]CC1

>  <apo>
1

>  <freq>
2

>  <freq0>
0

>  <freq1>
2

>  <freqA>
1.9984947

>  <a_count>
41

$$$$

  MOE2015           2D

 19 19  0  0  1  0  0  0  0  0999 V2000
    3.1990    3.1990    0.0000 O   0  0  0  0  0  0  0  0  0  0  0  0
    3.1990    1.6990    0.0000 C   0  0  0  0  0  0  0  0  0  0  0  0
    4.4980    0.9490    0.0000 O   0  0  0  0  0  0  0  0  0  0  0  0
    5.7970    1.6990    0.0000 C   0  0  0  0  0  0  0  0  0  0  0  0
    7.0960    2.4490    0.0000 C   0  0  0  0  0  0  0  0  0  0  0  0
    5.0470    2.9980    0.0000 C   0  0  0  0  0  0  0  0  0  0  0  0
    6.5470    0.4000    0.0000 C   0  0  0  0  0  0  0  0  0  0  0  0
    1.9000    0.9490    0.0000 N   0  0  0  0  0  0  0  0  0  0  0  0
    0.6010    1.6990    0.0000 C   0  0  2  0  0  0  0  0  0  0  0  0
    0.6010    3.1990    0.0000 C   0  0  1  0  0  0  0  0  0  0  0  0
    1.9000    3.9490    0.0000 O   0  0  0  0  0  0  0  0  0  0  0  0
   -0.6980    3.9490    0.0000 C   0  0  0  0  0  0  0  0  0  0  0  0
   -0.6980    5.4490    0.0000 O   0  0  0  0  0  0  0  0  0  0  0  0
   -0.6980    0.9490    0.0000 C   0  0  0  0  0  0  0  0  0  0  0  0
   -1.9970    1.6990    0.0000 C   0  0  0  0  0  0  0  0  0  0  0  0
   -3.2970    0.9490    0.0000 C   0  0  0  0  0  0  0  0  0  0  0  0
   -3.2970   -0.5510    0.0000 C   0  0  0  0  0  0  0  0  0  0  0  0
   -1.9970   -1.3010    0.0000 C   0  0  0  0  0  0  0  0  0  0  0  0
   -0.6980   -0.5510    0.0000 C   0  0  0  0  0  0  0  0  0  0  0  0
  1  2  2  0  0  0  0
  2  3  1  0  0  0  0
  2  8  1  0  0  0  0
  3  4  1  0  0  0  0
  4  5  1  0  0  0  0
  4  6  1  0  0  0  0
  4  7  1  0  0  0  0
  9  8  1  1  0  0  0
  9 10  1  0  0  0  0
  9 14  1  0  0  0  0
 10 11  1  6  0  0  0
 10 12  1  0  0  0  0
 12 13  2  0  0  0  0
 14 15  1  0  0  0  0
 14 19  2  0  0  0  0
 15 16  2  0  0  0  0
 16 17  1  0  0  0  0
 17 18  2  0  0  0  0
 18 19  1  0  0  0  0
M  END
>  <name>
O=C(OC(C)(C)C)N[C@H]([C@@H](O)[C;ester]=O)c1ccccc1

>  <apo>
1

>  <freq>
2

>  <freq0>
0

>  <freq1>
2

>  <freqA>
1.9984947

>  <a_count>
38

$$$$

  MOE2015           2D

 21 25  0  0  1  0  0  0  0  0999 V2000
    0.7910    1.3680    0.0000 O   0  0  0  0  0  0  0  0  0  0  0  0
    1.5400    0.0690    0.0000 C   0  0  0  0  0  0  0  0  0  0  0  0
    2.9720    0.0660    0.0000 C   0  0  2  0  0  0  0  0  0  0  0  0
    4.3830    1.1380    0.0000 O   0  0  0  0  0  0  0  0  0  0  0  0
    5.8310    0.0820    0.0000 C   0  0  0  0  0  0  0  0  0  0  0  0
    7.2680    0.0850    0.0000 C   0  0  0  0  0  0  0  0  0  0  0  0
    8.0140    1.3860    0.0000 O   0  0  0  0  0  0  0  0  0  0  0  0
    7.9880   -1.1530    0.0000 C   0  0  0  0  0  0  0  0  0  0  0  0
    7.2730   -2.3930    0.0000 C   0  0  0  0  0  0  0  0  0  0  0  0
    5.8470   -2.3980    0.0000 C   0  0  0  0  0  0  0  0  0  0  0  0
    5.1260   -1.1600    0.0000 C   0  0  0  0  0  0  0  0  0  0  0  0
    3.6860   -1.1690    0.0000 C   0  0  2  0  0  0  0  0  0  0  0  0
    2.9690   -2.4110    0.0000 C   0  0  2  0  0  0  0  0  0  0  0  0
    2.2280   -3.7160    0.0000 O   0  0  0  0  0  0  0  0  0  0  0  0
    3.6930   -3.6610    0.0000 C   0  0  2  0  0  0  0  0  0  0  0  0
    3.3400   -5.0620    0.0000 N   0  0  0  0  0  0  0  0  0  0  0  0
    4.5830   -4.3380    0.0000 C   0  0  0  0  0  0  0  0  0  0  0  0
    4.7250   -2.1900    0.0000 C   0  0  0  0  0  0  0  0  0  0  0  0
    5.1290   -3.6460    0.0000 C   0  0  0  0  0  0  0  0  0  0  0  0
    1.5390   -2.4190    0.0000 C   0  0  0  0  0  0  0  0  0  0  0  0
    0.8220   -1.1740    0.0000 C   0  0  0  0  0  0  0  0  0  0  0  0
  1  2  2  0  0  0  0
  2  3  1  0  0  0  0
  2 21  1  0  0  0  0
  3  4  1  6  0  0  0
  3 12  1  0  0  0  0
  4  5  1  0  0  0  0
  5  6  1  0  0  0  0
  5 11  2  0  0  0  0
  6  7  1  0  0  0  0
  6  8  2  0  0  0  0
  8  9  1  0  0  0  0
  9 10  2  0  0  0  0
 10 11  1  0  0  0  0
 10 19  1  0  0  0  0
 11 12  1  0  0  0  0
 12 13  1  0  0  0  0
 12 18  1  1  0  0  0
 13 14  1  1  0  0  0
 13 15  1  0  0  0  0
 13 20  1  0  0  0  0
 15 16  1  1  0  0  0
 15 19  1  0  0  0  0
 16 17  1  0  0  0  0
 17 18  1  0  0  0  0
 20 21  1  0  0  0  0
M  END
>  <name>
O=C1[C@@H]2Oc3c(O)ccc4c3[C@@]32[C@](O)([C@H]([N;amine]CC3)C4)CC1

>  <apo>
1

>  <freq>
2

>  <freq0>
0

>  <freq1>
2

>  <freqA>
1.9984947

>  <a_count>
38

$$$$

  MOE2015           2D

 16 17  0  0  1  0  0  0  0  0999 V2000
    1.7220   -1.5590    0.0000 O   0  0  0  0  0  0  0  0  0  0  0  0
    1.7220   -0.0590    0.0000 C   0  0  3  0  0  0  0  0  0  0  0  0
    1.7220    1.4410    0.0000 C   0  0  0  0  0  0  0  0  0  0  0  0
    0.4230    2.1910    0.0000 C   0  0  0  0  0  0  0  0  0  0  0  0
    0.2220   -0.0590    0.0000 C   0  0  0  0  0  0  0  0  0  0  0  0
   -0.5280   -1.3580    0.0000 C   0  0  0  0  0  0  0  0  0  0  0  0
   -2.0280   -1.3580    0.0000 C   0  0  0  0  0  0  0  0  0  0  0  0
   -2.7780   -0.0590    0.0000 C   0  0  0  0  0  0  0  0  0  0  0  0
   -2.0280    1.2400    0.0000 C   0  0  0  0  0  0  0  0  0  0  0  0
   -0.5280    1.2400    0.0000 C   0  0  0  0  0  0  0  0  0  0  0  0
    3.2220   -0.0590    0.0000 C   0  0  0  0  0  0  0  0  0  0  0  0
    3.9720    1.2400    0.0000 C   0  0  0  0  0  0  0  0  0  0  0  0
    5.4720    1.2400    0.0000 C   0  0  0  0  0  0  0  0  0  0  0  0
    6.2220   -0.0590    0.0000 C   0  0  0  0  0  0  0  0  0  0  0  0
    5.4720   -1.3580    0.0000 C   0  0  0  0  0  0  0  0  0  0  0  0
    3.9720   -1.3580    0.0000 C   0  0  0  0  0  0  0  0  0  0  0  0
  1  2  1  0  0  0  0
  2  3  1  0  0  0  0
  2  5  1  0  0  0  0
  2 11  1  0  0  0  0
  3  4  1  0  0  0  0
  5  6  1  0  0  0  0
  5 10  2  0  0  0  0
  6  7  2  0  0  0  0
  7  8  1  0  0  0  0
  8  9  2  0  0  0  0
  9 10  1  0  0  0  0
 11 12  1  0  0  0  0
 11 16  1  0  0  0  0
 12 13  1  0  0  0  0
 13 14  1  0  0  0  0
 14 15  1  0  0  0  0
 15 16  1  0  0  0  0
M  END
>  <name>
OC(C[C;amine])(c1ccccc1)C1CCCCC1

>  <apo>
1

>  <freq>
2

>  <freq0>
0

>  <freq1>
2

>  <freqA>
1.9984947

>  <a_count>
38

$$$$

  MOE2015           2D

 16 16  0  0  0  0  0  0  0  0999 V2000
    3.8440    3.8440    0.0000 S   0  0  0  0  0  0  0  0  0  0  0  0
    3.8440    2.3440    0.0000 C   0  0  0  0  0  0  0  0  0  0  0  0
    2.5450    1.5940    0.0000 C   0  0  0  0  0  0  0  0  0  0  0  0
    2.5450    0.0940    0.0000 C   0  0  0  0  0  0  0  0  0  0  0  0
    1.2460   -0.6560    0.0000 C   0  0  0  0  0  0  0  0  0  0  0  0
   -0.0530   -1.4060    0.0000 C   0  0  0  0  0  0  0  0  0  0  0  0
    1.9960   -1.9550    0.0000 C   0  0  0  0  0  0  0  0  0  0  0  0
    0.4960    0.6430    0.0000 C   0  0  0  0  0  0  0  0  0  0  0  0
    3.8440   -0.6560    0.0000 C   0  0  0  0  0  0  0  0  0  0  0  0
    3.8440   -2.1560    0.0000 O   0  0  0  0  0  0  0  0  0  0  0  0
    5.1430    0.0940    0.0000 C   0  0  0  0  0  0  0  0  0  0  0  0
    6.4420   -0.6560    0.0000 C   0  0  0  0  0  0  0  0  0  0  0  0
    7.1920    0.6430    0.0000 C   0  0  0  0  0  0  0  0  0  0  0  0
    7.7410   -1.4060    0.0000 C   0  0  0  0  0  0  0  0  0  0  0  0
    5.6920   -1.9550    0.0000 C   0  0  0  0  0  0  0  0  0  0  0  0
    5.1430    1.5940    0.0000 C   0  0  0  0  0  0  0  0  0  0  0  0
  1  2  1  0  0  0  0
  2  3  1  0  0  0  0
  2 16  2  0  0  0  0
  3  4  2  0  0  0  0
  4  5  1  0  0  0  0
  4  9  1  0  0  0  0
  5  6  1  0  0  0  0
  5  7  1  0  0  0  0
  5  8  1  0  0  0  0
  9 10  1  0  0  0  0
  9 11  2  0  0  0  0
 11 12  1  0  0  0  0
 11 16  1  0  0  0  0
 12 13  1  0  0  0  0
 12 14  1  0  0  0  0
 12 15  1  0  0  0  0
M  END
>  <name>
[S;thioether]c1cc(C(C)(C)C)c(O)c(C(C)(C)C)c1

>  <apo>
1

>  <freq>
2

>  <freq0>
0

>  <freq1>
2

>  <freqA>
1.9984947

>  <a_count>
38

$$$$

  MOE2015           2D

 22 23  0  0  1  0  0  0  0  0999 V2000
    4.1100   -0.4960    0.0000 Cl  0  0  0  0  0  0  0  0  0  0  0  0
    4.1100   -1.9960    0.0000 C   0  0  0  0  0  0  0  0  0  0  0  0
    5.4090   -2.7460    0.0000 C   0  0  0  0  0  0  0  0  0  0  0  0
    6.7080   -1.9960    0.0000 Cl  0  0  0  0  0  0  0  0  0  0  0  0
    5.4090   -4.2460    0.0000 C   0  0  0  0  0  0  0  0  0  0  0  0
    4.1100   -4.9960    0.0000 C   0  0  0  0  0  0  0  0  0  0  0  0
    2.8110   -4.2460    0.0000 C   0  0  0  0  0  0  0  0  0  0  0  0
    2.8110   -2.7460    0.0000 C   0  0  0  0  0  0  0  0  0  0  0  0
    1.5120   -1.9960    0.0000 C   0  0  3  0  0  0  0  0  0  0  0  0
    0.2130   -2.7460    0.0000 C   0  0  0  0  0  0  0  0  0  0  0  0
    0.2130   -4.2460    0.0000 C   0  0  0  0  0  0  0  0  0  0  0  0
    1.5120   -4.9960    0.0000 O   0  0  0  0  0  0  0  0  0  0  0  0
   -1.0860   -4.9960    0.0000 O   0  0  0  0  0  0  0  0  0  0  0  0
   -1.0860   -6.4960    0.0000 C   0  0  0  0  0  0  0  0  0  0  0  0
   -1.0860   -1.9960    0.0000 C   0  0  0  0  0  0  0  0  0  0  0  0
   -2.3860   -2.7460    0.0000 C   0  0  0  0  0  0  0  0  0  0  0  0
   -1.0860   -0.4960    0.0000 N   0  0  0  0  0  0  0  0  0  0  0  0
    0.2130    0.2540    0.0000 C   0  0  0  0  0  0  0  0  0  0  0  0
    0.2130    1.7540    0.0000 C   0  0  0  0  0  0  0  0  0  0  0  0
    1.5120   -0.4960    0.0000 C   0  0  0  0  0  0  0  0  0  0  0  0
    2.8110    0.2540    0.0000 C   0  0  0  0  0  0  0  0  0  0  0  0
    2.8110    1.7540    0.0000 O   0  0  0  0  0  0  0  0  0  0  0  0
  1  2  1  0  0  0  0
  2  3  1  0  0  0  0
  2  8  2  0  0  0  0
  3  4  1  0  0  0  0
  3  5  2  0  0  0  0
  5  6  1  0  0  0  0
  6  7  2  0  0  0  0
  7  8  1  0  0  0  0
  8  9  1  0  0  0  0
  9 10  1  0  0  0  0
  9 20  1  0  0  0  0
 10 11  1  0  0  0  0
 10 15  2  0  0  0  0
 11 12  2  0  0  0  0
 11 13  1  0  0  0  0
 13 14  1  0  0  0  0
 15 16  1  0  0  0  0
 15 17  1  0  0  0  0
 17 18  1  0  0  0  0
 18 19  1  0  0  0  0
 18 20  2  0  0  0  0
 20 21  1  0  0  0  0
 21 22  2  0  0  0  0
M  END
>  <name>
Clc1c(Cl)cccc1C1C(C(=O)OC)=C(C)NC(C)=C1[C;ester]=O

>  <apo>
1

>  <freq>
2

>  <freq0>
0

>  <freq1>
2

>  <freqA>
1.9984947

>  <a_count>
37

$$$$

  MOE2015           2D

 22 24  0  0  1  0  0  0  0  0999 V2000
   -0.4300    2.7640    0.0000 Cl  0  0  0  0  0  0  0  0  0  0  0  0
    0.8690    2.0140    0.0000 C   0  0  0  0  0  0  0  0  0  0  0  0
    2.1680    2.7640    0.0000 C   0  0  0  0  0  0  0  0  0  0  0  0
    3.4670    2.0140    0.0000 C   0  0  0  0  0  0  0  0  0  0  0  0
    4.7660    2.7640    0.0000 C   0  0  2  0  0  0  0  0  0  0  0  0
    6.0650    2.0140    0.0000 C   0  0  0  0  0  0  0  0  0  0  0  0
    7.3640    2.7640    0.0000 C   0  0  0  0  0  0  0  0  0  0  0  0
    8.6630    2.0140    0.0000 C   0  0  0  0  0  0  0  0  0  0  0  0
    9.9620    2.7640    0.0000 S   0  0  0  0  0  0  0  0  0  0  0  0
    9.9620    4.2640    0.0000 O   0  0  0  0  0  0  0  0  0  0  0  0
   11.2610    2.0140    0.0000 O   0  0  0  0  0  0  0  0  0  0  0  0
    8.6630    0.5140    0.0000 C   0  0  0  0  0  0  0  0  0  0  0  0
    7.3640   -0.2360    0.0000 C   0  0  0  0  0  0  0  0  0  0  0  0
    6.0650    0.5140    0.0000 C   0  0  0  0  0  0  0  0  0  0  0  0
    4.7660    4.2640    0.0000 C   0  0  0  0  0  0  0  0  0  0  0  0
    3.4670    5.0140    0.0000 N   0  0  0  0  0  0  0  0  0  0  0  0
    3.4670    6.5140    0.0000 C   0  0  0  0  0  0  0  0  0  0  0  0
    2.1680    4.2640    0.0000 C   0  0  0  0  0  0  0  0  0  0  0  0
    3.4670    0.5140    0.0000 C   0  0  0  0  0  0  0  0  0  0  0  0
    2.1680   -0.2360    0.0000 C   0  0  0  0  0  0  0  0  0  0  0  0
    2.1680   -1.7360    0.0000 Cl  0  0  0  0  0  0  0  0  0  0  0  0
    0.8690    0.5140    0.0000 C   0  0  0  0  0  0  0  0  0  0  0  0
  1  2  1  0  0  0  0
  2  3  1  0  0  0  0
  2 22  2  0  0  0  0
  3  4  2  0  0  0  0
  3 18  1  0  0  0  0
  4  5  1  0  0  0  0
  4 19  1  0  0  0  0
  5  6  1  1  0  0  0
  5 15  1  0  0  0  0
  6  7  2  0  0  0  0
  6 14  1  0  0  0  0
  7  8  1  0  0  0  0
  8  9  1  0  0  0  0
  8 12  2  0  0  0  0
  9 10  2  0  0  0  0
  9 11  2  0  0  0  0
 12 13  1  0  0  0  0
 13 14  2  0  0  0  0
 15 16  1  0  0  0  0
 16 17  1  0  0  0  0
 16 18  1  0  0  0  0
 19 20  2  0  0  0  0
 20 21  1  0  0  0  0
 20 22  1  0  0  0  0
M  END
>  <name>
Clc1c2c([C@H](c3cc([SH;so2amide](=O)=O)ccc3)CN(C)C2)cc(Cl)c1

>  <apo>
1

>  <freq>
2

>  <freq0>
0

>  <freq1>
2

>  <freqA>
1.9984947

>  <a_count>
37

$$$$

  MOE2015           2D

 13 12  0  0  0  0  0  0  0  0999 V2000
   14.7170    3.2510    0.0000 O   0  0  0  0  0  0  0  0  0  0  0  0
   13.4180    4.0010    0.0000 C   0  0  0  0  0  0  0  0  0  0  0  0
   12.1190    3.2510    0.0000 C   0  0  0  0  0  0  0  0  0  0  0  0
   10.8200    4.0010    0.0000 C   0  0  0  0  0  0  0  0  0  0  0  0
    9.5210    3.2510    0.0000 C   0  0  0  0  0  0  0  0  0  0  0  0
    8.2220    4.0010    0.0000 C   0  0  0  0  0  0  0  0  0  0  0  0
    6.9230    3.2510    0.0000 C   0  0  0  0  0  0  0  0  0  0  0  0
    5.6240    4.0010    0.0000 C   0  0  0  0  0  0  0  0  0  0  0  0
    4.3250    3.2510    0.0000 C   0  0  0  0  0  0  0  0  0  0  0  0
    3.0260    4.0010    0.0000 C   0  0  0  0  0  0  0  0  0  0  0  0
    1.7270    3.2510    0.0000 C   0  0  0  0  0  0  0  0  0  0  0  0
    0.4280    4.0010    0.0000 C   0  0  0  0  0  0  0  0  0  0  0  0
   -0.8710    3.2510    0.0000 C   0  0  0  0  0  0  0  0  0  0  0  0
  1  2  2  0  0  0  0
  2  3  1  0  0  0  0
  3  4  1  0  0  0  0
  4  5  1  0  0  0  0
  5  6  1  0  0  0  0
  6  7  1  0  0  0  0
  7  8  1  0  0  0  0
  8  9  1  0  0  0  0
  9 10  1  0  0  0  0
 10 11  1  0  0  0  0
 11 12  1  0  0  0  0
 12 13  1  0  0  0  0
M  END
>  <name>
O=[C;ester]CCCCCCCCCCC

>  <apo>
1

>  <freq>
2

>  <freq0>
0

>  <freq1>
2

>  <freqA>
1.9984947

>  <a_count>
37

$$$$

  MOE2015           2D

 17 17  0  0  1  0  0  0  0  0999 V2000
    0.5550    2.0700    0.0000 O   0  0  0  0  0  0  0  0  0  0  0  0
    1.8540    1.3200    0.0000 C   0  0  1  0  0  0  0  0  0  0  0  0
    1.8540   -0.1800    0.0000 C   0  0  2  0  0  0  0  0  0  0  0  0
    0.5550   -0.9300    0.0000 N   0  0  0  0  0  0  0  0  0  0  0  0
   -0.7440   -0.1800    0.0000 C   0  0  0  0  0  0  0  0  0  0  0  0
   -0.7440    1.3200    0.0000 N   0  0  0  0  0  0  0  0  0  0  0  0
   -2.0430   -0.9300    0.0000 N   0  0  0  0  0  0  0  0  0  0  0  0
    3.1530   -0.9300    0.0000 C   0  0  2  0  0  0  0  0  0  0  0  0
    3.1530   -2.4300    0.0000 O   0  0  0  0  0  0  0  0  0  0  0  0
    4.4520   -0.1800    0.0000 C   0  0  1  0  0  0  0  0  0  0  0  0
    5.7510   -0.9300    0.0000 N   0  0  0  0  0  0  0  0  0  0  0  0
    7.0500   -0.1800    0.0000 C   0  0  0  0  0  0  0  0  0  0  0  0
    7.0500    1.3200    0.0000 N   0  0  0  0  0  0  0  0  0  0  0  0
    8.3490   -0.9300    0.0000 N   0  0  0  0  0  0  0  0  0  0  0  0
    4.4520    1.3200    0.0000 C   0  0  0  0  0  0  0  0  0  0  0  0
    3.1530    2.0700    0.0000 C   0  0  1  0  0  0  0  0  0  0  0  0
    3.1530    3.5700    0.0000 O   0  0  0  0  0  0  0  0  0  0  0  0
  2  1  1  6  0  0  0
  2  3  1  0  0  0  0
  2 16  1  0  0  0  0
  3  4  1  1  0  0  0
  3  8  1  0  0  0  0
  4  5  1  0  0  0  0
  5  6  2  0  0  0  0
  5  7  1  0  0  0  0
  8  9  1  1  0  0  0
  8 10  1  0  0  0  0
 10 11  1  6  0  0  0
 10 15  1  0  0  0  0
 11 12  1  0  0  0  0
 12 13  2  0  0  0  0
 12 14  1  0  0  0  0
 15 16  1  0  0  0  0
 16 17  1  6  0  0  0
M  END
>  <name>
O[C@H]1[C@H](NC(=N)N)[C@H](O)[C@@H](NC(=N)N)[C;ether][C@H]1O

>  <apo>
1

>  <freq>
2

>  <freq0>
0

>  <freq1>
2

>  <freqA>
1.9984947

>  <a_count>
35

$$$$

  MOE2015           2D

 20 22  0  0  0  0  0  0  0  0999 V2000
   -1.0810   -0.9350    0.0000 S   0  0  0  0  0  0  0  0  0  0  0  0
   -1.8310   -2.2340    0.0000 O   0  0  0  0  0  0  0  0  0  0  0  0
   -1.8310    0.3640    0.0000 C   0  0  0  0  0  0  0  0  0  0  0  0
   -3.3310    0.3640    0.0000 C   0  0  0  0  0  0  0  0  0  0  0  0
   -4.0810    1.6630    0.0000 C   0  0  0  0  0  0  0  0  0  0  0  0
   -3.3310    2.9620    0.0000 C   0  0  0  0  0  0  0  0  0  0  0  0
   -5.5810    1.6630    0.0000 C   0  0  0  0  0  0  0  0  0  0  0  0
   -6.3310    2.9620    0.0000 O   0  0  0  0  0  0  0  0  0  0  0  0
   -6.3310    0.3640    0.0000 C   0  0  0  0  0  0  0  0  0  0  0  0
   -5.5810   -0.9350    0.0000 C   0  0  0  0  0  0  0  0  0  0  0  0
   -4.0810   -0.9350    0.0000 N   0  0  0  0  0  0  0  0  0  0  0  0
    0.4190   -0.9350    0.0000 C   0  0  0  0  0  0  0  0  0  0  0  0
    1.3010    0.2790    0.0000 N   0  0  0  0  0  0  0  0  0  0  0  0
    2.7280   -0.1850    0.0000 C   0  0  0  0  0  0  0  0  0  0  0  0
    2.7280   -1.6850    0.0000 C   0  0  0  0  0  0  0  0  0  0  0  0
    1.3010   -2.1490    0.0000 N   0  0  0  0  0  0  0  0  0  0  0  0
    4.0270   -2.4350    0.0000 C   0  0  0  0  0  0  0  0  0  0  0  0
    5.3260   -1.6850    0.0000 C   0  0  0  0  0  0  0  0  0  0  0  0
    5.3260   -0.1850    0.0000 C   0  0  0  0  0  0  0  0  0  0  0  0
    4.0270    0.5650    0.0000 C   0  0  0  0  0  0  0  0  0  0  0  0
  1  2  2  0  0  0  0
  1  3  1  0  0  0  0
  1 12  1  0  0  0  0
  3  4  1  0  0  0  0
  4  5  1  0  0  0  0
  4 11  2  0  0  0  0
  5  6  1  0  0  0  0
  5  7  2  0  0  0  0
  7  8  1  0  0  0  0
  7  9  1  0  0  0  0
  9 10  2  0  0  0  0
 10 11  1  0  0  0  0
 12 13  1  0  0  0  0
 12 16  2  0  0  0  0
 13 14  1  0  0  0  0
 14 15  1  0  0  0  0
 14 20  2  0  0  0  0
 15 16  1  0  0  0  0
 15 17  2  0  0  0  0
 17 18  1  0  0  0  0
 18 19  2  0  0  0  0
 19 20  1  0  0  0  0
M  END
>  <name>
[SH0](=O)(Cc1c(C)c([O;ether])ccn1)c1[nH]c2c(n1)cccc2

>  <apo>
1

>  <freq>
2

>  <freq0>
0

>  <freq1>
2

>  <freqA>
1.9984947

>  <a_count>
33

$$$$

  MOE2015           2D

 14 15  0  0  0  0  0  0  0  0999 V2000
    0.7150    2.6670    0.0000 N   0  0  0  0  0  0  0  0  0  0  0  0
    2.0140    1.9170    0.0000 C   0  0  0  0  0  0  0  0  0  0  0  0
    2.0140    0.4170    0.0000 C   0  0  0  0  0  0  0  0  0  0  0  0
    3.3130   -0.3330    0.0000 C   0  0  0  0  0  0  0  0  0  0  0  0
    4.6120    0.4170    0.0000 C   0  0  0  0  0  0  0  0  0  0  0  0
    4.6120    1.9170    0.0000 C   0  0  0  0  0  0  0  0  0  0  0  0
    3.3130    2.6670    0.0000 C   0  0  0  0  0  0  0  0  0  0  0  0
   -0.5840    1.9170    0.0000 C   0  0  0  0  0  0  0  0  0  0  0  0
   -0.5840    3.4170    0.0000 C   0  0  0  0  0  0  0  0  0  0  0  0
   -2.0840    1.9170    0.0000 C   0  0  0  0  0  0  0  0  0  0  0  0
   -2.8340    0.6180    0.0000 C   0  0  0  0  0  0  0  0  0  0  0  0
   -2.0840   -0.6810    0.0000 N   0  0  0  0  0  0  0  0  0  0  0  0
   -0.5840   -0.6810    0.0000 C   0  0  0  0  0  0  0  0  0  0  0  0
    0.1660    0.6180    0.0000 C   0  0  0  0  0  0  0  0  0  0  0  0
  1  2  1  0  0  0  0
  1  8  1  0  0  0  0
  2  3  1  0  0  0  0
  2  7  2  0  0  0  0
  3  4  2  0  0  0  0
  4  5  1  0  0  0  0
  5  6  2  0  0  0  0
  6  7  1  0  0  0  0
  8  9  1  0  0  0  0
  8 10  1  0  0  0  0
  8 14  1  0  0  0  0
 10 11  1  0  0  0  0
 11 12  1  0  0  0  0
 12 13  1  0  0  0  0
 13 14  1  0  0  0  0
M  END
>  <name>
[N;amide](c1ccccc1)C1([C;ether])CC[N;amine]CC1

>  <apo>
3

>  <freq>
2

>  <freq0>
0

>  <freq1>
2

>  <freqA>
1.9984947

>  <a_count>
32

$$$$

  MOE2015           2D

 15 16  0  0  0  0  0  0  0  0999 V2000
   -0.8630    1.0370    0.0000 C   0  0  0  0  0  0  0  0  0  0  0  0
   -0.8630    2.5370    0.0000 C   0  0  0  0  0  0  0  0  0  0  0  0
   -2.1620    3.2870    0.0000 C   0  0  0  0  0  0  0  0  0  0  0  0
   -2.1620    0.2870    0.0000 C   0  0  0  0  0  0  0  0  0  0  0  0
   -2.1620   -1.2130    0.0000 C   0  0  0  0  0  0  0  0  0  0  0  0
   -3.4610   -1.9630    0.0000 C   0  0  0  0  0  0  0  0  0  0  0  0
   -4.7610   -1.2130    0.0000 C   0  0  0  0  0  0  0  0  0  0  0  0
   -4.7610    0.2870    0.0000 C   0  0  0  0  0  0  0  0  0  0  0  0
   -3.4610    1.0370    0.0000 C   0  0  0  0  0  0  0  0  0  0  0  0
    0.4360    0.2870    0.0000 C   0  0  0  0  0  0  0  0  0  0  0  0
    1.7350    1.0370    0.0000 C   0  0  0  0  0  0  0  0  0  0  0  0
    3.0340    0.2870    0.0000 C   0  0  0  0  0  0  0  0  0  0  0  0
    3.0340   -1.2130    0.0000 C   0  0  0  0  0  0  0  0  0  0  0  0
    1.7350   -1.9630    0.0000 C   0  0  0  0  0  0  0  0  0  0  0  0
    0.4360   -1.2130    0.0000 C   0  0  0  0  0  0  0  0  0  0  0  0
  1  2  1  0  0  0  0
  1  4  1  0  0  0  0
  1 10  1  0  0  0  0
  2  3  1  0  0  0  0
  4  5  1  0  0  0  0
  4  9  2  0  0  0  0
  5  6  2  0  0  0  0
  6  7  1  0  0  0  0
  7  8  2  0  0  0  0
  8  9  1  0  0  0  0
 10 11  1  0  0  0  0
 10 15  2  0  0  0  0
 11 12  2  0  0  0  0
 12 13  1  0  0  0  0
 13 14  2  0  0  0  0
 14 15  1  0  0  0  0
M  END
>  <name>
C(C[C;amine])(c1ccccc1)c1ccccc1

>  <apo>
1

>  <freq>
2

>  <freq0>
0

>  <freq1>
2

>  <freqA>
1.9984947

>  <a_count>
31

$$$$

  MOE2015           2D

 17 19  0  0  0  0  0  0  0  0999 V2000
    0.4120   -2.6080    0.0000 Cl  0  0  0  0  0  0  0  0  0  0  0  0
    1.7110   -1.8580    0.0000 C   0  0  0  0  0  0  0  0  0  0  0  0
    1.7110   -0.3580    0.0000 C   0  0  0  0  0  0  0  0  0  0  0  0
    3.0100    0.3920    0.0000 C   0  0  0  0  0  0  0  0  0  0  0  0
    3.0100    1.8920    0.0000 N   0  0  0  0  0  0  0  0  0  0  0  0
    4.3090    2.6420    0.0000 C   0  0  0  0  0  0  0  0  0  0  0  0
    5.6080    1.8920    0.0000 C   0  0  0  0  0  0  0  0  0  0  0  0
    5.6080    0.3920    0.0000 C   0  0  0  0  0  0  0  0  0  0  0  0
    6.9070   -0.3580    0.0000 N   0  0  0  0  0  0  0  0  0  0  0  0
    8.2070    0.3920    0.0000 C   0  0  0  0  0  0  0  0  0  0  0  0
    9.5060   -0.3580    0.0000 C   0  0  0  0  0  0  0  0  0  0  0  0
    9.5060   -1.8580    0.0000 N   0  0  0  0  0  0  0  0  0  0  0  0
    8.2070   -2.6080    0.0000 C   0  0  0  0  0  0  0  0  0  0  0  0
    6.9070   -1.8580    0.0000 C   0  0  0  0  0  0  0  0  0  0  0  0
    4.3090   -0.3580    0.0000 C   0  0  0  0  0  0  0  0  0  0  0  0
    4.3090   -1.8580    0.0000 C   0  0  0  0  0  0  0  0  0  0  0  0
    3.0100   -2.6080    0.0000 C   0  0  0  0  0  0  0  0  0  0  0  0
  1  2  1  0  0  0  0
  2  3  1  0  0  0  0
  2 17  2  0  0  0  0
  3  4  2  0  0  0  0
  4  5  1  0  0  0  0
  4 15  1  0  0  0  0
  5  6  2  0  0  0  0
  6  7  1  0  0  0  0
  7  8  2  0  0  0  0
  8  9  1  0  0  0  0
  8 15  1  0  0  0  0
  9 10  1  0  0  0  0
  9 14  1  0  0  0  0
 10 11  1  0  0  0  0
 11 12  1  0  0  0  0
 12 13  1  0  0  0  0
 13 14  1  0  0  0  0
 15 16  2  0  0  0  0
 16 17  1  0  0  0  0
M  END
>  <name>
Clc1cc2nccc(N3CC[N;amine]CC3)c2cc1

>  <apo>
1

>  <freq>
2

>  <freq0>
0

>  <freq1>
2

>  <freqA>
1.9984947

>  <a_count>
31

$$$$

  MOE2015           2D

 18 19  0  0  1  0  0  0  0  0999 V2000
   -0.4390    0.4390    0.0000 F   0  0  0  0  0  0  0  0  0  0  0  0
   -0.4390    1.9390    0.0000 C   0  0  0  0  0  0  0  0  0  0  0  0
    0.8600    2.6890    0.0000 C   0  0  0  0  0  0  0  0  0  0  0  0
    2.1590    1.9390    0.0000 C   0  0  2  0  0  0  0  0  0  0  0  0
    2.9090    3.2380    0.0000 O   0  0  0  0  0  0  0  0  0  0  0  0
    3.4580    1.1890    0.0000 C   0  0  1  0  0  0  0  0  0  0  0  0
    3.4580   -0.3110    0.0000 C   0  0  0  0  0  0  0  0  0  0  0  0
    4.7570    1.9390    0.0000 C   0  0  0  0  0  0  0  0  0  0  0  0
    6.1270    1.3290    0.0000 S   0  0  0  0  0  0  0  0  0  0  0  0
    7.1310    2.4440    0.0000 C   0  0  0  0  0  0  0  0  0  0  0  0
    6.3810    3.7430    0.0000 C   0  0  0  0  0  0  0  0  0  0  0  0
    4.9140    3.4310    0.0000 N   0  0  0  0  0  0  0  0  0  0  0  0
    1.4090    0.6400    0.0000 C   0  0  0  0  0  0  0  0  0  0  0  0
    0.8600    4.1890    0.0000 C   0  0  0  0  0  0  0  0  0  0  0  0
   -0.4390    4.9390    0.0000 C   0  0  0  0  0  0  0  0  0  0  0  0
   -0.4390    6.4390    0.0000 F   0  0  0  0  0  0  0  0  0  0  0  0
   -1.7380    4.1890    0.0000 C   0  0  0  0  0  0  0  0  0  0  0  0
   -1.7380    2.6890    0.0000 C   0  0  0  0  0  0  0  0  0  0  0  0
  1  2  1  0  0  0  0
  2  3  1  0  0  0  0
  2 18  2  0  0  0  0
  4  3  1  6  0  0  0
  3 14  2  0  0  0  0
  4  5  1  0  0  0  0
  4  6  1  0  0  0  0
  4 13  1  1  0  0  0
  6  7  1  6  0  0  0
  6  8  1  0  0  0  0
  8  9  1  0  0  0  0
  8 12  2  0  0  0  0
  9 10  1  0  0  0  0
 10 11  2  0  0  0  0
 11 12  1  0  0  0  0
 14 15  1  0  0  0  0
 15 16  1  0  0  0  0
 15 17  2  0  0  0  0
 17 18  1  0  0  0  0
M  END
>  <name>
Fc1c([C@](O)([C@@H](C)c2sc[c;biphenyl]n2)[C;NaroC])cc(F)cc1

>  <apo>
2

>  <freq>
2

>  <freq0>
0

>  <freq1>
2

>  <freqA>
1.9984947

>  <a_count>
31

$$$$

  MOE2015           2D

 11 10  0  0  0  0  0  0  0  0999 V2000
   12.2910   -3.2930    0.0000 O   0  0  0  0  0  0  0  0  0  0  0  0
   10.9920   -2.5430    0.0000 C   0  0  0  0  0  0  0  0  0  0  0  0
    9.6930   -3.2930    0.0000 C   0  0  0  0  0  0  0  0  0  0  0  0
    8.3940   -2.5430    0.0000 C   0  0  0  0  0  0  0  0  0  0  0  0
    7.0940   -3.2930    0.0000 C   0  0  0  0  0  0  0  0  0  0  0  0
    5.7950   -2.5430    0.0000 C   0  0  0  0  0  0  0  0  0  0  0  0
    4.4960   -3.2930    0.0000 C   0  0  0  0  0  0  0  0  0  0  0  0
    3.1970   -2.5430    0.0000 C   0  0  0  0  0  0  0  0  0  0  0  0
    1.8980   -3.2930    0.0000 C   0  0  0  0  0  0  0  0  0  0  0  0
    0.5990   -2.5430    0.0000 C   0  0  0  0  0  0  0  0  0  0  0  0
   -0.7000   -3.2930    0.0000 C   0  0  0  0  0  0  0  0  0  0  0  0
  1  2  2  0  0  0  0
  2  3  1  0  0  0  0
  3  4  1  0  0  0  0
  4  5  1  0  0  0  0
  5  6  1  0  0  0  0
  6  7  1  0  0  0  0
  7  8  1  0  0  0  0
  8  9  1  0  0  0  0
  9 10  1  0  0  0  0
 10 11  1  0  0  0  0
M  END
>  <name>
O=[C;amide]CCCCCCCCC

>  <apo>
1

>  <freq>
2

>  <freq0>
0

>  <freq1>
2

>  <freqA>
1.9984947

>  <a_count>
31

$$$$

  MOE2015           2D

 20 23  0  0  1  0  0  0  0  0999 V2000
   11.6720   -3.1790    0.0000 O   0  0  0  0  0  0  0  0  0  0  0  0
   10.3790   -2.4180    0.0000 C   0  0  0  0  0  0  0  0  0  0  0  0
    9.0740   -3.1580    0.0000 C   0  0  0  0  0  0  0  0  0  0  0  0
    9.0620   -4.6570    0.0000 C   0  0  0  0  0  0  0  0  0  0  0  0
    7.7570   -5.3970    0.0000 N   0  0  0  0  0  0  0  0  0  0  0  0
    6.4640   -4.6360    0.0000 C   0  0  0  0  0  0  0  0  0  0  0  0
    6.4760   -3.1360    0.0000 C   0  0  0  0  0  0  0  0  0  0  0  0
    7.7810   -2.3970    0.0000 C   0  0  0  0  0  0  0  0  0  0  0  0
    5.0530   -2.6610    0.0000 C   0  0  0  0  0  0  0  0  0  0  0  0
    4.1620   -3.8670    0.0000 C   0  0  1  0  0  0  0  0  0  0  0  0
    3.5390   -2.5030    0.0000 C   0  0  0  0  0  0  0  0  0  0  0  0
    4.2770   -1.1970    0.0000 O   0  0  0  0  0  0  0  0  0  0  0  0
    2.0490   -2.6730    0.0000 N   0  0  0  0  0  0  0  0  0  0  0  0
    1.7510   -4.1430    0.0000 C   0  0  0  0  0  0  0  0  0  0  0  0
    0.4590   -4.9050    0.0000 N   0  0  0  0  0  0  0  0  0  0  0  0
    0.4720   -6.4050    0.0000 C   0  0  0  0  0  0  0  0  0  0  0  0
    1.7780   -7.1430    0.0000 C   0  0  0  0  0  0  0  0  0  0  0  0
    3.0700   -6.3810    0.0000 C   0  0  0  0  0  0  0  0  0  0  0  0
    3.0560   -4.8810    0.0000 C   0  0  0  0  0  0  0  0  0  0  0  0
    5.0340   -5.0880    0.0000 C   0  0  0  0  0  0  0  0  0  0  0  0
  1  2  2  0  0  0  0
  2  3  1  0  0  0  0
  3  4  1  0  0  0  0
  3  8  2  0  0  0  0
  4  5  2  0  0  0  0
  5  6  1  0  0  0  0
  6  7  2  0  0  0  0
  6 20  1  0  0  0  0
  7  8  1  0  0  0  0
  7  9  1  0  0  0  0
 10  9  1  6  0  0  0
 10 11  1  0  0  0  0
 10 19  1  0  0  0  0
 10 20  1  1  0  0  0
 11 12  2  0  0  0  0
 11 13  1  0  0  0  0
 13 14  1  0  0  0  0
 14 15  2  0  0  0  0
 14 19  1  0  0  0  0
 15 16  1  0  0  0  0
 16 17  2  0  0  0  0
 17 18  1  0  0  0  0
 18 19  2  0  0  0  0
M  END
>  <name>
O=[C;amide]c1cnc2c(c1)C[C@]1(C(=O)Nc3ncccc13)C2

>  <apo>
1

>  <freq>
2

>  <freq0>
0

>  <freq1>
2

>  <freqA>
1.9984947

>  <a_count>
31

$$$$

  MOE2015           2D

 15 16  0  0  1  0  0  0  0  0999 V2000
    2.9600   -1.7350    0.0000 S   0  0  0  0  0  0  0  0  0  0  0  0
    2.2500   -3.0560    0.0000 O   0  0  0  0  0  0  0  0  0  0  0  0
    3.6700   -0.4140    0.0000 O   0  0  0  0  0  0  0  0  0  0  0  0
    4.2820   -2.4450    0.0000 O   0  0  0  0  0  0  0  0  0  0  0  0
    1.6390   -1.0250    0.0000 C   0  0  0  0  0  0  0  0  0  0  0  0
    0.3630   -1.8150    0.0000 C   0  0  3  0  0  0  0  0  0  0  0  0
    0.2370   -0.4380    0.0000 C   0  0  0  0  0  0  0  0  0  0  0  0
   -0.7200    0.7170    0.0000 C   0  0  0  0  0  0  0  0  0  0  0  0
    1.3180    0.6020    0.0000 C   0  0  0  0  0  0  0  0  0  0  0  0
   -0.1430   -2.9660    0.0000 C   0  0  3  0  0  0  0  0  0  0  0  0
   -1.4880   -3.4870    0.0000 C   0  0  0  0  0  0  0  0  0  0  0  0
   -0.7740   -2.4540    0.0000 C   0  0  0  0  0  0  0  0  0  0  0  0
   -1.7850   -1.3470    0.0000 O   0  0  0  0  0  0  0  0  0  0  0  0
    1.0070   -3.7090    0.0000 C   0  0  0  0  0  0  0  0  0  0  0  0
    1.6040   -2.7170    0.0000 C   0  0  0  0  0  0  0  0  0  0  0  0
  1  2  2  0  0  0  0
  1  3  2  0  0  0  0
  1  4  1  0  0  0  0
  1  5  1  0  0  0  0
  5  6  1  0  0  0  0
  6  7  1  0  0  0  0
  6 12  1  0  0  0  0
  6 15  1  0  0  0  0
  7  8  1  0  0  0  0
  7  9  1  0  0  0  0
  7 10  1  0  0  0  0
 10 11  1  0  0  0  0
 10 14  1  0  0  0  0
 11 12  1  0  0  0  0
 12 13  2  0  0  0  0
 14 15  1  0  0  0  0
M  END
>  <name>
S(=O)(=O)(O)CC12C(C)(C)C([C;olefin]C1=O)CC2

>  <apo>
1

>  <freq>
2

>  <freq0>
0

>  <freq1>
2

>  <freqA>
1.9984947

>  <a_count>
31

$$$$

  MOE2015           2D

 16 17  0  0  0  0  0  0  0  0999 V2000
   -4.8480    2.6290    0.0000 O   0  0  0  0  0  0  0  0  0  0  0  0
   -5.5980    1.3300    0.0000 C   0  0  0  0  0  0  0  0  0  0  0  0
   -3.3480    2.6290    0.0000 C   0  0  0  0  0  0  0  0  0  0  0  0
   -2.5980    3.9280    0.0000 C   0  0  0  0  0  0  0  0  0  0  0  0
   -3.3480    5.2270    0.0000 C   0  0  0  0  0  0  0  0  0  0  0  0
   -2.5980    6.5260    0.0000 C   0  0  0  0  0  0  0  0  0  0  0  0
   -1.0980    3.9280    0.0000 C   0  0  0  0  0  0  0  0  0  0  0  0
   -0.3480    5.2270    0.0000 O   0  0  0  0  0  0  0  0  0  0  0  0
   -0.3480    2.6290    0.0000 C   0  0  0  0  0  0  0  0  0  0  0  0
    1.1190    2.3170    0.0000 C   0  0  0  0  0  0  0  0  0  0  0  0
    2.2340    3.3210    0.0000 O   0  0  0  0  0  0  0  0  0  0  0  0
    1.2760    0.8250    0.0000 O   0  0  0  0  0  0  0  0  0  0  0  0
   -0.0940    0.2150    0.0000 C   0  0  0  0  0  0  0  0  0  0  0  0
   -1.0980    1.3300    0.0000 C   0  0  0  0  0  0  0  0  0  0  0  0
   -2.5980    1.3300    0.0000 C   0  0  0  0  0  0  0  0  0  0  0  0
   -3.3480    0.0310    0.0000 C   0  0  0  0  0  0  0  0  0  0  0  0
  1  2  1  0  0  0  0
  1  3  1  0  0  0  0
  3  4  1  0  0  0  0
  3 15  2  0  0  0  0
  4  5  1  0  0  0  0
  4  7  2  0  0  0  0
  5  6  1  0  0  0  0
  7  8  1  0  0  0  0
  7  9  1  0  0  0  0
  9 10  1  0  0  0  0
  9 14  2  0  0  0  0
 10 11  2  0  0  0  0
 10 12  1  0  0  0  0
 12 13  1  0  0  0  0
 13 14  1  0  0  0  0
 14 15  1  0  0  0  0
 15 16  1  0  0  0  0
M  END
>  <name>
O(C)c1c(C[C;olefin])c(O)c2C(=O)OCc2c1C

>  <apo>
1

>  <freq>
2

>  <freq0>
0

>  <freq1>
2

>  <freqA>
1.9984947

>  <a_count>
30

$$$$

  MOE2015           2D

  9  8  0  0  0  0  0  0  0  0999 V2000
    0.1670   -0.0450    0.0000 C   0  0  0  0  0  0  0  0  0  0  0  0
    1.4660    0.7050    0.0000 C   0  0  0  0  0  0  0  0  0  0  0  0
    2.7650   -0.0450    0.0000 C   0  0  0  0  0  0  0  0  0  0  0  0
    4.0640    0.7050    0.0000 C   0  0  0  0  0  0  0  0  0  0  0  0
    5.3630   -0.0450    0.0000 C   0  0  0  0  0  0  0  0  0  0  0  0
   -1.1320    0.7050    0.0000 C   0  0  0  0  0  0  0  0  0  0  0  0
   -2.4310   -0.0450    0.0000 C   0  0  0  0  0  0  0  0  0  0  0  0
   -3.7300    0.7050    0.0000 C   0  0  0  0  0  0  0  0  0  0  0  0
   -5.0290   -0.0450    0.0000 C   0  0  0  0  0  0  0  0  0  0  0  0
  1  2  1  0  0  0  0
  1  6  1  0  0  0  0
  2  3  1  0  0  0  0
  3  4  1  0  0  0  0
  4  5  1  0  0  0  0
  6  7  1  0  0  0  0
  7  8  1  0  0  0  0
  8  9  1  0  0  0  0
M  END
>  <name>
C(CCC[C;olefin])CCCC

>  <apo>
1

>  <freq>
2

>  <freq0>
0

>  <freq1>
2

>  <freqA>
1.9984947

>  <a_count>
29

$$$$

  MOE2015           2D

 19 19  0  0  0  0  0  0  0  0999 V2000
    0.7490    0.2010    0.0000 F   0  0  0  0  0  0  0  0  0  0  0  0
   -0.5500   -0.5490    0.0000 C   0  0  0  0  0  0  0  0  0  0  0  0
   -1.8490   -1.2990    0.0000 F   0  0  0  0  0  0  0  0  0  0  0  0
   -1.3000    0.7500    0.0000 F   0  0  0  0  0  0  0  0  0  0  0  0
    0.2000   -1.8480    0.0000 C   0  0  0  0  0  0  0  0  0  0  0  0
   -0.5500   -3.1470    0.0000 C   0  0  0  0  0  0  0  0  0  0  0  0
    0.2000   -4.4460    0.0000 C   0  0  0  0  0  0  0  0  0  0  0  0
   -0.5500   -5.7450    0.0000 C   0  0  0  0  0  0  0  0  0  0  0  0
   -1.8490   -4.9950    0.0000 F   0  0  0  0  0  0  0  0  0  0  0  0
   -1.3000   -7.0440    0.0000 F   0  0  0  0  0  0  0  0  0  0  0  0
    0.7490   -6.4950    0.0000 F   0  0  0  0  0  0  0  0  0  0  0  0
    1.7000   -4.4460    0.0000 C   0  0  0  0  0  0  0  0  0  0  0  0
    2.4500   -3.1470    0.0000 C   0  0  0  0  0  0  0  0  0  0  0  0
    3.9500   -3.1470    0.0000 C   0  0  0  0  0  0  0  0  0  0  0  0
    5.4500   -3.1470    0.0000 C   0  0  0  0  0  0  0  0  0  0  0  0
    6.2000   -1.8480    0.0000 O   0  0  0  0  0  0  0  0  0  0  0  0
    3.9500   -4.6470    0.0000 C   0  0  0  0  0  0  0  0  0  0  0  0
    3.9500   -1.6470    0.0000 C   0  0  0  0  0  0  0  0  0  0  0  0
    1.7000   -1.8480    0.0000 C   0  0  0  0  0  0  0  0  0  0  0  0
  1  2  1  0  0  0  0
  2  3  1  0  0  0  0
  2  4  1  0  0  0  0
  2  5  1  0  0  0  0
  5  6  1  0  0  0  0
  5 19  2  0  0  0  0
  6  7  2  0  0  0  0
  7  8  1  0  0  0  0
  7 12  1  0  0  0  0
  8  9  1  0  0  0  0
  8 10  1  0  0  0  0
  8 11  1  0  0  0  0
 12 13  2  0  0  0  0
 13 14  1  0  0  0  0
 13 19  1  0  0  0  0
 14 15  1  0  0  0  0
 14 17  1  0  0  0  0
 14 18  1  0  0  0  0
 15 16  2  0  0  0  0
M  END
>  <name>
FC(F)(F)c1cc(C(F)(F)F)cc(C([C;amide]=O)(C)C)c1

>  <apo>
1

>  <freq>
2

>  <freq0>
0

>  <freq1>
2

>  <freqA>
1.9984947

>  <a_count>
29

$$$$

  MOE2015           2D

 19 19  0  0  1  0  0  0  0  0999 V2000
    3.0790   -1.7780    0.0000 I   0  0  0  0  0  0  0  0  0  0  0  0
    2.3290   -0.4790    0.0000 C   0  0  0  0  0  0  0  0  0  0  0  0
    3.0790    0.8200    0.0000 C   0  0  0  0  0  0  0  0  0  0  0  0
    4.5790    0.8200    0.0000 N   0  0  0  0  0  0  0  0  0  0  0  0
    5.3290    2.1190    0.0000 C   0  0  0  0  0  0  0  0  0  0  0  0
    6.8290    2.1190    0.0000 C   0  0  3  0  0  0  0  0  0  0  0  0
    7.5790    0.8200    0.0000 O   0  0  0  0  0  0  0  0  0  0  0  0
    7.5790    3.4190    0.0000 C   0  0  0  0  0  0  0  0  0  0  0  0
    9.0790    3.4190    0.0000 O   0  0  0  0  0  0  0  0  0  0  0  0
    2.3290    2.1190    0.0000 C   0  0  0  0  0  0  0  0  0  0  0  0
    3.0790    3.4190    0.0000 I   0  0  0  0  0  0  0  0  0  0  0  0
    0.8290    2.1190    0.0000 C   0  0  0  0  0  0  0  0  0  0  0  0
    0.0790    3.4190    0.0000 C   0  0  0  0  0  0  0  0  0  0  0  0
   -1.4210    3.4190    0.0000 O   0  0  0  0  0  0  0  0  0  0  0  0
    0.0790    0.8200    0.0000 C   0  0  0  0  0  0  0  0  0  0  0  0
   -1.4210    0.8200    0.0000 I   0  0  0  0  0  0  0  0  0  0  0  0
    0.8290   -0.4790    0.0000 C   0  0  0  0  0  0  0  0  0  0  0  0
    0.0790   -1.7780    0.0000 C   0  0  0  0  0  0  0  0  0  0  0  0
   -1.4210   -1.7780    0.0000 O   0  0  0  0  0  0  0  0  0  0  0  0
  1  2  1  0  0  0  0
  2  3  1  0  0  0  0
  2 17  2  0  0  0  0
  3  4  1  0  0  0  0
  3 10  2  0  0  0  0
  4  5  1  0  0  0  0
  5  6  1  0  0  0  0
  6  7  1  0  0  0  0
  6  8  1  0  0  0  0
  8  9  1  0  0  0  0
 10 11  1  0  0  0  0
 10 12  1  0  0  0  0
 12 13  1  0  0  0  0
 12 15  2  0  0  0  0
 13 14  2  0  0  0  0
 15 16  1  0  0  0  0
 15 17  1  0  0  0  0
 17 18  1  0  0  0  0
 18 19  2  0  0  0  0
M  END
>  <name>
Ic1c([N;amide]CC(O)CO)c(I)c([C;amide]=O)c(I)c1[C;amide]=O

>  <apo>
3

>  <freq>
2

>  <freq0>
0

>  <freq1>
2

>  <freqA>
1.9984947

>  <a_count>
29

$$$$

  MOE2015           2D

 12 13  0  0  1  0  0  0  0  0999 V2000
    8.0010   -3.2690    0.0000 O   0  0  0  0  0  0  0  0  0  0  0  0
    6.7020   -4.0190    0.0000 C   0  0  0  0  0  0  0  0  0  0  0  0
    5.4030   -3.2690    0.0000 C   0  0  1  0  0  0  0  0  0  0  0  0
    5.4030   -1.7690    0.0000 N   0  0  0  0  0  0  0  0  0  0  0  0
    4.1040   -1.0190    0.0000 C   0  0  0  0  0  0  0  0  0  0  0  0
    2.8050   -1.7690    0.0000 C   0  0  2  0  0  0  0  0  0  0  0  0
    2.8050   -3.2690    0.0000 C   0  0  2  0  0  0  0  0  0  0  0  0
    4.1040   -4.0190    0.0000 C   0  0  0  0  0  0  0  0  0  0  0  0
    1.5060   -4.0190    0.0000 C   0  0  0  0  0  0  0  0  0  0  0  0
    0.2070   -3.2690    0.0000 C   0  0  0  0  0  0  0  0  0  0  0  0
    0.2070   -1.7690    0.0000 C   0  0  0  0  0  0  0  0  0  0  0  0
    1.5060   -1.0190    0.0000 C   0  0  0  0  0  0  0  0  0  0  0  0
  1  2  2  0  0  0  0
  3  2  1  6  0  0  0
  3  4  1  0  0  0  0
  3  8  1  0  0  0  0
  4  5  1  0  0  0  0
  6  5  1  6  0  0  0
  6  7  1  0  0  0  0
  6 12  1  0  0  0  0
  7  8  1  0  0  0  0
  7  9  1  6  0  0  0
  9 10  1  0  0  0  0
 10 11  1  0  0  0  0
 11 12  1  0  0  0  0
M  END
>  <name>
O=[C;amide][C@H]1[N;amine]C[C@@H]2[C@H](C1)CCCC2

>  <apo>
2

>  <freq>
2

>  <freq0>
0

>  <freq1>
2

>  <freqA>
1.9984947

>  <a_count>
29

$$$$

  MOE2015           2D

 14 15  0  0  0  0  0  0  0  0999 V2000
    1.8960    3.2840    0.0000 O   0  0  0  0  0  0  0  0  0  0  0  0
    2.6460    1.9850    0.0000 C   0  0  0  0  0  0  0  0  0  0  0  0
    1.8960    0.6860    0.0000 C   0  0  0  0  0  0  0  0  0  0  0  0
    3.3960    0.6860    0.0000 C   0  0  0  0  0  0  0  0  0  0  0  0
    4.1460    1.9850    0.0000 C   0  0  0  0  0  0  0  0  0  0  0  0
    5.6460    1.9850    0.0000 C   0  0  0  0  0  0  0  0  0  0  0  0
    6.3960    0.6860    0.0000 C   0  0  0  0  0  0  0  0  0  0  0  0
    5.6460   -0.6130    0.0000 C   0  0  0  0  0  0  0  0  0  0  0  0
    4.1460   -0.6130    0.0000 C   0  0  0  0  0  0  0  0  0  0  0  0
    0.5970    1.4360    0.0000 C   0  0  0  0  0  0  0  0  0  0  0  0
   -0.7020    0.6860    0.0000 C   0  0  0  0  0  0  0  0  0  0  0  0
   -0.7020   -0.8140    0.0000 N   0  0  0  0  0  0  0  0  0  0  0  0
    0.5970   -1.5640    0.0000 C   0  0  0  0  0  0  0  0  0  0  0  0
    1.8960   -0.8140    0.0000 C   0  0  0  0  0  0  0  0  0  0  0  0
  1  2  2  0  0  0  0
  2  3  1  0  0  0  0
  3  4  1  0  0  0  0
  3 10  1  0  0  0  0
  3 14  1  0  0  0  0
  4  5  1  0  0  0  0
  4  9  2  0  0  0  0
  5  6  2  0  0  0  0
  6  7  1  0  0  0  0
  7  8  2  0  0  0  0
  8  9  1  0  0  0  0
 10 11  1  0  0  0  0
 11 12  1  0  0  0  0
 12 13  1  0  0  0  0
 13 14  1  0  0  0  0
M  END
>  <name>
O=[C;ester]C1(c2ccccc2)CC[N;amine]CC1

>  <apo>
2

>  <freq>
2

>  <freq0>
0

>  <freq1>
2

>  <freqA>
1.9984947

>  <a_count>
29

$$$$

  MOE2015           2D

 12 12  0  0  0  0  0  0  0  0999 V2000
    5.8440    0.8160    0.0000 N   0  0  0  0  0  0  0  0  0  0  0  0
    4.5450    1.5660    0.0000 C   0  0  0  0  0  0  0  0  0  0  0  0
    3.2460    2.3160    0.0000 C   0  0  0  0  0  0  0  0  0  0  0  0
    1.9460    1.5660    0.0000 C   0  0  0  0  0  0  0  0  0  0  0  0
    0.6470    2.3160    0.0000 C   0  0  0  0  0  0  0  0  0  0  0  0
   -0.6520    1.5660    0.0000 C   0  0  0  0  0  0  0  0  0  0  0  0
   -0.6520    0.0660    0.0000 C   0  0  0  0  0  0  0  0  0  0  0  0
    0.6470   -0.6840    0.0000 C   0  0  0  0  0  0  0  0  0  0  0  0
    1.9460    0.0660    0.0000 C   0  0  0  0  0  0  0  0  0  0  0  0
    5.2950    2.8650    0.0000 C   0  0  0  0  0  0  0  0  0  0  0  0
    3.7950    0.2670    0.0000 C   0  0  0  0  0  0  0  0  0  0  0  0
    7.1430    1.5660    0.0000 C   0  0  0  0  0  0  0  0  0  0  0  0
  1  2  1  0  0  0  0
  1 12  1  0  0  0  0
  2  3  1  0  0  0  0
  2 10  1  0  0  0  0
  2 11  1  0  0  0  0
  3  4  1  0  0  0  0
  4  5  1  0  0  0  0
  4  9  2  0  0  0  0
  5  6  2  0  0  0  0
  6  7  1  0  0  0  0
  7  8  2  0  0  0  0
  8  9  1  0  0  0  0
M  END
>  <name>
[N;amide](C(Cc1ccccc1)(C)C)C

>  <apo>
1

>  <freq>
2

>  <freq0>
0

>  <freq1>
2

>  <freqA>
1.9984947

>  <a_count>
29

$$$$

  MOE2015           2D

 11 12  0  0  1  0  0  0  0  0999 V2000
    6.9550   -0.5180    0.0000 O   0  0  0  0  0  0  0  0  0  0  0  0
    5.6490   -1.2550    0.0000 C   0  0  0  0  0  0  0  0  0  0  0  0
    4.4230   -1.4510    0.0000 C   0  0  0  0  0  0  0  0  0  0  0  0
    2.8790   -0.5390    0.0000 C   0  0  3  0  0  0  0  0  0  0  0  0
    1.9030   -1.7010    0.0000 N   0  3  0  0  0  0  0  0  0  0  0  0
    1.3050   -3.0770    0.0000 C   0  0  0  0  0  0  0  0  0  0  0  0
    0.4360   -1.3870    0.0000 C   0  0  0  0  0  0  0  0  0  0  0  0
    3.2060   -1.5270    0.0000 C   0  0  3  0  0  0  0  0  0  0  0  0
    4.6620   -2.4190    0.0000 C   0  0  0  0  0  0  0  0  0  0  0  0
    3.3600   -0.0960    0.0000 C   0  0  0  0  0  0  0  0  0  0  0  0
    2.7290    1.0800    0.0000 C   0  0  0  0  0  0  0  0  0  0  0  0
  1  2  1  0  0  0  0
  2  3  1  0  0  0  0
  2  9  1  0  0  0  0
  3  4  1  0  0  0  0
  4  5  1  0  0  0  0
  4 11  1  0  0  0  0
  5  6  1  0  0  0  0
  5  7  1  0  0  0  0
  5  8  1  0  0  0  0
  8  9  1  0  0  0  0
  8 10  1  0  0  0  0
 10 11  1  0  0  0  0
M  CHG  1   5   1
M  END
>  <name>
[O;ester]C1CC2[N+](C)(C)C(C1)CC2

>  <apo>
1

>  <freq>
2

>  <freq0>
0

>  <freq1>
2

>  <freqA>
1.9984947

>  <a_count>
29

$$$$

  MOE2015           2D

 14 15  0  0  0  0  0  0  0  0999 V2000
    9.5780    0.0000    0.0000 Cl  0  0  0  0  0  0  0  0  0  0  0  0
    8.0780    0.0000    0.0000 C   0  0  0  0  0  0  0  0  0  0  0  0
    7.3280    1.2990    0.0000 C   0  0  0  0  0  0  0  0  0  0  0  0
    5.8280    1.2990    0.0000 C   0  0  0  0  0  0  0  0  0  0  0  0
    5.0780    0.0000    0.0000 C   0  0  0  0  0  0  0  0  0  0  0  0
    3.5780    0.0000    0.0000 C   0  0  0  0  0  0  0  0  0  0  0  0
    4.3280   -1.2990    0.0000 O   0  0  0  0  0  0  0  0  0  0  0  0
    2.2790   -0.7500    0.0000 C   0  0  0  0  0  0  0  0  0  0  0  0
    0.9800    0.0000    0.0000 C   0  0  0  0  0  0  0  0  0  0  0  0
    0.9800    1.5000    0.0000 N   0  0  0  0  0  0  0  0  0  0  0  0
    2.2790    2.2500    0.0000 C   0  0  0  0  0  0  0  0  0  0  0  0
    3.5780    1.5000    0.0000 C   0  0  0  0  0  0  0  0  0  0  0  0
    5.8280   -1.2990    0.0000 C   0  0  0  0  0  0  0  0  0  0  0  0
    7.3280   -1.2990    0.0000 C   0  0  0  0  0  0  0  0  0  0  0  0
  1  2  1  0  0  0  0
  2  3  1  0  0  0  0
  2 14  2  0  0  0  0
  3  4  2  0  0  0  0
  4  5  1  0  0  0  0
  5  6  1  0  0  0  0
  5 13  2  0  0  0  0
  6  7  1  0  0  0  0
  6  8  1  0  0  0  0
  6 12  1  0  0  0  0
  8  9  1  0  0  0  0
  9 10  1  0  0  0  0
 10 11  1  0  0  0  0
 11 12  1  0  0  0  0
 13 14  1  0  0  0  0
M  END
>  <name>
Clc1ccc(C2(O)CC[N;amine]CC2)cc1

>  <apo>
1

>  <freq>
2

>  <freq0>
0

>  <freq1>
2

>  <freqA>
1.9984947

>  <a_count>
28

$$$$

  MOE2015           2D

 15 17  0  0  0  0  0  0  0  0999 V2000
    2.8240   -0.7730    0.0000 N   0  0  0  0  0  0  0  0  0  0  0  0
    1.5320   -0.0110    0.0000 C   0  0  0  0  0  0  0  0  0  0  0  0
    1.3890    1.4830    0.0000 N   0  0  0  0  0  0  0  0  0  0  0  0
   -0.0750    1.8080    0.0000 S   0  0  0  0  0  0  0  0  0  0  0  0
   -0.8370    0.5170    0.0000 C   0  0  0  0  0  0  0  0  0  0  0  0
    0.1560   -0.6080    0.0000 C   0  0  0  0  0  0  0  0  0  0  0  0
   -0.3210   -2.0300    0.0000 C   0  0  0  0  0  0  0  0  0  0  0  0
   -1.7910   -2.3280    0.0000 C   0  0  0  0  0  0  0  0  0  0  0  0
   -2.7840   -1.2030    0.0000 C   0  0  0  0  0  0  0  0  0  0  0  0
   -2.3070    0.2190    0.0000 C   0  0  0  0  0  0  0  0  0  0  0  0
    4.1300   -0.0350    0.0000 C   0  0  0  0  0  0  0  0  0  0  0  0
    5.4220   -0.7980    0.0000 C   0  0  0  0  0  0  0  0  0  0  0  0
    5.4070   -2.2970    0.0000 N   0  0  0  0  0  0  0  0  0  0  0  0
    4.1010   -3.0350    0.0000 C   0  0  0  0  0  0  0  0  0  0  0  0
    2.8100   -2.2730    0.0000 C   0  0  0  0  0  0  0  0  0  0  0  0
  1  2  1  0  0  0  0
  1 11  1  0  0  0  0
  1 15  1  0  0  0  0
  2  3  2  0  0  0  0
  2  6  1  0  0  0  0
  3  4  1  0  0  0  0
  4  5  1  0  0  0  0
  5  6  1  0  0  0  0
  5 10  2  0  0  0  0
  6  7  2  0  0  0  0
  7  8  1  0  0  0  0
  8  9  2  0  0  0  0
  9 10  1  0  0  0  0
 11 12  1  0  0  0  0
 12 13  1  0  0  0  0
 13 14  1  0  0  0  0
 14 15  1  0  0  0  0
M  END
>  <name>
N1(c2nsc3c2cccc3)CC[N;amine]CC1

>  <apo>
1

>  <freq>
2

>  <freq0>
0

>  <freq1>
2

>  <freqA>
1.9984947

>  <a_count>
28

$$$$

  MOE2015           2D

 17 17  0  0  0  0  0  0  0  0999 V2000
    1.6230    0.7860    0.0000 O   0  0  0  0  0  0  0  0  0  0  0  0
    0.8650    2.0800    0.0000 N   0  0  0  0  0  0  0  0  0  0  0  0
   -0.6350    2.0710    0.0000 C   0  0  0  0  0  0  0  0  0  0  0  0
   -1.3930    3.3660    0.0000 C   0  0  0  0  0  0  0  0  0  0  0  0
   -0.6510    4.6690    0.0000 O   0  0  0  0  0  0  0  0  0  0  0  0
   -1.3770    0.7680    0.0000 C   0  0  0  0  0  0  0  0  0  0  0  0
   -2.8680    0.6020    0.0000 N   0  0  0  0  0  0  0  0  0  0  0  0
   -3.1710   -0.8670    0.0000 C   0  0  0  0  0  0  0  0  0  0  0  0
   -4.5380   -1.4860    0.0000 N   0  0  0  0  0  0  0  0  0  0  0  0
   -1.8670   -1.6090    0.0000 S   0  0  0  0  0  0  0  0  0  0  0  0
   -0.7590   -0.5990    0.0000 C   0  0  0  0  0  0  0  0  0  0  0  0
    3.1230    0.7950    0.0000 C   0  0  0  0  0  0  0  0  0  0  0  0
    4.6230    0.8040    0.0000 C   0  0  0  0  0  0  0  0  0  0  0  0
    5.3650    2.1080    0.0000 O   0  0  0  0  0  0  0  0  0  0  0  0
    5.3800   -0.4900    0.0000 O   0  0  0  0  0  0  0  0  0  0  0  0
    3.1130    2.2950    0.0000 C   0  0  0  0  0  0  0  0  0  0  0  0
    3.1320   -0.7050    0.0000 C   0  0  0  0  0  0  0  0  0  0  0  0
  1  2  1  0  0  0  0
  1 12  1  0  0  0  0
  2  3  2  0  0  0  0
  3  4  1  0  0  0  0
  3  6  1  0  0  0  0
  4  5  2  0  0  0  0
  6  7  1  0  0  0  0
  6 11  2  0  0  0  0
  7  8  2  0  0  0  0
  8  9  1  0  0  0  0
  8 10  1  0  0  0  0
 10 11  1  0  0  0  0
 12 13  1  0  0  0  0
 12 16  1  0  0  0  0
 12 17  1  0  0  0  0
 13 14  2  0  0  0  0
 13 15  1  0  0  0  0
M  END
>  <name>
O(/N=C(/[C;amide]=O)\c1nc(N)sc1)C(C(=O)O)(C)C

>  <apo>
1

>  <freq>
2

>  <freq0>
0

>  <freq1>
2

>  <freqA>
1.9984947

>  <a_count>
28

$$$$

  MOE2015           2D

 10  9  0  0  1  0  0  0  0  0999 V2000
   10.2560    2.7480    0.0000 O   0  0  0  0  0  0  0  0  0  0  0  0
    8.9570    1.9980    0.0000 C   0  0  0  0  0  0  0  0  0  0  0  0
    7.6580    2.7480    0.0000 C   0  0  0  0  0  0  0  0  0  0  0  0
    6.3590    1.9980    0.0000 C   0  0  0  0  0  0  0  0  0  0  0  0
    5.0600    2.7480    0.0000 C   0  0  0  0  0  0  0  0  0  0  0  0
    3.7610    1.9980    0.0000 C   0  0  0  0  0  0  0  0  0  0  0  0
    2.4620    2.7480    0.0000 C   0  0  3  0  0  0  0  0  0  0  0  0
    1.1630    1.9980    0.0000 C   0  0  0  0  0  0  0  0  0  0  0  0
   -0.1360    2.7480    0.0000 C   0  0  0  0  0  0  0  0  0  0  0  0
    2.4620    4.2480    0.0000 C   0  0  0  0  0  0  0  0  0  0  0  0
  1  2  2  0  0  0  0
  2  3  1  0  0  0  0
  3  4  1  0  0  0  0
  4  5  1  0  0  0  0
  5  6  1  0  0  0  0
  6  7  1  0  0  0  0
  7  8  1  0  0  0  0
  7 10  1  0  0  0  0
  8  9  1  0  0  0  0
M  END
>  <name>
O=[C;amide]CCCCC(CC)C

>  <apo>
1

>  <freq>
2

>  <freq0>
0

>  <freq1>
2

>  <freqA>
1.9984947

>  <a_count>
28

$$$$

  MOE2015           2D

 15 15  0  0  1  0  0  0  0  0999 V2000
   10.3000   -3.9840    0.0000 O   0  0  0  0  0  0  0  0  0  0  0  0
    8.8000   -3.9840    0.0000 C   0  0  0  0  0  0  0  0  0  0  0  0
    8.0500   -2.6850    0.0000 C   0  0  1  0  0  0  0  0  0  0  0  0
    8.8000   -1.3860    0.0000 N   0  0  0  0  0  0  0  0  0  0  0  0
    6.5500   -2.6850    0.0000 C   0  0  2  0  0  0  0  0  0  0  0  0
    5.8000   -3.9840    0.0000 O   0  0  0  0  0  0  0  0  0  0  0  0
    5.8000   -1.3860    0.0000 C   0  0  1  0  0  0  0  0  0  0  0  0
    6.5500   -0.0870    0.0000 O   0  0  0  0  0  0  0  0  0  0  0  0
    4.3000   -1.3860    0.0000 C   0  0  0  0  0  0  0  0  0  0  0  0
    3.5500   -2.6850    0.0000 C   0  0  0  0  0  0  0  0  0  0  0  0
    2.0500   -2.6850    0.0000 C   0  0  0  0  0  0  0  0  0  0  0  0
    1.3000   -1.3860    0.0000 C   0  0  0  0  0  0  0  0  0  0  0  0
   -0.2000   -1.3860    0.0000 O   0  0  0  0  0  0  0  0  0  0  0  0
    2.0500   -0.0870    0.0000 C   0  0  0  0  0  0  0  0  0  0  0  0
    3.5500   -0.0870    0.0000 C   0  0  0  0  0  0  0  0  0  0  0  0
  1  2  2  0  0  0  0
  2  3  1  0  0  0  0
  3  4  1  6  0  0  0
  3  5  1  0  0  0  0
  5  6  1  6  0  0  0
  5  7  1  0  0  0  0
  7  8  1  6  0  0  0
  7  9  1  0  0  0  0
  9 10  1  0  0  0  0
  9 15  2  0  0  0  0
 10 11  2  0  0  0  0
 11 12  1  0  0  0  0
 12 13  1  0  0  0  0
 12 14  2  0  0  0  0
 14 15  1  0  0  0  0
M  END
>  <name>
O=[C;amide][C@@H]([N;amide])[C@H](O)[C@@H](O)c1ccc(O)cc1

>  <apo>
2

>  <freq>
2

>  <freq0>
0

>  <freq1>
2

>  <freqA>
1.9984947

>  <a_count>
28

$$$$

  MOE2015           2D

 11 10  0  0  1  0  0  0  0  0999 V2000
   -0.5250   -1.8210    0.0000 O   0  0  0  0  0  0  0  0  0  0  0  0
    0.7740   -1.0710    0.0000 C   0  0  0  0  0  0  0  0  0  0  0  0
    2.0740   -1.8210    0.0000 C   0  0  1  0  0  0  0  0  0  0  0  0
    2.0740   -3.3210    0.0000 N   0  0  0  0  0  0  0  0  0  0  0  0
    0.7740   -4.0710    0.0000 C   0  0  0  0  0  0  0  0  0  0  0  0
    3.3730   -1.0710    0.0000 C   0  0  2  0  0  0  0  0  0  0  0  0
    3.3730    0.4290    0.0000 O   0  0  0  0  0  0  0  0  0  0  0  0
    4.6720   -1.8210    0.0000 C   0  0  1  0  0  0  0  0  0  0  0  0
    5.9710   -1.0710    0.0000 C   0  0  0  0  0  0  0  0  0  0  0  0
    7.2700   -1.8210    0.0000 C   0  0  0  0  0  0  0  0  0  0  0  0
    4.6720   -3.3210    0.0000 C   0  0  0  0  0  0  0  0  0  0  0  0
  1  2  2  0  0  0  0
  3  2  1  6  0  0  0
  3  4  1  0  0  0  0
  3  6  1  0  0  0  0
  4  5  1  0  0  0  0
  6  7  1  6  0  0  0
  6  8  1  0  0  0  0
  8  9  1  0  0  0  0
  8 11  1  1  0  0  0
  9 10  1  0  0  0  0
M  END
>  <name>
O=[C;amide][C@@H]([N;amide]C)[C@H](O)[C@@H](C[C;olefin])C

>  <apo>
3

>  <freq>
2

>  <freq0>
0

>  <freq1>
2

>  <freqA>
1.9984947

>  <a_count>
28

$$$$

  MOE2015           2D

 11 11  0  0  1  0  0  0  0  0999 V2000
   -0.9450   -4.1790    0.0000 O   0  0  0  0  0  0  0  0  0  0  0  0
   -0.3150   -2.8170    0.0000 C   0  0  0  0  0  0  0  0  0  0  0  0
    1.1780   -2.6820    0.0000 C   0  0  1  0  0  0  0  0  0  0  0  0
    1.9470   -1.3930    0.0000 N   0  0  0  0  0  0  0  0  0  0  0  0
    1.3560   -0.0140    0.0000 C   0  0  0  0  0  0  0  0  0  0  0  0
    3.4090   -1.7260    0.0000 C   0  0  0  0  0  0  0  0  0  0  0  0
    3.5450   -3.2200    0.0000 C   0  0  2  0  0  0  0  0  0  0  0  0
    4.8330   -3.9880    0.0000 C   0  0  0  0  0  0  0  0  0  0  0  0
    6.1430   -3.2570    0.0000 C   0  0  0  0  0  0  0  0  0  0  0  0
    7.4310   -4.0250    0.0000 C   0  0  0  0  0  0  0  0  0  0  0  0
    2.1660   -3.8100    0.0000 C   0  0  0  0  0  0  0  0  0  0  0  0
  1  2  2  0  0  0  0
  3  2  1  1  0  0  0
  3  4  1  0  0  0  0
  3 11  1  0  0  0  0
  4  5  1  0  0  0  0
  4  6  1  0  0  0  0
  6  7  1  0  0  0  0
  7  8  1  6  0  0  0
  7 11  1  0  0  0  0
  8  9  1  0  0  0  0
  9 10  1  0  0  0  0
M  END
>  <name>
O=[C;amide][C@H]1N(C)C[C@H](CCC)C1

>  <apo>
1

>  <freq>
2

>  <freq0>
0

>  <freq1>
2

>  <freqA>
1.9984947

>  <a_count>
28

$$$$

  MOE2015           2D

 10  9  0  0  1  0  0  0  0  0999 V2000
    1.2250   -1.2250    0.0000 O   0  0  0  0  0  0  0  0  0  0  0  0
    1.2250    0.2750    0.0000 C   0  0  1  0  0  0  0  0  0  0  0  0
    2.5250    1.0250    0.0000 C   0  0  1  0  0  0  0  0  0  0  0  0
    3.8240    0.2750    0.0000 C   0  0  1  0  0  0  0  0  0  0  0  0
    5.1230    1.0250    0.0000 O   0  0  0  0  0  0  0  0  0  0  0  0
    3.8240   -1.2250    0.0000 C   0  0  0  0  0  0  0  0  0  0  0  0
    2.5250    2.5250    0.0000 C   0  0  0  0  0  0  0  0  0  0  0  0
   -0.0740    1.0250    0.0000 C   0  0  0  0  0  0  0  0  0  0  0  0
   -1.3730    0.2750    0.0000 C   0  0  0  0  0  0  0  0  0  0  0  0
   -0.0740    2.5250    0.0000 C   0  0  0  0  0  0  0  0  0  0  0  0
  2  1  1  6  0  0  0
  2  3  1  0  0  0  0
  2  8  1  0  0  0  0
  3  4  1  0  0  0  0
  3  7  1  6  0  0  0
  4  5  1  0  0  0  0
  4  6  1  1  0  0  0
  8  9  1  0  0  0  0
  8 10  1  0  0  0  0
M  END
>  <name>
O[C@@H]([C@@H]([C@@H]([O;ester])C)C)C([C;olefin])C

>  <apo>
2

>  <freq>
2

>  <freq0>
0

>  <freq1>
2

>  <freqA>
1.9984947

>  <a_count>
28

$$$$

  MOE2015           2D

 10 10  0  0  1  0  0  0  0  0999 V2000
    1.3700   -2.3730    0.0000 O   0  0  0  0  0  0  0  0  0  0  0  0
    2.1200   -1.0740    0.0000 C   0  0  3  0  0  0  0  0  0  0  0  0
    3.6200   -1.0740    0.0000 C   0  0  0  0  0  0  0  0  0  0  0  0
    4.3700    0.2250    0.0000 C   0  0  0  0  0  0  0  0  0  0  0  0
    5.6690   -0.5250    0.0000 C   0  0  0  0  0  0  0  0  0  0  0  0
    5.6690    0.9750    0.0000 C   0  0  0  0  0  0  0  0  0  0  0  0
    3.6200    1.5240    0.0000 C   0  0  0  0  0  0  0  0  0  0  0  0
    2.1200    1.5240    0.0000 C   0  0  3  0  0  0  0  0  0  0  0  0
    1.3700    2.8230    0.0000 C   0  0  0  0  0  0  0  0  0  0  0  0
    1.3700    0.2250    0.0000 C   0  0  0  0  0  0  0  0  0  0  0  0
  1  2  1  0  0  0  0
  2  3  1  0  0  0  0
  2 10  1  0  0  0  0
  3  4  1  0  0  0  0
  4  5  1  0  0  0  0
  4  6  1  0  0  0  0
  4  7  1  0  0  0  0
  7  8  1  0  0  0  0
  8  9  1  0  0  0  0
  8 10  1  0  0  0  0
M  END
>  <name>
[O;ester]C1CC(C)(C)CC(C)C1

>  <apo>
1

>  <freq>
2

>  <freq0>
0

>  <freq1>
2

>  <freqA>
1.9984947

>  <a_count>
28

$$$$

  MOE2015           2D

 15 16  0  0  0  0  0  0  0  0999 V2000
    0.4450   -2.0160    0.0000 S   0  0  0  0  0  0  0  0  0  0  0  0
    1.7440   -2.7660    0.0000 O   0  0  0  0  0  0  0  0  0  0  0  0
    0.4450   -0.5160    0.0000 O   0  0  0  0  0  0  0  0  0  0  0  0
   -0.8540   -2.7660    0.0000 C   0  0  0  0  0  0  0  0  0  0  0  0
   -2.1530   -2.0160    0.0000 C   0  0  0  0  0  0  0  0  0  0  0  0
   -3.4520   -2.7660    0.0000 C   0  0  0  0  0  0  0  0  0  0  0  0
   -4.7510   -2.0160    0.0000 C   0  0  0  0  0  0  0  0  0  0  0  0
   -6.1770   -2.4800    0.0000 C   0  0  0  0  0  0  0  0  0  0  0  0
   -6.6410   -3.9060    0.0000 C   0  0  0  0  0  0  0  0  0  0  0  0
   -8.1080   -4.2180    0.0000 C   0  0  0  0  0  0  0  0  0  0  0  0
   -7.0590   -1.2660    0.0000 C   0  0  0  0  0  0  0  0  0  0  0  0
   -6.1770   -0.0530    0.0000 N   0  0  0  0  0  0  0  0  0  0  0  0
   -4.7510   -0.5160    0.0000 C   0  0  0  0  0  0  0  0  0  0  0  0
   -3.4520    0.2340    0.0000 C   0  0  0  0  0  0  0  0  0  0  0  0
   -2.1530   -0.5160    0.0000 C   0  0  0  0  0  0  0  0  0  0  0  0
  1  2  2  0  0  0  0
  1  3  2  0  0  0  0
  1  4  1  0  0  0  0
  4  5  1  0  0  0  0
  5  6  1  0  0  0  0
  5 15  2  0  0  0  0
  6  7  2  0  0  0  0
  7  8  1  0  0  0  0
  7 13  1  0  0  0  0
  8  9  1  0  0  0  0
  8 11  2  0  0  0  0
  9 10  1  0  0  0  0
 11 12  1  0  0  0  0
 12 13  1  0  0  0  0
 13 14  2  0  0  0  0
 14 15  1  0  0  0  0
M  END
>  <name>
[SH;so2amide](=O)(=O)Cc1cc2c(C[C;amine])c[nH]c2cc1

>  <apo>
2

>  <freq>
2

>  <freq0>
0

>  <freq1>
2

>  <freqA>
1.9984947

>  <a_count>
28

$$$$

  MOE2015           2D

 11 11  0  0  0  0  0  0  0  0999 V2000
   -2.0450   -2.0450    0.0000 C   0  0  0  0  0  0  0  0  0  0  0  0
   -2.0450   -0.5450    0.0000 C   0  0  0  0  0  0  0  0  0  0  0  0
   -2.0450   -3.5450    0.0000 C   0  0  0  0  0  0  0  0  0  0  0  0
   -3.5450   -2.0450    0.0000 C   0  0  0  0  0  0  0  0  0  0  0  0
   -0.5450   -2.0450    0.0000 C   0  0  0  0  0  0  0  0  0  0  0  0
    0.2050   -0.7460    0.0000 C   0  0  0  0  0  0  0  0  0  0  0  0
    1.7050   -0.7460    0.0000 C   0  0  0  0  0  0  0  0  0  0  0  0
    2.4550   -2.0450    0.0000 C   0  0  0  0  0  0  0  0  0  0  0  0
    3.9550   -2.0450    0.0000 C   0  0  0  0  0  0  0  0  0  0  0  0
    1.7050   -3.3440    0.0000 C   0  0  0  0  0  0  0  0  0  0  0  0
    0.2050   -3.3440    0.0000 C   0  0  0  0  0  0  0  0  0  0  0  0
  1  2  1  0  0  0  0
  1  3  1  0  0  0  0
  1  4  1  0  0  0  0
  1  5  1  0  0  0  0
  5  6  1  0  0  0  0
  5 11  2  0  0  0  0
  6  7  2  0  0  0  0
  7  8  1  0  0  0  0
  8  9  1  0  0  0  0
  8 10  2  0  0  0  0
 10 11  1  0  0  0  0
M  END
>  <name>
C(C)(C)(C)c1ccc([C;amine])cc1

>  <apo>
1

>  <freq>
2

>  <freq0>
0

>  <freq1>
2

>  <freqA>
1.9984947

>  <a_count>
27

$$$$

  MOE2015           2D

 14 15  0  0  1  0  0  0  0  0999 V2000
    0.0000    1.4850    0.0000 F   0  0  0  0  0  0  0  0  0  0  0  0
    1.5000    1.4850    0.0000 C   0  0  0  0  0  0  0  0  0  0  0  0
    2.2500    0.1860    0.0000 C   0  0  0  0  0  0  0  0  0  0  0  0
    3.7500    0.1860    0.0000 C   0  0  0  0  0  0  0  0  0  0  0  0
    4.5000    1.4850    0.0000 C   0  0  0  0  0  0  0  0  0  0  0  0
    6.0000    1.4850    0.0000 O   0  0  0  0  0  0  0  0  0  0  0  0
    6.7500    0.1860    0.0000 C   0  0  3  0  0  0  0  0  0  0  0  0
    8.2500    0.1860    0.0000 C   0  0  3  0  0  0  0  0  0  0  0  0
    9.0000    1.4850    0.0000 O   0  0  0  0  0  0  0  0  0  0  0  0
    9.0000   -1.1130    0.0000 C   0  0  0  0  0  0  0  0  0  0  0  0
    6.0000   -1.1130    0.0000 C   0  0  0  0  0  0  0  0  0  0  0  0
    4.5000   -1.1130    0.0000 C   0  0  0  0  0  0  0  0  0  0  0  0
    3.7500    2.7840    0.0000 C   0  0  0  0  0  0  0  0  0  0  0  0
    2.2500    2.7840    0.0000 C   0  0  0  0  0  0  0  0  0  0  0  0
  1  2  1  0  0  0  0
  2  3  1  0  0  0  0
  2 14  2  0  0  0  0
  3  4  2  0  0  0  0
  4  5  1  0  0  0  0
  4 12  1  0  0  0  0
  5  6  1  0  0  0  0
  5 13  2  0  0  0  0
  6  7  1  0  0  0  0
  7  8  1  0  0  0  0
  7 11  1  0  0  0  0
  8  9  1  0  0  0  0
  8 10  1  0  0  0  0
 11 12  1  0  0  0  0
 13 14  1  0  0  0  0
M  END
>  <name>
Fc1cc2c(OC(C(O)[C;amine])CC2)cc1

>  <apo>
1

>  <freq>
2

>  <freq0>
0

>  <freq1>
2

>  <freqA>
1.9984947

>  <a_count>
27

$$$$

  MOE2015           2D

 15 15  0  0  1  0  0  0  0  0999 V2000
   -0.8500    4.9360    0.0000 O   0  0  0  0  0  0  0  0  0  0  0  0
   -0.1000    3.6370    0.0000 N   0  3  0  0  0  0  0  0  0  0  0  0
   -0.8500    2.3380    0.0000 O   0  5  0  0  0  0  0  0  0  0  0  0
    1.4000    3.6370    0.0000 C   0  0  0  0  0  0  0  0  0  0  0  0
    2.1500    2.3380    0.0000 C   0  0  0  0  0  0  0  0  0  0  0  0
    3.6500    2.3380    0.0000 C   0  0  0  0  0  0  0  0  0  0  0  0
    4.4000    3.6370    0.0000 C   0  0  0  0  0  0  0  0  0  0  0  0
    5.9000    3.6370    0.0000 C   0  0  1  0  0  0  0  0  0  0  0  0
    6.6500    4.9360    0.0000 O   0  0  0  0  0  0  0  0  0  0  0  0
    6.6500    2.3380    0.0000 C   0  0  2  0  0  0  0  0  0  0  0  0
    5.9000    1.0390    0.0000 N   0  0  0  0  0  0  0  0  0  0  0  0
    8.1500    2.3380    0.0000 C   0  0  0  0  0  0  0  0  0  0  0  0
    8.9000    1.0390    0.0000 O   0  0  0  0  0  0  0  0  0  0  0  0
    3.6500    4.9360    0.0000 C   0  0  0  0  0  0  0  0  0  0  0  0
    2.1500    4.9360    0.0000 C   0  0  0  0  0  0  0  0  0  0  0  0
  1  2  2  0  0  0  0
  2  3  1  0  0  0  0
  2  4  1  0  0  0  0
  4  5  1  0  0  0  0
  4 15  2  0  0  0  0
  5  6  2  0  0  0  0
  6  7  1  0  0  0  0
  7  8  1  0  0  0  0
  7 14  2  0  0  0  0
  8  9  1  1  0  0  0
  8 10  1  0  0  0  0
 10 11  1  1  0  0  0
 10 12  1  0  0  0  0
 12 13  1  0  0  0  0
 14 15  1  0  0  0  0
M  CHG  1   2   1
M  CHG  1   3  -1
M  END
>  <name>
O=[N+]([O-])c1ccc([C@@H](O)[C@H]([N;amide])C[O;ester])cc1

>  <apo>
2

>  <freq>
2

>  <freq0>
0

>  <freq1>
2

>  <freqA>
1.9984947

>  <a_count>
27

$$$$

  MOE2015           2D

 15 15  0  0  0  0  0  0  0  0999 V2000
    4.5660   -2.8340    0.0000 P   0  0  0  0  0  0  0  0  0  0  0  0
    4.5660   -4.3340    0.0000 O   0  0  0  0  0  0  0  0  0  0  0  0
    3.0660   -2.8340    0.0000 O   0  0  0  0  0  0  0  0  0  0  0  0
    2.3160   -4.1330    0.0000 C   0  0  0  0  0  0  0  0  0  0  0  0
    0.8160   -4.1330    0.0000 C   0  0  0  0  0  0  0  0  0  0  0  0
    0.0660   -5.4320    0.0000 N   0  0  0  0  0  0  0  0  0  0  0  0
   -1.4340   -5.4320    0.0000 C   0  0  0  0  0  0  0  0  0  0  0  0
   -2.1840   -6.7310    0.0000 C   0  0  0  0  0  0  0  0  0  0  0  0
   -2.1840   -4.1330    0.0000 C   0  0  0  0  0  0  0  0  0  0  0  0
   -3.6840   -4.1330    0.0000 O   0  0  0  0  0  0  0  0  0  0  0  0
   -1.4340   -2.8340    0.0000 C   0  0  0  0  0  0  0  0  0  0  0  0
   -2.1840   -1.5350    0.0000 C   0  0  0  0  0  0  0  0  0  0  0  0
    0.0660   -2.8340    0.0000 C   0  0  0  0  0  0  0  0  0  0  0  0
    6.0660   -2.8340    0.0000 O   0  0  0  0  0  0  0  0  0  0  0  0
    4.5660   -1.3340    0.0000 O   0  0  0  0  0  0  0  0  0  0  0  0
  1  2  2  0  0  0  0
  1  3  1  0  0  0  0
  1 14  1  0  0  0  0
  1 15  1  0  0  0  0
  3  4  1  0  0  0  0
  4  5  1  0  0  0  0
  5  6  1  0  0  0  0
  5 13  2  0  0  0  0
  6  7  2  0  0  0  0
  7  8  1  0  0  0  0
  7  9  1  0  0  0  0
  9 10  1  0  0  0  0
  9 11  2  0  0  0  0
 11 12  1  0  0  0  0
 11 13  1  0  0  0  0
M  END
>  <name>
P(=O)(OCc1nc(C)c(O)c([C;amine])c1)(O)O

>  <apo>
1

>  <freq>
2

>  <freq0>
0

>  <freq1>
2

>  <freqA>
1.9984947

>  <a_count>
27

$$$$

  MOE2015           2D

 16 16  0  0  1  0  0  0  0  0999 V2000
   -1.3800   -2.3910    0.0000 S   0  0  0  0  0  0  0  0  0  0  0  0
   -0.6300   -3.6900    0.0000 O   0  0  0  0  0  0  0  0  0  0  0  0
   -2.1300   -1.0920    0.0000 O   0  0  0  0  0  0  0  0  0  0  0  0
   -0.0810   -1.6410    0.0000 O   0  0  0  0  0  0  0  0  0  0  0  0
    1.2180   -2.3910    0.0000 C   0  0  0  0  0  0  0  0  0  0  0  0
    2.5170   -1.6410    0.0000 C   0  0  0  0  0  0  0  0  0  0  0  0
    3.8160   -2.3910    0.0000 C   0  0  0  0  0  0  0  0  0  0  0  0
    3.8160   -3.8910    0.0000 C   0  0  0  0  0  0  0  0  0  0  0  0
    5.1150   -4.6410    0.0000 C   0  0  0  0  0  0  0  0  0  0  0  0
    6.4140   -3.8910    0.0000 C   0  0  2  0  0  0  0  0  0  0  0  0
    6.4140   -2.3910    0.0000 N   0  0  0  0  0  0  0  0  0  0  0  0
    7.7130   -4.6410    0.0000 C   0  0  0  0  0  0  0  0  0  0  0  0
    9.0120   -3.8910    0.0000 O   0  0  0  0  0  0  0  0  0  0  0  0
    2.5170   -4.6410    0.0000 C   0  0  0  0  0  0  0  0  0  0  0  0
    1.2180   -3.8910    0.0000 C   0  0  0  0  0  0  0  0  0  0  0  0
   -2.6790   -3.1410    0.0000 O   0  0  0  0  0  0  0  0  0  0  0  0
  1  2  2  0  0  0  0
  1  3  2  0  0  0  0
  1  4  1  0  0  0  0
  1 16  1  0  0  0  0
  4  5  1  0  0  0  0
  5  6  1  0  0  0  0
  5 15  2  0  0  0  0
  6  7  2  0  0  0  0
  7  8  1  0  0  0  0
  8  9  1  0  0  0  0
  8 14  2  0  0  0  0
  9 10  1  0  0  0  0
 10 11  1  6  0  0  0
 10 12  1  0  0  0  0
 12 13  2  0  0  0  0
 14 15  1  0  0  0  0
M  END
>  <name>
S(=O)(=O)(Oc1ccc(C[C@H]([N;amide])[C;amide]=O)cc1)O

>  <apo>
2

>  <freq>
2

>  <freq0>
0

>  <freq1>
2

>  <freqA>
1.9984947

>  <a_count>
27

$$$$

  MOE2015           2D

 13 14  0  0  0  0  0  0  0  0999 V2000
    9.6920    0.0000    0.0000 O   0  0  0  0  0  0  0  0  0  0  0  0
    8.1920    0.0000    0.0000 C   0  0  0  0  0  0  0  0  0  0  0  0
    7.4420    1.2990    0.0000 C   0  0  0  0  0  0  0  0  0  0  0  0
    5.9420    1.2990    0.0000 C   0  0  0  0  0  0  0  0  0  0  0  0
    5.1920    0.0000    0.0000 C   0  0  0  0  0  0  0  0  0  0  0  0
    3.6920    0.0000    0.0000 N   0  0  0  0  0  0  0  0  0  0  0  0
    2.9420    1.2990    0.0000 C   0  0  0  0  0  0  0  0  0  0  0  0
    1.4420    1.2990    0.0000 C   0  0  0  0  0  0  0  0  0  0  0  0
    0.6920    0.0000    0.0000 N   0  0  0  0  0  0  0  0  0  0  0  0
    1.4420   -1.2990    0.0000 C   0  0  0  0  0  0  0  0  0  0  0  0
    2.9420   -1.2990    0.0000 C   0  0  0  0  0  0  0  0  0  0  0  0
    5.9420   -1.2990    0.0000 C   0  0  0  0  0  0  0  0  0  0  0  0
    7.4420   -1.2990    0.0000 C   0  0  0  0  0  0  0  0  0  0  0  0
  1  2  1  0  0  0  0
  2  3  1  0  0  0  0
  2 13  2  0  0  0  0
  3  4  2  0  0  0  0
  4  5  1  0  0  0  0
  5  6  1  0  0  0  0
  5 12  2  0  0  0  0
  6  7  1  0  0  0  0
  6 11  1  0  0  0  0
  7  8  1  0  0  0  0
  8  9  1  0  0  0  0
  9 10  1  0  0  0  0
 10 11  1  0  0  0  0
 12 13  1  0  0  0  0
M  END
>  <name>
[O;ether]c1ccc(N2CC[N;amide]CC2)cc1

>  <apo>
2

>  <freq>
2

>  <freq0>
0

>  <freq1>
2

>  <freqA>
1.9984947

>  <a_count>
27

$$$$

  MOE2015           2D

 15 17  0  0  0  0  0  0  0  0999 V2000
    1.8260    3.0300    0.0000 C   0  0  0  0  0  0  0  0  0  0  0  0
    1.8820    1.5310    0.0000 C   0  0  0  0  0  0  0  0  0  0  0  0
    3.2080    0.8300    0.0000 C   0  0  0  0  0  0  0  0  0  0  0  0
    4.4780    1.6280    0.0000 C   0  0  0  0  0  0  0  0  0  0  0  0
    4.4220    3.1270    0.0000 C   0  0  0  0  0  0  0  0  0  0  0  0
    3.0960    3.8280    0.0000 C   0  0  0  0  0  0  0  0  0  0  0  0
    0.7460    0.5520    0.0000 C   0  0  0  0  0  0  0  0  0  0  0  0
   -0.7280    0.8320    0.0000 C   0  0  0  0  0  0  0  0  0  0  0  0
   -1.4290    2.1580    0.0000 C   0  0  0  0  0  0  0  0  0  0  0  0
   -2.9280    2.2140    0.0000 C   0  0  0  0  0  0  0  0  0  0  0  0
   -3.7260    0.9440    0.0000 C   0  0  0  0  0  0  0  0  0  0  0  0
   -3.0250   -0.3820    0.0000 C   0  0  0  0  0  0  0  0  0  0  0  0
   -1.5260   -0.4380    0.0000 C   0  0  0  0  0  0  0  0  0  0  0  0
   -0.8300    3.5340    0.0000 C   0  0  0  0  0  0  0  0  0  0  0  0
    0.6190    3.9210    0.0000 C   0  0  0  0  0  0  0  0  0  0  0  0
  1  2  1  0  0  0  0
  1  6  2  0  0  0  0
  1 15  1  0  0  0  0
  2  3  2  0  0  0  0
  2  7  1  0  0  0  0
  3  4  1  0  0  0  0
  4  5  2  0  0  0  0
  5  6  1  0  0  0  0
  7  8  1  0  0  0  0
  8  9  1  0  0  0  0
  8 13  2  0  0  0  0
  9 10  2  0  0  0  0
  9 14  1  0  0  0  0
 10 11  1  0  0  0  0
 11 12  2  0  0  0  0
 12 13  1  0  0  0  0
 14 15  2  0  0  0  0
M  END
>  <name>
c12c(cccc1)[C;olefin]c1c(cccc1)C=C2

>  <apo>
1

>  <freq>
2

>  <freq0>
0

>  <freq1>
2

>  <freqA>
1.9984947

>  <a_count>
27

$$$$

  MOE2015           2D

  8  7  0  0  1  0  0  0  0  0999 V2000
   -0.1050   -0.3930    0.0000 C   0  0  3  0  0  0  0  0  0  0  0  0
    1.1940   -1.1430    0.0000 C   0  0  0  0  0  0  0  0  0  0  0  0
    2.4930   -0.3930    0.0000 C   0  0  0  0  0  0  0  0  0  0  0  0
    3.7920   -1.1430    0.0000 C   0  0  0  0  0  0  0  0  0  0  0  0
    5.0910   -0.3930    0.0000 C   0  0  0  0  0  0  0  0  0  0  0  0
   -1.4040   -1.1430    0.0000 C   0  0  0  0  0  0  0  0  0  0  0  0
   -2.7030   -0.3930    0.0000 C   0  0  0  0  0  0  0  0  0  0  0  0
   -0.1050    1.1070    0.0000 C   0  0  0  0  0  0  0  0  0  0  0  0
  1  2  1  0  0  0  0
  1  6  1  0  0  0  0
  1  8  1  0  0  0  0
  2  3  1  0  0  0  0
  3  4  1  0  0  0  0
  4  5  1  0  0  0  0
  6  7  1  0  0  0  0
M  END
>  <name>
C(CCCC)(CC)[C;amine]

>  <apo>
1

>  <freq>
2

>  <freq0>
0

>  <freq1>
2

>  <freqA>
1.9984947

>  <a_count>
26

$$$$

  MOE2015           2D

  8  7  0  0  1  0  0  0  0  0999 V2000
   -0.1050   -0.3930    0.0000 C   0  0  3  0  0  0  0  0  0  0  0  0
    1.1940   -1.1430    0.0000 C   0  0  0  0  0  0  0  0  0  0  0  0
    2.4930   -0.3930    0.0000 C   0  0  0  0  0  0  0  0  0  0  0  0
    3.7920   -1.1430    0.0000 C   0  0  0  0  0  0  0  0  0  0  0  0
    5.0910   -0.3930    0.0000 C   0  0  0  0  0  0  0  0  0  0  0  0
   -1.4040   -1.1430    0.0000 C   0  0  0  0  0  0  0  0  0  0  0  0
   -2.7030   -0.3930    0.0000 C   0  0  0  0  0  0  0  0  0  0  0  0
   -0.1050    1.1070    0.0000 C   0  0  0  0  0  0  0  0  0  0  0  0
  1  2  1  0  0  0  0
  1  6  1  0  0  0  0
  1  8  1  0  0  0  0
  2  3  1  0  0  0  0
  3  4  1  0  0  0  0
  4  5  1  0  0  0  0
  6  7  1  0  0  0  0
M  END
>  <name>
C(CCCC)(CC)[C;ether]

>  <apo>
1

>  <freq>
2

>  <freq0>
0

>  <freq1>
2

>  <freqA>
1.9984947

>  <a_count>
26

$$$$

  MOE2015           2D

  8  7  0  0  0  0  0  0  0  0999 V2000
    1.4000    0.3750    0.0000 C   0  0  0  0  0  0  0  0  0  0  0  0
    0.1000   -0.3750    0.0000 C   0  0  0  0  0  0  0  0  0  0  0  0
   -1.1990    0.3750    0.0000 C   0  0  0  0  0  0  0  0  0  0  0  0
   -2.4980   -0.3750    0.0000 C   0  0  0  0  0  0  0  0  0  0  0  0
   -3.7970    0.3750    0.0000 C   0  0  0  0  0  0  0  0  0  0  0  0
    2.6990   -0.3750    0.0000 C   0  0  0  0  0  0  0  0  0  0  0  0
    3.9980    0.3750    0.0000 C   0  0  0  0  0  0  0  0  0  0  0  0
    5.2970   -0.3750    0.0000 C   0  0  0  0  0  0  0  0  0  0  0  0
  1  2  1  0  0  0  0
  1  6  1  0  0  0  0
  2  3  1  0  0  0  0
  3  4  1  0  0  0  0
  4  5  1  0  0  0  0
  6  7  1  0  0  0  0
  7  8  1  0  0  0  0
M  END
>  <name>
C(CCCC)CC[C;quatN]

>  <apo>
1

>  <freq>
2

>  <freq0>
0

>  <freq1>
2

>  <freqA>
1.9984947

>  <a_count>
26

$$$$

  MOE2015           2D

  9  9  0  0  1  0  0  0  0  0999 V2000
    0.9170    1.5880    0.0000 C   0  0  0  0  0  0  0  0  0  0  0  0
    1.6670    0.2890    0.0000 C   0  0  0  0  0  0  0  0  0  0  0  0
   -0.5830    1.5880    0.0000 C   0  0  3  0  0  0  0  0  0  0  0  0
   -1.3330    2.8870    0.0000 N   0  0  0  0  0  0  0  0  0  0  0  0
   -0.5830    4.1860    0.0000 C   0  0  0  0  0  0  0  0  0  0  0  0
   -2.8330    2.8870    0.0000 C   0  0  0  0  0  0  0  0  0  0  0  0
   -3.5830    1.5880    0.0000 C   0  0  0  0  0  0  0  0  0  0  0  0
   -2.8330    0.2890    0.0000 C   0  0  0  0  0  0  0  0  0  0  0  0
   -1.3330    0.2890    0.0000 C   0  0  0  0  0  0  0  0  0  0  0  0
  1  2  1  0  0  0  0
  1  3  1  0  0  0  0
  3  4  1  0  0  0  0
  3  9  1  0  0  0  0
  4  5  1  0  0  0  0
  4  6  1  0  0  0  0
  6  7  1  0  0  0  0
  7  8  1  0  0  0  0
  8  9  1  0  0  0  0
M  END
>  <name>
C([C;amine])C1N(C)CCCC1

>  <apo>
1

>  <freq>
2

>  <freq0>
0

>  <freq1>
2

>  <freqA>
1.9984947

>  <a_count>
26

$$$$

  MOE2015           2D

 13 14  0  0  0  0  0  0  0  0999 V2000
    0.3460    4.1970    0.0000 Cl  0  0  0  0  0  0  0  0  0  0  0  0
    1.0960    2.8980    0.0000 C   0  0  0  0  0  0  0  0  0  0  0  0
    2.5960    2.8980    0.0000 C   0  0  0  0  0  0  0  0  0  0  0  0
    3.3460    1.5990    0.0000 C   0  0  0  0  0  0  0  0  0  0  0  0
    4.8460    1.5990    0.0000 N   0  0  0  0  0  0  0  0  0  0  0  0
    5.5960    2.8980    0.0000 C   0  0  0  0  0  0  0  0  0  0  0  0
    7.0960    2.8980    0.0000 C   0  0  0  0  0  0  0  0  0  0  0  0
    7.8460    1.5990    0.0000 N   0  0  0  0  0  0  0  0  0  0  0  0
    7.0960    0.3000    0.0000 C   0  0  0  0  0  0  0  0  0  0  0  0
    5.5960    0.3000    0.0000 C   0  0  0  0  0  0  0  0  0  0  0  0
    2.5960    0.3000    0.0000 C   0  0  0  0  0  0  0  0  0  0  0  0
    1.0960    0.3000    0.0000 C   0  0  0  0  0  0  0  0  0  0  0  0
    0.3460    1.5990    0.0000 C   0  0  0  0  0  0  0  0  0  0  0  0
  1  2  1  0  0  0  0
  2  3  1  0  0  0  0
  2 13  2  0  0  0  0
  3  4  2  0  0  0  0
  4  5  1  0  0  0  0
  4 11  1  0  0  0  0
  5  6  1  0  0  0  0
  5 10  1  0  0  0  0
  6  7  1  0  0  0  0
  7  8  1  0  0  0  0
  8  9  1  0  0  0  0
  9 10  1  0  0  0  0
 11 12  2  0  0  0  0
 12 13  1  0  0  0  0
M  END
>  <name>
Clc1cc(N2CC[N;amine]CC2)ccc1

>  <apo>
1

>  <freq>
2

>  <freq0>
0

>  <freq1>
2

>  <freqA>
1.9984947

>  <a_count>
26

$$$$

  MOE2015           2D

 14 15  0  0  0  0  0  0  0  0999 V2000
    0.7000    0.3870    0.0000 N   0  0  0  0  0  0  0  0  0  0  0  0
    1.9990   -0.3630    0.0000 C   0  0  0  0  0  0  0  0  0  0  0  0
    3.2980    0.3870    0.0000 C   0  0  0  0  0  0  0  0  0  0  0  0
    4.5970   -0.3630    0.0000 C   0  0  0  0  0  0  0  0  0  0  0  0
    4.5970   -1.8630    0.0000 C   0  0  0  0  0  0  0  0  0  0  0  0
    5.8960   -2.6130    0.0000 N   0  0  0  0  0  0  0  0  0  0  0  0
    3.2980   -2.6130    0.0000 C   0  0  0  0  0  0  0  0  0  0  0  0
    1.9990   -1.8630    0.0000 C   0  0  0  0  0  0  0  0  0  0  0  0
   -0.5990   -0.3630    0.0000 C   0  0  0  0  0  0  0  0  0  0  0  0
   -0.5990   -1.8630    0.0000 C   0  0  0  0  0  0  0  0  0  0  0  0
   -1.8980   -2.6130    0.0000 C   0  0  0  0  0  0  0  0  0  0  0  0
   -3.1970   -1.8630    0.0000 C   0  0  0  0  0  0  0  0  0  0  0  0
   -3.1970   -0.3630    0.0000 C   0  0  0  0  0  0  0  0  0  0  0  0
   -1.8980    0.3870    0.0000 C   0  0  0  0  0  0  0  0  0  0  0  0
  1  2  1  0  0  0  0
  1  9  1  0  0  0  0
  2  3  1  0  0  0  0
  2  8  2  0  0  0  0
  3  4  2  0  0  0  0
  4  5  1  0  0  0  0
  5  6  1  0  0  0  0
  5  7  2  0  0  0  0
  7  8  1  0  0  0  0
  9 10  1  0  0  0  0
  9 14  2  0  0  0  0
 10 11  2  0  0  0  0
 11 12  1  0  0  0  0
 12 13  2  0  0  0  0
 13 14  1  0  0  0  0
M  END
>  <name>
N(c1ccc([N;amine])cc1)c1ccccc1

>  <apo>
1

>  <freq>
2

>  <freq0>
0

>  <freq1>
2

>  <freqA>
1.9984947

>  <a_count>
26

$$$$

  MOE2015           2D

 14 15  0  0  1  0  0  0  0  0999 V2000
   10.1920    2.1660    0.0000 O   0  0  0  0  0  0  0  0  0  0  0  0
    8.8220    1.5560    0.0000 C   0  0  0  0  0  0  0  0  0  0  0  0
    7.6080    2.4380    0.0000 C   0  0  3  0  0  0  0  0  0  0  0  0
    7.7650    3.9300    0.0000 N   0  0  0  0  0  0  0  0  0  0  0  0
    6.2380    1.8280    0.0000 C   0  0  0  0  0  0  0  0  0  0  0  0
    5.0240    2.7090    0.0000 C   0  0  0  0  0  0  0  0  0  0  0  0
    3.5980    2.2460    0.0000 C   0  0  0  0  0  0  0  0  0  0  0  0
    2.7160    3.4590    0.0000 C   0  0  0  0  0  0  0  0  0  0  0  0
    3.5980    4.6730    0.0000 N   0  0  0  0  0  0  0  0  0  0  0  0
    5.0240    4.2090    0.0000 C   0  0  0  0  0  0  0  0  0  0  0  0
    1.2240    3.3030    0.0000 C   0  0  0  0  0  0  0  0  0  0  0  0
    0.6140    1.9320    0.0000 C   0  0  0  0  0  0  0  0  0  0  0  0
    1.4960    0.7190    0.0000 C   0  0  0  0  0  0  0  0  0  0  0  0
    2.9870    0.8760    0.0000 C   0  0  0  0  0  0  0  0  0  0  0  0
  1  2  2  0  0  0  0
  2  3  1  0  0  0  0
  3  4  1  0  0  0  0
  3  5  1  0  0  0  0
  5  6  1  0  0  0  0
  6  7  1  0  0  0  0
  6 10  2  0  0  0  0
  7  8  1  0  0  0  0
  7 14  2  0  0  0  0
  8  9  1  0  0  0  0
  8 11  2  0  0  0  0
  9 10  1  0  0  0  0
 11 12  1  0  0  0  0
 12 13  2  0  0  0  0
 13 14  1  0  0  0  0
M  END
>  <name>
O=[C;amide]C([N;amide])Cc1c2c([nH]c1)cccc2

>  <apo>
2

>  <freq>
2

>  <freq0>
0

>  <freq1>
2

>  <freqA>
1.9984947

>  <a_count>
26

$$$$

  MOE2015           2D

 16 18  0  0  0  0  0  0  0  0999 V2000
    1.5010    1.0550    0.0000 O   0  0  0  0  0  0  0  0  0  0  0  0
    2.8000    0.3050    0.0000 C   0  0  0  0  0  0  0  0  0  0  0  0
    2.8000   -1.1950    0.0000 C   0  0  0  0  0  0  0  0  0  0  0  0
    1.5010   -1.9450    0.0000 C   0  0  0  0  0  0  0  0  0  0  0  0
    1.5010   -3.4450    0.0000 C   0  0  0  0  0  0  0  0  0  0  0  0
    2.8000   -4.1950    0.0000 O   0  0  0  0  0  0  0  0  0  0  0  0
    4.0990   -3.4450    0.0000 C   0  0  0  0  0  0  0  0  0  0  0  0
    4.0990   -1.9450    0.0000 C   0  0  0  0  0  0  0  0  0  0  0  0
    5.3980   -1.1950    0.0000 C   0  0  0  0  0  0  0  0  0  0  0  0
    6.6970   -1.9450    0.0000 C   0  0  0  0  0  0  0  0  0  0  0  0
    6.6970   -3.4450    0.0000 C   0  0  0  0  0  0  0  0  0  0  0  0
    5.3980   -4.1950    0.0000 C   0  0  0  0  0  0  0  0  0  0  0  0
    0.2020   -4.1950    0.0000 C   0  0  0  0  0  0  0  0  0  0  0  0
   -1.0970   -3.4450    0.0000 C   0  0  0  0  0  0  0  0  0  0  0  0
   -1.0970   -1.9450    0.0000 C   0  0  0  0  0  0  0  0  0  0  0  0
    0.2020   -1.1950    0.0000 C   0  0  0  0  0  0  0  0  0  0  0  0
  1  2  2  0  0  0  0
  2  3  1  0  0  0  0
  3  4  1  0  0  0  0
  3  8  1  0  0  0  0
  4  5  1  0  0  0  0
  4 16  2  0  0  0  0
  5  6  1  0  0  0  0
  5 13  2  0  0  0  0
  6  7  1  0  0  0  0
  7  8  1  0  0  0  0
  7 12  2  0  0  0  0
  8  9  2  0  0  0  0
  9 10  1  0  0  0  0
 10 11  2  0  0  0  0
 11 12  1  0  0  0  0
 13 14  1  0  0  0  0
 14 15  2  0  0  0  0
 15 16  1  0  0  0  0
M  END
>  <name>
O=[C;ester]C1c2c(Oc3c1cccc3)cccc2

>  <apo>
1

>  <freq>
2

>  <freq0>
0

>  <freq1>
2

>  <freqA>
1.9984947

>  <a_count>
26

$$$$

  MOE2015           2D

 17 19  0  0  0  0  0  0  0  0999 V2000
    3.0120    3.0120    0.0000 S   0  0  0  0  0  0  0  0  0  0  0  0
    3.0120    1.5120    0.0000 O   0  0  0  0  0  0  0  0  0  0  0  0
    4.3110    3.7620    0.0000 O   0  0  0  0  0  0  0  0  0  0  0  0
    1.7130    3.7620    0.0000 C   0  0  0  0  0  0  0  0  0  0  0  0
    0.4140    3.0120    0.0000 C   0  0  0  0  0  0  0  0  0  0  0  0
   -0.8860    3.7620    0.0000 C   0  0  0  0  0  0  0  0  0  0  0  0
   -2.1850    3.0120    0.0000 N   0  0  0  0  0  0  0  0  0  0  0  0
   -3.4840    3.7620    0.0000 C   0  0  0  0  0  0  0  0  0  0  0  0
   -3.4840    5.2620    0.0000 C   0  0  0  0  0  0  0  0  0  0  0  0
   -2.1850    6.0120    0.0000 S   0  0  0  0  0  0  0  0  0  0  0  0
   -0.8860    5.2620    0.0000 C   0  0  0  0  0  0  0  0  0  0  0  0
    0.4140    6.0120    0.0000 C   0  0  0  0  0  0  0  0  0  0  0  0
    1.7130    5.2620    0.0000 C   0  0  0  0  0  0  0  0  0  0  0  0
   -4.7830    6.0120    0.0000 C   0  0  0  0  0  0  0  0  0  0  0  0
   -6.0820    5.2620    0.0000 C   0  0  0  0  0  0  0  0  0  0  0  0
   -6.0820    3.7620    0.0000 C   0  0  0  0  0  0  0  0  0  0  0  0
   -4.7830    3.0120    0.0000 C   0  0  0  0  0  0  0  0  0  0  0  0
  1  2  2  0  0  0  0
  1  3  2  0  0  0  0
  1  4  1  0  0  0  0
  4  5  1  0  0  0  0
  4 13  2  0  0  0  0
  5  6  2  0  0  0  0
  6  7  1  0  0  0  0
  6 11  1  0  0  0  0
  7  8  1  0  0  0  0
  8  9  1  0  0  0  0
  8 17  2  0  0  0  0
  9 10  1  0  0  0  0
  9 14  2  0  0  0  0
 10 11  1  0  0  0  0
 11 12  2  0  0  0  0
 12 13  1  0  0  0  0
 14 15  1  0  0  0  0
 15 16  2  0  0  0  0
 16 17  1  0  0  0  0
M  END
>  <name>
[SH;so2amide](=O)(=O)c1cc2[N;amine]c3c(Sc2cc1)cccc3

>  <apo>
2

>  <freq>
2

>  <freq0>
0

>  <freq1>
2

>  <freqA>
1.9984947

>  <a_count>
26

$$$$

  MOE2015           2D

 16 17  0  0  0  0  0  0  0  0999 V2000
    0.1010   -0.3760    0.0000 Cl  0  0  0  0  0  0  0  0  0  0  0  0
    1.4000    0.3740    0.0000 C   0  0  0  0  0  0  0  0  0  0  0  0
    2.6990   -0.3760    0.0000 C   0  0  0  0  0  0  0  0  0  0  0  0
    3.9980    0.3740    0.0000 C   0  0  0  0  0  0  0  0  0  0  0  0
    3.9980    1.8740    0.0000 C   0  0  0  0  0  0  0  0  0  0  0  0
    5.2970    2.6240    0.0000 C   0  0  0  0  0  0  0  0  0  0  0  0
    5.2970    4.1240    0.0000 O   0  0  0  0  0  0  0  0  0  0  0  0
    6.5960    1.8740    0.0000 C   0  0  0  0  0  0  0  0  0  0  0  0
    6.5960    0.3740    0.0000 C   0  0  0  0  0  0  0  0  0  0  0  0
    7.8950   -0.3760    0.0000 C   0  0  0  0  0  0  0  0  0  0  0  0
    9.1940    0.3740    0.0000 C   0  0  0  0  0  0  0  0  0  0  0  0
   10.4930   -0.3760    0.0000 O   0  0  0  0  0  0  0  0  0  0  0  0
    9.1940    1.8740    0.0000 C   0  0  0  0  0  0  0  0  0  0  0  0
    7.8950    2.6240    0.0000 C   0  0  0  0  0  0  0  0  0  0  0  0
    2.6990    2.6240    0.0000 C   0  0  0  0  0  0  0  0  0  0  0  0
    1.4000    1.8740    0.0000 C   0  0  0  0  0  0  0  0  0  0  0  0
  1  2  1  0  0  0  0
  2  3  1  0  0  0  0
  2 16  2  0  0  0  0
  3  4  2  0  0  0  0
  4  5  1  0  0  0  0
  5  6  1  0  0  0  0
  5 15  2  0  0  0  0
  6  7  2  0  0  0  0
  6  8  1  0  0  0  0
  8  9  1  0  0  0  0
  8 14  2  0  0  0  0
  9 10  2  0  0  0  0
 10 11  1  0  0  0  0
 11 12  1  0  0  0  0
 11 13  2  0  0  0  0
 13 14  1  0  0  0  0
 15 16  1  0  0  0  0
M  END
>  <name>
Clc1ccc(C(=O)c2ccc([O;ether])cc2)cc1

>  <apo>
1

>  <freq>
2

>  <freq0>
0

>  <freq1>
2

>  <freqA>
1.9984947

>  <a_count>
25

$$$$

  MOE2015           2D

 15 16  0  0  0  0  0  0  0  0999 V2000
    0.0040   -0.0140    0.0000 F   0  0  0  0  0  0  0  0  0  0  0  0
    1.3030    0.7360    0.0000 C   0  0  0  0  0  0  0  0  0  0  0  0
    2.6020   -0.0140    0.0000 C   0  0  0  0  0  0  0  0  0  0  0  0
    3.9010    0.7360    0.0000 C   0  0  0  0  0  0  0  0  0  0  0  0
    3.9010    2.2360    0.0000 C   0  0  0  0  0  0  0  0  0  0  0  0
    5.2000    2.9860    0.0000 C   0  0  0  0  0  0  0  0  0  0  0  0
    6.4990    2.2360    0.0000 C   0  0  0  0  0  0  0  0  0  0  0  0
    6.4990    0.7360    0.0000 C   0  0  0  0  0  0  0  0  0  0  0  0
    7.7980   -0.0140    0.0000 C   0  0  0  0  0  0  0  0  0  0  0  0
    9.0970    0.7360    0.0000 C   0  0  0  0  0  0  0  0  0  0  0  0
   10.3960   -0.0140    0.0000 F   0  0  0  0  0  0  0  0  0  0  0  0
    9.0970    2.2360    0.0000 C   0  0  0  0  0  0  0  0  0  0  0  0
    7.7980    2.9860    0.0000 C   0  0  0  0  0  0  0  0  0  0  0  0
    2.6020    2.9860    0.0000 C   0  0  0  0  0  0  0  0  0  0  0  0
    1.3030    2.2360    0.0000 C   0  0  0  0  0  0  0  0  0  0  0  0
  1  2  1  0  0  0  0
  2  3  1  0  0  0  0
  2 15  2  0  0  0  0
  3  4  2  0  0  0  0
  4  5  1  0  0  0  0
  5  6  1  0  0  0  0
  5 14  2  0  0  0  0
  6  7  1  0  0  0  0
  7  8  1  0  0  0  0
  7 13  2  0  0  0  0
  8  9  2  0  0  0  0
  9 10  1  0  0  0  0
 10 11  1  0  0  0  0
 10 12  2  0  0  0  0
 12 13  1  0  0  0  0
 14 15  1  0  0  0  0
M  END
>  <name>
Fc1ccc([C;amine]c2ccc(F)cc2)cc1

>  <apo>
1

>  <freq>
2

>  <freq0>
0

>  <freq1>
2

>  <freqA>
1.9984947

>  <a_count>
25

$$$$

  MOE2015           2D

 13 14  0  0  1  0  0  0  0  0999 V2000
    9.6920    0.0000    0.0000 F   0  0  0  0  0  0  0  0  0  0  0  0
    8.1920    0.0000    0.0000 C   0  0  0  0  0  0  0  0  0  0  0  0
    7.4420    1.2990    0.0000 C   0  0  0  0  0  0  0  0  0  0  0  0
    5.9420    1.2990    0.0000 C   0  0  0  0  0  0  0  0  0  0  0  0
    5.1920    0.0000    0.0000 C   0  0  0  0  0  0  0  0  0  0  0  0
    3.6920    0.0000    0.0000 C   0  0  2  0  0  0  0  0  0  0  0  0
    2.9420    1.2990    0.0000 N   0  0  0  0  0  0  0  0  0  0  0  0
    1.4420    1.2990    0.0000 C   0  0  0  0  0  0  0  0  0  0  0  0
    0.6920    0.0000    0.0000 C   0  0  0  0  0  0  0  0  0  0  0  0
    1.4420   -1.2990    0.0000 O   0  0  0  0  0  0  0  0  0  0  0  0
    2.9420   -1.2990    0.0000 C   0  0  0  0  0  0  0  0  0  0  0  0
    5.9420   -1.2990    0.0000 C   0  0  0  0  0  0  0  0  0  0  0  0
    7.4420   -1.2990    0.0000 C   0  0  0  0  0  0  0  0  0  0  0  0
  1  2  1  0  0  0  0
  2  3  1  0  0  0  0
  2 13  2  0  0  0  0
  3  4  2  0  0  0  0
  4  5  1  0  0  0  0
  6  5  1  1  0  0  0
  5 12  2  0  0  0  0
  6  7  1  0  0  0  0
  6 11  1  0  0  0  0
  7  8  1  0  0  0  0
  8  9  1  0  0  0  0
  9 10  1  0  0  0  0
 10 11  1  0  0  0  0
 12 13  1  0  0  0  0
M  END
>  <name>
Fc1ccc([C@@H]2[N;amine]CCO[C;ether]2)cc1

>  <apo>
2

>  <freq>
2

>  <freq0>
0

>  <freq1>
2

>  <freqA>
1.9984947

>  <a_count>
25

$$$$

  MOE2015           2D

 15 16  0  0  1  0  0  0  0  0999 V2000
    1.4620    5.0230    0.0000 O   0  0  0  0  0  0  0  0  0  0  0  0
    0.7120    3.7240    0.0000 C   0  0  0  0  0  0  0  0  0  0  0  0
   -0.7880    3.7240    0.0000 O   0  0  0  0  0  0  0  0  0  0  0  0
    1.4620    2.4250    0.0000 C   0  0  0  0  0  0  0  0  0  0  0  0
    0.7120    1.1260    0.0000 C   0  0  0  0  0  0  0  0  0  0  0  0
   -0.7880    1.1260    0.0000 C   0  0  0  0  0  0  0  0  0  0  0  0
   -1.5380   -0.1730    0.0000 C   0  0  0  0  0  0  0  0  0  0  0  0
    1.4620   -0.1730    0.0000 C   0  0  0  0  0  0  0  0  0  0  0  0
    2.9620   -0.1730    0.0000 S   0  0  0  0  0  0  0  0  0  0  0  0
    3.7120    1.1260    0.0000 C   0  0  2  0  0  0  0  0  0  0  0  0
    5.0110    1.8760    0.0000 C   0  0  2  0  0  0  0  0  0  0  0  0
    6.4600    1.4880    0.0000 N   0  0  0  0  0  0  0  0  0  0  0  0
    4.2610    3.1750    0.0000 C   0  0  0  0  0  0  0  0  0  0  0  0
    4.6490    4.6240    0.0000 O   0  0  0  0  0  0  0  0  0  0  0  0
    2.9620    2.4250    0.0000 N   0  0  0  0  0  0  0  0  0  0  0  0
  1  2  2  0  0  0  0
  2  3  1  0  0  0  0
  2  4  1  0  0  0  0
  4  5  2  0  0  0  0
  4 15  1  0  0  0  0
  5  6  1  0  0  0  0
  5  8  1  0  0  0  0
  6  7  2  0  0  0  0
  8  9  1  0  0  0  0
 10  9  1  1  0  0  0
 10 11  1  0  0  0  0
 10 15  1  0  0  0  0
 11 12  1  1  0  0  0
 11 13  1  0  0  0  0
 13 14  2  0  0  0  0
 13 15  1  0  0  0  0
M  END
>  <name>
O=C(O)C1=C(C=C)CS[C@@H]2[C@H]([N;amide])C(=O)N12

>  <apo>
1

>  <freq>
2

>  <freq0>
0

>  <freq1>
2

>  <freqA>
1.9984947

>  <a_count>
25

$$$$

  MOE2015           2D

 13 14  0  0  0  0  0  0  0  0999 V2000
    5.2290    1.4310    0.0000 O   0  0  0  0  0  0  0  0  0  0  0  0
    3.9380    0.6670    0.0000 C   0  0  0  0  0  0  0  0  0  0  0  0
    3.7970   -0.8260    0.0000 N   0  0  0  0  0  0  0  0  0  0  0  0
    4.9230   -1.8180    0.0000 C   0  0  0  0  0  0  0  0  0  0  0  0
    6.3440   -1.3390    0.0000 C   0  0  0  0  0  0  0  0  0  0  0  0
    7.4700   -2.3300    0.0000 C   0  0  0  0  0  0  0  0  0  0  0  0
    2.3340   -1.1540    0.0000 C   0  0  0  0  0  0  0  0  0  0  0  0
    1.5700    0.1370    0.0000 C   0  0  0  0  0  0  0  0  0  0  0  0
    2.5610    1.2630    0.0000 N   0  0  0  0  0  0  0  0  0  0  0  0
    0.0700    0.1210    0.0000 C   0  0  0  0  0  0  0  0  0  0  0  0
   -0.6660   -1.1860    0.0000 C   0  0  0  0  0  0  0  0  0  0  0  0
    0.0980   -2.4770    0.0000 C   0  0  0  0  0  0  0  0  0  0  0  0
    1.5980   -2.4610    0.0000 C   0  0  0  0  0  0  0  0  0  0  0  0
  1  2  2  0  0  0  0
  2  3  1  0  0  0  0
  2  9  1  0  0  0  0
  3  4  1  0  0  0  0
  3  7  1  0  0  0  0
  4  5  1  0  0  0  0
  5  6  1  0  0  0  0
  7  8  1  0  0  0  0
  7 13  2  0  0  0  0
  8  9  1  0  0  0  0
  8 10  2  0  0  0  0
 10 11  1  0  0  0  0
 11 12  2  0  0  0  0
 12 13  1  0  0  0  0
M  END
>  <name>
O=C1N(CC[C;amine])c2c(N1)cccc2

>  <apo>
1

>  <freq>
2

>  <freq0>
0

>  <freq1>
2

>  <freqA>
1.9984947

>  <a_count>
25

$$$$

  MOE2015           2D

 11 10  0  0  1  0  0  0  0  0999 V2000
   10.0870   -2.0210    0.0000 O   0  0  0  0  0  0  0  0  0  0  0  0
    8.7880   -2.7710    0.0000 C   0  0  0  0  0  0  0  0  0  0  0  0
    7.4890   -2.0210    0.0000 C   0  0  3  0  0  0  0  0  0  0  0  0
    7.4890   -0.5210    0.0000 N   0  0  0  0  0  0  0  0  0  0  0  0
    6.1900   -2.7710    0.0000 C   0  0  0  0  0  0  0  0  0  0  0  0
    4.8910   -2.0210    0.0000 C   0  0  0  0  0  0  0  0  0  0  0  0
    3.5920   -2.7710    0.0000 C   0  0  0  0  0  0  0  0  0  0  0  0
    2.2930   -2.0210    0.0000 N   0  0  0  0  0  0  0  0  0  0  0  0
    0.9940   -2.7710    0.0000 C   0  0  0  0  0  0  0  0  0  0  0  0
    0.9940   -4.2710    0.0000 N   0  0  0  0  0  0  0  0  0  0  0  0
   -0.3050   -2.0210    0.0000 N   0  0  0  0  0  0  0  0  0  0  0  0
  1  2  2  0  0  0  0
  2  3  1  0  0  0  0
  3  4  1  0  0  0  0
  3  5  1  0  0  0  0
  5  6  1  0  0  0  0
  6  7  1  0  0  0  0
  7  8  1  0  0  0  0
  8  9  2  0  0  0  0
  9 10  1  0  0  0  0
  9 11  1  0  0  0  0
M  END
>  <name>
O=[C;amide]C([N;amide])CCC/N=C(\N)/N

>  <apo>
2

>  <freq>
2

>  <freq0>
0

>  <freq1>
2

>  <freqA>
1.9984947

>  <a_count>
25

$$$$

  MOE2015           2D

 11 11  0  0  1  0  0  0  0  0999 V2000
    2.4050    2.4050    0.0000 O   0  0  0  0  0  0  0  0  0  0  0  0
    2.4050    0.9050    0.0000 C   0  0  1  0  0  0  0  0  0  0  0  0
    1.1060    0.1550    0.0000 C   0  0  2  0  0  0  0  0  0  0  0  0
   -0.1930    0.9050    0.0000 O   0  0  0  0  0  0  0  0  0  0  0  0
    1.1060   -1.3450    0.0000 C   0  0  2  0  0  0  0  0  0  0  0  0
   -0.1930   -2.0950    0.0000 N   0  0  0  0  0  0  0  0  0  0  0  0
    2.4050   -2.0950    0.0000 C   0  0  0  0  0  0  0  0  0  0  0  0
    3.7040   -1.3450    0.0000 O   0  0  0  0  0  0  0  0  0  0  0  0
    3.7040    0.1550    0.0000 C   0  0  2  0  0  0  0  0  0  0  0  0
    5.0030    0.9050    0.0000 C   0  0  0  0  0  0  0  0  0  0  0  0
    6.3020    0.1550    0.0000 N   0  0  0  0  0  0  0  0  0  0  0  0
  2  1  1  6  0  0  0
  2  3  1  0  0  0  0
  2  9  1  0  0  0  0
  3  4  1  1  0  0  0
  3  5  1  0  0  0  0
  5  6  1  1  0  0  0
  5  7  1  0  0  0  0
  7  8  1  0  0  0  0
  8  9  1  0  0  0  0
  9 10  1  1  0  0  0
 10 11  1  0  0  0  0
M  END
>  <name>
O[C@H]1[C@H](O)[C@H](N)[C;ether]O[C@@H]1CN

>  <apo>
1

>  <freq>
2

>  <freq0>
0

>  <freq1>
2

>  <freqA>
1.9984947

>  <a_count>
25

$$$$

  MOE2015           2D

 11 11  0  0  1  0  0  0  0  0999 V2000
    2.4050    2.4050    0.0000 O   0  0  0  0  0  0  0  0  0  0  0  0
    2.4050    0.9050    0.0000 C   0  0  1  0  0  0  0  0  0  0  0  0
    1.1060    0.1550    0.0000 C   0  0  2  0  0  0  0  0  0  0  0  0
   -0.1930    0.9050    0.0000 O   0  0  0  0  0  0  0  0  0  0  0  0
    1.1060   -1.3450    0.0000 C   0  0  2  0  0  0  0  0  0  0  0  0
   -0.1930   -2.0950    0.0000 N   0  0  0  0  0  0  0  0  0  0  0  0
    2.4050   -2.0950    0.0000 C   0  0  0  0  0  0  0  0  0  0  0  0
    3.7040   -1.3450    0.0000 O   0  0  0  0  0  0  0  0  0  0  0  0
    3.7040    0.1550    0.0000 C   0  0  1  0  0  0  0  0  0  0  0  0
    5.0030    0.9050    0.0000 C   0  0  0  0  0  0  0  0  0  0  0  0
    6.3020    0.1550    0.0000 N   0  0  0  0  0  0  0  0  0  0  0  0
  2  1  1  6  0  0  0
  2  3  1  0  0  0  0
  2  9  1  0  0  0  0
  3  4  1  1  0  0  0
  3  5  1  0  0  0  0
  5  6  1  1  0  0  0
  5  7  1  0  0  0  0
  7  8  1  0  0  0  0
  8  9  1  0  0  0  0
  9 10  1  6  0  0  0
 10 11  1  0  0  0  0
M  END
>  <name>
O[C@H]1[C@H](O)[C@H](N)[C;ether]O[C@H]1CN

>  <apo>
1

>  <freq>
2

>  <freq0>
0

>  <freq1>
2

>  <freqA>
1.9984947

>  <a_count>
25

$$$$

  MOE2015           2D

 13 14  0  0  0  0  0  0  0  0999 V2000
    0.6920   -2.5840    0.0000 C   0  0  0  0  0  0  0  0  0  0  0  0
   -0.6070   -1.8340    0.0000 C   0  0  0  0  0  0  0  0  0  0  0  0
   -1.9060   -2.5840    0.0000 C   0  0  0  0  0  0  0  0  0  0  0  0
   -3.2050   -1.8340    0.0000 C   0  0  0  0  0  0  0  0  0  0  0  0
   -3.2050   -0.3340    0.0000 C   0  0  0  0  0  0  0  0  0  0  0  0
   -1.9060    0.4160    0.0000 C   0  0  0  0  0  0  0  0  0  0  0  0
   -0.6070   -0.3340    0.0000 C   0  0  0  0  0  0  0  0  0  0  0  0
    1.9910   -1.8340    0.0000 C   0  0  0  0  0  0  0  0  0  0  0  0
    1.9910   -0.3340    0.0000 C   0  0  0  0  0  0  0  0  0  0  0  0
    3.2900    0.4160    0.0000 C   0  0  0  0  0  0  0  0  0  0  0  0
    4.5890   -0.3340    0.0000 C   0  0  0  0  0  0  0  0  0  0  0  0
    4.5890   -1.8340    0.0000 C   0  0  0  0  0  0  0  0  0  0  0  0
    3.2900   -2.5840    0.0000 C   0  0  0  0  0  0  0  0  0  0  0  0
  1  2  1  0  0  0  0
  1  8  1  0  0  0  0
  2  3  1  0  0  0  0
  2  7  2  0  0  0  0
  3  4  2  0  0  0  0
  4  5  1  0  0  0  0
  5  6  2  0  0  0  0
  6  7  1  0  0  0  0
  8  9  1  0  0  0  0
  8 13  2  0  0  0  0
  9 10  2  0  0  0  0
 10 11  1  0  0  0  0
 11 12  2  0  0  0  0
 12 13  1  0  0  0  0
M  END
>  <name>
[C;olefin](c1ccccc1)c1ccccc1

>  <apo>
1

>  <freq>
2

>  <freq0>
0

>  <freq1>
2

>  <freqA>
1.9984947

>  <a_count>
25

$$$$

  MOE2015           2D

 11 11  0  0  0  0  0  0  0  0999 V2000
    6.5490   -2.4150    0.0000 N   0  0  0  0  0  0  0  0  0  0  0  0
    5.2130   -3.0960    0.0000 C   0  0  0  0  0  0  0  0  0  0  0  0
    3.9550   -2.2790    0.0000 C   0  0  0  0  0  0  0  0  0  0  0  0
    2.5540   -2.8170    0.0000 N   0  0  0  0  0  0  0  0  0  0  0  0
    1.6100   -1.6510    0.0000 C   0  0  0  0  0  0  0  0  0  0  0  0
    0.1120   -1.7290    0.0000 C   0  0  0  0  0  0  0  0  0  0  0  0
   -0.5690   -3.0660    0.0000 C   0  0  0  0  0  0  0  0  0  0  0  0
   -0.7040   -0.4710    0.0000 C   0  0  0  0  0  0  0  0  0  0  0  0
    2.4270   -0.3930    0.0000 S   0  0  0  0  0  0  0  0  0  0  0  0
    3.8760   -0.7810    0.0000 C   0  0  0  0  0  0  0  0  0  0  0  0
    7.8070   -3.2320    0.0000 C   0  0  0  0  0  0  0  0  0  0  0  0
  1  2  1  0  0  0  0
  1 11  1  0  0  0  0
  2  3  1  0  0  0  0
  3  4  1  0  0  0  0
  3 10  2  0  0  0  0
  4  5  2  0  0  0  0
  5  6  1  0  0  0  0
  5  9  1  0  0  0  0
  6  7  1  0  0  0  0
  6  8  1  0  0  0  0
  9 10  1  0  0  0  0
M  END
>  <name>
[N;urea](Cc1nc(C(C)C)sc1)C

>  <apo>
1

>  <freq>
2

>  <freq0>
0

>  <freq1>
2

>  <freqA>
1.9984947

>  <a_count>
25

$$$$

  MOE2015           2D

 10 10  0  0  0  0  0  0  0  0999 V2000
    0.1280    0.4790    0.0000 C   0  0  0  0  0  0  0  0  0  0  0  0
    1.4270   -0.2710    0.0000 C   0  0  0  0  0  0  0  0  0  0  0  0
    2.7270    0.4790    0.0000 C   0  0  0  0  0  0  0  0  0  0  0  0
   -1.1710   -0.2710    0.0000 C   0  0  0  0  0  0  0  0  0  0  0  0
   -2.4700    0.4790    0.0000 C   0  0  0  0  0  0  0  0  0  0  0  0
   -2.4700    1.9790    0.0000 C   0  0  0  0  0  0  0  0  0  0  0  0
   -3.7690    2.7290    0.0000 C   0  0  0  0  0  0  0  0  0  0  0  0
   -5.0680    1.9790    0.0000 C   0  0  0  0  0  0  0  0  0  0  0  0
   -5.0680    0.4790    0.0000 C   0  0  0  0  0  0  0  0  0  0  0  0
   -3.7690   -0.2710    0.0000 C   0  0  0  0  0  0  0  0  0  0  0  0
  1  2  1  0  0  0  0
  1  4  1  0  0  0  0
  2  3  1  0  0  0  0
  4  5  1  0  0  0  0
  5  6  1  0  0  0  0
  5 10  2  0  0  0  0
  6  7  2  0  0  0  0
  7  8  1  0  0  0  0
  8  9  2  0  0  0  0
  9 10  1  0  0  0  0
M  END
>  <name>
C([C;amine]C)Cc1ccccc1

>  <apo>
1

>  <freq>
2

>  <freq0>
0

>  <freq1>
2

>  <freqA>
1.9984947

>  <a_count>
24

$$$$

  MOE2015           2D

 14 15  0  0  0  0  0  0  0  0999 V2000
    1.9920    3.4530    0.0000 Cl  0  0  0  0  0  0  0  0  0  0  0  0
    2.7430    2.1540    0.0000 C   0  0  0  0  0  0  0  0  0  0  0  0
    1.9930    0.8540    0.0000 C   0  0  0  0  0  0  0  0  0  0  0  0
    0.4930    0.8540    0.0000 C   0  0  0  0  0  0  0  0  0  0  0  0
    1.1980   -0.4700    0.0000 C   0  0  0  0  0  0  0  0  0  0  0  0
    0.3100    2.3420    0.0000 O   0  0  0  0  0  0  0  0  0  0  0  0
   -1.1630    2.6280    0.0000 C   0  0  0  0  0  0  0  0  0  0  0  0
   -1.8890    1.3160    0.0000 C   0  0  0  0  0  0  0  0  0  0  0  0
   -0.8660    0.2190    0.0000 O   0  0  0  0  0  0  0  0  0  0  0  0
    2.7440   -0.4440    0.0000 C   0  0  0  0  0  0  0  0  0  0  0  0
    4.2440   -0.4430    0.0000 C   0  0  0  0  0  0  0  0  0  0  0  0
    4.9930    0.8560    0.0000 C   0  0  0  0  0  0  0  0  0  0  0  0
    6.4930    0.8570    0.0000 Cl  0  0  0  0  0  0  0  0  0  0  0  0
    4.2430    2.1550    0.0000 C   0  0  0  0  0  0  0  0  0  0  0  0
  1  2  1  0  0  0  0
  2  3  1  0  0  0  0
  2 14  2  0  0  0  0
  3  4  1  0  0  0  0
  3 10  2  0  0  0  0
  4  5  1  0  0  0  0
  4  6  1  0  0  0  0
  4  9  1  0  0  0  0
  6  7  1  0  0  0  0
  7  8  1  0  0  0  0
  8  9  1  0  0  0  0
 10 11  1  0  0  0  0
 11 12  2  0  0  0  0
 12 13  1  0  0  0  0
 12 14  1  0  0  0  0
M  END
>  <name>
Clc1c(C2([C;NaroC])OC[C;ether]O2)ccc(Cl)c1

>  <apo>
2

>  <freq>
2

>  <freq0>
0

>  <freq1>
2

>  <freqA>
1.9984947

>  <a_count>
24

$$$$

  MOE2015           2D

 14 15  0  0  0  0  0  0  0  0999 V2000
    1.9920    3.4530    0.0000 Cl  0  0  0  0  0  0  0  0  0  0  0  0
    2.7430    2.1540    0.0000 C   0  0  0  0  0  0  0  0  0  0  0  0
    1.9930    0.8540    0.0000 C   0  0  0  0  0  0  0  0  0  0  0  0
    0.4930    0.8540    0.0000 C   0  0  0  0  0  0  0  0  0  0  0  0
    1.1980   -0.4700    0.0000 C   0  0  0  0  0  0  0  0  0  0  0  0
    0.3100    2.3420    0.0000 O   0  0  0  0  0  0  0  0  0  0  0  0
   -1.1630    2.6280    0.0000 C   0  0  0  0  0  0  0  0  0  0  0  0
   -1.8890    1.3160    0.0000 C   0  0  0  0  0  0  0  0  0  0  0  0
   -0.8660    0.2190    0.0000 O   0  0  0  0  0  0  0  0  0  0  0  0
    2.7440   -0.4440    0.0000 C   0  0  0  0  0  0  0  0  0  0  0  0
    4.2440   -0.4430    0.0000 C   0  0  0  0  0  0  0  0  0  0  0  0
    4.9930    0.8560    0.0000 C   0  0  0  0  0  0  0  0  0  0  0  0
    6.4930    0.8570    0.0000 Cl  0  0  0  0  0  0  0  0  0  0  0  0
    4.2430    2.1550    0.0000 C   0  0  0  0  0  0  0  0  0  0  0  0
  1  2  1  0  0  0  0
  2  3  1  0  0  0  0
  2 14  2  0  0  0  0
  3  4  1  0  0  0  0
  3 10  2  0  0  0  0
  4  5  1  0  0  0  0
  4  6  1  0  0  0  0
  4  9  1  0  0  0  0
  6  7  1  0  0  0  0
  7  8  1  0  0  0  0
  8  9  1  0  0  0  0
 10 11  1  0  0  0  0
 11 12  2  0  0  0  0
 12 13  1  0  0  0  0
 12 14  1  0  0  0  0
M  END
>  <name>
Clc1c(C2([C;NaroC])O[C;ether]CO2)ccc(Cl)c1

>  <apo>
2

>  <freq>
2

>  <freq0>
0

>  <freq1>
2

>  <freqA>
1.9984947

>  <a_count>
24

$$$$

  MOE2015           2D

 15 17  0  0  0  0  0  0  0  0999 V2000
    9.7500   -0.1880    0.0000 Cl  0  0  0  0  0  0  0  0  0  0  0  0
    8.4510    0.5620    0.0000 C   0  0  0  0  0  0  0  0  0  0  0  0
    7.1520   -0.1880    0.0000 C   0  0  0  0  0  0  0  0  0  0  0  0
    5.8530    0.5620    0.0000 C   0  0  0  0  0  0  0  0  0  0  0  0
    5.8530    2.0620    0.0000 C   0  0  0  0  0  0  0  0  0  0  0  0
    4.5540    2.8120    0.0000 S   0  0  0  0  0  0  0  0  0  0  0  0
    3.2550    2.0620    0.0000 C   0  0  0  0  0  0  0  0  0  0  0  0
    3.2550    0.5620    0.0000 C   0  0  0  0  0  0  0  0  0  0  0  0
    1.9560   -0.1880    0.0000 C   0  0  0  0  0  0  0  0  0  0  0  0
    0.6560    0.5620    0.0000 C   0  0  0  0  0  0  0  0  0  0  0  0
    0.6560    2.0620    0.0000 C   0  0  0  0  0  0  0  0  0  0  0  0
    1.9560    2.8120    0.0000 C   0  0  0  0  0  0  0  0  0  0  0  0
    4.5540   -0.1880    0.0000 C   0  0  0  0  0  0  0  0  0  0  0  0
    7.1520    2.8120    0.0000 C   0  0  0  0  0  0  0  0  0  0  0  0
    8.4510    2.0620    0.0000 C   0  0  0  0  0  0  0  0  0  0  0  0
  1  2  1  0  0  0  0
  2  3  1  0  0  0  0
  2 15  2  0  0  0  0
  3  4  2  0  0  0  0
  4  5  1  0  0  0  0
  4 13  1  0  0  0  0
  5  6  1  0  0  0  0
  5 14  2  0  0  0  0
  6  7  1  0  0  0  0
  7  8  1  0  0  0  0
  7 12  2  0  0  0  0
  8  9  2  0  0  0  0
  8 13  1  0  0  0  0
  9 10  1  0  0  0  0
 10 11  2  0  0  0  0
 11 12  1  0  0  0  0
 14 15  1  0  0  0  0
M  END
>  <name>
Clc1cc2c(Sc3c(cccc3)[C;olefin]2)cc1

>  <apo>
1

>  <freq>
2

>  <freq0>
0

>  <freq1>
2

>  <freqA>
1.9984947

>  <a_count>
24

$$$$

  MOE2015           2D

 14 15  0  0  0  0  0  0  0  0999 V2000
    9.7540   -2.6130    0.0000 Cl  0  0  0  0  0  0  0  0  0  0  0  0
    8.4550   -1.8630    0.0000 C   0  0  0  0  0  0  0  0  0  0  0  0
    8.4550   -0.3630    0.0000 C   0  0  0  0  0  0  0  0  0  0  0  0
    7.1550    0.3870    0.0000 C   0  0  0  0  0  0  0  0  0  0  0  0
    5.8560   -0.3630    0.0000 C   0  0  0  0  0  0  0  0  0  0  0  0
    4.5570    0.3870    0.0000 C   0  0  0  0  0  0  0  0  0  0  0  0
    3.2580   -0.3630    0.0000 C   0  0  0  0  0  0  0  0  0  0  0  0
    3.2580   -1.8630    0.0000 N   0  0  0  0  0  0  0  0  0  0  0  0
    1.9590   -2.6130    0.0000 C   0  0  0  0  0  0  0  0  0  0  0  0
    0.6600   -1.8630    0.0000 C   0  0  0  0  0  0  0  0  0  0  0  0
    0.6600   -0.3630    0.0000 C   0  0  0  0  0  0  0  0  0  0  0  0
    1.9590    0.3870    0.0000 C   0  0  0  0  0  0  0  0  0  0  0  0
    5.8560   -1.8630    0.0000 C   0  0  0  0  0  0  0  0  0  0  0  0
    7.1550   -2.6130    0.0000 C   0  0  0  0  0  0  0  0  0  0  0  0
  1  2  1  0  0  0  0
  2  3  1  0  0  0  0
  2 14  2  0  0  0  0
  3  4  2  0  0  0  0
  4  5  1  0  0  0  0
  5  6  1  0  0  0  0
  5 13  2  0  0  0  0
  6  7  1  0  0  0  0
  7  8  1  0  0  0  0
  7 12  2  0  0  0  0
  8  9  2  0  0  0  0
  9 10  1  0  0  0  0
 10 11  2  0  0  0  0
 11 12  1  0  0  0  0
 13 14  1  0  0  0  0
M  END
>  <name>
Clc1ccc([C;ether]c2ncccc2)cc1

>  <apo>
1

>  <freq>
2

>  <freq0>
0

>  <freq1>
2

>  <freqA>
1.9984947

>  <a_count>
24

$$$$

  MOE2015           2D

 13 13  0  0  0  0  0  0  0  0999 V2000
   -1.1490   -1.9890    0.0000 F   0  0  0  0  0  0  0  0  0  0  0  0
   -0.3990   -3.2880    0.0000 C   0  0  0  0  0  0  0  0  0  0  0  0
    0.3510   -4.5870    0.0000 F   0  0  0  0  0  0  0  0  0  0  0  0
   -1.6980   -4.0380    0.0000 F   0  0  0  0  0  0  0  0  0  0  0  0
    0.9000   -2.5380    0.0000 C   0  0  0  0  0  0  0  0  0  0  0  0
    2.1990   -3.2880    0.0000 C   0  0  0  0  0  0  0  0  0  0  0  0
    3.4990   -2.5380    0.0000 C   0  0  0  0  0  0  0  0  0  0  0  0
    4.7980   -3.2880    0.0000 C   0  0  0  0  0  0  0  0  0  0  0  0
    6.0970   -2.5380    0.0000 C   0  0  0  0  0  0  0  0  0  0  0  0
    7.3960   -3.2880    0.0000 C   0  0  0  0  0  0  0  0  0  0  0  0
    3.4990   -1.0380    0.0000 C   0  0  0  0  0  0  0  0  0  0  0  0
    2.1990   -0.2880    0.0000 C   0  0  0  0  0  0  0  0  0  0  0  0
    0.9000   -1.0380    0.0000 C   0  0  0  0  0  0  0  0  0  0  0  0
  1  2  1  0  0  0  0
  2  3  1  0  0  0  0
  2  4  1  0  0  0  0
  2  5  1  0  0  0  0
  5  6  1  0  0  0  0
  5 13  2  0  0  0  0
  6  7  2  0  0  0  0
  7  8  1  0  0  0  0
  7 11  1  0  0  0  0
  8  9  1  0  0  0  0
  9 10  1  0  0  0  0
 11 12  2  0  0  0  0
 12 13  1  0  0  0  0
M  END
>  <name>
FC(F)(F)c1cc(C[C;amine]C)ccc1

>  <apo>
1

>  <freq>
2

>  <freq0>
0

>  <freq1>
2

>  <freqA>
1.9984947

>  <a_count>
24

$$$$

  MOE2015           2D

 16 18  0  0  0  0  0  0  0  0999 V2000
    9.4120    2.4840    0.0000 F   0  0  0  0  0  0  0  0  0  0  0  0
    8.1080    1.7440    0.0000 C   0  0  0  0  0  0  0  0  0  0  0  0
    9.3590    0.9170    0.0000 F   0  0  0  0  0  0  0  0  0  0  0  0
    7.1850    0.5610    0.0000 O   0  0  0  0  0  0  0  0  0  0  0  0
    5.7750    1.0720    0.0000 C   0  0  0  0  0  0  0  0  0  0  0  0
    5.8260    2.5710    0.0000 C   0  0  0  0  0  0  0  0  0  0  0  0
    7.2670    2.9860    0.0000 O   0  0  0  0  0  0  0  0  0  0  0  0
    4.5530    3.3650    0.0000 C   0  0  0  0  0  0  0  0  0  0  0  0
    3.2290    2.6590    0.0000 C   0  0  0  0  0  0  0  0  0  0  0  0
    3.1790    1.1600    0.0000 C   0  0  0  0  0  0  0  0  0  0  0  0
    1.8550    0.4540    0.0000 C   0  0  0  0  0  0  0  0  0  0  0  0
    1.5160    1.9150    0.0000 C   0  0  0  0  0  0  0  0  0  0  0  0
    0.0810    2.3520    0.0000 O   0  0  0  0  0  0  0  0  0  0  0  0
    2.0010   -1.0390    0.0000 C   0  0  0  0  0  0  0  0  0  0  0  0
    0.6350   -0.4180    0.0000 C   0  0  0  0  0  0  0  0  0  0  0  0
    4.4520    0.3660    0.0000 C   0  0  0  0  0  0  0  0  0  0  0  0
  1  2  1  0  0  0  0
  2  3  1  0  0  0  0
  2  4  1  0  0  0  0
  2  7  1  0  0  0  0
  4  5  1  0  0  0  0
  5  6  1  0  0  0  0
  5 16  2  0  0  0  0
  6  7  1  0  0  0  0
  6  8  2  0  0  0  0
  8  9  1  0  0  0  0
  9 10  2  0  0  0  0
 10 11  1  0  0  0  0
 10 16  1  0  0  0  0
 11 12  1  0  0  0  0
 11 14  1  0  0  0  0
 11 15  1  0  0  0  0
 12 13  2  0  0  0  0
 14 15  1  0  0  0  0
M  END
>  <name>
FC1(F)Oc2c(O1)ccc(C1([C;amide]=O)CC1)c2

>  <apo>
1

>  <freq>
2

>  <freq0>
0

>  <freq1>
2

>  <freqA>
1.9984947

>  <a_count>
24

$$$$

  MOE2015           2D

 14 15  0  0  1  0  0  0  0  0999 V2000
    0.9240    5.0110    0.0000 O   0  0  0  0  0  0  0  0  0  0  0  0
    0.1740    3.7120    0.0000 C   0  0  0  0  0  0  0  0  0  0  0  0
   -1.3260    3.7120    0.0000 O   0  0  0  0  0  0  0  0  0  0  0  0
    0.9240    2.4120    0.0000 C   0  0  0  0  0  0  0  0  0  0  0  0
    0.1740    1.1130    0.0000 C   0  0  0  0  0  0  0  0  0  0  0  0
   -1.3260    1.1130    0.0000 C   0  0  0  0  0  0  0  0  0  0  0  0
    0.9240   -0.1860    0.0000 C   0  0  0  0  0  0  0  0  0  0  0  0
    2.4240   -0.1860    0.0000 S   0  0  0  0  0  0  0  0  0  0  0  0
    3.1740    1.1130    0.0000 C   0  0  2  0  0  0  0  0  0  0  0  0
    4.4730    1.8630    0.0000 C   0  0  1  0  0  0  0  0  0  0  0  0
    5.9220    1.4750    0.0000 N   0  0  0  0  0  0  0  0  0  0  0  0
    3.7230    3.1620    0.0000 C   0  0  0  0  0  0  0  0  0  0  0  0
    4.1110    4.6110    0.0000 O   0  0  0  0  0  0  0  0  0  0  0  0
    2.4240    2.4120    0.0000 N   0  0  0  0  0  0  0  0  0  0  0  0
  1  2  2  0  0  0  0
  2  3  1  0  0  0  0
  2  4  1  0  0  0  0
  4  5  2  0  0  0  0
  4 14  1  0  0  0  0
  5  6  1  0  0  0  0
  5  7  1  0  0  0  0
  7  8  1  0  0  0  0
  9  8  1  1  0  0  0
  9 10  1  0  0  0  0
  9 14  1  0  0  0  0
 10 11  1  6  0  0  0
 10 12  1  0  0  0  0
 12 13  2  0  0  0  0
 12 14  1  0  0  0  0
M  END
>  <name>
O=C(O)C1=C([C;thioether])CS[C@@H]2[C@@H;ether]([N;amide])C(=O)N12

>  <apo>
3

>  <freq>
2

>  <freq0>
0

>  <freq1>
2

>  <freqA>
1.9984947

>  <a_count>
24

$$$$

  MOE2015           2D

 12 12  0  0  0  0  0  0  0  0999 V2000
   10.0250    0.5610    0.0000 O   0  0  0  0  0  0  0  0  0  0  0  0
    8.7260    1.3110    0.0000 C   0  0  0  0  0  0  0  0  0  0  0  0
    8.7260    2.8110    0.0000 O   0  0  0  0  0  0  0  0  0  0  0  0
    7.4270    0.5610    0.0000 C   0  0  0  0  0  0  0  0  0  0  0  0
    6.1280    1.3110    0.0000 C   0  0  0  0  0  0  0  0  0  0  0  0
    4.8290    0.5610    0.0000 C   0  0  0  0  0  0  0  0  0  0  0  0
    3.5300    1.3110    0.0000 C   0  0  0  0  0  0  0  0  0  0  0  0
    2.2310    0.5610    0.0000 C   0  0  0  0  0  0  0  0  0  0  0  0
    0.9320    1.3110    0.0000 C   0  0  0  0  0  0  0  0  0  0  0  0
    0.9320    2.8110    0.0000 C   0  0  0  0  0  0  0  0  0  0  0  0
    2.2310    3.5610    0.0000 C   0  0  0  0  0  0  0  0  0  0  0  0
    3.5300    2.8110    0.0000 C   0  0  0  0  0  0  0  0  0  0  0  0
  1  2  2  0  0  0  0
  2  3  1  0  0  0  0
  2  4  1  0  0  0  0
  4  5  1  0  0  0  0
  5  6  1  0  0  0  0
  6  7  1  0  0  0  0
  7  8  1  0  0  0  0
  7 12  2  0  0  0  0
  8  9  2  0  0  0  0
  9 10  1  0  0  0  0
 10 11  2  0  0  0  0
 11 12  1  0  0  0  0
M  END
>  <name>
O=C(O)[C;amine]CCc1ccccc1

>  <apo>
1

>  <freq>
2

>  <freq0>
0

>  <freq1>
2

>  <freqA>
1.9984947

>  <a_count>
24

$$$$

  MOE2015           2D

 13 13  0  0  1  0  0  0  0  0999 V2000
    7.9620    0.6000    0.0000 O   0  0  0  0  0  0  0  0  0  0  0  0
    7.2120    1.8990    0.0000 C   0  0  0  0  0  0  0  0  0  0  0  0
    7.9620    3.1980    0.0000 O   0  0  0  0  0  0  0  0  0  0  0  0
    5.7120    1.8990    0.0000 C   0  0  1  0  0  0  0  0  0  0  0  0
    4.9620    0.6000    0.0000 N   0  0  0  0  0  0  0  0  0  0  0  0
    4.9620    3.1980    0.0000 C   0  0  0  0  0  0  0  0  0  0  0  0
    3.4620    3.1980    0.0000 C   0  0  0  0  0  0  0  0  0  0  0  0
    2.7120    1.8990    0.0000 C   0  0  0  0  0  0  0  0  0  0  0  0
    1.2120    1.8990    0.0000 C   0  0  0  0  0  0  0  0  0  0  0  0
    0.4620    3.1980    0.0000 C   0  0  0  0  0  0  0  0  0  0  0  0
   -1.0380    3.1980    0.0000 O   0  0  0  0  0  0  0  0  0  0  0  0
    1.2120    4.4970    0.0000 C   0  0  0  0  0  0  0  0  0  0  0  0
    2.7120    4.4970    0.0000 C   0  0  0  0  0  0  0  0  0  0  0  0
  1  2  2  0  0  0  0
  2  3  1  0  0  0  0
  2  4  1  0  0  0  0
  4  5  1  1  0  0  0
  4  6  1  0  0  0  0
  6  7  1  0  0  0  0
  7  8  1  0  0  0  0
  7 13  2  0  0  0  0
  8  9  2  0  0  0  0
  9 10  1  0  0  0  0
 10 11  1  0  0  0  0
 10 12  2  0  0  0  0
 12 13  1  0  0  0  0
M  END
>  <name>
O=C(O)[C@@H]([N;amide])Cc1ccc(O)cc1

>  <apo>
1

>  <freq>
2

>  <freq0>
0

>  <freq1>
2

>  <freqA>
1.9984947

>  <a_count>
24

$$$$

  MOE2015           2D

 12 12  0  0  1  0  0  0  0  0999 V2000
    4.4870    2.5900    0.0000 O   0  0  0  0  0  0  0  0  0  0  0  0
    3.7370    1.2910    0.0000 C   0  0  0  0  0  0  0  0  0  0  0  0
    4.4870   -0.0080    0.0000 C   0  0  0  0  0  0  0  0  0  0  0  0
    5.9870   -0.0080    0.0000 O   0  0  0  0  0  0  0  0  0  0  0  0
    2.2370    1.2910    0.0000 C   0  0  1  0  0  0  0  0  0  0  0  0
    2.9870    2.5900    0.0000 O   0  0  0  0  0  0  0  0  0  0  0  0
    0.9370    2.0410    0.0000 C   0  0  2  0  0  0  0  0  0  0  0  0
    0.9370    3.5410    0.0000 C   0  0  0  0  0  0  0  0  0  0  0  0
   -0.3620    1.2910    0.0000 C   0  0  0  0  0  0  0  0  0  0  0  0
   -0.3620   -0.2090    0.0000 C   0  0  0  0  0  0  0  0  0  0  0  0
    0.9370   -0.9590    0.0000 C   0  0  0  0  0  0  0  0  0  0  0  0
    2.2370   -0.2090    0.0000 O   0  0  0  0  0  0  0  0  0  0  0  0
  1  2  2  0  0  0  0
  2  3  1  0  0  0  0
  5  2  1  6  0  0  0
  3  4  2  0  0  0  0
  5  6  1  1  0  0  0
  5  7  1  0  0  0  0
  5 12  1  0  0  0  0
  7  8  1  1  0  0  0
  7  9  1  0  0  0  0
  9 10  1  0  0  0  0
 10 11  1  0  0  0  0
 11 12  1  0  0  0  0
M  END
>  <name>
O=C([C;amide]=O)[C@@]1(O)[C@H](C)C[C;ether][C;ether]O1

>  <apo>
3

>  <freq>
2

>  <freq0>
0

>  <freq1>
2

>  <freqA>
1.9984947

>  <a_count>
24

$$$$

  MOE2015           2D

 12 12  0  0  0  0  0  0  0  0999 V2000
    9.9130   -2.6560    0.0000 O   0  0  0  0  0  0  0  0  0  0  0  0
    8.6140   -1.9060    0.0000 C   0  0  0  0  0  0  0  0  0  0  0  0
    7.3150   -2.6560    0.0000 C   0  0  0  0  0  0  0  0  0  0  0  0
    6.0160   -1.9060    0.0000 C   0  0  0  0  0  0  0  0  0  0  0  0
    4.7170   -2.6560    0.0000 C   0  0  0  0  0  0  0  0  0  0  0  0
    3.4170   -1.9060    0.0000 C   0  0  0  0  0  0  0  0  0  0  0  0
    2.1180   -2.6560    0.0000 C   0  0  0  0  0  0  0  0  0  0  0  0
    0.8190   -1.9060    0.0000 C   0  0  0  0  0  0  0  0  0  0  0  0
    2.1180   -4.1560    0.0000 C   0  0  0  0  0  0  0  0  0  0  0  0
    0.8190   -4.9060    0.0000 O   0  0  0  0  0  0  0  0  0  0  0  0
    3.4170   -4.9060    0.0000 C   0  0  0  0  0  0  0  0  0  0  0  0
    4.7170   -4.1560    0.0000 C   0  0  0  0  0  0  0  0  0  0  0  0
  1  2  2  0  0  0  0
  2  3  1  0  0  0  0
  3  4  1  0  0  0  0
  4  5  1  0  0  0  0
  5  6  1  0  0  0  0
  5 12  2  0  0  0  0
  6  7  2  0  0  0  0
  7  8  1  0  0  0  0
  7  9  1  0  0  0  0
  9 10  1  0  0  0  0
  9 11  2  0  0  0  0
 11 12  1  0  0  0  0
M  END
>  <name>
O=[C;amide]CCc1cc([C;amine])c(O)cc1

>  <apo>
2

>  <freq>
2

>  <freq0>
0

>  <freq1>
2

>  <freqA>
1.9984947

>  <a_count>
24

$$$$

  MOE2015           2D

 12 12  0  0  1  0  0  0  0  0999 V2000
    7.0390   -1.8860    0.0000 O   0  0  0  0  0  0  0  0  0  0  0  0
    5.7400   -1.1360    0.0000 C   0  0  3  0  0  0  0  0  0  0  0  0
    5.7400    0.3640    0.0000 C   0  0  0  0  0  0  0  0  0  0  0  0
    4.4410   -1.8860    0.0000 C   0  0  0  0  0  0  0  0  0  0  0  0
    3.1420   -1.1360    0.0000 C   0  0  0  0  0  0  0  0  0  0  0  0
    1.8430   -1.8860    0.0000 C   0  0  0  0  0  0  0  0  0  0  0  0
    0.5440   -1.1360    0.0000 C   0  0  0  0  0  0  0  0  0  0  0  0
    0.5440    0.3640    0.0000 O   0  0  0  0  0  0  0  0  0  0  0  0
    1.8430   -3.3860    0.0000 C   0  0  0  0  0  0  0  0  0  0  0  0
    0.5440   -4.1360    0.0000 O   0  0  0  0  0  0  0  0  0  0  0  0
    3.1420   -4.1360    0.0000 C   0  0  0  0  0  0  0  0  0  0  0  0
    4.4410   -3.3860    0.0000 C   0  0  0  0  0  0  0  0  0  0  0  0
  1  2  1  0  0  0  0
  2  3  1  0  0  0  0
  2  4  1  0  0  0  0
  4  5  1  0  0  0  0
  4 12  2  0  0  0  0
  5  6  2  0  0  0  0
  6  7  1  0  0  0  0
  6  9  1  0  0  0  0
  7  8  1  0  0  0  0
  9 10  1  0  0  0  0
  9 11  2  0  0  0  0
 11 12  1  0  0  0  0
M  END
>  <name>
OC([C;amine])c1cc(CO)c(O)cc1

>  <apo>
1

>  <freq>
2

>  <freq0>
0

>  <freq1>
2

>  <freqA>
1.9984947

>  <a_count>
24

$$$$

  MOE2015           2D

 11 11  0  0  1  0  0  0  0  0999 V2000
    6.5450    0.4720    0.0000 O   0  0  0  0  0  0  0  0  0  0  0  0
    5.7950    1.7710    0.0000 C   0  0  0  0  0  0  0  0  0  0  0  0
    4.2950    1.7710    0.0000 C   0  0  2  0  0  0  0  0  0  0  0  0
    3.5450    3.0700    0.0000 C   0  0  1  0  0  0  0  0  0  0  0  0
    4.2950    4.3690    0.0000 O   0  0  0  0  0  0  0  0  0  0  0  0
    2.0450    3.0700    0.0000 C   0  0  2  0  0  0  0  0  0  0  0  0
    1.2950    4.3690    0.0000 O   0  0  0  0  0  0  0  0  0  0  0  0
    1.2950    1.7710    0.0000 C   0  0  1  0  0  0  0  0  0  0  0  0
   -0.2050    1.7710    0.0000 O   0  0  0  0  0  0  0  0  0  0  0  0
    2.0450    0.4720    0.0000 C   0  0  0  0  0  0  0  0  0  0  0  0
    3.5450    0.4720    0.0000 N   0  0  0  0  0  0  0  0  0  0  0  0
  1  2  1  0  0  0  0
  3  2  1  1  0  0  0
  3  4  1  0  0  0  0
  3 11  1  0  0  0  0
  4  5  1  6  0  0  0
  4  6  1  0  0  0  0
  6  7  1  1  0  0  0
  6  8  1  0  0  0  0
  8  9  1  6  0  0  0
  8 10  1  0  0  0  0
 10 11  1  0  0  0  0
M  END
>  <name>
OC[C@@H]1[C@@H](O)[C@H](O)[C@@H](O)C[N;amine]1

>  <apo>
1

>  <freq>
2

>  <freq0>
0

>  <freq1>
2

>  <freqA>
1.9984947

>  <a_count>
24

$$$$

  MOE2015           2D

 11 11  0  0  1  0  0  0  0  0999 V2000
    6.5450    0.4720    0.0000 O   0  0  0  0  0  0  0  0  0  0  0  0
    5.7950    1.7710    0.0000 C   0  0  0  0  0  0  0  0  0  0  0  0
    4.2950    1.7710    0.0000 C   0  0  2  0  0  0  0  0  0  0  0  0
    3.5450    3.0700    0.0000 C   0  0  1  0  0  0  0  0  0  0  0  0
    4.2950    4.3690    0.0000 O   0  0  0  0  0  0  0  0  0  0  0  0
    2.0450    3.0700    0.0000 C   0  0  2  0  0  0  0  0  0  0  0  0
    1.2950    4.3690    0.0000 O   0  0  0  0  0  0  0  0  0  0  0  0
    1.2950    1.7710    0.0000 C   0  0  2  0  0  0  0  0  0  0  0  0
   -0.2050    1.7710    0.0000 N   0  0  0  0  0  0  0  0  0  0  0  0
    2.0450    0.4720    0.0000 C   0  0  0  0  0  0  0  0  0  0  0  0
    3.5450    0.4720    0.0000 O   0  0  0  0  0  0  0  0  0  0  0  0
  1  2  1  0  0  0  0
  3  2  1  1  0  0  0
  3  4  1  0  0  0  0
  3 11  1  0  0  0  0
  4  5  1  6  0  0  0
  4  6  1  0  0  0  0
  6  7  1  1  0  0  0
  6  8  1  0  0  0  0
  8  9  1  1  0  0  0
  8 10  1  0  0  0  0
 10 11  1  0  0  0  0
M  END
>  <name>
OC[C@@H]1[C@@H](O)[C@H](O)[C@H]([N;amide])[C;ether]O1

>  <apo>
2

>  <freq>
2

>  <freq0>
0

>  <freq1>
2

>  <freqA>
1.9984947

>  <a_count>
24

$$$$

  MOE2015           2D

 12 12  0  0  1  0  0  0  0  0999 V2000
    7.0390   -1.8860    0.0000 O   0  0  0  0  0  0  0  0  0  0  0  0
    5.7400   -1.1360    0.0000 C   0  0  2  0  0  0  0  0  0  0  0  0
    5.7400    0.3640    0.0000 C   0  0  0  0  0  0  0  0  0  0  0  0
    4.4410   -1.8860    0.0000 C   0  0  0  0  0  0  0  0  0  0  0  0
    3.1420   -1.1360    0.0000 C   0  0  0  0  0  0  0  0  0  0  0  0
    1.8430   -1.8860    0.0000 C   0  0  0  0  0  0  0  0  0  0  0  0
    0.5440   -1.1360    0.0000 C   0  0  0  0  0  0  0  0  0  0  0  0
    0.5440    0.3640    0.0000 O   0  0  0  0  0  0  0  0  0  0  0  0
    1.8430   -3.3860    0.0000 C   0  0  0  0  0  0  0  0  0  0  0  0
    0.5440   -4.1360    0.0000 O   0  0  0  0  0  0  0  0  0  0  0  0
    3.1420   -4.1360    0.0000 C   0  0  0  0  0  0  0  0  0  0  0  0
    4.4410   -3.3860    0.0000 C   0  0  0  0  0  0  0  0  0  0  0  0
  2  1  1  1  0  0  0
  2  3  1  0  0  0  0
  2  4  1  0  0  0  0
  4  5  1  0  0  0  0
  4 12  2  0  0  0  0
  5  6  2  0  0  0  0
  6  7  1  0  0  0  0
  6  9  1  0  0  0  0
  7  8  1  0  0  0  0
  9 10  1  0  0  0  0
  9 11  2  0  0  0  0
 11 12  1  0  0  0  0
M  END
>  <name>
O[C@H]([C;amine])c1cc(CO)c(O)cc1

>  <apo>
1

>  <freq>
2

>  <freq0>
0

>  <freq1>
2

>  <freqA>
1.9984947

>  <a_count>
24

$$$$

  MOE2015           2D

 11 11  0  0  1  0  0  0  0  0999 V2000
    2.4050    2.4050    0.0000 O   0  0  0  0  0  0  0  0  0  0  0  0
    2.4050    0.9050    0.0000 C   0  0  1  0  0  0  0  0  0  0  0  0
    1.1060    0.1550    0.0000 C   0  0  1  0  0  0  0  0  0  0  0  0
   -0.1930    0.9050    0.0000 O   0  0  0  0  0  0  0  0  0  0  0  0
    1.1060   -1.3450    0.0000 C   0  0  2  0  0  0  0  0  0  0  0  0
   -0.1930   -2.0950    0.0000 O   0  0  0  0  0  0  0  0  0  0  0  0
    2.4050   -2.0950    0.0000 C   0  0  0  0  0  0  0  0  0  0  0  0
    3.7040   -1.3450    0.0000 O   0  0  0  0  0  0  0  0  0  0  0  0
    3.7040    0.1550    0.0000 C   0  0  2  0  0  0  0  0  0  0  0  0
    5.0030    0.9050    0.0000 C   0  0  0  0  0  0  0  0  0  0  0  0
    6.3020    0.1550    0.0000 N   0  0  0  0  0  0  0  0  0  0  0  0
  2  1  1  6  0  0  0
  2  3  1  0  0  0  0
  2  9  1  0  0  0  0
  3  4  1  6  0  0  0
  3  5  1  0  0  0  0
  5  6  1  1  0  0  0
  5  7  1  0  0  0  0
  7  8  1  0  0  0  0
  8  9  1  0  0  0  0
  9 10  1  1  0  0  0
 10 11  1  0  0  0  0
M  END
>  <name>
O[C@H]1[C@@H](O)[C@H](O)[C;ether]O[C@@H]1CN

>  <apo>
1

>  <freq>
2

>  <freq0>
0

>  <freq1>
2

>  <freqA>
1.9984947

>  <a_count>
24

$$$$

  MOE2015           2D

 12 11  0  0  1  0  0  0  0  0999 V2000
   -0.8660   -1.5000    0.0000 P   0  0  0  0  0  0  0  0  0  0  0  0
   -0.1160   -2.7990    0.0000 O   0  0  0  0  0  0  0  0  0  0  0  0
    0.4330   -0.7500    0.0000 O   0  0  0  0  0  0  0  0  0  0  0  0
    1.7320   -1.5000    0.0000 C   0  0  0  0  0  0  0  0  0  0  0  0
    3.0310   -0.7500    0.0000 C   0  0  3  0  0  0  0  0  0  0  0  0
    3.0310    0.7500    0.0000 O   0  0  0  0  0  0  0  0  0  0  0  0
    4.3300   -1.5000    0.0000 C   0  0  0  0  0  0  0  0  0  0  0  0
    5.6290   -0.7500    0.0000 O   0  0  0  0  0  0  0  0  0  0  0  0
   -2.1650   -2.2500    0.0000 O   0  0  0  0  0  0  0  0  0  0  0  0
   -3.4640   -1.5000    0.0000 C   0  0  0  0  0  0  0  0  0  0  0  0
   -4.7630   -2.2500    0.0000 C   0  0  0  0  0  0  0  0  0  0  0  0
   -1.6160   -0.2010    0.0000 O   0  5  0  0  0  0  0  0  0  0  0  0
  1  2  2  0  0  0  0
  1  3  1  0  0  0  0
  1  9  1  0  0  0  0
  1 12  1  0  0  0  0
  3  4  1  0  0  0  0
  4  5  1  0  0  0  0
  5  6  1  0  0  0  0
  5  7  1  0  0  0  0
  7  8  1  0  0  0  0
  9 10  1  0  0  0  0
 10 11  1  0  0  0  0
M  CHG  1  12  -1
M  END
>  <name>
P(=O)(OCC([O;ester])C[O;ester])(OC[C;quatN])[O-]

>  <apo>
3

>  <freq>
2

>  <freq0>
0

>  <freq1>
2

>  <freqA>
1.9984947

>  <a_count>
24

$$$$

  MOE2015           2D

 11 11  0  0  0  0  0  0  0  0999 V2000
    0.2660    1.4630    0.0000 Br  0  0  0  0  0  0  0  0  0  0  0  0
    1.5650    0.7130    0.0000 C   0  0  0  0  0  0  0  0  0  0  0  0
    2.8640    1.4630    0.0000 C   0  0  0  0  0  0  0  0  0  0  0  0
    2.8640    2.9630    0.0000 C   0  0  0  0  0  0  0  0  0  0  0  0
    4.1630    0.7130    0.0000 C   0  0  0  0  0  0  0  0  0  0  0  0
    5.4620    1.4630    0.0000 N   0  0  0  0  0  0  0  0  0  0  0  0
    4.1630   -0.7870    0.0000 C   0  0  0  0  0  0  0  0  0  0  0  0
    5.4620   -1.5370    0.0000 C   0  0  0  0  0  0  0  0  0  0  0  0
    2.8640   -1.5370    0.0000 C   0  0  0  0  0  0  0  0  0  0  0  0
    1.5650   -0.7870    0.0000 C   0  0  0  0  0  0  0  0  0  0  0  0
    0.2660   -1.5370    0.0000 C   0  0  0  0  0  0  0  0  0  0  0  0
  1  2  1  0  0  0  0
  2  3  1  0  0  0  0
  2 10  2  0  0  0  0
  3  4  1  0  0  0  0
  3  5  2  0  0  0  0
  5  6  1  0  0  0  0
  5  7  1  0  0  0  0
  7  8  1  0  0  0  0
  7  9  2  0  0  0  0
  9 10  1  0  0  0  0
 10 11  1  0  0  0  0
M  END
>  <name>
Brc1c(C)c([N;amide])c(C)cc1C

>  <apo>
1

>  <freq>
2

>  <freq0>
0

>  <freq1>
2

>  <freqA>
1.9984947

>  <a_count>
23

$$$$

  MOE2015           2D

  8  8  0  0  0  0  0  0  0  0999 V2000
    0.0000    0.0000    0.0000 C   0  0  0  0  0  0  0  0  0  0  0  0
    1.5000    0.0000    0.0000 N   0  0  0  0  0  0  0  0  0  0  0  0
    2.2500   -1.2990    0.0000 C   0  0  0  0  0  0  0  0  0  0  0  0
    3.7500   -1.2990    0.0000 C   0  0  0  0  0  0  0  0  0  0  0  0
    4.5000    0.0000    0.0000 C   0  0  0  0  0  0  0  0  0  0  0  0
    6.0000    0.0000    0.0000 C   0  0  0  0  0  0  0  0  0  0  0  0
    3.7500    1.2990    0.0000 C   0  0  0  0  0  0  0  0  0  0  0  0
    2.2500    1.2990    0.0000 C   0  0  0  0  0  0  0  0  0  0  0  0
  1  2  1  0  0  0  0
  2  3  1  0  0  0  0
  2  8  1  0  0  0  0
  3  4  1  0  0  0  0
  4  5  1  0  0  0  0
  5  6  1  0  0  0  0
  5  7  1  0  0  0  0
  7  8  1  0  0  0  0
M  END
>  <name>
CN1CCC([C;ether])CC1

>  <apo>
1

>  <freq>
2

>  <freq0>
0

>  <freq1>
2

>  <freqA>
1.9984947

>  <a_count>
23

$$$$

  MOE2015           2D

  9  9  0  0  1  0  0  0  0  0999 V2000
    6.0000   -3.4640    0.0000 N   0  0  0  0  0  0  0  0  0  0  0  0
    5.2500   -2.1650    0.0000 C   0  0  0  0  0  0  0  0  0  0  0  0
    3.7500   -2.1650    0.0000 C   0  0  1  0  0  0  0  0  0  0  0  0
    3.0000   -0.8660    0.0000 O   0  0  0  0  0  0  0  0  0  0  0  0
    1.5000   -0.8660    0.0000 C   0  0  0  0  0  0  0  0  0  0  0  0
    0.7500   -2.1650    0.0000 C   0  0  2  0  0  0  0  0  0  0  0  0
   -0.7500   -2.1650    0.0000 N   0  0  0  0  0  0  0  0  0  0  0  0
    1.5000   -3.4640    0.0000 C   0  0  0  0  0  0  0  0  0  0  0  0
    3.0000   -3.4640    0.0000 C   0  0  0  0  0  0  0  0  0  0  0  0
  1  2  1  0  0  0  0
  3  2  1  6  0  0  0
  3  4  1  0  0  0  0
  3  9  1  0  0  0  0
  4  5  1  0  0  0  0
  5  6  1  0  0  0  0
  6  7  1  1  0  0  0
  6  8  1  0  0  0  0
  8  9  1  0  0  0  0
M  END
>  <name>
NC[C@H]1O[C;ether][C@H](N)CC1

>  <apo>
1

>  <freq>
2

>  <freq0>
0

>  <freq1>
2

>  <freqA>
1.9984947

>  <a_count>
23

$$$$

  MOE2015           2D

 13 14  0  0  0  0  0  0  0  0999 V2000
    0.6920   -2.5840    0.0000 O   0  0  0  0  0  0  0  0  0  0  0  0
   -0.6070   -1.8340    0.0000 C   0  0  0  0  0  0  0  0  0  0  0  0
   -1.9060   -2.5840    0.0000 C   0  0  0  0  0  0  0  0  0  0  0  0
   -3.2050   -1.8340    0.0000 C   0  0  0  0  0  0  0  0  0  0  0  0
   -3.2050   -0.3340    0.0000 C   0  0  0  0  0  0  0  0  0  0  0  0
   -1.9060    0.4160    0.0000 C   0  0  0  0  0  0  0  0  0  0  0  0
   -0.6070   -0.3340    0.0000 C   0  0  0  0  0  0  0  0  0  0  0  0
    1.9910   -1.8340    0.0000 C   0  0  0  0  0  0  0  0  0  0  0  0
    1.9910   -0.3340    0.0000 C   0  0  0  0  0  0  0  0  0  0  0  0
    3.2900    0.4160    0.0000 C   0  0  0  0  0  0  0  0  0  0  0  0
    4.5890   -0.3340    0.0000 C   0  0  0  0  0  0  0  0  0  0  0  0
    4.5890   -1.8340    0.0000 C   0  0  0  0  0  0  0  0  0  0  0  0
    3.2900   -2.5840    0.0000 C   0  0  0  0  0  0  0  0  0  0  0  0
  1  2  1  0  0  0  0
  1  8  1  0  0  0  0
  2  3  1  0  0  0  0
  2  7  2  0  0  0  0
  3  4  2  0  0  0  0
  4  5  1  0  0  0  0
  5  6  2  0  0  0  0
  6  7  1  0  0  0  0
  8  9  1  0  0  0  0
  8 13  2  0  0  0  0
  9 10  2  0  0  0  0
 10 11  1  0  0  0  0
 11 12  2  0  0  0  0
 12 13  1  0  0  0  0
M  END
>  <name>
O(c1cc[c;biphenyl]cc1)c1ccccc1

>  <apo>
1

>  <freq>
2

>  <freq0>
0

>  <freq1>
2

>  <freqA>
1.9984947

>  <a_count>
23

$$$$

  MOE2015           2D

 14 15  0  0  1  0  0  0  0  0999 V2000
    0.9240    5.0110    0.0000 O   0  0  0  0  0  0  0  0  0  0  0  0
    0.1740    3.7120    0.0000 C   0  0  0  0  0  0  0  0  0  0  0  0
   -1.3260    3.7120    0.0000 O   0  5  0  0  0  0  0  0  0  0  0  0
    0.9240    2.4120    0.0000 C   0  0  0  0  0  0  0  0  0  0  0  0
    0.1740    1.1130    0.0000 C   0  0  0  0  0  0  0  0  0  0  0  0
   -1.3260    1.1130    0.0000 C   0  0  0  0  0  0  0  0  0  0  0  0
    0.9240   -0.1860    0.0000 C   0  0  0  0  0  0  0  0  0  0  0  0
    2.4240   -0.1860    0.0000 S   0  0  0  0  0  0  0  0  0  0  0  0
    3.1740    1.1130    0.0000 C   0  0  2  0  0  0  0  0  0  0  0  0
    4.4730    1.8630    0.0000 C   0  0  2  0  0  0  0  0  0  0  0  0
    5.9220    1.4750    0.0000 N   0  0  0  0  0  0  0  0  0  0  0  0
    3.7230    3.1620    0.0000 C   0  0  0  0  0  0  0  0  0  0  0  0
    4.1110    4.6110    0.0000 O   0  0  0  0  0  0  0  0  0  0  0  0
    2.4240    2.4120    0.0000 N   0  0  0  0  0  0  0  0  0  0  0  0
  1  2  2  0  0  0  0
  2  3  1  0  0  0  0
  2  4  1  0  0  0  0
  4  5  2  0  0  0  0
  4 14  1  0  0  0  0
  5  6  1  0  0  0  0
  5  7  1  0  0  0  0
  7  8  1  0  0  0  0
  9  8  1  1  0  0  0
  9 10  1  0  0  0  0
  9 14  1  0  0  0  0
 10 11  1  1  0  0  0
 10 12  1  0  0  0  0
 12 13  2  0  0  0  0
 12 14  1  0  0  0  0
M  CHG  1   3  -1
M  END
>  <name>
O=C([O-])C1=C([C;quatN])CS[C@@H]2[C@H]([N;amide])C(=O)N12

>  <apo>
2

>  <freq>
2

>  <freq0>
0

>  <freq1>
2

>  <freqA>
1.9984947

>  <a_count>
23

$$$$

  MOE2015           2D

 12 12  0  0  0  0  0  0  0  0999 V2000
    1.2010    3.7990    0.0000 O   0  0  0  0  0  0  0  0  0  0  0  0
    1.2010    2.2990    0.0000 C   0  0  0  0  0  0  0  0  0  0  0  0
    2.5000    1.5490    0.0000 N   0  0  0  0  0  0  0  0  0  0  0  0
    3.7990    2.2990    0.0000 C   0  0  0  0  0  0  0  0  0  0  0  0
    5.0980    1.5490    0.0000 C   0  0  0  0  0  0  0  0  0  0  0  0
    6.3970    2.2990    0.0000 C   0  0  0  0  0  0  0  0  0  0  0  0
    7.6960    1.5490    0.0000 O   0  0  0  0  0  0  0  0  0  0  0  0
    2.5000    0.0490    0.0000 C   0  0  0  0  0  0  0  0  0  0  0  0
    1.2010   -0.7010    0.0000 C   0  0  0  0  0  0  0  0  0  0  0  0
   -0.0980    0.0490    0.0000 C   0  0  0  0  0  0  0  0  0  0  0  0
   -1.3970   -0.7010    0.0000 N   0  0  0  0  0  0  0  0  0  0  0  0
   -0.0980    1.5490    0.0000 N   0  0  0  0  0  0  0  0  0  0  0  0
  1  2  2  0  0  0  0
  2  3  1  0  0  0  0
  2 12  1  0  0  0  0
  3  4  1  0  0  0  0
  3  8  1  0  0  0  0
  4  5  1  0  0  0  0
  5  6  1  0  0  0  0
  6  7  1  0  0  0  0
  8  9  2  0  0  0  0
  9 10  1  0  0  0  0
 10 11  1  0  0  0  0
 10 12  2  0  0  0  0
M  END
>  <name>
O=C1N(C[C;ether]CO)C=CC(N)=N1

>  <apo>
1

>  <freq>
2

>  <freq0>
0

>  <freq1>
2

>  <freqA>
1.9984947

>  <a_count>
23

$$$$

  MOE2015           2D

  9  8  0  0  1  0  0  0  0  0999 V2000
   -0.4970   -1.8540    0.0000 O   0  0  0  0  0  0  0  0  0  0  0  0
    0.8020   -2.6040    0.0000 C   0  0  0  0  0  0  0  0  0  0  0  0
    2.1010   -1.8540    0.0000 C   0  0  3  0  0  0  0  0  0  0  0  0
    2.1010   -0.3540    0.0000 N   0  0  0  0  0  0  0  0  0  0  0  0
    3.4000   -2.6040    0.0000 C   0  0  0  0  0  0  0  0  0  0  0  0
    4.6990   -1.8540    0.0000 C   0  0  0  0  0  0  0  0  0  0  0  0
    5.9980   -2.6040    0.0000 C   0  0  0  0  0  0  0  0  0  0  0  0
    7.2970   -1.8540    0.0000 C   0  0  0  0  0  0  0  0  0  0  0  0
    8.5960   -2.6040    0.0000 N   0  0  0  0  0  0  0  0  0  0  0  0
  1  2  2  0  0  0  0
  2  3  1  0  0  0  0
  3  4  1  0  0  0  0
  3  5  1  0  0  0  0
  5  6  1  0  0  0  0
  6  7  1  0  0  0  0
  7  8  1  0  0  0  0
  8  9  1  0  0  0  0
M  END
>  <name>
O=[C;amide]C([N;amide])CCCCN

>  <apo>
2

>  <freq>
2

>  <freq0>
0

>  <freq1>
2

>  <freqA>
1.9984947

>  <a_count>
23

$$$$

  MOE2015           2D

  9  8  0  0  1  0  0  0  0  0999 V2000
   -0.4970   -1.8540    0.0000 O   0  0  0  0  0  0  0  0  0  0  0  0
    0.8020   -2.6040    0.0000 C   0  0  0  0  0  0  0  0  0  0  0  0
    2.1010   -1.8540    0.0000 C   0  0  1  0  0  0  0  0  0  0  0  0
    2.1010   -0.3540    0.0000 N   0  0  0  0  0  0  0  0  0  0  0  0
    3.4000   -2.6040    0.0000 C   0  0  0  0  0  0  0  0  0  0  0  0
    4.6990   -1.8540    0.0000 C   0  0  0  0  0  0  0  0  0  0  0  0
    5.9980   -2.6040    0.0000 C   0  0  0  0  0  0  0  0  0  0  0  0
    7.2970   -1.8540    0.0000 C   0  0  0  0  0  0  0  0  0  0  0  0
    8.5960   -2.6040    0.0000 N   0  0  0  0  0  0  0  0  0  0  0  0
  1  2  2  0  0  0  0
  2  3  1  0  0  0  0
  3  4  1  1  0  0  0
  3  5  1  0  0  0  0
  5  6  1  0  0  0  0
  6  7  1  0  0  0  0
  7  8  1  0  0  0  0
  8  9  1  0  0  0  0
M  END
>  <name>
O=[C;amide][C@@H]([N;amide])CCCC[N;amide]

>  <apo>
3

>  <freq>
2

>  <freq0>
0

>  <freq1>
2

>  <freqA>
1.9984947

>  <a_count>
23

$$$$

  MOE2015           2D

 11 11  0  0  1  0  0  0  0  0999 V2000
    8.0880    0.6670    0.0000 O   0  0  0  0  0  0  0  0  0  0  0  0
    6.7890    1.4170    0.0000 C   0  0  0  0  0  0  0  0  0  0  0  0
    5.4900    0.6670    0.0000 C   0  0  1  0  0  0  0  0  0  0  0  0
    5.4900   -0.8330    0.0000 N   0  0  0  0  0  0  0  0  0  0  0  0
    4.1910    1.4170    0.0000 C   0  0  2  0  0  0  0  0  0  0  0  0
    2.8920    0.6670    0.0000 N   0  0  0  0  0  0  0  0  0  0  0  0
    1.5930    1.4170    0.0000 C   0  0  0  0  0  0  0  0  0  0  0  0
    0.2940    0.6670    0.0000 N   0  0  0  0  0  0  0  0  0  0  0  0
    1.5930    2.9170    0.0000 N   0  0  0  0  0  0  0  0  0  0  0  0
    2.8920    3.6670    0.0000 C   0  0  0  0  0  0  0  0  0  0  0  0
    4.1910    2.9170    0.0000 C   0  0  0  0  0  0  0  0  0  0  0  0
  1  2  2  0  0  0  0
  2  3  1  0  0  0  0
  3  4  1  1  0  0  0
  3  5  1  0  0  0  0
  5  6  1  0  0  0  0
  5 11  1  6  0  0  0
  6  7  1  0  0  0  0
  7  8  1  0  0  0  0
  7  9  2  0  0  0  0
  9 10  1  0  0  0  0
 10 11  1  0  0  0  0
M  END
>  <name>
O=[C;amide][C@@H]([N;amide])[C@@H]1NC(N)=NCC1

>  <apo>
2

>  <freq>
2

>  <freq0>
0

>  <freq1>
2

>  <freqA>
1.9984947

>  <a_count>
23

$$$$

  MOE2015           2D

 10 11  0  0  1  0  0  0  0  0999 V2000
    7.1600    1.4950    0.0000 O   0  0  0  0  0  0  0  0  0  0  0  0
    5.7850    0.8940    0.0000 C   0  0  0  0  0  0  0  0  0  0  0  0
    4.5780    1.7850    0.0000 C   0  0  1  0  0  0  0  0  0  0  0  0
    4.5890    3.2850    0.0000 N   0  0  0  0  0  0  0  0  0  0  0  0
    3.1650    3.7590    0.0000 C   0  0  0  0  0  0  0  0  0  0  0  0
    2.2740    2.5520    0.0000 C   0  0  2  0  0  0  0  0  0  0  0  0
    1.6540    1.1860    0.0000 C   0  0  0  0  0  0  0  0  0  0  0  0
    0.1550    1.1540    0.0000 C   0  0  0  0  0  0  0  0  0  0  0  0
    1.2650   -0.2630    0.0000 C   0  0  0  0  0  0  0  0  0  0  0  0
    3.1470    1.3320    0.0000 C   0  0  2  0  0  0  0  0  0  0  0  0
  1  2  2  0  0  0  0
  3  2  1  6  0  0  0
  3  4  1  0  0  0  0
  3 10  1  0  0  0  0
  4  5  1  0  0  0  0
  6  5  1  1  0  0  0
  6  7  1  0  0  0  0
  6 10  1  0  0  0  0
  7  8  1  0  0  0  0
  7  9  1  0  0  0  0
 10  7  1  1  0  0  0
M  END
>  <name>
O=[C;amide][C@H]1[N;amide]C[C@@H]2C(C)(C)[C@H]12

>  <apo>
2

>  <freq>
2

>  <freq0>
0

>  <freq1>
2

>  <freqA>
1.9984947

>  <a_count>
23

$$$$

  MOE2015           2D

 13 14  0  0  0  0  0  0  0  0999 V2000
    8.4410    2.2620    0.0000 O   0  0  0  0  0  0  0  0  0  0  0  0
    7.1420    1.5120    0.0000 C   0  0  0  0  0  0  0  0  0  0  0  0
    5.8430    2.2620    0.0000 C   0  0  0  0  0  0  0  0  0  0  0  0
    4.5440    1.5120    0.0000 C   0  0  0  0  0  0  0  0  0  0  0  0
    3.2450    2.2620    0.0000 C   0  0  0  0  0  0  0  0  0  0  0  0
    1.8180    1.7980    0.0000 N   0  0  0  0  0  0  0  0  0  0  0  0
    0.9370    3.0120    0.0000 C   0  0  0  0  0  0  0  0  0  0  0  0
   -0.5630    3.0120    0.0000 C   0  0  0  0  0  0  0  0  0  0  0  0
    1.8180    4.2250    0.0000 N   0  0  0  0  0  0  0  0  0  0  0  0
    1.3550    5.6520    0.0000 C   0  0  0  0  0  0  0  0  0  0  0  0
    3.2450    3.7620    0.0000 C   0  0  0  0  0  0  0  0  0  0  0  0
    4.5440    4.5120    0.0000 C   0  0  0  0  0  0  0  0  0  0  0  0
    5.8430    3.7620    0.0000 C   0  0  0  0  0  0  0  0  0  0  0  0
  1  2  2  0  0  0  0
  2  3  1  0  0  0  0
  3  4  1  0  0  0  0
  3 13  2  0  0  0  0
  4  5  2  0  0  0  0
  5  6  1  0  0  0  0
  5 11  1  0  0  0  0
  6  7  2  0  0  0  0
  7  8  1  0  0  0  0
  7  9  1  0  0  0  0
  9 10  1  0  0  0  0
  9 11  1  0  0  0  0
 11 12  2  0  0  0  0
 12 13  1  0  0  0  0
M  END
>  <name>
O=[C;amide]c1cc2nc([C;amine])n(C)c2cc1

>  <apo>
2

>  <freq>
2

>  <freq0>
0

>  <freq1>
2

>  <freqA>
1.9984947

>  <a_count>
23

$$$$

  MOE2015           2D

  9  8  0  0  1  0  0  0  0  0999 V2000
   -0.3420   -1.2770    0.0000 O   0  0  0  0  0  0  0  0  0  0  0  0
    0.9570   -2.0270    0.0000 B   0  0  0  0  0  0  0  0  0  0  0  0
    0.9570   -3.5270    0.0000 O   0  0  0  0  0  0  0  0  0  0  0  0
    2.2560   -1.2770    0.0000 C   0  0  1  0  0  0  0  0  0  0  0  0
    2.2560    0.2230    0.0000 N   0  0  0  0  0  0  0  0  0  0  0  0
    3.5550   -2.0270    0.0000 C   0  0  0  0  0  0  0  0  0  0  0  0
    4.8540   -1.2770    0.0000 C   0  0  0  0  0  0  0  0  0  0  0  0
    6.1530   -2.0270    0.0000 C   0  0  0  0  0  0  0  0  0  0  0  0
    4.8540    0.2230    0.0000 C   0  0  0  0  0  0  0  0  0  0  0  0
  1  2  1  0  0  0  0
  2  3  1  0  0  0  0
  2  4  1  0  0  0  0
  4  5  1  1  0  0  0
  4  6  1  0  0  0  0
  6  7  1  0  0  0  0
  7  8  1  0  0  0  0
  7  9  1  0  0  0  0
M  END
>  <name>
OB(O)[C@@H]([N;amide])CC(C)C

>  <apo>
1

>  <freq>
2

>  <freq0>
0

>  <freq1>
2

>  <freqA>
1.9984947

>  <a_count>
23

$$$$

  MOE2015           2D

  9  9  0  0  1  0  0  0  0  0999 V2000
    5.5980   -1.5000    0.0000 O   0  0  0  0  0  0  0  0  0  0  0  0
    4.2990   -0.7500    0.0000 C   0  0  0  0  0  0  0  0  0  0  0  0
    4.2990    0.7500    0.0000 C   0  0  0  0  0  0  0  0  0  0  0  0
    3.0000    1.5000    0.0000 C   0  0  1  0  0  0  0  0  0  0  0  0
    3.0000    3.0000    0.0000 N   0  0  0  0  0  0  0  0  0  0  0  0
    1.7010    0.7500    0.0000 C   0  0  0  0  0  0  0  0  0  0  0  0
    1.7010   -0.7500    0.0000 C   0  0  1  0  0  0  0  0  0  0  0  0
    0.4020   -1.5000    0.0000 N   0  0  0  0  0  0  0  0  0  0  0  0
    3.0000   -1.5000    0.0000 C   0  0  0  0  0  0  0  0  0  0  0  0
  1  2  1  0  0  0  0
  2  3  1  0  0  0  0
  2  9  1  0  0  0  0
  3  4  1  0  0  0  0
  4  5  1  6  0  0  0
  4  6  1  0  0  0  0
  6  7  1  0  0  0  0
  7  8  1  6  0  0  0
  7  9  1  0  0  0  0
M  END
>  <name>
OC1[C;ether][C@@H](N)C[C@@H]([N;amide])[C;ether]1

>  <apo>
3

>  <freq>
2

>  <freq0>
0

>  <freq1>
2

>  <freqA>
1.9984947

>  <a_count>
23

$$$$

  MOE2015           2D

 11 11  0  0  1  0  0  0  0  0999 V2000
    5.1140   -0.1180    0.0000 O   0  0  0  0  0  0  0  0  0  0  0  0
    4.3640   -1.4170    0.0000 C   0  0  1  0  0  0  0  0  0  0  0  0
    5.1140   -2.7160    0.0000 C   0  0  0  0  0  0  0  0  0  0  0  0
    6.6140   -2.7160    0.0000 C   0  0  0  0  0  0  0  0  0  0  0  0
    2.8640   -1.4170    0.0000 C   0  0  0  0  0  0  0  0  0  0  0  0
    2.1140   -2.7160    0.0000 C   0  0  0  0  0  0  0  0  0  0  0  0
    0.6140   -2.7160    0.0000 C   0  0  0  0  0  0  0  0  0  0  0  0
   -0.1360   -1.4170    0.0000 C   0  0  0  0  0  0  0  0  0  0  0  0
   -1.6360   -1.4170    0.0000 O   0  0  0  0  0  0  0  0  0  0  0  0
    0.6140   -0.1180    0.0000 C   0  0  0  0  0  0  0  0  0  0  0  0
    2.1140   -0.1180    0.0000 C   0  0  0  0  0  0  0  0  0  0  0  0
  2  1  1  1  0  0  0
  2  3  1  0  0  0  0
  2  5  1  0  0  0  0
  3  4  1  0  0  0  0
  5  6  1  0  0  0  0
  5 11  2  0  0  0  0
  6  7  2  0  0  0  0
  7  8  1  0  0  0  0
  8  9  1  0  0  0  0
  8 10  2  0  0  0  0
 10 11  1  0  0  0  0
M  END
>  <name>
O[C@@H]([C;amine]C)c1ccc(O)cc1

>  <apo>
1

>  <freq>
2

>  <freq0>
0

>  <freq1>
2

>  <freqA>
1.9984947

>  <a_count>
23

$$$$

  MOE2015           2D

  7  6  0  0  1  0  0  0  0  0999 V2000
   -0.0210   -0.0780    0.0000 C   0  0  2  0  0  0  0  0  0  0  0  0
    1.2780   -0.8280    0.0000 C   0  0  0  0  0  0  0  0  0  0  0  0
    2.5770   -0.0780    0.0000 C   0  0  0  0  0  0  0  0  0  0  0  0
    3.8760   -0.8280    0.0000 C   0  0  0  0  0  0  0  0  0  0  0  0
   -1.3200   -0.8280    0.0000 C   0  0  0  0  0  0  0  0  0  0  0  0
   -2.6190   -0.0780    0.0000 C   0  0  0  0  0  0  0  0  0  0  0  0
   -0.0210    1.4220    0.0000 C   0  0  0  0  0  0  0  0  0  0  0  0
  1  2  1  0  0  0  0
  1  5  1  0  0  0  0
  1  7  1  6  0  0  0
  2  3  1  0  0  0  0
  3  4  1  0  0  0  0
  5  6  1  0  0  0  0
M  END
>  <name>
[C@@H](C[C;olefin]C)(C[C;ether])C

>  <apo>
2

>  <freq>
2

>  <freq0>
0

>  <freq1>
2

>  <freqA>
1.9984947

>  <a_count>
23

$$$$

  MOE2015           2D

 12 12  0  0  0  0  0  0  0  0999 V2000
   -4.8750    2.8150    0.0000 S   0  0  0  0  0  0  0  0  0  0  0  0
   -5.6250    4.1140    0.0000 O   0  0  0  0  0  0  0  0  0  0  0  0
   -5.6250    1.5160    0.0000 O   0  0  0  0  0  0  0  0  0  0  0  0
   -3.3750    2.8150    0.0000 C   0  0  0  0  0  0  0  0  0  0  0  0
   -2.6250    1.5160    0.0000 C   0  0  0  0  0  0  0  0  0  0  0  0
   -1.1250    1.5160    0.0000 C   0  0  0  0  0  0  0  0  0  0  0  0
   -0.3750    2.8150    0.0000 C   0  0  0  0  0  0  0  0  0  0  0  0
    1.1250    2.8150    0.0000 C   0  0  0  0  0  0  0  0  0  0  0  0
    1.8750    1.5160    0.0000 C   0  0  0  0  0  0  0  0  0  0  0  0
    3.3750    1.5160    0.0000 N   0  0  0  0  0  0  0  0  0  0  0  0
   -1.1250    4.1140    0.0000 C   0  0  0  0  0  0  0  0  0  0  0  0
   -2.6250    4.1140    0.0000 C   0  0  0  0  0  0  0  0  0  0  0  0
  1  2  2  0  0  0  0
  1  3  2  0  0  0  0
  1  4  1  0  0  0  0
  4  5  1  0  0  0  0
  4 12  2  0  0  0  0
  5  6  2  0  0  0  0
  6  7  1  0  0  0  0
  7  8  1  0  0  0  0
  7 11  2  0  0  0  0
  8  9  1  0  0  0  0
  9 10  1  0  0  0  0
 11 12  1  0  0  0  0
M  END
>  <name>
[SH;so2amide](=O)(=O)c1ccc(CC[N;amide])cc1

>  <apo>
2

>  <freq>
2

>  <freq0>
0

>  <freq1>
2

>  <freqA>
1.9984947

>  <a_count>
23

$$$$

  MOE2015           2D

 13 15  0  0  0  0  0  0  0  0999 V2000
   -1.2780    1.2130    0.0000 C   0  0  0  0  0  0  0  0  0  0  0  0
    0.1700    0.8250    0.0000 C   0  0  0  0  0  0  0  0  0  0  0  0
    0.2490   -0.6730    0.0000 C   0  0  0  0  0  0  0  0  0  0  0  0
    1.5860   -1.3540    0.0000 C   0  0  0  0  0  0  0  0  0  0  0  0
    2.8440   -0.5370    0.0000 C   0  0  0  0  0  0  0  0  0  0  0  0
    2.7650    0.9610    0.0000 C   0  0  0  0  0  0  0  0  0  0  0  0
    1.4280    1.6420    0.0000 C   0  0  0  0  0  0  0  0  0  0  0  0
   -1.1510   -1.2110    0.0000 C   0  0  0  0  0  0  0  0  0  0  0  0
   -2.0950   -0.0450    0.0000 C   0  0  0  0  0  0  0  0  0  0  0  0
   -3.5930    0.0340    0.0000 C   0  0  0  0  0  0  0  0  0  0  0  0
   -4.2740    1.3700    0.0000 C   0  0  0  0  0  0  0  0  0  0  0  0
   -3.4570    2.6280    0.0000 C   0  0  0  0  0  0  0  0  0  0  0  0
   -1.9590    2.5500    0.0000 C   0  0  0  0  0  0  0  0  0  0  0  0
  1  2  1  0  0  0  0
  1  9  1  0  0  0  0
  1 13  2  0  0  0  0
  2  3  1  0  0  0  0
  2  7  2  0  0  0  0
  3  4  2  0  0  0  0
  3  8  1  0  0  0  0
  4  5  1  0  0  0  0
  5  6  2  0  0  0  0
  6  7  1  0  0  0  0
  8  9  1  0  0  0  0
  9 10  2  0  0  0  0
 10 11  1  0  0  0  0
 11 12  2  0  0  0  0
 12 13  1  0  0  0  0
M  END
>  <name>
c12-c3c(cccc3)[C;quatN]c1cccc2

>  <apo>
1

>  <freq>
2

>  <freq0>
0

>  <freq1>
2

>  <freqA>
1.9984947

>  <a_count>
23

$$$$

  MOE2015           2D

 11 11  0  0  0  0  0  0  0  0999 V2000
   -3.5030    1.4570    0.0000 O   0  0  0  0  0  0  0  0  0  0  0  0
   -3.5030   -0.0430    0.0000 C   0  0  0  0  0  0  0  0  0  0  0  0
   -2.2040    2.2070    0.0000 C   0  0  0  0  0  0  0  0  0  0  0  0
   -2.2040    3.7070    0.0000 C   0  0  0  0  0  0  0  0  0  0  0  0
   -3.5030    4.4570    0.0000 O   0  0  0  0  0  0  0  0  0  0  0  0
   -0.9050    4.4570    0.0000 C   0  0  0  0  0  0  0  0  0  0  0  0
    0.3940    3.7070    0.0000 C   0  0  0  0  0  0  0  0  0  0  0  0
    0.3940    2.2070    0.0000 C   0  0  0  0  0  0  0  0  0  0  0  0
    1.6930    1.4570    0.0000 C   0  0  0  0  0  0  0  0  0  0  0  0
    2.9920    2.2070    0.0000 N   0  0  0  0  0  0  0  0  0  0  0  0
   -0.9050    1.4570    0.0000 C   0  0  0  0  0  0  0  0  0  0  0  0
  1  2  1  0  0  0  0
  1  3  1  0  0  0  0
  3  4  1  0  0  0  0
  3 11  2  0  0  0  0
  4  5  1  0  0  0  0
  4  6  2  0  0  0  0
  6  7  1  0  0  0  0
  7  8  2  0  0  0  0
  8  9  1  0  0  0  0
  8 11  1  0  0  0  0
  9 10  1  0  0  0  0
M  END
>  <name>
O(C)c1c(O)ccc(C[N;amide])c1

>  <apo>
1

>  <freq>
2

>  <freq0>
0

>  <freq1>
2

>  <freqA>
1.9984947

>  <a_count>
22

$$$$

  MOE2015           2D

  9  8  0  0  1  0  0  0  0  0999 V2000
   -0.3420   -1.2770    0.0000 O   0  0  0  0  0  0  0  0  0  0  0  0
    0.9570   -2.0270    0.0000 C   0  0  0  0  0  0  0  0  0  0  0  0
    0.9570   -3.5270    0.0000 O   0  0  0  0  0  0  0  0  0  0  0  0
    2.2560   -1.2770    0.0000 C   0  0  1  0  0  0  0  0  0  0  0  0
    2.2560    0.2230    0.0000 N   0  0  0  0  0  0  0  0  0  0  0  0
    3.5550   -2.0270    0.0000 C   0  0  0  0  0  0  0  0  0  0  0  0
    4.8540   -1.2770    0.0000 C   0  0  0  0  0  0  0  0  0  0  0  0
    6.1530   -2.0270    0.0000 C   0  0  0  0  0  0  0  0  0  0  0  0
    4.8540    0.2230    0.0000 C   0  0  0  0  0  0  0  0  0  0  0  0
  1  2  2  0  0  0  0
  2  3  1  0  0  0  0
  2  4  1  0  0  0  0
  4  5  1  1  0  0  0
  4  6  1  0  0  0  0
  6  7  1  0  0  0  0
  7  8  1  0  0  0  0
  7  9  1  0  0  0  0
M  END
>  <name>
O=C(O)[C@@H]([N;amide])CC(C)C

>  <apo>
1

>  <freq>
2

>  <freq0>
0

>  <freq1>
2

>  <freqA>
1.9984947

>  <a_count>
22

$$$$

  MOE2015           2D

 13 13  0  0  1  0  0  0  0  0999 V2000
    8.0770    1.9990    0.0000 O   0  0  0  0  0  0  0  0  0  0  0  0
    6.5770    1.9990    0.0000 C   0  0  0  0  0  0  0  0  0  0  0  0
    5.8270    3.2980    0.0000 O   0  0  0  0  0  0  0  0  0  0  0  0
    5.8270    0.6990    0.0000 C   0  0  1  0  0  0  0  0  0  0  0  0
    6.5770   -0.6000    0.0000 N   0  0  0  0  0  0  0  0  0  0  0  0
    4.3270    0.6990    0.0000 C   0  0  0  0  0  0  0  0  0  0  0  0
    3.5770   -0.6000    0.0000 C   0  0  0  0  0  0  0  0  0  0  0  0
    2.0770   -0.6000    0.0000 C   0  0  0  0  0  0  0  0  0  0  0  0
    1.3270   -1.8990    0.0000 O   0  0  0  0  0  0  0  0  0  0  0  0
    1.3270    0.6990    0.0000 C   0  0  0  0  0  0  0  0  0  0  0  0
    2.0770    1.9990    0.0000 C   0  0  0  0  0  0  0  0  0  0  0  0
    1.3270    3.2980    0.0000 O   0  0  0  0  0  0  0  0  0  0  0  0
    3.5770    1.9990    0.0000 C   0  0  0  0  0  0  0  0  0  0  0  0
  1  2  2  0  0  0  0
  2  3  1  0  0  0  0
  2  4  1  0  0  0  0
  4  5  1  1  0  0  0
  4  6  1  0  0  0  0
  6  7  2  0  0  0  0
  6 13  1  0  0  0  0
  7  8  1  0  0  0  0
  8  9  1  0  0  0  0
  8 10  2  0  0  0  0
 10 11  1  0  0  0  0
 11 12  1  0  0  0  0
 11 13  2  0  0  0  0
M  END
>  <name>
O=C(O)[C@@H]([N;amide])c1cc(O)cc(O)[c;biphenyl]1

>  <apo>
2

>  <freq>
2

>  <freq0>
0

>  <freq1>
2

>  <freqA>
1.9984947

>  <a_count>
22

$$$$

  MOE2015           2D

 12 12  0  0  1  0  0  0  0  0999 V2000
    6.1880   -3.5720    0.0000 O   0  0  0  0  0  0  0  0  0  0  0  0
    5.4380   -2.2730    0.0000 C   0  0  0  0  0  0  0  0  0  0  0  0
    6.1880   -0.9740    0.0000 O   0  0  0  0  0  0  0  0  0  0  0  0
    3.9380   -2.2730    0.0000 C   0  0  2  0  0  0  0  0  0  0  0  0
    3.1880   -0.9740    0.0000 C   0  0  1  0  0  0  0  0  0  0  0  0
    3.9380    0.3250    0.0000 O   0  0  0  0  0  0  0  0  0  0  0  0
    1.6880   -0.9740    0.0000 C   0  0  1  0  0  0  0  0  0  0  0  0
    0.9370    0.3250    0.0000 O   0  0  0  0  0  0  0  0  0  0  0  0
    0.9370   -2.2730    0.0000 C   0  0  2  0  0  0  0  0  0  0  0  0
   -0.5630   -2.2730    0.0000 O   0  0  0  0  0  0  0  0  0  0  0  0
    1.6870   -3.5720    0.0000 C   0  0  0  0  0  0  0  0  0  0  0  0
    3.1880   -3.5720    0.0000 O   0  0  0  0  0  0  0  0  0  0  0  0
  1  2  2  0  0  0  0
  2  3  1  0  0  0  0
  4  2  1  1  0  0  0
  4  5  1  0  0  0  0
  4 12  1  0  0  0  0
  5  6  1  6  0  0  0
  5  7  1  0  0  0  0
  7  8  1  6  0  0  0
  7  9  1  0  0  0  0
  9 10  1  1  0  0  0
  9 11  1  0  0  0  0
 11 12  1  0  0  0  0
M  END
>  <name>
O=C(O)[C@@H]1[C@@H](O)[C@@H](O)[C@H](O)[C;ether]O1

>  <apo>
1

>  <freq>
2

>  <freq0>
0

>  <freq1>
2

>  <freqA>
1.9984947

>  <a_count>
22

$$$$

  MOE2015           2D

 11 11  0  0  1  0  0  0  0  0999 V2000
    8.1690   -3.0070    0.0000 O   0  0  0  0  0  0  0  0  0  0  0  0
    6.8700   -3.7570    0.0000 C   0  0  0  0  0  0  0  0  0  0  0  0
    5.5710   -3.0070    0.0000 C   0  0  3  0  0  0  0  0  0  0  0  0
    5.5710   -1.5070    0.0000 N   0  0  0  0  0  0  0  0  0  0  0  0
    4.2720   -3.7570    0.0000 C   0  0  0  0  0  0  0  0  0  0  0  0
    2.9730   -3.0070    0.0000 C   0  0  0  0  0  0  0  0  0  0  0  0
    1.6740   -3.7570    0.0000 C   0  0  0  0  0  0  0  0  0  0  0  0
    0.3750   -3.0070    0.0000 C   0  0  0  0  0  0  0  0  0  0  0  0
    0.3750   -1.5070    0.0000 C   0  0  0  0  0  0  0  0  0  0  0  0
    1.6740   -0.7570    0.0000 C   0  0  0  0  0  0  0  0  0  0  0  0
    2.9730   -1.5070    0.0000 C   0  0  0  0  0  0  0  0  0  0  0  0
  1  2  2  0  0  0  0
  2  3  1  0  0  0  0
  3  4  1  0  0  0  0
  3  5  1  0  0  0  0
  5  6  1  0  0  0  0
  6  7  1  0  0  0  0
  6 11  2  0  0  0  0
  7  8  2  0  0  0  0
  8  9  1  0  0  0  0
  9 10  2  0  0  0  0
 10 11  1  0  0  0  0
M  END
>  <name>
O=[C;amide]C([N;amide])Cc1ccccc1

>  <apo>
2

>  <freq>
2

>  <freq0>
0

>  <freq1>
2

>  <freqA>
1.9984947

>  <a_count>
22

$$$$

  MOE2015           2D

 10  9  0  0  1  0  0  0  0  0999 V2000
    7.8320   -1.7990    0.0000 O   0  0  0  0  0  0  0  0  0  0  0  0
    6.5330   -2.5490    0.0000 C   0  0  0  0  0  0  0  0  0  0  0  0
    5.2340   -1.7990    0.0000 C   0  0  1  0  0  0  0  0  0  0  0  0
    5.2340   -0.2990    0.0000 N   0  0  0  0  0  0  0  0  0  0  0  0
    3.9350   -2.5490    0.0000 C   0  0  0  0  0  0  0  0  0  0  0  0
    2.6360   -1.7990    0.0000 C   0  0  1  0  0  0  0  0  0  0  0  0
    2.6360   -0.2990    0.0000 O   0  0  0  0  0  0  0  0  0  0  0  0
    1.3370   -2.5490    0.0000 C   0  0  1  0  0  0  0  0  0  0  0  0
    1.3370   -4.0490    0.0000 O   0  0  0  0  0  0  0  0  0  0  0  0
    0.0380   -1.7990    0.0000 N   0  0  0  0  0  0  0  0  0  0  0  0
  1  2  2  0  0  0  0
  2  3  1  0  0  0  0
  3  4  1  6  0  0  0
  3  5  1  0  0  0  0
  5  6  1  0  0  0  0
  6  7  1  6  0  0  0
  6  8  1  0  0  0  0
  8  9  1  0  0  0  0
  8 10  1  1  0  0  0
M  END
>  <name>
O=[C;amide][C@@H]([N;amide])C[C@@H](O)[C@@H](O)[N;amide]

>  <apo>
3

>  <freq>
2

>  <freq0>
0

>  <freq1>
2

>  <freqA>
1.9984947

>  <a_count>
22

$$$$

  MOE2015           2D

 11 11  0  0  1  0  0  0  0  0999 V2000
    8.1690   -3.0070    0.0000 O   0  0  0  0  0  0  0  0  0  0  0  0
    6.8700   -3.7570    0.0000 C   0  0  0  0  0  0  0  0  0  0  0  0
    5.5710   -3.0070    0.0000 C   0  0  2  0  0  0  0  0  0  0  0  0
    5.5710   -1.5070    0.0000 N   0  0  0  0  0  0  0  0  0  0  0  0
    4.2720   -3.7570    0.0000 C   0  0  0  0  0  0  0  0  0  0  0  0
    2.9730   -3.0070    0.0000 C   0  0  0  0  0  0  0  0  0  0  0  0
    1.6740   -3.7570    0.0000 C   0  0  0  0  0  0  0  0  0  0  0  0
    0.3750   -3.0070    0.0000 C   0  0  0  0  0  0  0  0  0  0  0  0
    0.3750   -1.5070    0.0000 C   0  0  0  0  0  0  0  0  0  0  0  0
    1.6740   -0.7570    0.0000 C   0  0  0  0  0  0  0  0  0  0  0  0
    2.9730   -1.5070    0.0000 C   0  0  0  0  0  0  0  0  0  0  0  0
  1  2  2  0  0  0  0
  2  3  1  0  0  0  0
  3  4  1  1  0  0  0
  3  5  1  0  0  0  0
  5  6  1  0  0  0  0
  6  7  1  0  0  0  0
  6 11  2  0  0  0  0
  7  8  2  0  0  0  0
  8  9  1  0  0  0  0
  9 10  2  0  0  0  0
 10 11  1  0  0  0  0
M  END
>  <name>
O=[C;amide][C@H](N)Cc1ccccc1

>  <apo>
1

>  <freq>
2

>  <freq0>
0

>  <freq1>
2

>  <freqA>
1.9984947

>  <a_count>
22

$$$$

  MOE2015           2D

 14 15  0  0  0  0  0  0  0  0999 V2000
    0.8830    0.8830    0.0000 O   0  0  0  0  0  0  0  0  0  0  0  0
    2.1820    0.1330    0.0000 C   0  0  0  0  0  0  0  0  0  0  0  0
    2.1820   -1.3670    0.0000 C   0  0  0  0  0  0  0  0  0  0  0  0
    2.1820   -2.8670    0.0000 O   0  0  0  0  0  0  0  0  0  0  0  0
    3.6820   -1.3670    0.0000 C   0  0  0  0  0  0  0  0  0  0  0  0
    4.5640   -0.1530    0.0000 S   0  0  0  0  0  0  0  0  0  0  0  0
    5.9900   -0.6170    0.0000 C   0  0  0  0  0  0  0  0  0  0  0  0
    5.9900   -2.1170    0.0000 C   0  0  0  0  0  0  0  0  0  0  0  0
    4.5640   -2.5800    0.0000 C   0  0  0  0  0  0  0  0  0  0  0  0
    0.6820   -1.3670    0.0000 C   0  0  0  0  0  0  0  0  0  0  0  0
   -0.2000   -2.5800    0.0000 S   0  0  0  0  0  0  0  0  0  0  0  0
   -1.6260   -2.1170    0.0000 C   0  0  0  0  0  0  0  0  0  0  0  0
   -1.6260   -0.6170    0.0000 C   0  0  0  0  0  0  0  0  0  0  0  0
   -0.2000   -0.1530    0.0000 C   0  0  0  0  0  0  0  0  0  0  0  0
  1  2  2  0  0  0  0
  2  3  1  0  0  0  0
  3  4  1  0  0  0  0
  3  5  1  0  0  0  0
  3 10  1  0  0  0  0
  5  6  1  0  0  0  0
  5  9  2  0  0  0  0
  6  7  1  0  0  0  0
  7  8  2  0  0  0  0
  8  9  1  0  0  0  0
 10 11  1  0  0  0  0
 10 14  2  0  0  0  0
 11 12  1  0  0  0  0
 12 13  2  0  0  0  0
 13 14  1  0  0  0  0
M  END
>  <name>
O=[C;ester]C(O)(c1sccc1)c1sccc1

>  <apo>
1

>  <freq>
2

>  <freq0>
0

>  <freq1>
2

>  <freqA>
1.9984947

>  <a_count>
22

$$$$

  MOE2015           2D

 10 10  0  0  1  0  0  0  0  0999 V2000
    6.5070    1.7440    0.0000 O   0  0  0  0  0  0  0  0  0  0  0  0
    5.2080    0.9940    0.0000 C   0  0  0  0  0  0  0  0  0  0  0  0
    3.9090    1.7440    0.0000 C   0  0  1  0  0  0  0  0  0  0  0  0
    2.6100    0.9940    0.0000 C   0  0  2  0  0  0  0  0  0  0  0  0
    2.6100   -0.5060    0.0000 O   0  0  0  0  0  0  0  0  0  0  0  0
    1.3110    1.7440    0.0000 C   0  0  1  0  0  0  0  0  0  0  0  0
    0.0120    0.9940    0.0000 O   0  0  0  0  0  0  0  0  0  0  0  0
    1.3110    3.2440    0.0000 C   0  0  0  0  0  0  0  0  0  0  0  0
    2.6100    3.9940    0.0000 C   0  0  0  0  0  0  0  0  0  0  0  0
    3.9090    3.2440    0.0000 O   0  0  0  0  0  0  0  0  0  0  0  0
  1  2  1  0  0  0  0
  3  2  1  1  0  0  0
  3  4  1  0  0  0  0
  3 10  1  0  0  0  0
  4  5  1  6  0  0  0
  4  6  1  0  0  0  0
  6  7  1  1  0  0  0
  6  8  1  0  0  0  0
  8  9  1  0  0  0  0
  9 10  1  0  0  0  0
M  END
>  <name>
OC[C@H]1[C@H](O)[C@@H](O)[C;amine][C;ether]O1

>  <apo>
2

>  <freq>
2

>  <freq0>
0

>  <freq1>
2

>  <freqA>
1.9984947

>  <a_count>
22

$$$$

  MOE2015           2D

 10 10  0  0  1  0  0  0  0  0999 V2000
    4.5000    2.5980    0.0000 O   0  0  0  0  0  0  0  0  0  0  0  0
    3.7500    1.2990    0.0000 C   0  0  1  0  0  0  0  0  0  0  0  0
    4.5000    0.0000    0.0000 C   0  0  0  0  0  0  0  0  0  0  0  0
    6.0000    0.0000    0.0000 C   0  0  0  0  0  0  0  0  0  0  0  0
    2.2500    1.2990    0.0000 C   0  0  0  0  0  0  0  0  0  0  0  0
    1.5000    0.0000    0.0000 C   0  0  0  0  0  0  0  0  0  0  0  0
    0.0000    0.0000    0.0000 C   0  0  0  0  0  0  0  0  0  0  0  0
   -0.7500    1.2990    0.0000 C   0  0  0  0  0  0  0  0  0  0  0  0
    0.0000    2.5980    0.0000 C   0  0  0  0  0  0  0  0  0  0  0  0
    1.5000    2.5980    0.0000 C   0  0  0  0  0  0  0  0  0  0  0  0
  2  1  1  1  0  0  0
  2  3  1  0  0  0  0
  2  5  1  0  0  0  0
  3  4  1  0  0  0  0
  5  6  1  0  0  0  0
  5 10  2  0  0  0  0
  6  7  2  0  0  0  0
  7  8  1  0  0  0  0
  8  9  2  0  0  0  0
  9 10  1  0  0  0  0
M  END
>  <name>
O[C@@H]([C;amine]C)c1ccccc1

>  <apo>
1

>  <freq>
2

>  <freq0>
0

>  <freq1>
2

>  <freqA>
1.9984947

>  <a_count>
22

$$$$

  MOE2015           2D

 10 10  0  0  0  0  0  0  0  0999 V2000
    0.0000    0.5200    0.0000 O   0  0  0  0  0  0  0  0  0  0  0  0
    1.5000    0.5200    0.0000 C   0  0  0  0  0  0  0  0  0  0  0  0
    2.2500   -0.7790    0.0000 C   0  0  0  0  0  0  0  0  0  0  0  0
    3.7500   -0.7790    0.0000 C   0  0  0  0  0  0  0  0  0  0  0  0
    4.5000    0.5200    0.0000 C   0  0  0  0  0  0  0  0  0  0  0  0
    6.0000    0.5200    0.0000 C   0  0  0  0  0  0  0  0  0  0  0  0
    6.7500   -0.7790    0.0000 C   0  0  0  0  0  0  0  0  0  0  0  0
    8.2500   -0.7790    0.0000 C   0  0  0  0  0  0  0  0  0  0  0  0
    3.7500    1.8190    0.0000 C   0  0  0  0  0  0  0  0  0  0  0  0
    2.2500    1.8190    0.0000 C   0  0  0  0  0  0  0  0  0  0  0  0
  1  2  1  0  0  0  0
  2  3  1  0  0  0  0
  2 10  2  0  0  0  0
  3  4  2  0  0  0  0
  4  5  1  0  0  0  0
  5  6  1  0  0  0  0
  5  9  2  0  0  0  0
  6  7  1  0  0  0  0
  7  8  1  0  0  0  0
  9 10  1  0  0  0  0
M  END
>  <name>
Oc1ccc([C;olefin]CC)cc1

>  <apo>
1

>  <freq>
2

>  <freq0>
0

>  <freq1>
2

>  <freqA>
1.9984947

>  <a_count>
22

$$$$

  MOE2015           2D

  9  9  0  0  0  0  0  0  0  0999 V2000
    4.5000    2.5980    0.0000 C   0  0  0  0  0  0  0  0  0  0  0  0
    3.7500    1.2990    0.0000 C   0  0  0  0  0  0  0  0  0  0  0  0
    2.2500    1.2990    0.0000 C   0  0  0  0  0  0  0  0  0  0  0  0
    1.5000    0.0000    0.0000 C   0  0  0  0  0  0  0  0  0  0  0  0
    0.0000    0.0000    0.0000 C   0  0  0  0  0  0  0  0  0  0  0  0
   -0.7500    1.2990    0.0000 C   0  0  0  0  0  0  0  0  0  0  0  0
    0.0000    2.5980    0.0000 C   0  0  0  0  0  0  0  0  0  0  0  0
    1.5000    2.5980    0.0000 C   0  0  0  0  0  0  0  0  0  0  0  0
    6.0000    2.5980    0.0000 C   0  0  0  0  0  0  0  0  0  0  0  0
  1  2  1  0  0  0  0
  1  9  1  0  0  0  0
  2  3  1  0  0  0  0
  3  4  1  0  0  0  0
  3  8  2  0  0  0  0
  4  5  2  0  0  0  0
  5  6  1  0  0  0  0
  6  7  2  0  0  0  0
  7  8  1  0  0  0  0
M  END
>  <name>
C(Cc1ccccc1)[C;amine]

>  <apo>
1

>  <freq>
2

>  <freq0>
0

>  <freq1>
2

>  <freqA>
1.9984947

>  <a_count>
21

$$$$

  MOE2015           2D

  9  9  0  0  0  0  0  0  0  0999 V2000
    4.5000    2.5980    0.0000 C   0  0  0  0  0  0  0  0  0  0  0  0
    3.7500    1.2990    0.0000 C   0  0  0  0  0  0  0  0  0  0  0  0
    2.2500    1.2990    0.0000 C   0  0  0  0  0  0  0  0  0  0  0  0
    1.5000    0.0000    0.0000 C   0  0  0  0  0  0  0  0  0  0  0  0
    0.0000    0.0000    0.0000 C   0  0  0  0  0  0  0  0  0  0  0  0
   -0.7500    1.2990    0.0000 C   0  0  0  0  0  0  0  0  0  0  0  0
    0.0000    2.5980    0.0000 C   0  0  0  0  0  0  0  0  0  0  0  0
    1.5000    2.5980    0.0000 C   0  0  0  0  0  0  0  0  0  0  0  0
    6.0000    2.5980    0.0000 C   0  0  0  0  0  0  0  0  0  0  0  0
  1  2  1  0  0  0  0
  1  9  1  0  0  0  0
  2  3  1  0  0  0  0
  3  4  1  0  0  0  0
  3  8  2  0  0  0  0
  4  5  2  0  0  0  0
  5  6  1  0  0  0  0
  6  7  2  0  0  0  0
  7  8  1  0  0  0  0
M  END
>  <name>
C([C;ether]c1ccccc1)[C;amine]

>  <apo>
2

>  <freq>
2

>  <freq0>
0

>  <freq1>
2

>  <freqA>
1.9984947

>  <a_count>
21

$$$$

  MOE2015           2D

 10 10  0  0  0  0  0  0  0  0999 V2000
    8.5770   -2.8980    0.0000 Cl  0  0  0  0  0  0  0  0  0  0  0  0
    7.2770   -3.6480    0.0000 C   0  0  0  0  0  0  0  0  0  0  0  0
    5.9780   -2.8980    0.0000 C   0  0  0  0  0  0  0  0  0  0  0  0
    4.6790   -3.6480    0.0000 C   0  0  0  0  0  0  0  0  0  0  0  0
    3.3800   -2.8980    0.0000 C   0  0  0  0  0  0  0  0  0  0  0  0
    2.0810   -3.6480    0.0000 C   0  0  0  0  0  0  0  0  0  0  0  0
    0.7820   -2.8980    0.0000 C   0  0  0  0  0  0  0  0  0  0  0  0
    0.7820   -1.3980    0.0000 C   0  0  0  0  0  0  0  0  0  0  0  0
    2.0810   -0.6480    0.0000 C   0  0  0  0  0  0  0  0  0  0  0  0
    3.3800   -1.3980    0.0000 C   0  0  0  0  0  0  0  0  0  0  0  0
  1  2  1  0  0  0  0
  2  3  1  0  0  0  0
  3  4  1  0  0  0  0
  4  5  1  0  0  0  0
  5  6  1  0  0  0  0
  5 10  2  0  0  0  0
  6  7  2  0  0  0  0
  7  8  1  0  0  0  0
  8  9  2  0  0  0  0
  9 10  1  0  0  0  0
M  END
>  <name>
ClCC[C;olefin]c1ccccc1

>  <apo>
1

>  <freq>
2

>  <freq0>
0

>  <freq1>
2

>  <freqA>
1.9984947

>  <a_count>
21

$$$$

  MOE2015           2D

 13 14  0  0  1  0  0  0  0  0999 V2000
   -0.2270    1.9270    0.0000 O   0  0  0  0  0  0  0  0  0  0  0  0
    1.0730    1.1770    0.0000 C   0  0  0  0  0  0  0  0  0  0  0  0
    1.0730   -0.3230    0.0000 O   0  0  0  0  0  0  0  0  0  0  0  0
    2.3720    1.9270    0.0000 C   0  0  0  0  0  0  0  0  0  0  0  0
    3.6710    1.1770    0.0000 N   0  0  0  0  0  0  0  0  0  0  0  0
    4.4210   -0.1220    0.0000 C   0  0  0  0  0  0  0  0  0  0  0  0
    4.0320   -1.5710    0.0000 O   0  0  0  0  0  0  0  0  0  0  0  0
    5.7200    0.6280    0.0000 C   0  0  1  0  0  0  0  0  0  0  0  0
    7.1690    0.2400    0.0000 N   0  0  0  0  0  0  0  0  0  0  0  0
    4.9700    1.9270    0.0000 C   0  0  1  0  0  0  0  0  0  0  0  0
    4.9700    3.4270    0.0000 S   0  0  0  0  0  0  0  0  0  0  0  0
    3.6710    4.1770    0.0000 C   0  0  0  0  0  0  0  0  0  0  0  0
    2.3720    3.4270    0.0000 C   0  0  0  0  0  0  0  0  0  0  0  0
  1  2  2  0  0  0  0
  2  3  1  0  0  0  0
  2  4  1  0  0  0  0
  4  5  1  0  0  0  0
  4 13  2  0  0  0  0
  5  6  1  0  0  0  0
 10  5  1  6  0  0  0
  6  7  2  0  0  0  0
  6  8  1  0  0  0  0
  8  9  1  6  0  0  0
  8 10  1  0  0  0  0
 10 11  1  0  0  0  0
 11 12  1  0  0  0  0
 12 13  1  0  0  0  0
M  END
>  <name>
O=C(O)C=1N2C(=O)[C@@H]([N;amide])[C@H]2SCC=1

>  <apo>
1

>  <freq>
2

>  <freq0>
0

>  <freq1>
2

>  <freqA>
1.9984947

>  <a_count>
21

$$$$

  MOE2015           2D

 15 16  0  0  0  0  0  0  0  0999 V2000
    7.5000    4.3300    0.0000 O   0  0  0  0  0  0  0  0  0  0  0  0
    6.7500    3.0310    0.0000 C   0  0  0  0  0  0  0  0  0  0  0  0
    7.5000    1.7320    0.0000 O   0  0  0  0  0  0  0  0  0  0  0  0
    5.2500    3.0310    0.0000 C   0  0  0  0  0  0  0  0  0  0  0  0
    4.5000    1.7320    0.0000 O   0  0  0  0  0  0  0  0  0  0  0  0
    3.0000    1.7320    0.0000 C   0  0  0  0  0  0  0  0  0  0  0  0
    2.2500    3.0310    0.0000 C   0  0  0  0  0  0  0  0  0  0  0  0
    0.7500    3.0310    0.0000 C   0  0  0  0  0  0  0  0  0  0  0  0
    0.0000    4.3300    0.0000 O   0  0  0  0  0  0  0  0  0  0  0  0
    0.0000    1.7320    0.0000 C   0  0  0  0  0  0  0  0  0  0  0  0
    0.7500    0.4330    0.0000 C   0  0  0  0  0  0  0  0  0  0  0  0
    2.2500    0.4330    0.0000 C   0  0  0  0  0  0  0  0  0  0  0  0
    3.0000    4.3300    0.0000 C   0  0  0  0  0  0  0  0  0  0  0  0
    2.2500    5.6290    0.0000 O   0  0  0  0  0  0  0  0  0  0  0  0
    4.5000    4.3300    0.0000 C   0  0  0  0  0  0  0  0  0  0  0  0
  1  2  2  0  0  0  0
  2  3  1  0  0  0  0
  2  4  1  0  0  0  0
  4  5  1  0  0  0  0
  4 15  2  0  0  0  0
  5  6  1  0  0  0  0
  6  7  1  0  0  0  0
  6 12  2  0  0  0  0
  7  8  2  0  0  0  0
  7 13  1  0  0  0  0
  8  9  1  0  0  0  0
  8 10  1  0  0  0  0
 10 11  2  0  0  0  0
 11 12  1  0  0  0  0
 13 14  2  0  0  0  0
 13 15  1  0  0  0  0
M  END
>  <name>
O=C(O)C=1Oc2c(c([O;ether])ccc2)C(=O)C=1

>  <apo>
1

>  <freq>
2

>  <freq0>
0

>  <freq1>
2

>  <freqA>
1.9984947

>  <a_count>
21

$$$$

  MOE2015           2D

 11 11  0  0  1  0  0  0  0  0999 V2000
    5.7270    3.3070    0.0000 O   0  0  0  0  0  0  0  0  0  0  0  0
    4.9770    2.0080    0.0000 C   0  0  0  0  0  0  0  0  0  0  0  0
    5.7270    0.7090    0.0000 O   0  0  0  0  0  0  0  0  0  0  0  0
    3.4770    2.0080    0.0000 C   0  0  1  0  0  0  0  0  0  0  0  0
    2.7270    0.7090    0.0000 O   0  0  0  0  0  0  0  0  0  0  0  0
    1.2270    0.7090    0.0000 C   0  0  0  0  0  0  0  0  0  0  0  0
    0.4770    2.0080    0.0000 C   0  0  1  0  0  0  0  0  0  0  0  0
   -1.0230    2.0080    0.0000 O   0  0  0  0  0  0  0  0  0  0  0  0
    1.2270    3.3070    0.0000 C   0  0  2  0  0  0  0  0  0  0  0  0
    0.4770    4.6060    0.0000 O   0  0  0  0  0  0  0  0  0  0  0  0
    2.7270    3.3070    0.0000 C   0  0  0  0  0  0  0  0  0  0  0  0
  1  2  2  0  0  0  0
  2  3  1  0  0  0  0
  4  2  1  1  0  0  0
  4  5  1  0  0  0  0
  4 11  1  0  0  0  0
  5  6  1  0  0  0  0
  6  7  1  0  0  0  0
  7  8  1  1  0  0  0
  7  9  1  0  0  0  0
  9 10  1  6  0  0  0
  9 11  1  0  0  0  0
M  END
>  <name>
O=C(O)[C@H]1O[C;ether][C@@H](O)[C@H](O)[C;ether]1

>  <apo>
2

>  <freq>
2

>  <freq0>
0

>  <freq1>
2

>  <freqA>
1.9984947

>  <a_count>
21

$$$$

  MOE2015           2D

 10  9  0  0  1  0  0  0  0  0999 V2000
    2.8540   -0.0040    0.0000 O   0  0  0  0  0  0  0  0  0  0  0  0
    2.8540   -1.5040    0.0000 C   0  0  0  0  0  0  0  0  0  0  0  0
    4.1530   -2.2540    0.0000 O   0  0  0  0  0  0  0  0  0  0  0  0
    5.4520   -1.5040    0.0000 C   0  0  0  0  0  0  0  0  0  0  0  0
    1.5550   -2.2540    0.0000 N   0  0  0  0  0  0  0  0  0  0  0  0
    0.2560   -1.5040    0.0000 C   0  0  2  0  0  0  0  0  0  0  0  0
    0.2560   -0.0040    0.0000 C   0  0  0  0  0  0  0  0  0  0  0  0
   -1.0430    0.7460    0.0000 O   0  0  0  0  0  0  0  0  0  0  0  0
   -1.0430   -2.2540    0.0000 C   0  0  0  0  0  0  0  0  0  0  0  0
   -1.0430   -3.7540    0.0000 C   0  0  0  0  0  0  0  0  0  0  0  0
  1  2  2  0  0  0  0
  2  3  1  0  0  0  0
  2  5  1  0  0  0  0
  3  4  1  0  0  0  0
  6  5  1  1  0  0  0
  6  7  1  0  0  0  0
  6  9  1  0  0  0  0
  7  8  2  0  0  0  0
  9 10  1  0  0  0  0
M  END
>  <name>
O=C(OC)N[C@H]([C;amide]=O)[C;ether]C

>  <apo>
2

>  <freq>
2

>  <freq0>
0

>  <freq1>
2

>  <freqA>
1.9984947

>  <a_count>
21

$$$$

  MOE2015           2D

 13 14  0  0  0  0  0  0  0  0999 V2000
    0.3620    1.6490    0.0000 O   0  0  0  0  0  0  0  0  0  0  0  0
    1.6610    0.8990    0.0000 C   0  0  0  0  0  0  0  0  0  0  0  0
    1.6610   -0.6010    0.0000 N   0  0  0  0  0  0  0  0  0  0  0  0
    0.3620   -1.3510    0.0000 C   0  0  0  0  0  0  0  0  0  0  0  0
    2.9600   -1.3510    0.0000 C   0  0  0  0  0  0  0  0  0  0  0  0
    2.9600   -2.8510    0.0000 O   0  0  0  0  0  0  0  0  0  0  0  0
    4.2590   -0.6010    0.0000 C   0  0  0  0  0  0  0  0  0  0  0  0
    5.6860   -1.0650    0.0000 N   0  0  0  0  0  0  0  0  0  0  0  0
    6.5670    0.1490    0.0000 C   0  0  0  0  0  0  0  0  0  0  0  0
    5.6860    1.3620    0.0000 N   0  0  0  0  0  0  0  0  0  0  0  0
    4.2590    0.8990    0.0000 C   0  0  0  0  0  0  0  0  0  0  0  0
    2.9600    1.6490    0.0000 N   0  0  0  0  0  0  0  0  0  0  0  0
    2.9600    3.1490    0.0000 C   0  0  0  0  0  0  0  0  0  0  0  0
  1  2  2  0  0  0  0
  2  3  1  0  0  0  0
  2 12  1  0  0  0  0
  3  4  1  0  0  0  0
  3  5  1  0  0  0  0
  5  6  2  0  0  0  0
  5  7  1  0  0  0  0
  7  8  1  0  0  0  0
  7 11  2  0  0  0  0
  8  9  1  0  0  0  0
  9 10  2  0  0  0  0
 10 11  1  0  0  0  0
 11 12  1  0  0  0  0
 12 13  1  0  0  0  0
M  END
>  <name>
O=C1N(C)C(=O)c2[nH;NaroC]cnc2N1C

>  <apo>
1

>  <freq>
2

>  <freq0>
0

>  <freq1>
2

>  <freqA>
1.9984947

>  <a_count>
21

$$$$

  MOE2015           2D

  8  7  0  0  0  0  0  0  0  0999 V2000
   -0.4220    1.5740    0.0000 O   0  0  0  0  0  0  0  0  0  0  0  0
    0.8770    2.3240    0.0000 C   0  0  0  0  0  0  0  0  0  0  0  0
    2.1760    1.5740    0.0000 C   0  0  0  0  0  0  0  0  0  0  0  0
    3.4750    2.3240    0.0000 C   0  0  0  0  0  0  0  0  0  0  0  0
    4.7750    1.5740    0.0000 C   0  0  0  0  0  0  0  0  0  0  0  0
    6.0740    2.3240    0.0000 C   0  0  0  0  0  0  0  0  0  0  0  0
    7.3730    1.5740    0.0000 C   0  0  0  0  0  0  0  0  0  0  0  0
    8.6720    2.3240    0.0000 N   0  0  0  0  0  0  0  0  0  0  0  0
  1  2  2  0  0  0  0
  2  3  1  0  0  0  0
  3  4  1  0  0  0  0
  4  5  1  0  0  0  0
  5  6  1  0  0  0  0
  6  7  1  0  0  0  0
  7  8  1  0  0  0  0
M  END
>  <name>
O=[C;amide]CCCCC[N;amide]

>  <apo>
2

>  <freq>
2

>  <freq0>
0

>  <freq1>
2

>  <freqA>
1.9984947

>  <a_count>
21

$$$$

  MOE2015           2D

  8  7  0  0  1  0  0  0  0  0999 V2000
    5.6420    1.5120    0.0000 O   0  0  0  0  0  0  0  0  0  0  0  0
    4.3430    0.7620    0.0000 C   0  0  0  0  0  0  0  0  0  0  0  0
    3.0440    1.5120    0.0000 C   0  0  1  0  0  0  0  0  0  0  0  0
    3.0440    3.0120    0.0000 N   0  0  0  0  0  0  0  0  0  0  0  0
    1.7440    0.7620    0.0000 C   0  0  0  0  0  0  0  0  0  0  0  0
    0.9940    2.0610    0.0000 C   0  0  0  0  0  0  0  0  0  0  0  0
    0.4450    0.0120    0.0000 C   0  0  0  0  0  0  0  0  0  0  0  0
    2.4940   -0.5370    0.0000 C   0  0  0  0  0  0  0  0  0  0  0  0
  1  2  2  0  0  0  0
  2  3  1  0  0  0  0
  3  4  1  6  0  0  0
  3  5  1  0  0  0  0
  5  6  1  0  0  0  0
  5  7  1  0  0  0  0
  5  8  1  0  0  0  0
M  END
>  <name>
O=[C;amide][C@@H]([N;amide])C(C)(C)C

>  <apo>
2

>  <freq>
2

>  <freq0>
0

>  <freq1>
2

>  <freqA>
1.9984947

>  <a_count>
21

$$$$

  MOE2015           2D

  8  7  0  0  1  0  0  0  0  0999 V2000
   -0.4530   -1.6920    0.0000 O   0  0  0  0  0  0  0  0  0  0  0  0
    0.8460   -2.4420    0.0000 C   0  0  0  0  0  0  0  0  0  0  0  0
    2.1450   -1.6920    0.0000 C   0  0  1  0  0  0  0  0  0  0  0  0
    2.1450   -0.1920    0.0000 N   0  0  0  0  0  0  0  0  0  0  0  0
    3.4440   -2.4420    0.0000 C   0  0  0  0  0  0  0  0  0  0  0  0
    4.7430   -1.6920    0.0000 C   0  0  0  0  0  0  0  0  0  0  0  0
    6.0420   -2.4420    0.0000 C   0  0  0  0  0  0  0  0  0  0  0  0
    7.3410   -1.6920    0.0000 C   0  0  0  0  0  0  0  0  0  0  0  0
  1  2  2  0  0  0  0
  2  3  1  0  0  0  0
  3  4  1  1  0  0  0
  3  5  1  0  0  0  0
  5  6  1  0  0  0  0
  6  7  1  0  0  0  0
  7  8  1  0  0  0  0
M  END
>  <name>
O=[C;amide][C@@H]([N;amide])CCC[C;amine]

>  <apo>
3

>  <freq>
2

>  <freq0>
0

>  <freq1>
2

>  <freqA>
1.9984947

>  <a_count>
21

$$$$

  MOE2015           2D

  8  7  0  0  1  0  0  0  0  0999 V2000
    0.0000    0.0000    0.0000 O   0  0  0  0  0  0  0  0  0  0  0  0
    1.5000    0.0000    0.0000 C   0  0  0  0  0  0  0  0  0  0  0  0
    2.2500   -1.2990    0.0000 C   0  0  1  0  0  0  0  0  0  0  0  0
    1.5000   -2.5980    0.0000 N   0  0  0  0  0  0  0  0  0  0  0  0
    0.0000   -2.5980    0.0000 C   0  0  0  0  0  0  0  0  0  0  0  0
    3.7500   -1.2990    0.0000 C   0  0  0  0  0  0  0  0  0  0  0  0
    4.5000    0.0000    0.0000 C   0  0  0  0  0  0  0  0  0  0  0  0
    4.5000   -2.5980    0.0000 C   0  0  0  0  0  0  0  0  0  0  0  0
  1  2  2  0  0  0  0
  3  2  1  6  0  0  0
  3  4  1  0  0  0  0
  3  6  1  0  0  0  0
  4  5  1  0  0  0  0
  6  7  1  0  0  0  0
  6  8  1  0  0  0  0
M  END
>  <name>
O=[C;amide][C@@H]([N;amide]C)C(C)C

>  <apo>
2

>  <freq>
2

>  <freq0>
0

>  <freq1>
2

>  <freqA>
1.9984947

>  <a_count>
21

$$$$

  MOE2015           2D

 11 11  0  0  1  0  0  0  0  0999 V2000
    6.6820   -2.5980    0.0000 O   0  0  0  0  0  0  0  0  0  0  0  0
    5.1820   -2.5980    0.0000 C   0  0  0  0  0  0  0  0  0  0  0  0
    4.4320   -1.2990    0.0000 C   0  0  3  0  0  0  0  0  0  0  0  0
    5.1820    0.0000    0.0000 C   0  0  0  0  0  0  0  0  0  0  0  0
    6.6820    0.0000    0.0000 O   0  0  0  0  0  0  0  0  0  0  0  0
    2.9320   -1.2990    0.0000 C   0  0  0  0  0  0  0  0  0  0  0  0
    2.1820   -2.5980    0.0000 C   0  0  0  0  0  0  0  0  0  0  0  0
    0.6820   -2.5980    0.0000 C   0  0  0  0  0  0  0  0  0  0  0  0
   -0.0680   -1.2990    0.0000 C   0  0  0  0  0  0  0  0  0  0  0  0
    0.6820    0.0000    0.0000 C   0  0  0  0  0  0  0  0  0  0  0  0
    2.1820    0.0000    0.0000 C   0  0  0  0  0  0  0  0  0  0  0  0
  1  2  2  0  0  0  0
  2  3  1  0  0  0  0
  3  4  1  0  0  0  0
  3  6  1  0  0  0  0
  4  5  1  0  0  0  0
  6  7  1  0  0  0  0
  6 11  2  0  0  0  0
  7  8  2  0  0  0  0
  8  9  1  0  0  0  0
  9 10  2  0  0  0  0
 10 11  1  0  0  0  0
M  END
>  <name>
O=[C;ester]C(CO)c1ccccc1

>  <apo>
1

>  <freq>
2

>  <freq0>
0

>  <freq1>
2

>  <freqA>
1.9984947

>  <a_count>
21

$$$$

  MOE2015           2D

 11 11  0  0  1  0  0  0  0  0999 V2000
    6.1360   -3.5430    0.0000 O   0  0  0  0  0  0  0  0  0  0  0  0
    5.3860   -2.2440    0.0000 C   0  0  3  0  0  0  0  0  0  0  0  0
    6.1360   -0.9450    0.0000 C   0  0  0  0  0  0  0  0  0  0  0  0
    3.8860   -2.2440    0.0000 C   0  0  0  0  0  0  0  0  0  0  0  0
    3.1360   -0.9450    0.0000 C   0  0  0  0  0  0  0  0  0  0  0  0
    1.6360   -0.9450    0.0000 C   0  0  0  0  0  0  0  0  0  0  0  0
    0.8860    0.3540    0.0000 O   0  0  0  0  0  0  0  0  0  0  0  0
    0.8860   -2.2440    0.0000 C   0  0  0  0  0  0  0  0  0  0  0  0
   -0.6140   -2.2440    0.0000 O   0  0  0  0  0  0  0  0  0  0  0  0
    1.6360   -3.5430    0.0000 C   0  0  0  0  0  0  0  0  0  0  0  0
    3.1360   -3.5430    0.0000 C   0  0  0  0  0  0  0  0  0  0  0  0
  1  2  1  0  0  0  0
  2  3  1  0  0  0  0
  2  4  1  0  0  0  0
  4  5  1  0  0  0  0
  4 11  2  0  0  0  0
  5  6  2  0  0  0  0
  6  7  1  0  0  0  0
  6  8  1  0  0  0  0
  8  9  1  0  0  0  0
  8 10  2  0  0  0  0
 10 11  1  0  0  0  0
M  END
>  <name>
OC([C;amine])c1cc(O)c(O)cc1

>  <apo>
1

>  <freq>
2

>  <freq0>
0

>  <freq1>
2

>  <freqA>
1.9984947

>  <a_count>
21

$$$$

  MOE2015           2D

  9  9  0  0  1  0  0  0  0  0999 V2000
    2.3330   -2.3330    0.0000 O   0  0  0  0  0  0  0  0  0  0  0  0
    2.3330   -0.8330    0.0000 C   0  0  2  0  0  0  0  0  0  0  0  0
    3.6320   -0.0830    0.0000 C   0  0  1  0  0  0  0  0  0  0  0  0
    4.9310   -0.8330    0.0000 C   0  0  0  0  0  0  0  0  0  0  0  0
    3.6320    1.4170    0.0000 O   0  0  0  0  0  0  0  0  0  0  0  0
    2.3330    2.1670    0.0000 C   0  0  0  0  0  0  0  0  0  0  0  0
    1.0340    1.4170    0.0000 C   0  0  0  0  0  0  0  0  0  0  0  0
    1.0340   -0.0830    0.0000 C   0  0  2  0  0  0  0  0  0  0  0  0
   -0.2650   -0.8330    0.0000 O   0  0  0  0  0  0  0  0  0  0  0  0
  2  1  1  1  0  0  0
  2  3  1  0  0  0  0
  2  8  1  0  0  0  0
  3  4  1  6  0  0  0
  3  5  1  0  0  0  0
  5  6  1  0  0  0  0
  6  7  1  0  0  0  0
  7  8  1  0  0  0  0
  8  9  1  1  0  0  0
M  END
>  <name>
O[C@@H]1[C@@H](C)O[C;ether]C[C@@H]1O

>  <apo>
1

>  <freq>
2

>  <freq0>
0

>  <freq1>
2

>  <freqA>
1.9984947

>  <a_count>
21

$$$$

  MOE2015           2D

 11 11  0  0  1  0  0  0  0  0999 V2000
    6.1360   -3.5430    0.0000 O   0  0  0  0  0  0  0  0  0  0  0  0
    5.3860   -2.2440    0.0000 C   0  0  2  0  0  0  0  0  0  0  0  0
    6.1360   -0.9450    0.0000 C   0  0  0  0  0  0  0  0  0  0  0  0
    3.8860   -2.2440    0.0000 C   0  0  0  0  0  0  0  0  0  0  0  0
    3.1360   -0.9450    0.0000 C   0  0  0  0  0  0  0  0  0  0  0  0
    1.6360   -0.9450    0.0000 C   0  0  0  0  0  0  0  0  0  0  0  0
    0.8860    0.3540    0.0000 O   0  0  0  0  0  0  0  0  0  0  0  0
    0.8860   -2.2440    0.0000 C   0  0  0  0  0  0  0  0  0  0  0  0
   -0.6140   -2.2440    0.0000 O   0  0  0  0  0  0  0  0  0  0  0  0
    1.6360   -3.5430    0.0000 C   0  0  0  0  0  0  0  0  0  0  0  0
    3.1360   -3.5430    0.0000 C   0  0  0  0  0  0  0  0  0  0  0  0
  2  1  1  1  0  0  0
  2  3  1  0  0  0  0
  2  4  1  0  0  0  0
  4  5  1  0  0  0  0
  4 11  2  0  0  0  0
  5  6  2  0  0  0  0
  6  7  1  0  0  0  0
  6  8  1  0  0  0  0
  8  9  1  0  0  0  0
  8 10  2  0  0  0  0
 10 11  1  0  0  0  0
M  END
>  <name>
O[C@H]([C;amine])c1cc(O)c(O)cc1

>  <apo>
1

>  <freq>
2

>  <freq0>
0

>  <freq1>
2

>  <freqA>
1.9984947

>  <a_count>
21

$$$$

  MOE2015           2D

  7  6  0  0  0  0  0  0  0  0999 V2000
   -0.3610   -1.9920    0.0000 O   0  0  0  0  0  0  0  0  0  0  0  0
    0.9380   -1.2420    0.0000 C   0  0  0  0  0  0  0  0  0  0  0  0
    2.2370   -1.9920    0.0000 C   0  0  0  0  0  0  0  0  0  0  0  0
    3.5360   -1.2420    0.0000 C   0  0  0  0  0  0  0  0  0  0  0  0
    4.8350   -1.9920    0.0000 C   0  0  0  0  0  0  0  0  0  0  0  0
    6.1340   -1.2420    0.0000 C   0  0  0  0  0  0  0  0  0  0  0  0
    7.4330   -1.9920    0.0000 C   0  0  0  0  0  0  0  0  0  0  0  0
  1  2  1  0  0  0  0
  2  3  1  0  0  0  0
  3  4  1  0  0  0  0
  4  5  1  0  0  0  0
  5  6  1  0  0  0  0
  6  7  1  0  0  0  0
M  END
>  <name>
[O;ester]CCCCCC

>  <apo>
1

>  <freq>
2

>  <freq0>
0

>  <freq1>
2

>  <freqA>
1.9984947

>  <a_count>
21

$$$$

  MOE2015           2D

  6  5  0  0  0  0  0  0  0  0999 V2000
    0.0000    0.0000    0.0000 C   0  0  0  0  0  0  0  0  0  0  0  0
    1.5000    0.0000    0.0000 C   0  0  0  0  0  0  0  0  0  0  0  0
    2.2500   -1.2990    0.0000 C   0  0  0  0  0  0  0  0  0  0  0  0
    2.2500    1.2990    0.0000 C   0  0  0  0  0  0  0  0  0  0  0  0
   -0.7500    1.2990    0.0000 C   0  0  0  0  0  0  0  0  0  0  0  0
   -0.7500   -1.2990    0.0000 C   0  0  0  0  0  0  0  0  0  0  0  0
  1  2  1  0  0  0  0
  1  5  1  0  0  0  0
  1  6  1  0  0  0  0
  2  3  1  0  0  0  0
  2  4  1  0  0  0  0
M  END
>  <name>
C(C([C;olefin])C)(C)C

>  <apo>
1

>  <freq>
2

>  <freq0>
0

>  <freq1>
2

>  <freqA>
1.9984947

>  <a_count>
20

$$$$

  MOE2015           2D

  6  5  0  0  0  0  0  0  0  0999 V2000
    0.1000   -0.3750    0.0000 C   0  0  0  0  0  0  0  0  0  0  0  0
    1.4000    0.3750    0.0000 C   0  0  0  0  0  0  0  0  0  0  0  0
    2.6990   -0.3750    0.0000 C   0  0  0  0  0  0  0  0  0  0  0  0
    3.9980    0.3750    0.0000 C   0  0  0  0  0  0  0  0  0  0  0  0
   -1.1990    0.3750    0.0000 C   0  0  0  0  0  0  0  0  0  0  0  0
   -2.4980   -0.3750    0.0000 C   0  0  0  0  0  0  0  0  0  0  0  0
  1  2  1  0  0  0  0
  1  5  1  0  0  0  0
  2  3  1  0  0  0  0
  3  4  1  0  0  0  0
  5  6  1  0  0  0  0
M  END
>  <name>
C(CC[C;ether])C[C;amine]

>  <apo>
2

>  <freq>
2

>  <freq0>
0

>  <freq1>
2

>  <freqA>
1.9984947

>  <a_count>
20

$$$$

  MOE2015           2D

  6  5  0  0  0  0  0  0  0  0999 V2000
   -0.0830   -0.3080    0.0000 C   0  0  0  0  0  0  0  0  0  0  0  0
    1.2170   -1.0580    0.0000 C   0  0  0  0  0  0  0  0  0  0  0  0
    2.5160   -0.3080    0.0000 C   0  0  0  0  0  0  0  0  0  0  0  0
    3.8150   -1.0580    0.0000 C   0  0  0  0  0  0  0  0  0  0  0  0
   -1.3820   -1.0580    0.0000 C   0  0  0  0  0  0  0  0  0  0  0  0
   -0.0830    1.1920    0.0000 C   0  0  0  0  0  0  0  0  0  0  0  0
  1  2  1  0  0  0  0
  1  5  1  0  0  0  0
  1  6  1  0  0  0  0
  2  3  1  0  0  0  0
  3  4  1  0  0  0  0
M  END
>  <name>
C([C;ether][C;olefin]C)([C;olefin])C

>  <apo>
3

>  <freq>
2

>  <freq0>
0

>  <freq1>
2

>  <freqA>
1.9984947

>  <a_count>
20

$$$$

  MOE2015           2D

 12 12  0  0  0  0  0  0  0  0999 V2000
    6.4060   -1.7170    0.0000 Cl  0  0  0  0  0  0  0  0  0  0  0  0
    5.1070   -0.9670    0.0000 C   0  0  0  0  0  0  0  0  0  0  0  0
    5.1070    0.5330    0.0000 C   0  0  0  0  0  0  0  0  0  0  0  0
    6.4060    1.2830    0.0000 N   0  0  0  0  0  0  0  0  0  0  0  0
    3.8080    1.2830    0.0000 C   0  0  0  0  0  0  0  0  0  0  0  0
    2.5090    0.5330    0.0000 C   0  0  0  0  0  0  0  0  0  0  0  0
    1.2100    1.2830    0.0000 O   0  0  0  0  0  0  0  0  0  0  0  0
    1.2100    2.7830    0.0000 C   0  0  0  0  0  0  0  0  0  0  0  0
    2.5090   -0.9670    0.0000 C   0  0  0  0  0  0  0  0  0  0  0  0
    1.2100   -1.7170    0.0000 C   0  0  0  0  0  0  0  0  0  0  0  0
    1.2100   -3.2170    0.0000 O   0  0  0  0  0  0  0  0  0  0  0  0
    3.8080   -1.7170    0.0000 C   0  0  0  0  0  0  0  0  0  0  0  0
  1  2  1  0  0  0  0
  2  3  1  0  0  0  0
  2 12  2  0  0  0  0
  3  4  1  0  0  0  0
  3  5  2  0  0  0  0
  5  6  1  0  0  0  0
  6  7  1  0  0  0  0
  6  9  2  0  0  0  0
  7  8  1  0  0  0  0
  9 10  1  0  0  0  0
  9 12  1  0  0  0  0
 10 11  2  0  0  0  0
M  END
>  <name>
Clc1c(N)cc(OC)c([C;amide]=O)c1

>  <apo>
1

>  <freq>
2

>  <freq0>
0

>  <freq1>
2

>  <freqA>
1.9984947

>  <a_count>
20

$$$$

  MOE2015           2D

  9  9  0  0  0  0  0  0  0  0999 V2000
    1.4170    2.4540    0.0000 N   0  0  0  0  0  0  0  0  0  0  0  0
    2.1670    1.1550    0.0000 C   0  0  0  0  0  0  0  0  0  0  0  0
   -0.0830    2.4540    0.0000 C   0  0  0  0  0  0  0  0  0  0  0  0
   -0.8330    3.7530    0.0000 C   0  0  0  0  0  0  0  0  0  0  0  0
   -2.3330    3.7530    0.0000 C   0  0  0  0  0  0  0  0  0  0  0  0
   -3.0830    2.4540    0.0000 C   0  0  0  0  0  0  0  0  0  0  0  0
   -4.5830    2.4540    0.0000 C   0  0  0  0  0  0  0  0  0  0  0  0
   -2.3330    1.1550    0.0000 C   0  0  0  0  0  0  0  0  0  0  0  0
   -0.8330    1.1550    0.0000 C   0  0  0  0  0  0  0  0  0  0  0  0
  1  2  1  0  0  0  0
  1  3  1  0  0  0  0
  3  4  1  0  0  0  0
  3  9  2  0  0  0  0
  4  5  2  0  0  0  0
  5  6  1  0  0  0  0
  6  7  1  0  0  0  0
  6  8  2  0  0  0  0
  8  9  1  0  0  0  0
M  END
>  <name>
N(C)c1ccc([C;olefin])cc1

>  <apo>
1

>  <freq>
2

>  <freq0>
0

>  <freq1>
2

>  <freqA>
1.9984947

>  <a_count>
20

$$$$

  MOE2015           2D

  8  7  0  0  1  0  0  0  0  0999 V2000
   -0.4530   -1.6920    0.0000 O   0  0  0  0  0  0  0  0  0  0  0  0
    0.8460   -2.4420    0.0000 C   0  0  0  0  0  0  0  0  0  0  0  0
    2.1450   -1.6920    0.0000 C   0  0  1  0  0  0  0  0  0  0  0  0
    2.1450   -0.1920    0.0000 N   0  0  0  0  0  0  0  0  0  0  0  0
    3.4440   -2.4420    0.0000 C   0  0  0  0  0  0  0  0  0  0  0  0
    4.7430   -1.6920    0.0000 C   0  0  0  0  0  0  0  0  0  0  0  0
    6.0420   -2.4420    0.0000 C   0  0  0  0  0  0  0  0  0  0  0  0
    7.3410   -1.6920    0.0000 N   0  0  0  0  0  0  0  0  0  0  0  0
  1  2  2  0  0  0  0
  2  3  1  0  0  0  0
  3  4  1  1  0  0  0
  3  5  1  0  0  0  0
  5  6  1  0  0  0  0
  6  7  1  0  0  0  0
  7  8  1  0  0  0  0
M  END
>  <name>
O=[C;amide][C@@H]([N;amide])CCCN

>  <apo>
2

>  <freq>
2

>  <freq0>
0

>  <freq1>
2

>  <freqA>
1.9984947

>  <a_count>
20

$$$$

  MOE2015           2D

  9  9  0  0  1  0  0  0  0  0999 V2000
    6.2940   -1.6200    0.0000 O   0  0  0  0  0  0  0  0  0  0  0  0
    4.9810   -0.8960    0.0000 C   0  0  0  0  0  0  0  0  0  0  0  0
    3.6970   -1.6710    0.0000 C   0  0  2  0  0  0  0  0  0  0  0  0
    2.3150   -1.0890    0.0000 C   0  0  1  0  0  0  0  0  0  0  0  0
    1.9740    0.3720    0.0000 O   0  0  0  0  0  0  0  0  0  0  0  0
    1.3330   -2.2230    0.0000 C   0  0  1  0  0  0  0  0  0  0  0  0
   -0.1610   -2.0960    0.0000 C   0  0  0  0  0  0  0  0  0  0  0  0
    2.1090   -3.5070    0.0000 C   0  0  0  0  0  0  0  0  0  0  0  0
    3.5690   -3.1660    0.0000 N   0  0  0  0  0  0  0  0  0  0  0  0
  1  2  2  0  0  0  0
  3  2  1  1  0  0  0
  3  4  1  0  0  0  0
  3  9  1  0  0  0  0
  4  5  1  6  0  0  0
  4  6  1  0  0  0  0
  6  7  1  6  0  0  0
  6  8  1  0  0  0  0
  8  9  1  0  0  0  0
M  END
>  <name>
O=[C;amide][C@@H]1[C@@H](O)[C@@H](C)C[N;amide]1

>  <apo>
2

>  <freq>
2

>  <freq0>
0

>  <freq1>
2

>  <freqA>
1.9984947

>  <a_count>
20

$$$$

  MOE2015           2D

 11 11  0  0  1  0  0  0  0  0999 V2000
    8.1820   -2.3620    0.0000 O   0  0  0  0  0  0  0  0  0  0  0  0
    6.6820   -2.3620    0.0000 C   0  0  0  0  0  0  0  0  0  0  0  0
    5.9320   -1.0630    0.0000 C   0  0  2  0  0  0  0  0  0  0  0  0
    6.6820    0.2360    0.0000 N   0  0  0  0  0  0  0  0  0  0  0  0
    4.4320   -1.0630    0.0000 C   0  0  0  0  0  0  0  0  0  0  0  0
    3.6820   -2.3620    0.0000 C   0  0  0  0  0  0  0  0  0  0  0  0
    2.1820   -2.3620    0.0000 C   0  0  0  0  0  0  0  0  0  0  0  0
    1.4320   -1.0630    0.0000 C   0  0  0  0  0  0  0  0  0  0  0  0
   -0.0680   -1.0630    0.0000 O   0  0  0  0  0  0  0  0  0  0  0  0
    2.1820    0.2360    0.0000 C   0  0  0  0  0  0  0  0  0  0  0  0
    3.6820    0.2360    0.0000 C   0  0  0  0  0  0  0  0  0  0  0  0
  1  2  2  0  0  0  0
  2  3  1  0  0  0  0
  3  4  1  1  0  0  0
  3  5  1  0  0  0  0
  5  6  1  0  0  0  0
  5 11  2  0  0  0  0
  6  7  2  0  0  0  0
  7  8  1  0  0  0  0
  8  9  1  0  0  0  0
  8 10  2  0  0  0  0
 10 11  1  0  0  0  0
M  END
>  <name>
O=[C;amide][C@H]([N;amide])c1ccc(O)cc1

>  <apo>
2

>  <freq>
2

>  <freq0>
0

>  <freq1>
2

>  <freqA>
1.9984947

>  <a_count>
20

$$$$

  MOE2015           2D

  8  8  0  0  1  0  0  0  0  0999 V2000
    0.4890   -1.1750    0.0000 O   0  0  0  0  0  0  0  0  0  0  0  0
    1.7880   -0.4250    0.0000 C   0  0  2  0  0  0  0  0  0  0  0  0
    1.7880    1.0750    0.0000 C   0  0  2  0  0  0  0  0  0  0  0  0
    0.4890    1.8250    0.0000 C   0  0  0  0  0  0  0  0  0  0  0  0
    3.0870    1.8250    0.0000 O   0  0  0  0  0  0  0  0  0  0  0  0
    4.3860    1.0750    0.0000 C   0  0  0  0  0  0  0  0  0  0  0  0
    4.3860   -0.4250    0.0000 C   0  0  0  0  0  0  0  0  0  0  0  0
    3.0870   -1.1750    0.0000 C   0  0  0  0  0  0  0  0  0  0  0  0
  2  1  1  6  0  0  0
  2  3  1  0  0  0  0
  2  8  1  0  0  0  0
  3  4  1  6  0  0  0
  3  5  1  0  0  0  0
  5  6  1  0  0  0  0
  6  7  1  0  0  0  0
  7  8  1  0  0  0  0
M  END
>  <name>
O[C@@H]1[C@H](C)O[C;ether]C[C;ether]1

>  <apo>
2

>  <freq>
2

>  <freq0>
0

>  <freq1>
2

>  <freqA>
1.9984947

>  <a_count>
20

$$$$

  MOE2015           2D

  8  8  0  0  1  0  0  0  0  0999 V2000
    0.4890   -1.1750    0.0000 O   0  0  0  0  0  0  0  0  0  0  0  0
    1.7880   -0.4250    0.0000 C   0  0  1  0  0  0  0  0  0  0  0  0
    1.7880    1.0750    0.0000 C   0  0  1  0  0  0  0  0  0  0  0  0
    0.4890    1.8250    0.0000 C   0  0  0  0  0  0  0  0  0  0  0  0
    3.0870    1.8250    0.0000 O   0  0  0  0  0  0  0  0  0  0  0  0
    4.3860    1.0750    0.0000 C   0  0  0  0  0  0  0  0  0  0  0  0
    4.3860   -0.4250    0.0000 C   0  0  0  0  0  0  0  0  0  0  0  0
    3.0870   -1.1750    0.0000 C   0  0  0  0  0  0  0  0  0  0  0  0
  2  1  1  1  0  0  0
  2  3  1  0  0  0  0
  2  8  1  0  0  0  0
  3  4  1  1  0  0  0
  3  5  1  0  0  0  0
  5  6  1  0  0  0  0
  6  7  1  0  0  0  0
  7  8  1  0  0  0  0
M  END
>  <name>
O[C@H]1[C@@H](C)O[C;ether]C[C;ether]1

>  <apo>
2

>  <freq>
2

>  <freq0>
0

>  <freq1>
2

>  <freqA>
1.9984947

>  <a_count>
20

$$$$

  MOE2015           2D

 10 10  0  0  0  0  0  0  0  0999 V2000
    0.2720    1.0150    0.0000 O   0  0  0  0  0  0  0  0  0  0  0  0
    1.5710    0.2650    0.0000 C   0  0  0  0  0  0  0  0  0  0  0  0
    1.5710   -1.2350    0.0000 C   0  0  0  0  0  0  0  0  0  0  0  0
    0.2720   -1.9850    0.0000 O   0  0  0  0  0  0  0  0  0  0  0  0
    2.8700   -1.9850    0.0000 C   0  0  0  0  0  0  0  0  0  0  0  0
    4.1690   -1.2350    0.0000 C   0  0  0  0  0  0  0  0  0  0  0  0
    4.1690    0.2650    0.0000 C   0  0  0  0  0  0  0  0  0  0  0  0
    5.4680    1.0150    0.0000 C   0  0  0  0  0  0  0  0  0  0  0  0
    6.7670    0.2650    0.0000 C   0  0  0  0  0  0  0  0  0  0  0  0
    2.8700    1.0150    0.0000 C   0  0  0  0  0  0  0  0  0  0  0  0
  1  2  1  0  0  0  0
  2  3  1  0  0  0  0
  2 10  2  0  0  0  0
  3  4  1  0  0  0  0
  3  5  2  0  0  0  0
  5  6  1  0  0  0  0
  6  7  2  0  0  0  0
  7  8  1  0  0  0  0
  7 10  1  0  0  0  0
  8  9  1  0  0  0  0
M  END
>  <name>
Oc1c(O)ccc(C[C;amine])c1

>  <apo>
1

>  <freq>
2

>  <freq0>
0

>  <freq1>
2

>  <freqA>
1.9984947

>  <a_count>
20

$$$$

  MOE2015           2D

  9  9  0  0  0  0  0  0  0  0999 V2000
    5.0000    0.2890    0.0000 S   0  0  0  0  0  0  0  0  0  0  0  0
    4.2500    1.5880    0.0000 C   0  0  0  0  0  0  0  0  0  0  0  0
    5.0000    2.8870    0.0000 S   0  0  0  0  0  0  0  0  0  0  0  0
    2.7500    1.5880    0.0000 N   0  0  0  0  0  0  0  0  0  0  0  0
    2.0000    2.8870    0.0000 C   0  0  0  0  0  0  0  0  0  0  0  0
    0.5000    2.8870    0.0000 C   0  0  0  0  0  0  0  0  0  0  0  0
   -0.2500    1.5880    0.0000 C   0  0  0  0  0  0  0  0  0  0  0  0
    0.5000    0.2890    0.0000 C   0  0  0  0  0  0  0  0  0  0  0  0
    2.0000    0.2890    0.0000 C   0  0  0  0  0  0  0  0  0  0  0  0
  1  2  2  0  0  0  0
  2  3  1  0  0  0  0
  2  4  1  0  0  0  0
  4  5  1  0  0  0  0
  4  9  1  0  0  0  0
  5  6  1  0  0  0  0
  6  7  1  0  0  0  0
  7  8  1  0  0  0  0
  8  9  1  0  0  0  0
M  END
>  <name>
S=C([S;disulfide])N1CCCCC1

>  <apo>
1

>  <freq>
2

>  <freq0>
0

>  <freq1>
2

>  <freqA>
1.9984947

>  <a_count>
20

$$$$

  MOE2015           2D

  7  7  0  0  1  0  0  0  0  0999 V2000
    5.1430    0.0000    0.0000 C   0  0  0  0  0  0  0  0  0  0  0  0
    3.6430    0.0000    0.0000 C   0  0  2  0  0  0  0  0  0  0  0  0
    2.8930    1.2990    0.0000 O   0  0  0  0  0  0  0  0  0  0  0  0
    1.3930    1.2990    0.0000 C   0  0  0  0  0  0  0  0  0  0  0  0
    0.6430    0.0000    0.0000 C   0  0  0  0  0  0  0  0  0  0  0  0
    1.3930   -1.2990    0.0000 C   0  0  0  0  0  0  0  0  0  0  0  0
    2.8930   -1.2990    0.0000 C   0  0  0  0  0  0  0  0  0  0  0  0
  2  1  1  1  0  0  0
  2  3  1  0  0  0  0
  2  7  1  0  0  0  0
  3  4  1  0  0  0  0
  4  5  1  0  0  0  0
  5  6  1  0  0  0  0
  6  7  1  0  0  0  0
M  END
>  <name>
C[C@@H]1O[C;ether]C[C;ether][C;ether]1

>  <apo>
3

>  <freq>
2

>  <freq0>
0

>  <freq1>
2

>  <freqA>
1.9984947

>  <a_count>
19

$$$$

  MOE2015           2D

  7  7  0  0  1  0  0  0  0  0999 V2000
    5.1430    0.0000    0.0000 C   0  0  0  0  0  0  0  0  0  0  0  0
    3.6430    0.0000    0.0000 C   0  0  2  0  0  0  0  0  0  0  0  0
    2.8930    1.2990    0.0000 O   0  0  0  0  0  0  0  0  0  0  0  0
    1.3930    1.2990    0.0000 C   0  0  0  0  0  0  0  0  0  0  0  0
    0.6430    0.0000    0.0000 C   0  0  0  0  0  0  0  0  0  0  0  0
    1.3930   -1.2990    0.0000 C   0  0  0  0  0  0  0  0  0  0  0  0
    2.8930   -1.2990    0.0000 C   0  0  0  0  0  0  0  0  0  0  0  0
  2  1  1  1  0  0  0
  2  3  1  0  0  0  0
  2  7  1  0  0  0  0
  3  4  1  0  0  0  0
  4  5  1  0  0  0  0
  5  6  1  0  0  0  0
  6  7  1  0  0  0  0
M  END
>  <name>
C[C@@H]1O[C;ether][C;ether][C;ether][C;ether]1

>  <apo>
4

>  <freq>
2

>  <freq0>
0

>  <freq1>
2

>  <freqA>
1.9984947

>  <a_count>
19

$$$$

  MOE2015           2D

 12 13  0  0  0  0  0  0  0  0999 V2000
    8.0000    0.8660    0.0000 Cl  0  0  0  0  0  0  0  0  0  0  0  0
    6.5000    0.8660    0.0000 C   0  0  0  0  0  0  0  0  0  0  0  0
    5.7500   -0.4330    0.0000 C   0  0  0  0  0  0  0  0  0  0  0  0
    4.2500   -0.4330    0.0000 C   0  0  0  0  0  0  0  0  0  0  0  0
    3.5000   -1.7320    0.0000 N   0  0  0  0  0  0  0  0  0  0  0  0
    2.0000   -1.7320    0.0000 C   0  0  0  0  0  0  0  0  0  0  0  0
    1.2500   -0.4330    0.0000 C   0  0  0  0  0  0  0  0  0  0  0  0
    2.0000    0.8660    0.0000 C   0  0  0  0  0  0  0  0  0  0  0  0
    1.2500    2.1650    0.0000 N   0  0  0  0  0  0  0  0  0  0  0  0
    3.5000    0.8660    0.0000 C   0  0  0  0  0  0  0  0  0  0  0  0
    4.2500    2.1650    0.0000 C   0  0  0  0  0  0  0  0  0  0  0  0
    5.7500    2.1650    0.0000 C   0  0  0  0  0  0  0  0  0  0  0  0
  1  2  1  0  0  0  0
  2  3  1  0  0  0  0
  2 12  2  0  0  0  0
  3  4  2  0  0  0  0
  4  5  1  0  0  0  0
  4 10  1  0  0  0  0
  5  6  2  0  0  0  0
  6  7  1  0  0  0  0
  7  8  2  0  0  0  0
  8  9  1  0  0  0  0
  8 10  1  0  0  0  0
 10 11  2  0  0  0  0
 11 12  1  0  0  0  0
M  END
>  <name>
Clc1cc2nccc([N;amine])c2cc1

>  <apo>
1

>  <freq>
2

>  <freq0>
0

>  <freq1>
2

>  <freqA>
1.9984947

>  <a_count>
19

$$$$

  MOE2015           2D

 10 11  0  0  0  0  0  0  0  0999 V2000
   -0.0220   -2.2100    0.0000 C   0  0  0  0  0  0  0  0  0  0  0  0
    1.0920   -1.2060    0.0000 N   0  0  0  0  0  0  0  0  0  0  0  0
    2.5600   -1.5180    0.0000 C   0  0  0  0  0  0  0  0  0  0  0  0
    3.3100   -0.2190    0.0000 C   0  0  0  0  0  0  0  0  0  0  0  0
    2.3060    0.8960    0.0000 C   0  0  0  0  0  0  0  0  0  0  0  0
    0.9360    0.2860    0.0000 C   0  0  0  0  0  0  0  0  0  0  0  0
    4.8100   -0.2190    0.0000 C   0  0  0  0  0  0  0  0  0  0  0  0
    5.5600   -1.5180    0.0000 C   0  0  0  0  0  0  0  0  0  0  0  0
    4.8100   -2.8170    0.0000 C   0  0  0  0  0  0  0  0  0  0  0  0
    3.3100   -2.8170    0.0000 C   0  0  0  0  0  0  0  0  0  0  0  0
  1  2  1  0  0  0  0
  2  3  1  0  0  0  0
  2  6  1  0  0  0  0
  3  4  1  0  0  0  0
  3 10  2  0  0  0  0
  4  5  1  0  0  0  0
  4  7  2  0  0  0  0
  5  6  2  0  0  0  0
  7  8  1  0  0  0  0
  8  9  2  0  0  0  0
  9 10  1  0  0  0  0
M  END
>  <name>
Cn1c2c([c;biphenyl]c1)cccc2

>  <apo>
1

>  <freq>
2

>  <freq0>
0

>  <freq1>
2

>  <freqA>
1.9984947

>  <a_count>
19

$$$$

  MOE2015           2D

  6  5  0  0  0  0  0  0  0  0999 V2000
   -0.2480   -1.6740    0.0000 N   0  0  0  0  0  0  0  0  0  0  0  0
    1.0510   -0.9240    0.0000 C   0  0  0  0  0  0  0  0  0  0  0  0
    2.3500   -1.6740    0.0000 C   0  0  0  0  0  0  0  0  0  0  0  0
    3.6500   -0.9240    0.0000 C   0  0  0  0  0  0  0  0  0  0  0  0
    4.9490   -1.6740    0.0000 C   0  0  0  0  0  0  0  0  0  0  0  0
    6.2480   -0.9240    0.0000 C   0  0  0  0  0  0  0  0  0  0  0  0
  1  2  1  0  0  0  0
  2  3  1  0  0  0  0
  3  4  1  0  0  0  0
  4  5  1  0  0  0  0
  5  6  1  0  0  0  0
M  END
>  <name>
NCCC[C;amine]C

>  <apo>
1

>  <freq>
2

>  <freq0>
0

>  <freq1>
2

>  <freqA>
1.9984947

>  <a_count>
19

$$$$

  MOE2015           2D

  9  8  0  0  1  0  0  0  0  0999 V2000
   -0.3360   -1.2540    0.0000 O   0  0  0  0  0  0  0  0  0  0  0  0
    0.9630   -2.0040    0.0000 C   0  0  0  0  0  0  0  0  0  0  0  0
    0.9630   -3.5040    0.0000 N   0  0  0  0  0  0  0  0  0  0  0  0
    2.2620   -1.2540    0.0000 C   0  0  0  0  0  0  0  0  0  0  0  0
    3.5610   -2.0040    0.0000 C   0  0  0  0  0  0  0  0  0  0  0  0
    4.8600   -1.2540    0.0000 C   0  0  3  0  0  0  0  0  0  0  0  0
    4.8600    0.2460    0.0000 N   0  0  0  0  0  0  0  0  0  0  0  0
    6.1590   -2.0040    0.0000 C   0  0  0  0  0  0  0  0  0  0  0  0
    7.4580   -1.2540    0.0000 O   0  0  0  0  0  0  0  0  0  0  0  0
  1  2  2  0  0  0  0
  2  3  1  0  0  0  0
  2  4  1  0  0  0  0
  4  5  1  0  0  0  0
  5  6  1  0  0  0  0
  6  7  1  0  0  0  0
  6  8  1  0  0  0  0
  8  9  2  0  0  0  0
M  END
>  <name>
O=C(N)CCC([N;amide])[C;amide]=O

>  <apo>
2

>  <freq>
2

>  <freq0>
0

>  <freq1>
2

>  <freqA>
1.9984947

>  <a_count>
19

$$$$

  MOE2015           2D

  9  9  0  0  1  0  0  0  0  0999 V2000
   -0.2220    0.4260    0.0000 O   0  0  0  0  0  0  0  0  0  0  0  0
    0.6370    1.6550    0.0000 C   0  0  0  0  0  0  0  0  0  0  0  0
    0.0010    3.0140    0.0000 N   0  0  0  0  0  0  0  0  0  0  0  0
    2.1310    1.5270    0.0000 C   0  0  2  0  0  0  0  0  0  0  0  0
    1.6200    0.1170    0.0000 N   0  0  0  0  0  0  0  0  0  0  0  0
    3.6300    1.5940    0.0000 C   0  0  2  0  0  0  0  0  0  0  0  0
    4.9610    0.9040    0.0000 C   0  0  0  0  0  0  0  0  0  0  0  0
    6.2250    1.7110    0.0000 C   0  0  0  0  0  0  0  0  0  0  0  0
    2.8220    2.8580    0.0000 C   0  0  0  0  0  0  0  0  0  0  0  0
  1  2  2  0  0  0  0
  2  3  1  0  0  0  0
  4  2  1  1  0  0  0
  4  5  1  6  0  0  0
  4  6  1  0  0  0  0
  4  9  1  0  0  0  0
  6  7  1  1  0  0  0
  6  9  1  0  0  0  0
  7  8  2  0  0  0  0
M  END
>  <name>
O=C([N;so2amide])[C@]1([N;amide])[C@H](C=C)C1

>  <apo>
2

>  <freq>
2

>  <freq0>
0

>  <freq1>
2

>  <freqA>
1.9984947

>  <a_count>
19

$$$$

  MOE2015           2D

  7  6  0  0  0  0  0  0  0  0999 V2000
   -0.3610   -1.9920    0.0000 O   0  0  0  0  0  0  0  0  0  0  0  0
    0.9380   -1.2420    0.0000 C   0  0  0  0  0  0  0  0  0  0  0  0
    2.2370   -1.9920    0.0000 C   0  0  0  0  0  0  0  0  0  0  0  0
    3.5360   -1.2420    0.0000 C   0  0  0  0  0  0  0  0  0  0  0  0
    4.8350   -1.9920    0.0000 C   0  0  0  0  0  0  0  0  0  0  0  0
    6.1340   -1.2420    0.0000 C   0  0  0  0  0  0  0  0  0  0  0  0
    7.4330   -1.9920    0.0000 C   0  0  0  0  0  0  0  0  0  0  0  0
  1  2  2  0  0  0  0
  2  3  1  0  0  0  0
  3  4  1  0  0  0  0
  4  5  1  0  0  0  0
  5  6  1  0  0  0  0
  6  7  1  0  0  0  0
M  END
>  <name>
O=[C;amide]CCCC[C;olefin]

>  <apo>
2

>  <freq>
2

>  <freq0>
0

>  <freq1>
2

>  <freqA>
1.9984947

>  <a_count>
19

$$$$

  MOE2015           2D

  8  8  0  0  1  0  0  0  0  0999 V2000
    5.3440   -0.8120    0.0000 O   0  0  0  0  0  0  0  0  0  0  0  0
    4.5940   -2.1110    0.0000 C   0  0  0  0  0  0  0  0  0  0  0  0
    3.0940   -2.1110    0.0000 C   0  0  1  0  0  0  0  0  0  0  0  0
    2.3440   -3.4100    0.0000 N   0  0  0  0  0  0  0  0  0  0  0  0
    0.8440   -3.4100    0.0000 C   0  0  0  0  0  0  0  0  0  0  0  0
    0.0940   -2.1110    0.0000 C   0  0  0  0  0  0  0  0  0  0  0  0
    0.8440   -0.8120    0.0000 C   0  0  0  0  0  0  0  0  0  0  0  0
    2.3440   -0.8120    0.0000 C   0  0  0  0  0  0  0  0  0  0  0  0
  1  2  2  0  0  0  0
  3  2  1  1  0  0  0
  3  4  1  0  0  0  0
  3  8  1  0  0  0  0
  4  5  1  0  0  0  0
  5  6  1  0  0  0  0
  6  7  1  0  0  0  0
  7  8  1  0  0  0  0
M  END
>  <name>
O=[C;amide][C@H]1[N;amine]CCCC1

>  <apo>
2

>  <freq>
2

>  <freq0>
0

>  <freq1>
2

>  <freqA>
1.9984947

>  <a_count>
19

$$$$

  MOE2015           2D

  7  6  0  0  0  0  0  0  0  0999 V2000
   -0.3610   -1.9920    0.0000 O   0  0  0  0  0  0  0  0  0  0  0  0
    0.9380   -1.2420    0.0000 C   0  0  0  0  0  0  0  0  0  0  0  0
    2.2370   -1.9920    0.0000 C   0  0  0  0  0  0  0  0  0  0  0  0
    3.5360   -1.2420    0.0000 C   0  0  0  0  0  0  0  0  0  0  0  0
    4.8350   -1.9920    0.0000 C   0  0  0  0  0  0  0  0  0  0  0  0
    6.1340   -1.2420    0.0000 C   0  0  0  0  0  0  0  0  0  0  0  0
    7.4330   -1.9920    0.0000 C   0  0  0  0  0  0  0  0  0  0  0  0
  1  2  2  0  0  0  0
  2  3  1  0  0  0  0
  3  4  1  0  0  0  0
  4  5  1  0  0  0  0
  5  6  1  0  0  0  0
  6  7  1  0  0  0  0
M  END
>  <name>
O=[C;ester]CCCCC

>  <apo>
1

>  <freq>
2

>  <freq0>
0

>  <freq1>
2

>  <freqA>
1.9984947

>  <a_count>
19

$$$$

  MOE2015           2D

 11 10  0  0  0  0  0  0  0  0999 V2000
    1.5000    1.5000    0.0000 P   0  0  0  0  0  0  0  0  0  0  0  0
    1.5000    3.0000    0.0000 O   0  0  0  0  0  0  0  0  0  0  0  0
    3.0000    1.5000    0.0000 O   0  0  0  0  0  0  0  0  0  0  0  0
    1.5000    0.0000    0.0000 O   0  0  0  0  0  0  0  0  0  0  0  0
    0.0000    1.5000    0.0000 C   0  0  0  0  0  0  0  0  0  0  0  0
   -1.5000    1.5000    0.0000 P   0  0  0  0  0  0  0  0  0  0  0  0
   -1.5000    3.0000    0.0000 O   0  0  0  0  0  0  0  0  0  0  0  0
   -3.0000    1.5000    0.0000 O   0  0  0  0  0  0  0  0  0  0  0  0
   -1.5000    0.0000    0.0000 O   0  0  0  0  0  0  0  0  0  0  0  0
    0.0000    3.0000    0.0000 O   0  0  0  0  0  0  0  0  0  0  0  0
    0.0000    0.0000    0.0000 C   0  0  0  0  0  0  0  0  0  0  0  0
  1  2  2  0  0  0  0
  1  3  1  0  0  0  0
  1  4  1  0  0  0  0
  1  5  1  0  0  0  0
  5  6  1  0  0  0  0
  5 10  1  0  0  0  0
  5 11  1  0  0  0  0
  6  7  2  0  0  0  0
  6  8  1  0  0  0  0
  6  9  1  0  0  0  0
M  END
>  <name>
P(=O)(O)(O)C(P(=O)(O)O)(O)[C;NaroC]

>  <apo>
1

>  <freq>
2

>  <freq0>
0

>  <freq1>
2

>  <freqA>
1.9984947

>  <a_count>
19

$$$$

  MOE2015           2D

  8  7  0  0  0  0  0  0  0  0999 V2000
    4.5000    0.0000    0.0000 S   0  0  0  0  0  0  0  0  0  0  0  0
    3.7500   -1.2990    0.0000 C   0  0  0  0  0  0  0  0  0  0  0  0
    4.5000   -2.5980    0.0000 S   0  0  0  0  0  0  0  0  0  0  0  0
    2.2500   -1.2990    0.0000 N   0  0  0  0  0  0  0  0  0  0  0  0
    1.5000    0.0000    0.0000 C   0  0  0  0  0  0  0  0  0  0  0  0
    0.0000    0.0000    0.0000 C   0  0  0  0  0  0  0  0  0  0  0  0
    1.5000   -2.5980    0.0000 C   0  0  0  0  0  0  0  0  0  0  0  0
    0.0000   -2.5980    0.0000 C   0  0  0  0  0  0  0  0  0  0  0  0
  1  2  2  0  0  0  0
  2  3  1  0  0  0  0
  2  4  1  0  0  0  0
  4  5  1  0  0  0  0
  4  7  1  0  0  0  0
  5  6  1  0  0  0  0
  7  8  1  0  0  0  0
M  END
>  <name>
S=C([S;disulfide])N(CC)CC

>  <apo>
1

>  <freq>
2

>  <freq0>
0

>  <freq1>
2

>  <freqA>
1.9984947

>  <a_count>
19

$$$$

  MOE2015           2D

 11 12  0  0  0  0  0  0  0  0999 V2000
    0.0000    0.0000    0.0000 N   0  0  0  0  0  0  0  0  0  0  0  0
    1.5000    0.0000    0.0000 C   0  0  0  0  0  0  0  0  0  0  0  0
   -0.7500    1.2990    0.0000 C   0  0  0  0  0  0  0  0  0  0  0  0
    0.0000    2.5980    0.0000 N   0  0  0  0  0  0  0  0  0  0  0  0
   -0.7500    3.8970    0.0000 C   0  0  0  0  0  0  0  0  0  0  0  0
   -2.2500    3.8970    0.0000 N   0  0  0  0  0  0  0  0  0  0  0  0
   -3.0000    2.5980    0.0000 C   0  0  0  0  0  0  0  0  0  0  0  0
   -4.4670    2.2860    0.0000 N   0  0  0  0  0  0  0  0  0  0  0  0
   -4.6240    0.7940    0.0000 C   0  0  0  0  0  0  0  0  0  0  0  0
   -3.2540    0.1840    0.0000 C   0  0  0  0  0  0  0  0  0  0  0  0
   -2.2500    1.2990    0.0000 C   0  0  0  0  0  0  0  0  0  0  0  0
  1  2  1  0  0  0  0
  1  3  1  0  0  0  0
  3  4  1  0  0  0  0
  3 11  2  0  0  0  0
  4  5  2  0  0  0  0
  5  6  1  0  0  0  0
  6  7  2  0  0  0  0
  7  8  1  0  0  0  0
  7 11  1  0  0  0  0
  8  9  1  0  0  0  0
  9 10  2  0  0  0  0
 10 11  1  0  0  0  0
M  END
>  <name>
[N;amine](C)c1ncnc2[nH]ccc12

>  <apo>
1

>  <freq>
2

>  <freq0>
0

>  <freq1>
2

>  <freqA>
1.9984947

>  <a_count>
19

$$$$

  MOE2015           2D

  7  6  0  0  0  0  0  0  0  0999 V2000
   -0.3610    1.3490    0.0000 O   0  0  0  0  0  0  0  0  0  0  0  0
    0.9380    2.0990    0.0000 C   0  0  0  0  0  0  0  0  0  0  0  0
    2.2370    1.3490    0.0000 C   0  0  0  0  0  0  0  0  0  0  0  0
    3.5360    2.0990    0.0000 C   0  0  0  0  0  0  0  0  0  0  0  0
    4.8350    1.3490    0.0000 C   0  0  0  0  0  0  0  0  0  0  0  0
    6.1340    2.0990    0.0000 C   0  0  0  0  0  0  0  0  0  0  0  0
    7.4330    1.3490    0.0000 O   0  0  0  0  0  0  0  0  0  0  0  0
  1  2  1  0  0  0  0
  2  3  1  0  0  0  0
  3  4  1  0  0  0  0
  4  5  1  0  0  0  0
  5  6  1  0  0  0  0
  6  7  1  0  0  0  0
M  END
>  <name>
[O;ester]CCCCC[O;ester]

>  <apo>
2

>  <freq>
2

>  <freq0>
0

>  <freq1>
2

>  <freqA>
1.9984947

>  <a_count>
19

$$$$

  MOE2015           2D

  9  9  0  0  0  0  0  0  0  0999 V2000
    2.3330   -2.3330    0.0000 O   0  0  0  0  0  0  0  0  0  0  0  0
    2.3330   -0.8330    0.0000 C   0  0  0  0  0  0  0  0  0  0  0  0
    3.6320   -0.0830    0.0000 C   0  0  0  0  0  0  0  0  0  0  0  0
    4.9310   -0.8330    0.0000 C   0  0  0  0  0  0  0  0  0  0  0  0
    3.6320    1.4170    0.0000 C   0  0  0  0  0  0  0  0  0  0  0  0
    2.3330    2.1670    0.0000 C   0  0  0  0  0  0  0  0  0  0  0  0
    1.0340    1.4170    0.0000 C   0  0  0  0  0  0  0  0  0  0  0  0
    1.0340   -0.0830    0.0000 C   0  0  0  0  0  0  0  0  0  0  0  0
   -0.2650   -0.8330    0.0000 C   0  0  0  0  0  0  0  0  0  0  0  0
  1  2  1  0  0  0  0
  2  3  1  0  0  0  0
  2  8  2  0  0  0  0
  3  4  1  0  0  0  0
  3  5  2  0  0  0  0
  5  6  1  0  0  0  0
  6  7  2  0  0  0  0
  7  8  1  0  0  0  0
  8  9  1  0  0  0  0
M  END
>  <name>
[O;ether]c1c(C)cccc1C

>  <apo>
1

>  <freq>
2

>  <freq0>
0

>  <freq1>
2

>  <freqA>
1.9984947

>  <a_count>
19

$$$$

  MOE2015           2D

 11 12  0  0  0  0  0  0  0  0999 V2000
    1.5460    1.5460    0.0000 O   0  0  0  0  0  0  0  0  0  0  0  0
    1.5460    0.0460    0.0000 C   0  0  0  0  0  0  0  0  0  0  0  0
    2.8450   -0.7040    0.0000 C   0  0  0  0  0  0  0  0  0  0  0  0
    2.8450   -2.2040    0.0000 C   0  0  0  0  0  0  0  0  0  0  0  0
    1.5460   -2.9540    0.0000 C   0  0  0  0  0  0  0  0  0  0  0  0
    0.2470   -2.2040    0.0000 C   0  0  0  0  0  0  0  0  0  0  0  0
    0.2470   -0.7040    0.0000 C   0  0  0  0  0  0  0  0  0  0  0  0
    4.1440   -2.9540    0.0000 C   0  0  0  0  0  0  0  0  0  0  0  0
    5.4430   -2.2040    0.0000 C   0  0  0  0  0  0  0  0  0  0  0  0
    5.4430   -0.7040    0.0000 C   0  0  0  0  0  0  0  0  0  0  0  0
    4.1440    0.0460    0.0000 C   0  0  0  0  0  0  0  0  0  0  0  0
  1  2  1  0  0  0  0
  2  3  1  0  0  0  0
  2  7  2  0  0  0  0
  3  4  1  0  0  0  0
  3 11  2  0  0  0  0
  4  5  1  0  0  0  0
  4  8  2  0  0  0  0
  5  6  2  0  0  0  0
  6  7  1  0  0  0  0
  8  9  1  0  0  0  0
  9 10  2  0  0  0  0
 10 11  1  0  0  0  0
M  END
>  <name>
[O;ether]c1c2c(ccc1)cccc2

>  <apo>
1

>  <freq>
2

>  <freq0>
0

>  <freq1>
2

>  <freqA>
1.9984947

>  <a_count>
19

$$$$

  MOE2015           2D

  8  8  0  0  0  0  0  0  0  0999 V2000
    1.2190    1.7860    0.0000 C   0  0  0  0  0  0  0  0  0  0  0  0
    1.9690    3.0850    0.0000 C   0  0  0  0  0  0  0  0  0  0  0  0
   -0.2810    1.7860    0.0000 C   0  0  0  0  0  0  0  0  0  0  0  0
   -1.0310    0.4870    0.0000 C   0  0  0  0  0  0  0  0  0  0  0  0
   -2.5310    0.4870    0.0000 C   0  0  0  0  0  0  0  0  0  0  0  0
   -3.2810    1.7860    0.0000 C   0  0  0  0  0  0  0  0  0  0  0  0
   -2.5310    3.0850    0.0000 C   0  0  0  0  0  0  0  0  0  0  0  0
   -1.0310    3.0850    0.0000 C   0  0  0  0  0  0  0  0  0  0  0  0
  1  2  1  0  0  0  0
  1  3  1  0  0  0  0
  3  4  1  0  0  0  0
  3  8  2  0  0  0  0
  4  5  2  0  0  0  0
  5  6  1  0  0  0  0
  6  7  2  0  0  0  0
  7  8  1  0  0  0  0
M  END
>  <name>
C([C;amine])c1ccccc1

>  <apo>
1

>  <freq>
2

>  <freq0>
0

>  <freq1>
2

>  <freqA>
1.9984947

>  <a_count>
18

$$$$

  MOE2015           2D

 10 10  0  0  1  0  0  0  0  0999 V2000
    6.7390   -1.9460    0.0000 F   0  0  0  0  0  0  0  0  0  0  0  0
    5.4700   -1.1460    0.0000 C   0  0  0  0  0  0  0  0  0  0  0  0
    5.5280    0.3530    0.0000 F   0  0  0  0  0  0  0  0  0  0  0  0
    4.1430   -1.8460    0.0000 C   0  0  1  0  0  0  0  0  0  0  0  0
    2.6440   -1.7880    0.0000 C   0  0  1  0  0  0  0  0  0  0  0  0
    2.1240   -0.3810    0.0000 N   0  0  0  0  0  0  0  0  0  0  0  0
    1.1500   -1.9260    0.0000 C   0  0  0  0  0  0  0  0  0  0  0  0
    0.2840   -0.7010    0.0000 O   0  0  0  0  0  0  0  0  0  0  0  0
    0.5230   -3.2880    0.0000 N   0  0  0  0  0  0  0  0  0  0  0  0
    3.3430   -3.1150    0.0000 C   0  0  0  0  0  0  0  0  0  0  0  0
  1  2  1  0  0  0  0
  2  3  1  0  0  0  0
  4  2  1  6  0  0  0
  4  5  1  0  0  0  0
  4 10  1  0  0  0  0
  5  6  1  1  0  0  0
  5  7  1  6  0  0  0
  5 10  1  0  0  0  0
  7  8  2  0  0  0  0
  7  9  1  0  0  0  0
M  END
>  <name>
FC(F)[C@H]1[C@@]([N;amide])(C(=O)[N;so2amide])C1

>  <apo>
2

>  <freq>
2

>  <freq0>
0

>  <freq1>
2

>  <freqA>
1.9984947

>  <a_count>
18

$$$$

  MOE2015           2D

 10 10  0  0  1  0  0  0  0  0999 V2000
    7.3500   -2.3380    0.0000 O   0  0  0  0  0  0  0  0  0  0  0  0
    5.8500   -2.3380    0.0000 C   0  0  0  0  0  0  0  0  0  0  0  0
    5.1000   -1.0390    0.0000 C   0  0  2  0  0  0  0  0  0  0  0  0
    5.8500    0.2600    0.0000 O   0  0  0  0  0  0  0  0  0  0  0  0
    3.6000   -1.0390    0.0000 C   0  0  0  0  0  0  0  0  0  0  0  0
    2.8500   -2.3380    0.0000 C   0  0  0  0  0  0  0  0  0  0  0  0
    1.3500   -2.3380    0.0000 C   0  0  0  0  0  0  0  0  0  0  0  0
    0.6000   -1.0390    0.0000 C   0  0  0  0  0  0  0  0  0  0  0  0
    1.3500    0.2600    0.0000 C   0  0  0  0  0  0  0  0  0  0  0  0
    2.8500    0.2600    0.0000 C   0  0  0  0  0  0  0  0  0  0  0  0
  1  2  2  0  0  0  0
  2  3  1  0  0  0  0
  3  4  1  1  0  0  0
  3  5  1  0  0  0  0
  5  6  1  0  0  0  0
  5 10  2  0  0  0  0
  6  7  2  0  0  0  0
  7  8  1  0  0  0  0
  8  9  2  0  0  0  0
  9 10  1  0  0  0  0
M  END
>  <name>
O=[C;amide][C@H](O)c1ccccc1

>  <apo>
1

>  <freq>
2

>  <freq0>
0

>  <freq1>
2

>  <freqA>
1.9984947

>  <a_count>
18

$$$$

  MOE2015           2D

 12 13  0  0  0  0  0  0  0  0999 V2000
    0.0000    0.0000    0.0000 O   0  0  0  0  0  0  0  0  0  0  0  0
    1.5000    0.0000    0.0000 C   0  0  0  0  0  0  0  0  0  0  0  0
    2.2500    1.2990    0.0000 C   0  0  0  0  0  0  0  0  0  0  0  0
    3.7500    1.2990    0.0000 C   0  0  0  0  0  0  0  0  0  0  0  0
    4.7540    0.1840    0.0000 N   0  0  0  0  0  0  0  0  0  0  0  0
    6.1240    0.7940    0.0000 C   0  0  0  0  0  0  0  0  0  0  0  0
    7.4230    0.0440    0.0000 O   0  0  0  0  0  0  0  0  0  0  0  0
    5.9670    2.2860    0.0000 N   0  0  0  0  0  0  0  0  0  0  0  0
    4.5000    2.5980    0.0000 C   0  0  0  0  0  0  0  0  0  0  0  0
    3.7500    3.8970    0.0000 C   0  0  0  0  0  0  0  0  0  0  0  0
    2.2500    3.8970    0.0000 C   0  0  0  0  0  0  0  0  0  0  0  0
    1.5000    2.5980    0.0000 C   0  0  0  0  0  0  0  0  0  0  0  0
  1  2  2  0  0  0  0
  2  3  1  0  0  0  0
  3  4  1  0  0  0  0
  3 12  2  0  0  0  0
  4  5  1  0  0  0  0
  4  9  2  0  0  0  0
  5  6  1  0  0  0  0
  6  7  1  0  0  0  0
  6  8  2  0  0  0  0
  8  9  1  0  0  0  0
  9 10  1  0  0  0  0
 10 11  2  0  0  0  0
 11 12  1  0  0  0  0
M  END
>  <name>
O=[C;ester]c1c2[nH;NaroC]c([O;ether])nc2ccc1

>  <apo>
3

>  <freq>
2

>  <freq0>
0

>  <freq1>
2

>  <freqA>
1.9984947

>  <a_count>
18

$$$$

  MOE2015           2D

 11 12  0  0  0  0  0  0  0  0999 V2000
    7.4900    1.2340    0.0000 O   0  0  0  0  0  0  0  0  0  0  0  0
    6.0690    0.7530    0.0000 C   0  0  0  0  0  0  0  0  0  0  0  0
    4.9420    1.7430    0.0000 C   0  0  0  0  0  0  0  0  0  0  0  0
    3.4790    1.4120    0.0000 C   0  0  0  0  0  0  0  0  0  0  0  0
    2.7120    2.7020    0.0000 C   0  0  0  0  0  0  0  0  0  0  0  0
    3.7020    3.8290    0.0000 N   0  0  0  0  0  0  0  0  0  0  0  0
    5.0800    3.2360    0.0000 C   0  0  0  0  0  0  0  0  0  0  0  0
    1.2130    2.6830    0.0000 C   0  0  0  0  0  0  0  0  0  0  0  0
    0.4790    1.3750    0.0000 C   0  0  0  0  0  0  0  0  0  0  0  0
    1.2450    0.0850    0.0000 C   0  0  0  0  0  0  0  0  0  0  0  0
    2.7450    0.1040    0.0000 C   0  0  0  0  0  0  0  0  0  0  0  0
  1  2  2  0  0  0  0
  2  3  1  0  0  0  0
  3  4  1  0  0  0  0
  3  7  2  0  0  0  0
  4  5  1  0  0  0  0
  4 11  2  0  0  0  0
  5  6  1  0  0  0  0
  5  8  2  0  0  0  0
  6  7  1  0  0  0  0
  8  9  1  0  0  0  0
  9 10  2  0  0  0  0
 10 11  1  0  0  0  0
M  END
>  <name>
O=[C;ester]c1c2c([nH]c1)cccc2

>  <apo>
1

>  <freq>
2

>  <freq0>
0

>  <freq1>
2

>  <freqA>
1.9984947

>  <a_count>
18

$$$$

  MOE2015           2D

  8  8  0  0  1  0  0  0  0  0999 V2000
    5.9390    1.4640    0.0000 O   0  0  0  0  0  0  0  0  0  0  0  0
    4.6100    0.7670    0.0000 C   0  0  0  0  0  0  0  0  0  0  0  0
    3.3430    1.5680    0.0000 C   0  0  2  0  0  0  0  0  0  0  0  0
    3.2460    3.0650    0.0000 O   0  0  0  0  0  0  0  0  0  0  0  0
    1.7930    3.4360    0.0000 C   0  0  0  0  0  0  0  0  0  0  0  0
    0.9910    2.1680    0.0000 C   0  0  2  0  0  0  0  0  0  0  0  0
   -0.5060    2.0720    0.0000 O   0  0  0  0  0  0  0  0  0  0  0  0
    1.9490    1.0140    0.0000 C   0  0  0  0  0  0  0  0  0  0  0  0
  1  2  1  0  0  0  0
  3  2  1  1  0  0  0
  3  4  1  0  0  0  0
  3  8  1  0  0  0  0
  4  5  1  0  0  0  0
  5  6  1  0  0  0  0
  6  7  1  1  0  0  0
  6  8  1  0  0  0  0
M  END
>  <name>
OC[C@@H]1O[C;ether][C@H](O)[C;ether]1

>  <apo>
2

>  <freq>
2

>  <freq0>
0

>  <freq1>
2

>  <freqA>
1.9984947

>  <a_count>
18

$$$$

  MOE2015           2D

  8  8  0  0  1  0  0  0  0  0999 V2000
    5.5980   -1.5700    0.0000 O   0  0  0  0  0  0  0  0  0  0  0  0
    4.3170   -0.7900    0.0000 C   0  0  0  0  0  0  0  0  0  0  0  0
    3.0000   -1.5100    0.0000 C   0  0  2  0  0  0  0  0  0  0  0  0
    1.6450   -0.8680    0.0000 C   0  0  1  0  0  0  0  0  0  0  0  0
    1.3670    0.6060    0.0000 O   0  0  0  0  0  0  0  0  0  0  0  0
    0.6150   -1.9590    0.0000 C   0  0  0  0  0  0  0  0  0  0  0  0
    1.3350   -3.2750    0.0000 C   0  0  0  0  0  0  0  0  0  0  0  0
    2.8090   -2.9970    0.0000 O   0  0  0  0  0  0  0  0  0  0  0  0
  1  2  1  0  0  0  0
  3  2  1  1  0  0  0
  3  4  1  0  0  0  0
  3  8  1  0  0  0  0
  4  5  1  6  0  0  0
  4  6  1  0  0  0  0
  6  7  1  0  0  0  0
  7  8  1  0  0  0  0
M  END
>  <name>
OC[C@@H]1[C@@H](O)C[C;NaroC]O1

>  <apo>
1

>  <freq>
2

>  <freq0>
0

>  <freq1>
2

>  <freqA>
1.9984947

>  <a_count>
18

$$$$

  MOE2015           2D

  7  6  0  0  1  0  0  0  0  0999 V2000
    0.8150   -3.0420    0.0000 O   0  0  0  0  0  0  0  0  0  0  0  0
    0.8150   -1.5420    0.0000 C   0  0  1  0  0  0  0  0  0  0  0  0
    2.1140   -0.7920    0.0000 C   0  0  2  0  0  0  0  0  0  0  0  0
    2.1140    0.7080    0.0000 N   0  0  0  0  0  0  0  0  0  0  0  0
    3.4130   -1.5420    0.0000 C   0  0  0  0  0  0  0  0  0  0  0  0
    4.7120   -0.7920    0.0000 O   0  0  0  0  0  0  0  0  0  0  0  0
   -0.4840   -0.7920    0.0000 C   0  0  0  0  0  0  0  0  0  0  0  0
  2  1  1  6  0  0  0
  2  3  1  0  0  0  0
  2  7  1  0  0  0  0
  3  4  1  6  0  0  0
  3  5  1  0  0  0  0
  5  6  1  0  0  0  0
M  END
>  <name>
O[C@@H]([C@H]([N;amide])CO)C

>  <apo>
1

>  <freq>
2

>  <freq0>
0

>  <freq1>
2

>  <freqA>
1.9984947

>  <a_count>
18

$$$$

  MOE2015           2D

 11 11  0  0  0  0  0  0  0  0999 V2000
    2.1450   -1.6730    0.0000 S   0  0  0  0  0  0  0  0  0  0  0  0
    2.1450   -3.1730    0.0000 O   0  0  0  0  0  0  0  0  0  0  0  0
    2.1450   -0.1730    0.0000 O   0  0  0  0  0  0  0  0  0  0  0  0
    3.6450   -1.6730    0.0000 O   0  5  0  0  0  0  0  0  0  0  0  0
    0.6450   -1.6730    0.0000 C   0  0  0  0  0  0  0  0  0  0  0  0
   -0.1050   -2.9720    0.0000 C   0  0  0  0  0  0  0  0  0  0  0  0
   -1.6050   -2.9720    0.0000 C   0  0  0  0  0  0  0  0  0  0  0  0
   -2.3550   -4.2710    0.0000 C   0  0  0  0  0  0  0  0  0  0  0  0
   -2.3550   -1.6730    0.0000 C   0  0  0  0  0  0  0  0  0  0  0  0
   -1.6050   -0.3740    0.0000 C   0  0  0  0  0  0  0  0  0  0  0  0
   -0.1050   -0.3740    0.0000 C   0  0  0  0  0  0  0  0  0  0  0  0
  1  2  2  0  0  0  0
  1  3  2  0  0  0  0
  1  4  1  0  0  0  0
  1  5  1  0  0  0  0
  5  6  1  0  0  0  0
  5 11  2  0  0  0  0
  6  7  2  0  0  0  0
  7  8  1  0  0  0  0
  7  9  1  0  0  0  0
  9 10  2  0  0  0  0
 10 11  1  0  0  0  0
M  CHG  1   4  -1
M  END
>  <name>
S(=O)(=O)([O-])c1cc([C;amine])ccc1

>  <apo>
1

>  <freq>
2

>  <freq0>
0

>  <freq1>
2

>  <freqA>
1.9984947

>  <a_count>
18

$$$$

  MOE2015           2D

  9 10  0  0  0  0  0  0  0  0999 V2000
    0.5060    2.9330    0.0000 S   0  0  0  0  0  0  0  0  0  0  0  0
   -0.9210    2.4690    0.0000 C   0  0  0  0  0  0  0  0  0  0  0  0
   -0.9210    0.9690    0.0000 C   0  0  0  0  0  0  0  0  0  0  0  0
    0.5060    0.5060    0.0000 C   0  0  0  0  0  0  0  0  0  0  0  0
    1.3870    1.7190    0.0000 C   0  0  0  0  0  0  0  0  0  0  0  0
   -2.2200    0.2190    0.0000 C   0  0  0  0  0  0  0  0  0  0  0  0
   -3.5190    0.9690    0.0000 N   0  0  0  0  0  0  0  0  0  0  0  0
   -3.5190    2.4690    0.0000 C   0  0  0  0  0  0  0  0  0  0  0  0
   -2.2200    3.2190    0.0000 C   0  0  0  0  0  0  0  0  0  0  0  0
  1  2  1  0  0  0  0
  1  5  1  0  0  0  0
  2  3  2  0  0  0  0
  2  9  1  0  0  0  0
  3  4  1  0  0  0  0
  3  6  1  0  0  0  0
  4  5  2  0  0  0  0
  6  7  1  0  0  0  0
  7  8  1  0  0  0  0
  8  9  1  0  0  0  0
M  END
>  <name>
s1c2c(cc1)C[N;amine]CC2

>  <apo>
1

>  <freq>
2

>  <freq0>
0

>  <freq1>
2

>  <freqA>
1.9984947

>  <a_count>
18

$$$$

  MOE2015           2D

 10 10  0  0  0  0  0  0  0  0999 V2000
    1.6500   -2.3380    0.0000 Br  0  0  0  0  0  0  0  0  0  0  0  0
    2.4000   -1.0390    0.0000 C   0  0  0  0  0  0  0  0  0  0  0  0
    1.6500    0.2600    0.0000 C   0  0  0  0  0  0  0  0  0  0  0  0
    0.1500    0.2600    0.0000 N   0  0  0  0  0  0  0  0  0  0  0  0
    2.4000    1.5590    0.0000 C   0  0  0  0  0  0  0  0  0  0  0  0
    1.6500    2.8580    0.0000 C   0  0  0  0  0  0  0  0  0  0  0  0
    3.9000    1.5590    0.0000 C   0  0  0  0  0  0  0  0  0  0  0  0
    4.6500    0.2600    0.0000 C   0  0  0  0  0  0  0  0  0  0  0  0
    6.1500    0.2600    0.0000 Br  0  0  0  0  0  0  0  0  0  0  0  0
    3.9000   -1.0390    0.0000 C   0  0  0  0  0  0  0  0  0  0  0  0
  1  2  1  0  0  0  0
  2  3  1  0  0  0  0
  2 10  2  0  0  0  0
  3  4  1  0  0  0  0
  3  5  2  0  0  0  0
  5  6  1  0  0  0  0
  5  7  1  0  0  0  0
  7  8  2  0  0  0  0
  8  9  1  0  0  0  0
  8 10  1  0  0  0  0
M  END
>  <name>
Brc1c(N)c([C;amine])cc(Br)c1

>  <apo>
1

>  <freq>
2

>  <freq0>
0

>  <freq1>
2

>  <freqA>
1.9984947

>  <a_count>
17

$$$$

  MOE2015           2D

  5  4  0  0  0  0  0  0  0  0999 V2000
    0.1500   -0.0400    0.0000 C   0  0  0  0  0  0  0  0  0  0  0  0
    1.4490    0.7100    0.0000 C   0  0  0  0  0  0  0  0  0  0  0  0
    2.7480   -0.0400    0.0000 C   0  0  0  0  0  0  0  0  0  0  0  0
   -1.1490    0.7100    0.0000 C   0  0  0  0  0  0  0  0  0  0  0  0
   -2.4480   -0.0400    0.0000 C   0  0  0  0  0  0  0  0  0  0  0  0
  1  2  1  0  0  0  0
  1  4  1  0  0  0  0
  2  3  1  0  0  0  0
  4  5  1  0  0  0  0
M  END
>  <name>
C(C[C;ether])CC

>  <apo>
1

>  <freq>
2

>  <freq0>
0

>  <freq1>
2

>  <freqA>
1.9984947

>  <a_count>
17

$$$$

  MOE2015           2D

 12 12  0  0  0  0  0  0  0  0999 V2000
    0.8140    3.0370    0.0000 Cl  0  0  0  0  0  0  0  0  0  0  0  0
    2.1130    2.2870    0.0000 C   0  0  0  0  0  0  0  0  0  0  0  0
    2.1130    0.7870    0.0000 C   0  0  0  0  0  0  0  0  0  0  0  0
    0.8140    0.0370    0.0000 C   0  0  0  0  0  0  0  0  0  0  0  0
    1.5640   -1.2620    0.0000 F   0  0  0  0  0  0  0  0  0  0  0  0
    0.0640    1.3360    0.0000 F   0  0  0  0  0  0  0  0  0  0  0  0
   -0.4850   -0.7130    0.0000 F   0  0  0  0  0  0  0  0  0  0  0  0
    3.4120    0.0370    0.0000 C   0  0  0  0  0  0  0  0  0  0  0  0
    4.7110    0.7870    0.0000 C   0  0  0  0  0  0  0  0  0  0  0  0
    6.0100    0.0370    0.0000 N   0  0  0  0  0  0  0  0  0  0  0  0
    4.7110    2.2870    0.0000 C   0  0  0  0  0  0  0  0  0  0  0  0
    3.4120    3.0370    0.0000 C   0  0  0  0  0  0  0  0  0  0  0  0
  1  2  1  0  0  0  0
  2  3  1  0  0  0  0
  2 12  2  0  0  0  0
  3  4  1  0  0  0  0
  3  8  2  0  0  0  0
  4  5  1  0  0  0  0
  4  6  1  0  0  0  0
  4  7  1  0  0  0  0
  8  9  1  0  0  0  0
  9 10  1  0  0  0  0
  9 11  2  0  0  0  0
 11 12  1  0  0  0  0
M  END
>  <name>
Clc1c(C(F)(F)F)cc([N;urea])cc1

>  <apo>
1

>  <freq>
2

>  <freq0>
0

>  <freq1>
2

>  <freqA>
1.9984947

>  <a_count>
17

$$$$

  MOE2015           2D

 11 11  0  0  0  0  0  0  0  0999 V2000
   -0.5450   -3.5450    0.0000 F   0  0  0  0  0  0  0  0  0  0  0  0
   -0.5450   -2.0450    0.0000 C   0  0  0  0  0  0  0  0  0  0  0  0
   -2.0450   -2.0450    0.0000 F   0  0  0  0  0  0  0  0  0  0  0  0
   -0.5450   -0.5450    0.0000 F   0  0  0  0  0  0  0  0  0  0  0  0
    0.9550   -2.0450    0.0000 C   0  0  0  0  0  0  0  0  0  0  0  0
    1.7050   -0.7460    0.0000 C   0  0  0  0  0  0  0  0  0  0  0  0
    3.2050   -0.7460    0.0000 C   0  0  0  0  0  0  0  0  0  0  0  0
    3.9550   -2.0450    0.0000 C   0  0  0  0  0  0  0  0  0  0  0  0
    5.4550   -2.0450    0.0000 N   0  0  0  0  0  0  0  0  0  0  0  0
    3.2050   -3.3440    0.0000 C   0  0  0  0  0  0  0  0  0  0  0  0
    1.7050   -3.3440    0.0000 C   0  0  0  0  0  0  0  0  0  0  0  0
  1  2  1  0  0  0  0
  2  3  1  0  0  0  0
  2  4  1  0  0  0  0
  2  5  1  0  0  0  0
  5  6  1  0  0  0  0
  5 11  2  0  0  0  0
  6  7  2  0  0  0  0
  7  8  1  0  0  0  0
  8  9  1  0  0  0  0
  8 10  2  0  0  0  0
 10 11  1  0  0  0  0
M  END
>  <name>
FC(F)(F)c1ccc([N;amide])cc1

>  <apo>
1

>  <freq>
2

>  <freq0>
0

>  <freq1>
2

>  <freqA>
1.9984947

>  <a_count>
17

$$$$

  MOE2015           2D

 10 10  0  0  0  0  0  0  0  0999 V2000
    1.6500    2.8580    0.0000 F   0  0  0  0  0  0  0  0  0  0  0  0
    2.4000    1.5590    0.0000 C   0  0  0  0  0  0  0  0  0  0  0  0
    1.6500    0.2600    0.0000 C   0  0  0  0  0  0  0  0  0  0  0  0
    0.1500    0.2600    0.0000 C   0  0  0  0  0  0  0  0  0  0  0  0
   -0.6000   -1.0390    0.0000 N   0  0  0  0  0  0  0  0  0  0  0  0
    2.4000   -1.0390    0.0000 C   0  0  0  0  0  0  0  0  0  0  0  0
    3.9000   -1.0390    0.0000 C   0  0  0  0  0  0  0  0  0  0  0  0
    4.6500    0.2600    0.0000 C   0  0  0  0  0  0  0  0  0  0  0  0
    6.1500    0.2600    0.0000 F   0  0  0  0  0  0  0  0  0  0  0  0
    3.9000    1.5590    0.0000 C   0  0  0  0  0  0  0  0  0  0  0  0
  1  2  1  0  0  0  0
  2  3  1  0  0  0  0
  2 10  2  0  0  0  0
  3  4  1  0  0  0  0
  3  6  2  0  0  0  0
  4  5  1  0  0  0  0
  6  7  1  0  0  0  0
  7  8  2  0  0  0  0
  8  9  1  0  0  0  0
  8 10  1  0  0  0  0
M  END
>  <name>
Fc1c(C[N;amide])ccc(F)c1

>  <apo>
1

>  <freq>
2

>  <freq0>
0

>  <freq1>
2

>  <freqA>
1.9984947

>  <a_count>
17

$$$$

  MOE2015           2D

 13 13  0  0  0  0  0  0  0  0999 V2000
    1.6730    1.8990    0.0000 I   0  0  0  0  0  0  0  0  0  0  0  0
    2.4230    0.6000    0.0000 C   0  0  0  0  0  0  0  0  0  0  0  0
    3.9230    0.6000    0.0000 C   0  0  0  0  0  0  0  0  0  0  0  0
    4.6730    1.8990    0.0000 N   0  0  0  0  0  0  0  0  0  0  0  0
    4.6730   -0.6990    0.0000 C   0  0  0  0  0  0  0  0  0  0  0  0
    6.1730   -0.6990    0.0000 I   0  0  0  0  0  0  0  0  0  0  0  0
    3.9230   -1.9990    0.0000 C   0  0  0  0  0  0  0  0  0  0  0  0
    2.4230   -1.9990    0.0000 C   0  0  0  0  0  0  0  0  0  0  0  0
    1.6730   -3.2980    0.0000 I   0  0  0  0  0  0  0  0  0  0  0  0
    1.6730   -0.6990    0.0000 C   0  0  0  0  0  0  0  0  0  0  0  0
    0.1730   -0.6990    0.0000 C   0  0  0  0  0  0  0  0  0  0  0  0
   -0.5770    0.6000    0.0000 O   0  0  0  0  0  0  0  0  0  0  0  0
   -0.5770   -1.9990    0.0000 O   0  0  0  0  0  0  0  0  0  0  0  0
  1  2  1  0  0  0  0
  2  3  1  0  0  0  0
  2 10  2  0  0  0  0
  3  4  1  0  0  0  0
  3  5  2  0  0  0  0
  5  6  1  0  0  0  0
  5  7  1  0  0  0  0
  7  8  2  0  0  0  0
  8  9  1  0  0  0  0
  8 10  1  0  0  0  0
 10 11  1  0  0  0  0
 11 12  2  0  0  0  0
 11 13  1  0  0  0  0
M  END
>  <name>
Ic1c([N;amide])c(I)cc(I)c1C(=O)O

>  <apo>
1

>  <freq>
2

>  <freq0>
0

>  <freq1>
2

>  <freqA>
1.9984947

>  <a_count>
17

$$$$

  MOE2015           2D

  8  7  0  0  1  0  0  0  0  0999 V2000
    6.2480   -0.9240    0.0000 O   0  0  0  0  0  0  0  0  0  0  0  0
    4.9490   -1.6740    0.0000 C   0  0  0  0  0  0  0  0  0  0  0  0
    3.6500   -0.9240    0.0000 O   0  0  0  0  0  0  0  0  0  0  0  0
    2.3500   -1.6740    0.0000 C   0  0  0  0  0  0  0  0  0  0  0  0
    1.0510   -0.9240    0.0000 C   0  0  3  0  0  0  0  0  0  0  0  0
   -0.2480   -1.6740    0.0000 O   0  0  0  0  0  0  0  0  0  0  0  0
    1.0510    0.5760    0.0000 C   0  0  0  0  0  0  0  0  0  0  0  0
    4.9490   -3.1740    0.0000 N   0  0  0  0  0  0  0  0  0  0  0  0
  1  2  2  0  0  0  0
  2  3  1  0  0  0  0
  2  8  1  0  0  0  0
  3  4  1  0  0  0  0
  4  5  1  0  0  0  0
  5  6  1  0  0  0  0
  5  7  1  0  0  0  0
M  END
>  <name>
O=C(OCC(O)[C;ether])N

>  <apo>
1

>  <freq>
2

>  <freq0>
0

>  <freq1>
2

>  <freqA>
1.9984947

>  <a_count>
17

$$$$

  MOE2015           2D

 10 10  0  0  1  0  0  0  0  0999 V2000
    4.2950   -1.5500    0.0000 O   0  0  0  0  0  0  0  0  0  0  0  0
    3.1410   -0.5920    0.0000 C   0  0  0  0  0  0  0  0  0  0  0  0
    3.2380    0.9050    0.0000 N   0  0  0  0  0  0  0  0  0  0  0  0
    4.5050    1.7060    0.0000 C   0  0  0  0  0  0  0  0  0  0  0  0
    5.8340    1.0090    0.0000 O   0  0  0  0  0  0  0  0  0  0  0  0
    1.8440    1.4590    0.0000 C   0  0  3  0  0  0  0  0  0  0  0  0
    1.4730    2.9120    0.0000 N   0  0  0  0  0  0  0  0  0  0  0  0
    0.8860    0.3050    0.0000 C   0  0  0  0  0  0  0  0  0  0  0  0
   -0.6110    0.4010    0.0000 O   0  0  0  0  0  0  0  0  0  0  0  0
    1.6880   -0.9630    0.0000 N   0  0  0  0  0  0  0  0  0  0  0  0
  1  2  2  0  0  0  0
  2  3  1  0  0  0  0
  2 10  1  0  0  0  0
  3  4  1  0  0  0  0
  3  6  1  0  0  0  0
  4  5  1  0  0  0  0
  6  7  1  0  0  0  0
  6  8  1  0  0  0  0
  8  9  2  0  0  0  0
  8 10  1  0  0  0  0
M  END
>  <name>
O=C1N(CO)C([N;urea])C(=O)N1

>  <apo>
1

>  <freq>
2

>  <freq0>
0

>  <freq1>
2

>  <freqA>
1.9984947

>  <a_count>
17

$$$$

  MOE2015           2D

  9  9  0  0  0  0  0  0  0  0999 V2000
    7.8330    2.0210    0.0000 O   0  0  0  0  0  0  0  0  0  0  0  0
    6.3330    2.0210    0.0000 C   0  0  0  0  0  0  0  0  0  0  0  0
    5.5830    0.7220    0.0000 C   0  0  0  0  0  0  0  0  0  0  0  0
    4.0830    0.7220    0.0000 N   0  3  0  0  0  0  0  0  0  0  0  0
    3.3330   -0.5770    0.0000 C   0  0  0  0  0  0  0  0  0  0  0  0
    1.8330   -0.5770    0.0000 C   0  0  0  0  0  0  0  0  0  0  0  0
    1.0830    0.7220    0.0000 C   0  0  0  0  0  0  0  0  0  0  0  0
    1.8330    2.0210    0.0000 C   0  0  0  0  0  0  0  0  0  0  0  0
    3.3330    2.0210    0.0000 C   0  0  0  0  0  0  0  0  0  0  0  0
  1  2  2  0  0  0  0
  2  3  1  0  0  0  0
  3  4  1  0  0  0  0
  4  5  1  0  0  0  0
  4  9  2  0  0  0  0
  5  6  2  0  0  0  0
  6  7  1  0  0  0  0
  7  8  2  0  0  0  0
  8  9  1  0  0  0  0
M  CHG  1   4   1
M  END
>  <name>
O=[C;amide]C[n+]1ccccc1

>  <apo>
1

>  <freq>
2

>  <freq0>
0

>  <freq1>
2

>  <freqA>
1.9984947

>  <a_count>
17

$$$$

  MOE2015           2D

  7  6  0  0  1  0  0  0  0  0999 V2000
   -0.3690   -1.3770    0.0000 O   0  0  0  0  0  0  0  0  0  0  0  0
    0.9300   -2.1270    0.0000 C   0  0  0  0  0  0  0  0  0  0  0  0
    2.2290   -1.3770    0.0000 C   0  0  1  0  0  0  0  0  0  0  0  0
    2.2290    0.1230    0.0000 N   0  0  0  0  0  0  0  0  0  0  0  0
    3.5280   -2.1270    0.0000 C   0  0  0  0  0  0  0  0  0  0  0  0
    4.8270   -1.3770    0.0000 C   0  0  0  0  0  0  0  0  0  0  0  0
    6.1260   -2.1270    0.0000 N   0  0  0  0  0  0  0  0  0  0  0  0
  1  2  2  0  0  0  0
  2  3  1  0  0  0  0
  3  4  1  1  0  0  0
  3  5  1  0  0  0  0
  5  6  1  0  0  0  0
  6  7  1  0  0  0  0
M  END
>  <name>
O=[C;amide][C@@H]([N;amide])CC[N;amide]

>  <apo>
3

>  <freq>
2

>  <freq0>
0

>  <freq1>
2

>  <freqA>
1.9984947

>  <a_count>
17

$$$$

  MOE2015           2D

  7  6  0  0  1  0  0  0  0  0999 V2000
   -0.3690   -1.3770    0.0000 O   0  0  0  0  0  0  0  0  0  0  0  0
    0.9300   -2.1270    0.0000 C   0  0  0  0  0  0  0  0  0  0  0  0
    2.2290   -1.3770    0.0000 C   0  0  2  0  0  0  0  0  0  0  0  0
    2.2290    0.1230    0.0000 N   0  0  0  0  0  0  0  0  0  0  0  0
    3.5280   -2.1270    0.0000 C   0  0  0  0  0  0  0  0  0  0  0  0
    4.8270   -1.3770    0.0000 C   0  0  0  0  0  0  0  0  0  0  0  0
    6.1260   -2.1270    0.0000 N   0  0  0  0  0  0  0  0  0  0  0  0
  1  2  2  0  0  0  0
  2  3  1  0  0  0  0
  3  4  1  6  0  0  0
  3  5  1  0  0  0  0
  5  6  1  0  0  0  0
  6  7  1  0  0  0  0
M  END
>  <name>
O=[C;amide][C@H]([N;amide])CCN

>  <apo>
2

>  <freq>
2

>  <freq0>
0

>  <freq1>
2

>  <freqA>
1.9984947

>  <a_count>
17

$$$$

  MOE2015           2D

  9  9  0  0  0  0  0  0  0  0999 V2000
    6.0000   -3.4640    0.0000 O   0  0  0  0  0  0  0  0  0  0  0  0
    5.2500   -2.1650    0.0000 C   0  0  0  0  0  0  0  0  0  0  0  0
    3.7500   -2.1650    0.0000 C   0  0  0  0  0  0  0  0  0  0  0  0
    3.0000   -0.8660    0.0000 C   0  0  0  0  0  0  0  0  0  0  0  0
    1.5000   -0.8660    0.0000 C   0  0  0  0  0  0  0  0  0  0  0  0
    0.7500   -2.1650    0.0000 C   0  0  0  0  0  0  0  0  0  0  0  0
   -0.7500   -2.1650    0.0000 C   0  0  0  0  0  0  0  0  0  0  0  0
    1.5000   -3.4640    0.0000 C   0  0  0  0  0  0  0  0  0  0  0  0
    3.0000   -3.4640    0.0000 C   0  0  0  0  0  0  0  0  0  0  0  0
  1  2  2  0  0  0  0
  2  3  1  0  0  0  0
  3  4  1  0  0  0  0
  3  9  2  0  0  0  0
  4  5  2  0  0  0  0
  5  6  1  0  0  0  0
  6  7  1  0  0  0  0
  6  8  2  0  0  0  0
  8  9  1  0  0  0  0
M  END
>  <name>
O=[C;amide]c1ccc([C;amine])cc1

>  <apo>
2

>  <freq>
2

>  <freq0>
0

>  <freq1>
2

>  <freqA>
1.9984947

>  <a_count>
17

$$$$

  MOE2015           2D

  6  6  0  0  0  0  0  0  0  0999 V2000
   -2.0490    2.0490    0.0000 N   0  0  0  0  0  0  0  0  0  0  0  0
   -2.0490    0.5490    0.0000 C   0  0  0  0  0  0  0  0  0  0  0  0
   -0.7500   -0.2010    0.0000 C   0  0  0  0  0  0  0  0  0  0  0  0
    0.5490    0.5490    0.0000 C   0  0  0  0  0  0  0  0  0  0  0  0
    0.5490    2.0490    0.0000 C   0  0  0  0  0  0  0  0  0  0  0  0
   -0.7500    2.7990    0.0000 C   0  0  0  0  0  0  0  0  0  0  0  0
  1  2  1  0  0  0  0
  1  6  1  0  0  0  0
  2  3  1  0  0  0  0
  3  4  1  0  0  0  0
  4  5  1  0  0  0  0
  5  6  1  0  0  0  0
M  END
>  <name>
[N;amine]1CC[C;ether]CC1

>  <apo>
2

>  <freq>
2

>  <freq0>
0

>  <freq1>
2

>  <freqA>
1.9984947

>  <a_count>
17

$$$$

  MOE2015           2D

  8  8  0  0  0  0  0  0  0  0999 V2000
    1.2190    1.7860    0.0000 O   0  0  0  0  0  0  0  0  0  0  0  0
    1.9690    3.0850    0.0000 C   0  0  0  0  0  0  0  0  0  0  0  0
   -0.2810    1.7860    0.0000 C   0  0  0  0  0  0  0  0  0  0  0  0
   -1.0310    0.4870    0.0000 C   0  0  0  0  0  0  0  0  0  0  0  0
   -2.5310    0.4870    0.0000 C   0  0  0  0  0  0  0  0  0  0  0  0
   -3.2810    1.7860    0.0000 C   0  0  0  0  0  0  0  0  0  0  0  0
   -2.5310    3.0850    0.0000 C   0  0  0  0  0  0  0  0  0  0  0  0
   -1.0310    3.0850    0.0000 C   0  0  0  0  0  0  0  0  0  0  0  0
  1  2  1  0  0  0  0
  1  3  1  0  0  0  0
  3  4  1  0  0  0  0
  3  8  2  0  0  0  0
  4  5  2  0  0  0  0
  5  6  1  0  0  0  0
  6  7  2  0  0  0  0
  7  8  1  0  0  0  0
M  END
>  <name>
O(C)c1cc[c;biphenyl]cc1

>  <apo>
1

>  <freq>
2

>  <freq0>
0

>  <freq1>
2

>  <freqA>
1.9984947

>  <a_count>
16

$$$$

  MOE2015           2D

  6  6  0  0  0  0  0  0  0  0999 V2000
   -2.0490    2.0490    0.0000 O   0  0  0  0  0  0  0  0  0  0  0  0
   -2.0490    0.5490    0.0000 C   0  0  0  0  0  0  0  0  0  0  0  0
   -0.7500   -0.2010    0.0000 C   0  0  0  0  0  0  0  0  0  0  0  0
    0.5490    0.5490    0.0000 C   0  0  0  0  0  0  0  0  0  0  0  0
    0.5490    2.0490    0.0000 C   0  0  0  0  0  0  0  0  0  0  0  0
   -0.7500    2.7990    0.0000 C   0  0  0  0  0  0  0  0  0  0  0  0
  1  2  1  0  0  0  0
  1  6  1  0  0  0  0
  2  3  1  0  0  0  0
  3  4  1  0  0  0  0
  4  5  1  0  0  0  0
  5  6  1  0  0  0  0
M  END
>  <name>
O1[C;ether][C;ether][C;ether][C;ether][C;ether]1

>  <apo>
5

>  <freq>
2

>  <freq0>
0

>  <freq1>
2

>  <freqA>
1.9984947

>  <a_count>
16

$$$$

  MOE2015           2D

  8  7  0  0  1  0  0  0  0  0999 V2000
    0.0090   -0.0320    0.0000 O   0  0  0  0  0  0  0  0  0  0  0  0
    1.3080    0.7180    0.0000 C   0  0  0  0  0  0  0  0  0  0  0  0
    1.3080    2.2180    0.0000 N   0  0  0  0  0  0  0  0  0  0  0  0
    2.6070   -0.0320    0.0000 C   0  0  0  0  0  0  0  0  0  0  0  0
    3.9060    0.7180    0.0000 C   0  0  3  0  0  0  0  0  0  0  0  0
    3.9060    2.2180    0.0000 N   0  0  0  0  0  0  0  0  0  0  0  0
    5.2050   -0.0320    0.0000 C   0  0  0  0  0  0  0  0  0  0  0  0
    6.5040    0.7180    0.0000 O   0  0  0  0  0  0  0  0  0  0  0  0
  1  2  2  0  0  0  0
  2  3  1  0  0  0  0
  2  4  1  0  0  0  0
  4  5  1  0  0  0  0
  5  6  1  0  0  0  0
  5  7  1  0  0  0  0
  7  8  2  0  0  0  0
M  END
>  <name>
O=C(N)CC([N;amide])[C;amide]=O

>  <apo>
2

>  <freq>
2

>  <freq0>
0

>  <freq1>
2

>  <freqA>
1.9984947

>  <a_count>
16

$$$$

  MOE2015           2D

  8  7  0  0  1  0  0  0  0  0999 V2000
    0.0090   -0.0320    0.0000 O   0  0  0  0  0  0  0  0  0  0  0  0
    1.3080    0.7180    0.0000 C   0  0  0  0  0  0  0  0  0  0  0  0
    1.3080    2.2180    0.0000 N   0  0  0  0  0  0  0  0  0  0  0  0
    2.6070   -0.0320    0.0000 C   0  0  0  0  0  0  0  0  0  0  0  0
    3.9060    0.7180    0.0000 C   0  0  1  0  0  0  0  0  0  0  0  0
    3.9060    2.2180    0.0000 N   0  0  0  0  0  0  0  0  0  0  0  0
    5.2050   -0.0320    0.0000 C   0  0  0  0  0  0  0  0  0  0  0  0
    6.5040    0.7180    0.0000 O   0  0  0  0  0  0  0  0  0  0  0  0
  1  2  2  0  0  0  0
  2  3  1  0  0  0  0
  2  4  1  0  0  0  0
  4  5  1  0  0  0  0
  5  6  1  1  0  0  0
  5  7  1  0  0  0  0
  7  8  2  0  0  0  0
M  END
>  <name>
O=C(N)C[C@@H]([N;amide])[C;amide]=O

>  <apo>
2

>  <freq>
2

>  <freq0>
0

>  <freq1>
2

>  <freqA>
1.9984947

>  <a_count>
16

$$$$

  MOE2015           2D

 10 10  0  0  0  0  0  0  0  0999 V2000
    5.1750   -0.1300    0.0000 O   0  0  0  0  0  0  0  0  0  0  0  0
    4.4250    1.1690    0.0000 C   0  0  0  0  0  0  0  0  0  0  0  0
    5.1750    2.4680    0.0000 O   0  0  0  0  0  0  0  0  0  0  0  0
    2.9250    1.1690    0.0000 C   0  0  0  0  0  0  0  0  0  0  0  0
    2.1750    2.4680    0.0000 C   0  0  0  0  0  0  0  0  0  0  0  0
    2.9250    3.7670    0.0000 O   0  0  0  0  0  0  0  0  0  0  0  0
    0.6750    2.4680    0.0000 C   0  0  0  0  0  0  0  0  0  0  0  0
   -0.0750    1.1690    0.0000 C   0  0  0  0  0  0  0  0  0  0  0  0
    0.6750   -0.1300    0.0000 C   0  0  0  0  0  0  0  0  0  0  0  0
    2.1750   -0.1300    0.0000 C   0  0  0  0  0  0  0  0  0  0  0  0
  1  2  2  0  0  0  0
  2  3  1  0  0  0  0
  2  4  1  0  0  0  0
  4  5  1  0  0  0  0
  4 10  2  0  0  0  0
  5  6  1  0  0  0  0
  5  7  2  0  0  0  0
  7  8  1  0  0  0  0
  8  9  2  0  0  0  0
  9 10  1  0  0  0  0
M  END
>  <name>
O=C(O)c1c([O;ester])cccc1

>  <apo>
1

>  <freq>
2

>  <freq0>
0

>  <freq1>
2

>  <freqA>
1.9984947

>  <a_count>
16

$$$$

  MOE2015           2D

  8  8  0  0  0  0  0  0  0  0999 V2000
    4.2920    1.1500    0.0000 O   0  0  0  0  0  0  0  0  0  0  0  0
    2.9930    0.4000    0.0000 S   0  0  0  0  0  0  0  0  0  0  0  0
    4.2920   -0.3500    0.0000 O   0  0  0  0  0  0  0  0  0  0  0  0
    2.2430    1.6990    0.0000 N   0  0  0  0  0  0  0  0  0  0  0  0
    0.7430    1.6990    0.0000 C   0  0  0  0  0  0  0  0  0  0  0  0
   -0.0070    0.4000    0.0000 N   0  0  0  0  0  0  0  0  0  0  0  0
    0.7430   -0.8990    0.0000 C   0  0  0  0  0  0  0  0  0  0  0  0
    2.2430   -0.8990    0.0000 C   0  0  0  0  0  0  0  0  0  0  0  0
  1  2  2  0  0  0  0
  2  3  2  0  0  0  0
  2  4  1  0  0  0  0
  2  8  1  0  0  0  0
  4  5  1  0  0  0  0
  5  6  1  0  0  0  0
  6  7  1  0  0  0  0
  7  8  1  0  0  0  0
M  END
>  <name>
O=S1(=O)NC[N;amine]CC1

>  <apo>
1

>  <freq>
2

>  <freq0>
0

>  <freq1>
2

>  <freqA>
1.9984947

>  <a_count>
16

$$$$

  MOE2015           2D

  7  6  0  0  1  0  0  0  0  0999 V2000
    5.3550   -0.7920    0.0000 O   0  0  0  0  0  0  0  0  0  0  0  0
    4.0560   -1.5420    0.0000 C   0  0  0  0  0  0  0  0  0  0  0  0
    2.7570   -0.7920    0.0000 C   0  0  3  0  0  0  0  0  0  0  0  0
    2.7570    0.7080    0.0000 N   0  0  0  0  0  0  0  0  0  0  0  0
    1.4580   -1.5420    0.0000 C   0  0  3  0  0  0  0  0  0  0  0  0
    1.4580   -3.0420    0.0000 O   0  0  0  0  0  0  0  0  0  0  0  0
    0.1590   -0.7920    0.0000 C   0  0  0  0  0  0  0  0  0  0  0  0
  1  2  2  0  0  0  0
  2  3  1  0  0  0  0
  3  4  1  0  0  0  0
  3  5  1  0  0  0  0
  5  6  1  0  0  0  0
  5  7  1  0  0  0  0
M  END
>  <name>
O=[C;amide]C([N;amide])C(O)C

>  <apo>
2

>  <freq>
2

>  <freq0>
0

>  <freq1>
2

>  <freqA>
1.9984947

>  <a_count>
16

$$$$

  MOE2015           2D

  7  6  0  0  1  0  0  0  0  0999 V2000
   -0.3690   -1.3770    0.0000 O   0  0  0  0  0  0  0  0  0  0  0  0
    0.9300   -2.1270    0.0000 C   0  0  0  0  0  0  0  0  0  0  0  0
    2.2290   -1.3770    0.0000 C   0  0  1  0  0  0  0  0  0  0  0  0
    2.2290    0.1230    0.0000 O   0  0  0  0  0  0  0  0  0  0  0  0
    3.5280   -2.1270    0.0000 C   0  0  0  0  0  0  0  0  0  0  0  0
    4.8270   -1.3770    0.0000 C   0  0  0  0  0  0  0  0  0  0  0  0
    6.1260   -2.1270    0.0000 N   0  0  0  0  0  0  0  0  0  0  0  0
  1  2  2  0  0  0  0
  2  3  1  0  0  0  0
  3  4  1  1  0  0  0
  3  5  1  0  0  0  0
  5  6  1  0  0  0  0
  6  7  1  0  0  0  0
M  END
>  <name>
O=[C;amide][C@@H](O)CCN

>  <apo>
1

>  <freq>
2

>  <freq0>
0

>  <freq1>
2

>  <freqA>
1.9984947

>  <a_count>
16

$$$$

  MOE2015           2D

  9  9  0  0  0  0  0  0  0  0999 V2000
    6.0000   -3.4640    0.0000 O   0  0  0  0  0  0  0  0  0  0  0  0
    5.2500   -2.1650    0.0000 C   0  0  0  0  0  0  0  0  0  0  0  0
    3.7500   -2.1650    0.0000 C   0  0  0  0  0  0  0  0  0  0  0  0
    3.0000   -0.8660    0.0000 C   0  0  0  0  0  0  0  0  0  0  0  0
    1.5000   -0.8660    0.0000 C   0  0  0  0  0  0  0  0  0  0  0  0
    0.7500   -2.1650    0.0000 C   0  0  0  0  0  0  0  0  0  0  0  0
   -0.7500   -2.1650    0.0000 N   0  0  0  0  0  0  0  0  0  0  0  0
    1.5000   -3.4640    0.0000 C   0  0  0  0  0  0  0  0  0  0  0  0
    3.0000   -3.4640    0.0000 C   0  0  0  0  0  0  0  0  0  0  0  0
  1  2  2  0  0  0  0
  2  3  1  0  0  0  0
  3  4  1  0  0  0  0
  3  9  2  0  0  0  0
  4  5  2  0  0  0  0
  5  6  1  0  0  0  0
  6  7  1  0  0  0  0
  6  8  2  0  0  0  0
  8  9  1  0  0  0  0
M  END
>  <name>
O=[C;amide]c1ccc(N)cc1

>  <apo>
1

>  <freq>
2

>  <freq0>
0

>  <freq1>
2

>  <freqA>
1.9984947

>  <a_count>
16

$$$$

  MOE2015           2D

  6  5  0  0  1  0  0  0  0  0999 V2000
    4.8480   -1.2990    0.0000 O   0  0  0  0  0  0  0  0  0  0  0  0
    3.5490   -2.0490    0.0000 C   0  0  0  0  0  0  0  0  0  0  0  0
    2.2500   -1.2990    0.0000 C   0  0  2  0  0  0  0  0  0  0  0  0
    0.9510   -2.0490    0.0000 C   0  0  0  0  0  0  0  0  0  0  0  0
   -0.3480   -1.2990    0.0000 C   0  0  0  0  0  0  0  0  0  0  0  0
    2.2500    0.2010    0.0000 C   0  0  0  0  0  0  0  0  0  0  0  0
  1  2  2  0  0  0  0
  2  3  1  0  0  0  0
  3  4  1  0  0  0  0
  3  6  1  6  0  0  0
  4  5  1  0  0  0  0
M  END
>  <name>
O=[C;ester][C@H](CC)C

>  <apo>
1

>  <freq>
2

>  <freq0>
0

>  <freq1>
2

>  <freqA>
1.9984947

>  <a_count>
16

$$$$

  MOE2015           2D

  9  9  0  0  0  0  0  0  0  0999 V2000
    6.0000   -3.4640    0.0000 O   0  0  0  0  0  0  0  0  0  0  0  0
    5.2500   -2.1650    0.0000 C   0  0  0  0  0  0  0  0  0  0  0  0
    3.7500   -2.1650    0.0000 C   0  0  0  0  0  0  0  0  0  0  0  0
    3.0000   -0.8660    0.0000 C   0  0  0  0  0  0  0  0  0  0  0  0
    1.5000   -0.8660    0.0000 C   0  0  0  0  0  0  0  0  0  0  0  0
    0.7500   -2.1650    0.0000 C   0  0  0  0  0  0  0  0  0  0  0  0
   -0.7500   -2.1650    0.0000 N   0  0  0  0  0  0  0  0  0  0  0  0
    1.5000   -3.4640    0.0000 C   0  0  0  0  0  0  0  0  0  0  0  0
    3.0000   -3.4640    0.0000 C   0  0  0  0  0  0  0  0  0  0  0  0
  1  2  2  0  0  0  0
  2  3  1  0  0  0  0
  3  4  1  0  0  0  0
  3  9  2  0  0  0  0
  4  5  2  0  0  0  0
  5  6  1  0  0  0  0
  6  7  1  0  0  0  0
  6  8  2  0  0  0  0
  8  9  1  0  0  0  0
M  END
>  <name>
O=[C;ester]c1ccc([N;amine])cc1

>  <apo>
2

>  <freq>
2

>  <freq0>
0

>  <freq1>
2

>  <freqA>
1.9984947

>  <a_count>
16

$$$$

  MOE2015           2D

  8  8  0  0  0  0  0  0  0  0999 V2000
    5.3440   -0.8120    0.0000 O   0  0  0  0  0  0  0  0  0  0  0  0
    4.5940   -2.1110    0.0000 C   0  0  0  0  0  0  0  0  0  0  0  0
    3.0940   -2.1110    0.0000 C   0  0  0  0  0  0  0  0  0  0  0  0
    2.3440   -3.4100    0.0000 C   0  0  0  0  0  0  0  0  0  0  0  0
    0.8440   -3.4100    0.0000 C   0  0  0  0  0  0  0  0  0  0  0  0
    0.0940   -2.1110    0.0000 C   0  0  0  0  0  0  0  0  0  0  0  0
    0.8440   -0.8120    0.0000 C   0  0  0  0  0  0  0  0  0  0  0  0
    2.3440   -0.8120    0.0000 C   0  0  0  0  0  0  0  0  0  0  0  0
  1  2  1  0  0  0  0
  2  3  1  0  0  0  0
  3  4  1  0  0  0  0
  3  8  2  0  0  0  0
  4  5  2  0  0  0  0
  5  6  1  0  0  0  0
  6  7  2  0  0  0  0
  7  8  1  0  0  0  0
M  END
>  <name>
[O;ester]Cc1ccccc1

>  <apo>
1

>  <freq>
2

>  <freq0>
0

>  <freq1>
2

>  <freqA>
1.9984947

>  <a_count>
16

$$$$

  MOE2015           2D

  8  8  0  0  0  0  0  0  0  0999 V2000
    0.4890   -1.1750    0.0000 O   0  0  0  0  0  0  0  0  0  0  0  0
    1.7880   -0.4250    0.0000 C   0  0  0  0  0  0  0  0  0  0  0  0
    1.7880    1.0750    0.0000 C   0  0  0  0  0  0  0  0  0  0  0  0
    0.4890    1.8250    0.0000 C   0  0  0  0  0  0  0  0  0  0  0  0
    3.0870    1.8250    0.0000 C   0  0  0  0  0  0  0  0  0  0  0  0
    4.3860    1.0750    0.0000 C   0  0  0  0  0  0  0  0  0  0  0  0
    4.3860   -0.4250    0.0000 C   0  0  0  0  0  0  0  0  0  0  0  0
    3.0870   -1.1750    0.0000 C   0  0  0  0  0  0  0  0  0  0  0  0
  1  2  1  0  0  0  0
  2  3  1  0  0  0  0
  2  8  2  0  0  0  0
  3  4  1  0  0  0  0
  3  5  2  0  0  0  0
  5  6  1  0  0  0  0
  6  7  2  0  0  0  0
  7  8  1  0  0  0  0
M  END
>  <name>
[O;ether]c1c(C)cccc1

>  <apo>
1

>  <freq>
2

>  <freq0>
0

>  <freq1>
2

>  <freqA>
1.9984947

>  <a_count>
16

$$$$

  MOE2015           2D

  8  8  0  0  0  0  0  0  0  0999 V2000
    0.0000    0.0000    0.0000 O   0  0  0  0  0  0  0  0  0  0  0  0
    1.5000    0.0000    0.0000 C   0  0  0  0  0  0  0  0  0  0  0  0
    2.2500   -1.2990    0.0000 C   0  0  0  0  0  0  0  0  0  0  0  0
    3.7500   -1.2990    0.0000 C   0  0  0  0  0  0  0  0  0  0  0  0
    4.5000    0.0000    0.0000 C   0  0  0  0  0  0  0  0  0  0  0  0
    6.0000    0.0000    0.0000 C   0  0  0  0  0  0  0  0  0  0  0  0
    3.7500    1.2990    0.0000 C   0  0  0  0  0  0  0  0  0  0  0  0
    2.2500    1.2990    0.0000 C   0  0  0  0  0  0  0  0  0  0  0  0
  1  2  1  0  0  0  0
  2  3  1  0  0  0  0
  2  8  2  0  0  0  0
  3  4  2  0  0  0  0
  4  5  1  0  0  0  0
  5  6  1  0  0  0  0
  5  7  2  0  0  0  0
  7  8  1  0  0  0  0
M  END
>  <name>
[O;ether]c1ccc([C;ether])cc1

>  <apo>
2

>  <freq>
2

>  <freq0>
0

>  <freq1>
2

>  <freqA>
1.9984947

>  <a_count>
16

$$$$

  MOE2015           2D

 10 11  0  0  0  0  0  0  0  0999 V2000
   -0.0220    0.0580    0.0000 O   0  0  0  0  0  0  0  0  0  0  0  0
    1.0920    1.0620    0.0000 C   0  0  0  0  0  0  0  0  0  0  0  0
    0.9360    2.5540    0.0000 N   0  0  0  0  0  0  0  0  0  0  0  0
    2.3060    3.1640    0.0000 N   0  0  0  0  0  0  0  0  0  0  0  0
    3.3100    2.0490    0.0000 C   0  0  0  0  0  0  0  0  0  0  0  0
    2.5600    0.7500    0.0000 C   0  0  0  0  0  0  0  0  0  0  0  0
    3.3100   -0.5490    0.0000 C   0  0  0  0  0  0  0  0  0  0  0  0
    4.8100   -0.5490    0.0000 C   0  0  0  0  0  0  0  0  0  0  0  0
    5.5600    0.7500    0.0000 C   0  0  0  0  0  0  0  0  0  0  0  0
    4.8100    2.0490    0.0000 C   0  0  0  0  0  0  0  0  0  0  0  0
  1  2  1  0  0  0  0
  2  3  2  0  0  0  0
  2  6  1  0  0  0  0
  3  4  1  0  0  0  0
  4  5  1  0  0  0  0
  5  6  1  0  0  0  0
  5 10  2  0  0  0  0
  6  7  2  0  0  0  0
  7  8  1  0  0  0  0
  8  9  2  0  0  0  0
  9 10  1  0  0  0  0
M  END
>  <name>
[O;ether]c1n[nH;NaroC]c2c1cccc2

>  <apo>
2

>  <freq>
2

>  <freq0>
0

>  <freq1>
2

>  <freqA>
1.9984947

>  <a_count>
16

$$$$

  MOE2015           2D

  7  7  0  0  0  0  0  0  0  0999 V2000
    1.0990    1.5320    0.0000 C   0  0  0  0  0  0  0  0  0  0  0  0
    1.8490    2.8310    0.0000 C   0  0  0  0  0  0  0  0  0  0  0  0
   -0.4010    1.5320    0.0000 C   0  0  0  0  0  0  0  0  0  0  0  0
   -1.2830    2.7450    0.0000 S   0  0  0  0  0  0  0  0  0  0  0  0
   -2.7100    2.2820    0.0000 C   0  0  0  0  0  0  0  0  0  0  0  0
   -2.7100    0.7820    0.0000 C   0  0  0  0  0  0  0  0  0  0  0  0
   -1.2830    0.3180    0.0000 C   0  0  0  0  0  0  0  0  0  0  0  0
  1  2  1  0  0  0  0
  1  3  1  0  0  0  0
  3  4  1  0  0  0  0
  3  7  2  0  0  0  0
  4  5  1  0  0  0  0
  5  6  2  0  0  0  0
  6  7  1  0  0  0  0
M  END
>  <name>
C([C;amine])c1sccc1

>  <apo>
1

>  <freq>
2

>  <freq0>
0

>  <freq1>
2

>  <freqA>
1.9984947

>  <a_count>
15

$$$$

  MOE2015           2D

  7  7  0  0  0  0  0  0  0  0999 V2000
    5.1430    0.0000    0.0000 C   0  0  0  0  0  0  0  0  0  0  0  0
    3.6430    0.0000    0.0000 C   0  0  0  0  0  0  0  0  0  0  0  0
    2.8930    1.2990    0.0000 C   0  0  0  0  0  0  0  0  0  0  0  0
    1.3930    1.2990    0.0000 C   0  0  0  0  0  0  0  0  0  0  0  0
    0.6430    0.0000    0.0000 C   0  0  0  0  0  0  0  0  0  0  0  0
    1.3930   -1.2990    0.0000 C   0  0  0  0  0  0  0  0  0  0  0  0
    2.8930   -1.2990    0.0000 C   0  0  0  0  0  0  0  0  0  0  0  0
  1  2  1  0  0  0  0
  2  3  1  0  0  0  0
  2  7  2  0  0  0  0
  3  4  2  0  0  0  0
  4  5  1  0  0  0  0
  5  6  2  0  0  0  0
  6  7  1  0  0  0  0
M  END
>  <name>
Cc1cc[c;biphenyl]cc1

>  <apo>
1

>  <freq>
2

>  <freq0>
0

>  <freq1>
2

>  <freqA>
1.9984947

>  <a_count>
15

$$$$

  MOE2015           2D

  7  7  0  0  0  0  0  0  0  0999 V2000
    5.1430    0.0000    0.0000 C   0  0  0  0  0  0  0  0  0  0  0  0
    3.6430    0.0000    0.0000 C   0  0  0  0  0  0  0  0  0  0  0  0
    2.8930    1.2990    0.0000 C   0  0  0  0  0  0  0  0  0  0  0  0
    1.3930    1.2990    0.0000 C   0  0  0  0  0  0  0  0  0  0  0  0
    0.6430    0.0000    0.0000 C   0  0  0  0  0  0  0  0  0  0  0  0
    1.3930   -1.2990    0.0000 C   0  0  0  0  0  0  0  0  0  0  0  0
    2.8930   -1.2990    0.0000 C   0  0  0  0  0  0  0  0  0  0  0  0
  1  2  1  0  0  0  0
  2  3  1  0  0  0  0
  2  7  2  0  0  0  0
  3  4  2  0  0  0  0
  4  5  1  0  0  0  0
  5  6  2  0  0  0  0
  6  7  1  0  0  0  0
M  END
>  <name>
Cc1cccc[c;biphenyl]1

>  <apo>
1

>  <freq>
2

>  <freq0>
0

>  <freq1>
2

>  <freqA>
1.9984947

>  <a_count>
15

$$$$

  MOE2015           2D

  9  9  0  0  0  0  0  0  0  0999 V2000
    0.0690   -0.2560    0.0000 Cl  0  0  0  0  0  0  0  0  0  0  0  0
    1.3680    0.4940    0.0000 C   0  0  0  0  0  0  0  0  0  0  0  0
    2.6670   -0.2560    0.0000 C   0  0  0  0  0  0  0  0  0  0  0  0
    2.6670   -1.7560    0.0000 C   0  0  0  0  0  0  0  0  0  0  0  0
    3.9660    0.4940    0.0000 C   0  0  0  0  0  0  0  0  0  0  0  0
    5.2650   -0.2560    0.0000 Cl  0  0  0  0  0  0  0  0  0  0  0  0
    3.9660    1.9940    0.0000 C   0  0  0  0  0  0  0  0  0  0  0  0
    2.6670    2.7440    0.0000 C   0  0  0  0  0  0  0  0  0  0  0  0
    1.3680    1.9940    0.0000 C   0  0  0  0  0  0  0  0  0  0  0  0
  1  2  1  0  0  0  0
  2  3  1  0  0  0  0
  2  9  2  0  0  0  0
  3  4  1  0  0  0  0
  3  5  2  0  0  0  0
  5  6  1  0  0  0  0
  5  7  1  0  0  0  0
  7  8  2  0  0  0  0
  8  9  1  0  0  0  0
M  END
>  <name>
Clc1c([C;ether])c(Cl)ccc1

>  <apo>
1

>  <freq>
2

>  <freq0>
0

>  <freq1>
2

>  <freqA>
1.9984947

>  <a_count>
15

$$$$

  MOE2015           2D

  8  8  0  0  0  0  0  0  0  0999 V2000
    0.4890   -1.1750    0.0000 Cl  0  0  0  0  0  0  0  0  0  0  0  0
    1.7880   -0.4250    0.0000 C   0  0  0  0  0  0  0  0  0  0  0  0
    1.7880    1.0750    0.0000 C   0  0  0  0  0  0  0  0  0  0  0  0
    0.4890    1.8250    0.0000 C   0  0  0  0  0  0  0  0  0  0  0  0
    3.0870    1.8250    0.0000 C   0  0  0  0  0  0  0  0  0  0  0  0
    4.3860    1.0750    0.0000 C   0  0  0  0  0  0  0  0  0  0  0  0
    4.3860   -0.4250    0.0000 C   0  0  0  0  0  0  0  0  0  0  0  0
    3.0870   -1.1750    0.0000 C   0  0  0  0  0  0  0  0  0  0  0  0
  1  2  1  0  0  0  0
  2  3  1  0  0  0  0
  2  8  2  0  0  0  0
  3  4  1  0  0  0  0
  3  5  2  0  0  0  0
  5  6  1  0  0  0  0
  6  7  2  0  0  0  0
  7  8  1  0  0  0  0
M  END
>  <name>
Clc1c([C;quatN])cccc1

>  <apo>
1

>  <freq>
2

>  <freq0>
0

>  <freq1>
2

>  <freqA>
1.9984947

>  <a_count>
15

$$$$

  MOE2015           2D

 11 12  0  0  0  0  0  0  0  0999 V2000
    6.7620   -1.4610    0.0000 Cl  0  0  0  0  0  0  0  0  0  0  0  0
    5.4630   -0.7110    0.0000 C   0  0  0  0  0  0  0  0  0  0  0  0
    5.4630    0.7890    0.0000 N   0  0  0  0  0  0  0  0  0  0  0  0
    4.1640    1.5390    0.0000 C   0  0  0  0  0  0  0  0  0  0  0  0
    4.1640    3.0390    0.0000 N   0  0  0  0  0  0  0  0  0  0  0  0
    2.8650    0.7890    0.0000 C   0  0  0  0  0  0  0  0  0  0  0  0
    1.4390    1.2530    0.0000 N   0  0  0  0  0  0  0  0  0  0  0  0
    0.5570    0.0390    0.0000 C   0  0  0  0  0  0  0  0  0  0  0  0
    1.4390   -1.1740    0.0000 N   0  0  0  0  0  0  0  0  0  0  0  0
    2.8650   -0.7110    0.0000 C   0  0  0  0  0  0  0  0  0  0  0  0
    4.1640   -1.4610    0.0000 N   0  0  0  0  0  0  0  0  0  0  0  0
  1  2  1  0  0  0  0
  2  3  1  0  0  0  0
  2 11  2  0  0  0  0
  3  4  2  0  0  0  0
  4  5  1  0  0  0  0
  4  6  1  0  0  0  0
  6  7  1  0  0  0  0
  6 10  2  0  0  0  0
  7  8  2  0  0  0  0
  8  9  1  0  0  0  0
  9 10  1  0  0  0  0
 10 11  1  0  0  0  0
M  END
>  <name>
Clc1nc(N)c2nc[nH;NaroC]c2n1

>  <apo>
1

>  <freq>
2

>  <freq0>
0

>  <freq1>
2

>  <freqA>
1.9984947

>  <a_count>
15

$$$$

  MOE2015           2D

  8  8  0  0  0  0  0  0  0  0999 V2000
    0.4890   -1.1750    0.0000 F   0  0  0  0  0  0  0  0  0  0  0  0
    1.7880   -0.4250    0.0000 C   0  0  0  0  0  0  0  0  0  0  0  0
    1.7880    1.0750    0.0000 C   0  0  0  0  0  0  0  0  0  0  0  0
    0.4890    1.8250    0.0000 C   0  0  0  0  0  0  0  0  0  0  0  0
    3.0870    1.8250    0.0000 C   0  0  0  0  0  0  0  0  0  0  0  0
    4.3860    1.0750    0.0000 C   0  0  0  0  0  0  0  0  0  0  0  0
    4.3860   -0.4250    0.0000 C   0  0  0  0  0  0  0  0  0  0  0  0
    3.0870   -1.1750    0.0000 C   0  0  0  0  0  0  0  0  0  0  0  0
  1  2  1  0  0  0  0
  2  3  1  0  0  0  0
  2  8  2  0  0  0  0
  3  4  1  0  0  0  0
  3  5  2  0  0  0  0
  5  6  1  0  0  0  0
  6  7  2  0  0  0  0
  7  8  1  0  0  0  0
M  END
>  <name>
Fc1c([C;NaroC])cccc1

>  <apo>
1

>  <freq>
2

>  <freq0>
0

>  <freq1>
2

>  <freqA>
1.9984947

>  <a_count>
15

$$$$

  MOE2015           2D

  8  8  0  0  0  0  0  0  0  0999 V2000
    5.4110   -0.8000    0.0000 F   0  0  0  0  0  0  0  0  0  0  0  0
    4.1120   -0.0500    0.0000 C   0  0  0  0  0  0  0  0  0  0  0  0
    2.8120   -0.8000    0.0000 C   0  0  0  0  0  0  0  0  0  0  0  0
    1.5130   -0.0500    0.0000 C   0  0  0  0  0  0  0  0  0  0  0  0
    0.2140   -0.8000    0.0000 C   0  0  0  0  0  0  0  0  0  0  0  0
    1.5130    1.4500    0.0000 C   0  0  0  0  0  0  0  0  0  0  0  0
    2.8120    2.2000    0.0000 C   0  0  0  0  0  0  0  0  0  0  0  0
    4.1120    1.4500    0.0000 C   0  0  0  0  0  0  0  0  0  0  0  0
  1  2  1  0  0  0  0
  2  3  1  0  0  0  0
  2  8  2  0  0  0  0
  3  4  2  0  0  0  0
  4  5  1  0  0  0  0
  4  6  1  0  0  0  0
  6  7  2  0  0  0  0
  7  8  1  0  0  0  0
M  END
>  <name>
Fc1cc([C;ether])ccc1

>  <apo>
1

>  <freq>
2

>  <freq0>
0

>  <freq1>
2

>  <freqA>
1.9984947

>  <a_count>
15

$$$$

  MOE2015           2D

  8  8  0  0  0  0  0  0  0  0999 V2000
    0.0000    0.0000    0.0000 F   0  0  0  0  0  0  0  0  0  0  0  0
    1.5000    0.0000    0.0000 C   0  0  0  0  0  0  0  0  0  0  0  0
    2.2500   -1.2990    0.0000 C   0  0  0  0  0  0  0  0  0  0  0  0
    3.7500   -1.2990    0.0000 C   0  0  0  0  0  0  0  0  0  0  0  0
    4.5000    0.0000    0.0000 C   0  0  0  0  0  0  0  0  0  0  0  0
    6.0000    0.0000    0.0000 C   0  0  0  0  0  0  0  0  0  0  0  0
    3.7500    1.2990    0.0000 C   0  0  0  0  0  0  0  0  0  0  0  0
    2.2500    1.2990    0.0000 C   0  0  0  0  0  0  0  0  0  0  0  0
  1  2  1  0  0  0  0
  2  3  1  0  0  0  0
  2  8  2  0  0  0  0
  3  4  2  0  0  0  0
  4  5  1  0  0  0  0
  5  6  1  0  0  0  0
  5  7  2  0  0  0  0
  7  8  1  0  0  0  0
M  END
>  <name>
Fc1ccc([C;NaroC])cc1

>  <apo>
1

>  <freq>
2

>  <freq0>
0

>  <freq1>
2

>  <freqA>
1.9984947

>  <a_count>
15

$$$$

  MOE2015           2D

 10 11  0  0  0  0  0  0  0  0999 V2000
    0.5660    0.9790    0.0000 N   0  0  0  0  0  0  0  0  0  0  0  0
    1.3160   -0.3200    0.0000 C   0  0  0  0  0  0  0  0  0  0  0  0
    0.5660   -1.6190    0.0000 N   0  0  0  0  0  0  0  0  0  0  0  0
    1.3160   -2.9180    0.0000 C   0  0  0  0  0  0  0  0  0  0  0  0
    2.8160   -2.9180    0.0000 N   0  0  0  0  0  0  0  0  0  0  0  0
    3.5660   -1.6190    0.0000 C   0  0  0  0  0  0  0  0  0  0  0  0
    5.0330   -1.3070    0.0000 N   0  0  0  0  0  0  0  0  0  0  0  0
    5.1900    0.1850    0.0000 N   0  0  0  0  0  0  0  0  0  0  0  0
    3.8190    0.7950    0.0000 C   0  0  0  0  0  0  0  0  0  0  0  0
    2.8160   -0.3200    0.0000 C   0  0  0  0  0  0  0  0  0  0  0  0
  1  2  1  0  0  0  0
  2  3  1  0  0  0  0
  2 10  2  0  0  0  0
  3  4  2  0  0  0  0
  4  5  1  0  0  0  0
  5  6  2  0  0  0  0
  6  7  1  0  0  0  0
  6 10  1  0  0  0  0
  7  8  1  0  0  0  0
  8  9  2  0  0  0  0
  9 10  1  0  0  0  0
M  END
>  <name>
Nc1ncnc2[nH;NaroC]n[c;biphenyl]c12

>  <apo>
2

>  <freq>
2

>  <freq0>
0

>  <freq1>
2

>  <freqA>
1.9984947

>  <a_count>
15

$$$$

  MOE2015           2D

  6  5  0  0  0  0  0  0  0  0999 V2000
    4.1250   -2.3820    0.0000 O   0  0  0  0  0  0  0  0  0  0  0  0
    3.3750   -1.0830    0.0000 N   0  0  0  0  0  0  0  0  0  0  0  0
    1.8750   -1.0830    0.0000 C   0  0  0  0  0  0  0  0  0  0  0  0
    1.1250   -2.3820    0.0000 C   0  0  0  0  0  0  0  0  0  0  0  0
   -0.3750   -2.3820    0.0000 C   0  0  0  0  0  0  0  0  0  0  0  0
    1.1250    0.2170    0.0000 C   0  0  0  0  0  0  0  0  0  0  0  0
  1  2  1  0  0  0  0
  2  3  2  0  0  0  0
  3  4  1  0  0  0  0
  3  6  1  0  0  0  0
  4  5  1  0  0  0  0
M  END
>  <name>
O/N=C(\[C;amine]C)/C

>  <apo>
1

>  <freq>
2

>  <freq0>
0

>  <freq1>
2

>  <freqA>
1.9984947

>  <a_count>
15

$$$$

  MOE2015           2D

  6  6  0  0  0  0  0  0  0  0999 V2000
   -2.0490    2.0490    0.0000 O   0  0  0  0  0  0  0  0  0  0  0  0
   -2.0490    0.5490    0.0000 C   0  0  0  0  0  0  0  0  0  0  0  0
   -0.7500   -0.2010    0.0000 C   0  0  0  0  0  0  0  0  0  0  0  0
    0.5490    0.5490    0.0000 N   0  0  0  0  0  0  0  0  0  0  0  0
    0.5490    2.0490    0.0000 C   0  0  0  0  0  0  0  0  0  0  0  0
   -0.7500    2.7990    0.0000 C   0  0  0  0  0  0  0  0  0  0  0  0
  1  2  1  0  0  0  0
  1  6  1  0  0  0  0
  2  3  1  0  0  0  0
  3  4  1  0  0  0  0
  4  5  1  0  0  0  0
  5  6  1  0  0  0  0
M  END
>  <name>
O1[C;ether]CNCC1

>  <apo>
1

>  <freq>
2

>  <freq0>
0

>  <freq1>
2

>  <freqA>
1.9984947

>  <a_count>
15

$$$$

  MOE2015           2D

  6  5  0  0  0  0  0  0  0  0999 V2000
   -0.0070   -1.2750    0.0000 O   0  0  0  0  0  0  0  0  0  0  0  0
    1.2920   -0.5250    0.0000 C   0  0  0  0  0  0  0  0  0  0  0  0
    1.2920    0.9750    0.0000 N   0  0  0  0  0  0  0  0  0  0  0  0
    2.5920   -1.2750    0.0000 C   0  0  0  0  0  0  0  0  0  0  0  0
    3.8910   -0.5250    0.0000 C   0  0  0  0  0  0  0  0  0  0  0  0
    5.1900   -1.2750    0.0000 C   0  0  0  0  0  0  0  0  0  0  0  0
  1  2  2  0  0  0  0
  2  3  1  0  0  0  0
  2  4  1  0  0  0  0
  4  5  1  0  0  0  0
  5  6  1  0  0  0  0
M  END
>  <name>
O=C(N)[C;lactam]CC

>  <apo>
1

>  <freq>
2

>  <freq0>
0

>  <freq1>
2

>  <freqA>
1.9984947

>  <a_count>
15

$$$$

  MOE2015           2D

  9  9  0  0  0  0  0  0  0  0999 V2000
    5.0000    0.2890    0.0000 O   0  0  0  0  0  0  0  0  0  0  0  0
    4.2500    1.5880    0.0000 C   0  0  0  0  0  0  0  0  0  0  0  0
    5.0000    2.8870    0.0000 O   0  0  0  0  0  0  0  0  0  0  0  0
    2.7500    1.5880    0.0000 C   0  0  0  0  0  0  0  0  0  0  0  0
    2.0000    2.8870    0.0000 C   0  0  0  0  0  0  0  0  0  0  0  0
    0.5000    2.8870    0.0000 C   0  0  0  0  0  0  0  0  0  0  0  0
   -0.2500    1.5880    0.0000 C   0  0  0  0  0  0  0  0  0  0  0  0
    0.5000    0.2890    0.0000 C   0  0  0  0  0  0  0  0  0  0  0  0
    2.0000    0.2890    0.0000 C   0  0  0  0  0  0  0  0  0  0  0  0
  1  2  2  0  0  0  0
  2  3  1  0  0  0  0
  2  4  1  0  0  0  0
  4  5  1  0  0  0  0
  4  9  2  0  0  0  0
  5  6  2  0  0  0  0
  6  7  1  0  0  0  0
  7  8  2  0  0  0  0
  8  9  1  0  0  0  0
M  END
>  <name>
O=C(O)c1c[c;biphenyl]ccc1

>  <apo>
1

>  <freq>
2

>  <freq0>
0

>  <freq1>
2

>  <freqA>
1.9984947

>  <a_count>
15

$$$$

  MOE2015           2D

 11 11  0  0  0  0  0  0  0  0999 V2000
    0.0150   -2.5790    0.0000 O   0  0  0  0  0  0  0  0  0  0  0  0
    1.5150   -2.5620    0.0000 C   0  0  0  0  0  0  0  0  0  0  0  0
    2.2500   -1.2540    0.0000 C   0  0  0  0  0  0  0  0  0  0  0  0
    1.4850    0.0360    0.0000 N   0  0  0  0  0  0  0  0  0  0  0  0
    2.2200    1.3440    0.0000 O   0  0  0  0  0  0  0  0  0  0  0  0
    3.7500   -1.2370    0.0000 C   0  0  0  0  0  0  0  0  0  0  0  0
    4.6450   -2.4410    0.0000 N   0  0  0  0  0  0  0  0  0  0  0  0
    6.0660   -1.9610    0.0000 C   0  0  0  0  0  0  0  0  0  0  0  0
    7.2900   -2.8290    0.0000 N   0  0  0  0  0  0  0  0  0  0  0  0
    6.0490   -0.4610    0.0000 S   0  0  0  0  0  0  0  0  0  0  0  0
    4.6170   -0.0140    0.0000 N   0  0  0  0  0  0  0  0  0  0  0  0
  1  2  2  0  0  0  0
  2  3  1  0  0  0  0
  3  4  2  0  0  0  0
  3  6  1  0  0  0  0
  4  5  1  0  0  0  0
  6  7  1  0  0  0  0
  6 11  2  0  0  0  0
  7  8  2  0  0  0  0
  8  9  1  0  0  0  0
  8 10  1  0  0  0  0
 10 11  1  0  0  0  0
M  END
>  <name>
O=[C;amide]/C(=N/O)/c1nc(N)sn1

>  <apo>
1

>  <freq>
2

>  <freq0>
0

>  <freq1>
2

>  <freqA>
1.9984947

>  <a_count>
15

$$$$

  MOE2015           2D

  7  7  0  0  1  0  0  0  0  0999 V2000
    4.9030   -0.6040    0.0000 O   0  0  0  0  0  0  0  0  0  0  0  0
    4.1530   -1.9030    0.0000 C   0  0  0  0  0  0  0  0  0  0  0  0
    2.6530   -1.9030    0.0000 C   0  0  3  0  0  0  0  0  0  0  0  0
    1.7710   -3.1160    0.0000 O   0  0  0  0  0  0  0  0  0  0  0  0
    0.3450   -2.6530    0.0000 C   0  0  0  0  0  0  0  0  0  0  0  0
    0.3450   -1.1530    0.0000 C   0  0  0  0  0  0  0  0  0  0  0  0
    1.7710   -0.6890    0.0000 C   0  0  0  0  0  0  0  0  0  0  0  0
  1  2  2  0  0  0  0
  2  3  1  0  0  0  0
  3  4  1  0  0  0  0
  3  7  1  0  0  0  0
  4  5  1  0  0  0  0
  5  6  1  0  0  0  0
  6  7  1  0  0  0  0
M  END
>  <name>
O=[C;amide]C1OCCC1

>  <apo>
1

>  <freq>
2

>  <freq0>
0

>  <freq1>
2

>  <freqA>
1.9984947

>  <a_count>
15

$$$$

  MOE2015           2D

  9  9  0  0  0  0  0  0  0  0999 V2000
    8.0750    0.1510    0.0000 O   0  0  0  0  0  0  0  0  0  0  0  0
    6.7880    0.9210    0.0000 C   0  0  0  0  0  0  0  0  0  0  0  0
    5.4780    0.1920    0.0000 C   0  0  0  0  0  0  0  0  0  0  0  0
    4.1910    0.9620    0.0000 C   0  0  0  0  0  0  0  0  0  0  0  0
    2.8110    0.3740    0.0000 N   0  0  0  0  0  0  0  0  0  0  0  0
    1.8250    1.5050    0.0000 C   0  0  0  0  0  0  0  0  0  0  0  0
    0.3310    1.3720    0.0000 N   0  0  0  0  0  0  0  0  0  0  0  0
    2.5950    2.7920    0.0000 S   0  0  0  0  0  0  0  0  0  0  0  0
    4.0580    2.4570    0.0000 C   0  0  0  0  0  0  0  0  0  0  0  0
  1  2  2  0  0  0  0
  2  3  1  0  0  0  0
  3  4  1  0  0  0  0
  4  5  1  0  0  0  0
  4  9  2  0  0  0  0
  5  6  2  0  0  0  0
  6  7  1  0  0  0  0
  6  8  1  0  0  0  0
  8  9  1  0  0  0  0
M  END
>  <name>
O=[C;amide]Cc1nc(N)sc1

>  <apo>
1

>  <freq>
2

>  <freq0>
0

>  <freq1>
2

>  <freqA>
1.9984947

>  <a_count>
15

$$$$

  MOE2015           2D

  6  5  0  0  1  0  0  0  0  0999 V2000
   -0.3480   -1.2990    0.0000 O   0  0  0  0  0  0  0  0  0  0  0  0
    0.9510   -2.0490    0.0000 C   0  0  0  0  0  0  0  0  0  0  0  0
    2.2500   -1.2990    0.0000 C   0  0  1  0  0  0  0  0  0  0  0  0
    2.2500    0.2010    0.0000 N   0  0  0  0  0  0  0  0  0  0  0  0
    3.5490   -2.0490    0.0000 C   0  0  0  0  0  0  0  0  0  0  0  0
    4.8480   -1.2990    0.0000 C   0  0  0  0  0  0  0  0  0  0  0  0
  1  2  2  0  0  0  0
  2  3  1  0  0  0  0
  3  4  1  1  0  0  0
  3  5  1  0  0  0  0
  5  6  1  0  0  0  0
M  END
>  <name>
O=[C;amide][C@@H]([N;amide])CC

>  <apo>
2

>  <freq>
2

>  <freq0>
0

>  <freq1>
2

>  <freqA>
1.9984947

>  <a_count>
15

$$$$

  MOE2015           2D

  9  9  0  0  0  0  0  0  0  0999 V2000
    6.0000   -3.4640    0.0000 O   0  0  0  0  0  0  0  0  0  0  0  0
    5.2500   -2.1650    0.0000 C   0  0  0  0  0  0  0  0  0  0  0  0
    3.7500   -2.1650    0.0000 C   0  0  0  0  0  0  0  0  0  0  0  0
    3.0000   -0.8660    0.0000 N   0  0  0  0  0  0  0  0  0  0  0  0
    1.5000   -0.8660    0.0000 C   0  0  0  0  0  0  0  0  0  0  0  0
    0.7500   -2.1650    0.0000 C   0  0  0  0  0  0  0  0  0  0  0  0
   -0.7500   -2.1650    0.0000 C   0  0  0  0  0  0  0  0  0  0  0  0
    1.5000   -3.4640    0.0000 N   0  0  0  0  0  0  0  0  0  0  0  0
    3.0000   -3.4640    0.0000 C   0  0  0  0  0  0  0  0  0  0  0  0
  1  2  2  0  0  0  0
  2  3  1  0  0  0  0
  3  4  1  0  0  0  0
  3  9  2  0  0  0  0
  4  5  2  0  0  0  0
  5  6  1  0  0  0  0
  6  7  1  0  0  0  0
  6  8  2  0  0  0  0
  8  9  1  0  0  0  0
M  END
>  <name>
O=[C;amide]c1ncc(C)nc1

>  <apo>
1

>  <freq>
2

>  <freq0>
0

>  <freq1>
2

>  <freqA>
1.9984947

>  <a_count>
15

$$$$

  MOE2015           2D

  6  5  0  0  0  0  0  0  0  0999 V2000
   -0.3480   -1.2990    0.0000 O   0  0  0  0  0  0  0  0  0  0  0  0
    0.9510   -2.0490    0.0000 C   0  0  0  0  0  0  0  0  0  0  0  0
    2.2500   -1.2990    0.0000 C   0  0  0  0  0  0  0  0  0  0  0  0
    2.2500    0.2010    0.0000 N   0  0  0  0  0  0  0  0  0  0  0  0
    3.5490   -2.0490    0.0000 C   0  0  0  0  0  0  0  0  0  0  0  0
    4.8480   -1.2990    0.0000 O   0  0  0  0  0  0  0  0  0  0  0  0
  1  2  1  0  0  0  0
  2  3  1  0  0  0  0
  3  4  1  0  0  0  0
  3  5  1  0  0  0  0
  5  6  1  0  0  0  0
M  END
>  <name>
OCC([N;amide])CO

>  <apo>
1

>  <freq>
2

>  <freq0>
0

>  <freq1>
2

>  <freqA>
1.9984947

>  <a_count>
15

$$$$

  MOE2015           2D

  5  4  0  0  0  0  0  0  0  0999 V2000
    4.9980    0.7390    0.0000 O   0  0  0  0  0  0  0  0  0  0  0  0
    3.6990    1.4890    0.0000 C   0  0  0  0  0  0  0  0  0  0  0  0
    2.4000    0.7390    0.0000 C   0  0  0  0  0  0  0  0  0  0  0  0
    1.1010    1.4890    0.0000 C   0  0  0  0  0  0  0  0  0  0  0  0
   -0.1980    0.7390    0.0000 C   0  0  0  0  0  0  0  0  0  0  0  0
  1  2  1  0  0  0  0
  2  3  1  0  0  0  0
  3  4  1  0  0  0  0
  4  5  1  0  0  0  0
M  END
>  <name>
OC[C;amine]CC

>  <apo>
1

>  <freq>
2

>  <freq0>
0

>  <freq1>
2

>  <freqA>
1.9984947

>  <a_count>
15

$$$$

  MOE2015           2D

  5  5  0  0  0  0  0  0  0  0999 V2000
    0.7970    1.6710    0.0000 C   0  0  0  0  0  0  0  0  0  0  0  0
    0.4090    0.2220    0.0000 C   0  0  0  0  0  0  0  0  0  0  0  0
   -1.0890    0.1430    0.0000 C   0  0  0  0  0  0  0  0  0  0  0  0
   -1.6270    1.5440    0.0000 C   0  0  0  0  0  0  0  0  0  0  0  0
   -0.4610    2.4880    0.0000 C   0  0  0  0  0  0  0  0  0  0  0  0
  1  2  1  0  0  0  0
  1  5  1  0  0  0  0
  2  3  1  0  0  0  0
  3  4  1  0  0  0  0
  4  5  1  0  0  0  0
M  END
>  <name>
[C;amine]1CCCC1

>  <apo>
1

>  <freq>
2

>  <freq0>
0

>  <freq1>
2

>  <freqA>
1.9984947

>  <a_count>
15

$$$$

  MOE2015           2D

  5  5  0  0  0  0  0  0  0  0999 V2000
    4.0270   -0.5300    0.0000 C   0  0  0  0  0  0  0  0  0  0  0  0
    2.5780   -0.1420    0.0000 C   0  0  0  0  0  0  0  0  0  0  0  0
    1.2790   -0.8920    0.0000 C   0  0  0  0  0  0  0  0  0  0  0  0
    0.5290    0.4070    0.0000 C   0  0  0  0  0  0  0  0  0  0  0  0
    1.8280    1.1570    0.0000 C   0  0  0  0  0  0  0  0  0  0  0  0
  1  2  1  0  0  0  0
  2  3  1  0  0  0  0
  2  5  1  0  0  0  0
  3  4  1  0  0  0  0
  4  5  1  0  0  0  0
M  END
>  <name>
[C;amine]C1CCC1

>  <apo>
1

>  <freq>
2

>  <freq0>
0

>  <freq1>
2

>  <freqA>
1.9984947

>  <a_count>
15

$$$$

  MOE2015           2D

  7  7  0  0  0  0  0  0  0  0999 V2000
    5.1430    0.0000    0.0000 C   0  0  0  0  0  0  0  0  0  0  0  0
    3.6430    0.0000    0.0000 C   0  0  0  0  0  0  0  0  0  0  0  0
    2.8930    1.2990    0.0000 C   0  0  0  0  0  0  0  0  0  0  0  0
    1.3930    1.2990    0.0000 C   0  0  0  0  0  0  0  0  0  0  0  0
    0.6430    0.0000    0.0000 C   0  0  0  0  0  0  0  0  0  0  0  0
    1.3930   -1.2990    0.0000 C   0  0  0  0  0  0  0  0  0  0  0  0
    2.8930   -1.2990    0.0000 C   0  0  0  0  0  0  0  0  0  0  0  0
  1  2  1  0  0  0  0
  2  3  1  0  0  0  0
  2  7  2  0  0  0  0
  3  4  2  0  0  0  0
  4  5  1  0  0  0  0
  5  6  2  0  0  0  0
  6  7  1  0  0  0  0
M  END
>  <name>
[C;quatN]c1ccccc1

>  <apo>
1

>  <freq>
2

>  <freq0>
0

>  <freq1>
2

>  <freqA>
1.9984947

>  <a_count>
15

$$$$

  MOE2015           2D

  5  5  0  0  0  0  0  0  0  0999 V2000
    0.7970    1.6710    0.0000 N   0  3  0  0  0  0  0  0  0  0  0  0
    0.4090    0.2220    0.0000 C   0  0  0  0  0  0  0  0  0  0  0  0
   -1.0890    0.1430    0.0000 C   0  0  0  0  0  0  0  0  0  0  0  0
   -1.6270    1.5440    0.0000 C   0  0  0  0  0  0  0  0  0  0  0  0
   -0.4610    2.4880    0.0000 C   0  0  0  0  0  0  0  0  0  0  0  0
  1  2  1  0  0  0  0
  1  5  1  0  0  0  0
  2  3  1  0  0  0  0
  3  4  1  0  0  0  0
  4  5  1  0  0  0  0
M  CHG  1   1   1
M  END
>  <name>
[N+;quatN]1CCCC1

>  <apo>
1

>  <freq>
2

>  <freq0>
0

>  <freq1>
2

>  <freqA>
1.9984947

>  <a_count>
15

$$$$

  MOE2015           2D

 10 11  0  0  0  0  0  0  0  0999 V2000
    0.5660    0.9790    0.0000 N   0  0  0  0  0  0  0  0  0  0  0  0
    1.3160   -0.3200    0.0000 C   0  0  0  0  0  0  0  0  0  0  0  0
    0.5660   -1.6190    0.0000 N   0  0  0  0  0  0  0  0  0  0  0  0
    1.3160   -2.9180    0.0000 C   0  0  0  0  0  0  0  0  0  0  0  0
    2.8160   -2.9180    0.0000 N   0  0  0  0  0  0  0  0  0  0  0  0
    3.5660   -1.6190    0.0000 C   0  0  0  0  0  0  0  0  0  0  0  0
    5.0330   -1.3070    0.0000 N   0  0  0  0  0  0  0  0  0  0  0  0
    5.1900    0.1850    0.0000 C   0  0  0  0  0  0  0  0  0  0  0  0
    3.8190    0.7950    0.0000 N   0  0  0  0  0  0  0  0  0  0  0  0
    2.8160   -0.3200    0.0000 C   0  0  0  0  0  0  0  0  0  0  0  0
  1  2  1  0  0  0  0
  2  3  1  0  0  0  0
  2 10  2  0  0  0  0
  3  4  2  0  0  0  0
  4  5  1  0  0  0  0
  5  6  2  0  0  0  0
  6  7  1  0  0  0  0
  6 10  1  0  0  0  0
  7  8  1  0  0  0  0
  8  9  2  0  0  0  0
  9 10  1  0  0  0  0
M  END
>  <name>
[N;amine]c1ncnc2[nH]cnc12

>  <apo>
1

>  <freq>
2

>  <freq0>
0

>  <freq1>
2

>  <freqA>
1.9984947

>  <a_count>
15

$$$$

  MOE2015           2D

  5  4  0  0  0  0  0  0  0  0999 V2000
    4.9980    0.7390    0.0000 O   0  0  0  0  0  0  0  0  0  0  0  0
    3.6990    1.4890    0.0000 C   0  0  0  0  0  0  0  0  0  0  0  0
    2.4000    0.7390    0.0000 C   0  0  0  0  0  0  0  0  0  0  0  0
    1.1010    1.4890    0.0000 C   0  0  0  0  0  0  0  0  0  0  0  0
   -0.1980    0.7390    0.0000 C   0  0  0  0  0  0  0  0  0  0  0  0
  1  2  1  0  0  0  0
  2  3  1  0  0  0  0
  3  4  1  0  0  0  0
  4  5  1  0  0  0  0
M  END
>  <name>
[O;ester]CCCC

>  <apo>
1

>  <freq>
2

>  <freq0>
0

>  <freq1>
2

>  <freqA>
1.9984947

>  <a_count>
15

$$$$

  MOE2015           2D

  5  4  0  0  1  0  0  0  0  0999 V2000
    0.1310   -1.0100    0.0000 O   0  0  0  0  0  0  0  0  0  0  0  0
    1.4300   -0.2600    0.0000 C   0  0  1  0  0  0  0  0  0  0  0  0
    2.7290   -1.0100    0.0000 C   0  0  0  0  0  0  0  0  0  0  0  0
    4.0280   -0.2600    0.0000 C   0  0  0  0  0  0  0  0  0  0  0  0
    1.4300    1.2400    0.0000 C   0  0  0  0  0  0  0  0  0  0  0  0
  2  1  1  6  0  0  0
  2  3  1  0  0  0  0
  2  5  1  0  0  0  0
  3  4  1  0  0  0  0
M  END
>  <name>
[O;ester][C@@H](C[C;olefin])C

>  <apo>
2

>  <freq>
2

>  <freq0>
0

>  <freq1>
2

>  <freqA>
1.9984947

>  <a_count>
15

$$$$

  MOE2015           2D

  7  6  0  0  1  0  0  0  0  0999 V2000
    5.3550   -0.7920    0.0000 S   0  0  0  0  0  0  0  0  0  0  0  0
    4.0560   -1.5420    0.0000 C   0  0  0  0  0  0  0  0  0  0  0  0
    2.7570   -0.7920    0.0000 C   0  0  2  0  0  0  0  0  0  0  0  0
    2.7570    0.7080    0.0000 N   0  0  0  0  0  0  0  0  0  0  0  0
    1.4580   -1.5420    0.0000 C   0  0  0  0  0  0  0  0  0  0  0  0
    1.4580   -3.0420    0.0000 O   0  0  0  0  0  0  0  0  0  0  0  0
    0.1590   -0.7920    0.0000 N   0  0  0  0  0  0  0  0  0  0  0  0
  1  2  1  0  0  0  0
  2  3  1  0  0  0  0
  3  4  1  1  0  0  0
  3  5  1  0  0  0  0
  5  6  2  0  0  0  0
  5  7  1  0  0  0  0
M  END
>  <name>
[S;disulfide]C[C@H]([N;amide])C(=O)N

>  <apo>
2

>  <freq>
2

>  <freq0>
0

>  <freq1>
2

>  <freqA>
1.9984947

>  <a_count>
15

$$$$

  MOE2015           2D

 10 11  0  0  0  0  0  0  0  0999 V2000
    7.3810    0.0000    0.0000 S   0  0  0  0  0  0  0  0  0  0  0  0
    5.8810    0.0000    0.0000 C   0  0  0  0  0  0  0  0  0  0  0  0
    5.0000   -1.2140    0.0000 S   0  0  0  0  0  0  0  0  0  0  0  0
    3.5730   -0.7500    0.0000 C   0  0  0  0  0  0  0  0  0  0  0  0
    3.5730    0.7500    0.0000 C   0  0  0  0  0  0  0  0  0  0  0  0
    5.0000    1.2140    0.0000 N   0  0  0  0  0  0  0  0  0  0  0  0
    2.2740    1.5000    0.0000 C   0  0  0  0  0  0  0  0  0  0  0  0
    0.9750    0.7500    0.0000 C   0  0  0  0  0  0  0  0  0  0  0  0
    0.9750   -0.7500    0.0000 C   0  0  0  0  0  0  0  0  0  0  0  0
    2.2740   -1.5000    0.0000 C   0  0  0  0  0  0  0  0  0  0  0  0
  1  2  1  0  0  0  0
  2  3  1  0  0  0  0
  2  6  2  0  0  0  0
  3  4  1  0  0  0  0
  4  5  1  0  0  0  0
  4 10  2  0  0  0  0
  5  6  1  0  0  0  0
  5  7  2  0  0  0  0
  7  8  1  0  0  0  0
  8  9  2  0  0  0  0
  9 10  1  0  0  0  0
M  END
>  <name>
[S;disulfide]c1sc2c(n1)cccc2

>  <apo>
1

>  <freq>
2

>  <freq0>
0

>  <freq1>
2

>  <freqA>
1.9984947

>  <a_count>
15

$$$$

  MOE2015           2D

  7  7  0  0  0  0  0  0  0  0999 V2000
   -1.3060   -0.7340    0.0000 S   0  0  0  0  0  0  0  0  0  0  0  0
   -1.9690    0.6110    0.0000 O   0  0  0  0  0  0  0  0  0  0  0  0
   -2.1390   -1.9820    0.0000 O   0  0  0  0  0  0  0  0  0  0  0  0
    0.1910   -0.8330    0.0000 C   0  0  0  0  0  0  0  0  0  0  0  0
   -0.2910   -2.2530    0.0000 C   0  0  0  0  0  0  0  0  0  0  0  0
    0.8550    0.5130    0.0000 C   0  0  0  0  0  0  0  0  0  0  0  0
    1.6880   -0.7340    0.0000 C   0  0  0  0  0  0  0  0  0  0  0  0
  1  2  2  0  0  0  0
  1  3  2  0  0  0  0
  1  4  1  0  0  0  0
  4  5  1  0  0  0  0
  4  6  1  0  0  0  0
  4  7  1  0  0  0  0
  6  7  1  0  0  0  0
M  END
>  <name>
[SH;so2amide](=O)(=O)C1(C)CC1

>  <apo>
1

>  <freq>
2

>  <freq0>
0

>  <freq1>
2

>  <freqA>
1.9984947

>  <a_count>
15

$$$$

  MOE2015           2D

  4  3  0  0  0  0  0  0  0  0999 V2000
    0.1000   -0.3750    0.0000 C   0  0  0  0  0  0  0  0  0  0  0  0
    1.4000    0.3750    0.0000 C   0  0  0  0  0  0  0  0  0  0  0  0
    2.6990   -0.3750    0.0000 C   0  0  0  0  0  0  0  0  0  0  0  0
   -1.1990    0.3750    0.0000 C   0  0  0  0  0  0  0  0  0  0  0  0
  1  2  1  0  0  0  0
  1  4  1  0  0  0  0
  2  3  1  0  0  0  0
M  END
>  <name>
C(C[C;amine])C

>  <apo>
1

>  <freq>
2

>  <freq0>
0

>  <freq1>
2

>  <freqA>
1.9984947

>  <a_count>
14

$$$$

  MOE2015           2D

  4  3  0  0  0  0  0  0  0  0999 V2000
    0.1000   -0.3750    0.0000 C   0  0  0  0  0  0  0  0  0  0  0  0
    1.4000    0.3750    0.0000 C   0  0  0  0  0  0  0  0  0  0  0  0
    2.6990   -0.3750    0.0000 C   0  0  0  0  0  0  0  0  0  0  0  0
   -1.1990    0.3750    0.0000 C   0  0  0  0  0  0  0  0  0  0  0  0
  1  2  1  0  0  0  0
  1  4  1  0  0  0  0
  2  3  1  0  0  0  0
M  END
>  <name>
C(C[C;amine])[C;ether]

>  <apo>
2

>  <freq>
2

>  <freq0>
0

>  <freq1>
2

>  <freqA>
1.9984947

>  <a_count>
14

$$$$

  MOE2015           2D

  4  3  0  0  0  0  0  0  0  0999 V2000
    0.1000   -0.3750    0.0000 C   0  0  0  0  0  0  0  0  0  0  0  0
    1.4000    0.3750    0.0000 C   0  0  0  0  0  0  0  0  0  0  0  0
    2.6990   -0.3750    0.0000 C   0  0  0  0  0  0  0  0  0  0  0  0
   -1.1990    0.3750    0.0000 C   0  0  0  0  0  0  0  0  0  0  0  0
  1  2  1  0  0  0  0
  1  4  1  0  0  0  0
  2  3  1  0  0  0  0
M  END
>  <name>
C(C[C;ether])[C;amine]

>  <apo>
2

>  <freq>
2

>  <freq0>
0

>  <freq1>
2

>  <freqA>
1.9984947

>  <a_count>
14

$$$$

  MOE2015           2D

  4  3  0  0  0  0  0  0  0  0999 V2000
    0.1000   -0.3750    0.0000 C   0  0  0  0  0  0  0  0  0  0  0  0
    1.4000    0.3750    0.0000 C   0  0  0  0  0  0  0  0  0  0  0  0
    2.6990   -0.3750    0.0000 C   0  0  0  0  0  0  0  0  0  0  0  0
   -1.1990    0.3750    0.0000 C   0  0  0  0  0  0  0  0  0  0  0  0
  1  2  1  0  0  0  0
  1  4  1  0  0  0  0
  2  3  1  0  0  0  0
M  END
>  <name>
C(C[C;olefin])[C;olefin]

>  <apo>
2

>  <freq>
2

>  <freq0>
0

>  <freq1>
2

>  <freqA>
1.9984947

>  <a_count>
14

$$$$

  MOE2015           2D

  4  3  0  0  0  0  0  0  0  0999 V2000
    0.0000    0.0000    0.0000 C   0  0  0  0  0  0  0  0  0  0  0  0
   -1.2990   -0.7500    0.0000 C   0  0  0  0  0  0  0  0  0  0  0  0
    0.0000    1.5000    0.0000 C   0  0  0  0  0  0  0  0  0  0  0  0
    1.2990   -0.7500    0.0000 C   0  0  0  0  0  0  0  0  0  0  0  0
  1  2  1  0  0  0  0
  1  3  1  0  0  0  0
  1  4  1  0  0  0  0
M  END
>  <name>
C([C;ether])(C)C

>  <apo>
1

>  <freq>
2

>  <freq0>
0

>  <freq1>
2

>  <freqA>
1.9984947

>  <a_count>
14

$$$$

  MOE2015           2D

  4  3  0  0  0  0  0  0  0  0999 V2000
    0.0000    0.0000    0.0000 C   0  0  0  0  0  0  0  0  0  0  0  0
   -1.2990   -0.7500    0.0000 C   0  0  0  0  0  0  0  0  0  0  0  0
    0.0000    1.5000    0.0000 C   0  0  0  0  0  0  0  0  0  0  0  0
    1.2990   -0.7500    0.0000 C   0  0  0  0  0  0  0  0  0  0  0  0
  1  2  1  0  0  0  0
  1  3  1  0  0  0  0
  1  4  1  0  0  0  0
M  END
>  <name>
C([C;olefin])(C)C

>  <apo>
1

>  <freq>
2

>  <freq0>
0

>  <freq1>
2

>  <freqA>
1.9984947

>  <a_count>
14

$$$$

  MOE2015           2D

  7  7  0  0  0  0  0  0  0  0999 V2000
    5.1430    0.0000    0.0000 C   0  0  0  0  0  0  0  0  0  0  0  0
    3.6430    0.0000    0.0000 C   0  0  0  0  0  0  0  0  0  0  0  0
    2.8930    1.2990    0.0000 C   0  0  0  0  0  0  0  0  0  0  0  0
    1.3930    1.2990    0.0000 N   0  0  0  0  0  0  0  0  0  0  0  0
    0.6430    0.0000    0.0000 C   0  0  0  0  0  0  0  0  0  0  0  0
    1.3930   -1.2990    0.0000 C   0  0  0  0  0  0  0  0  0  0  0  0
    2.8930   -1.2990    0.0000 C   0  0  0  0  0  0  0  0  0  0  0  0
  1  2  1  0  0  0  0
  2  3  1  0  0  0  0
  2  7  2  0  0  0  0
  3  4  2  0  0  0  0
  4  5  1  0  0  0  0
  5  6  2  0  0  0  0
  6  7  1  0  0  0  0
M  END
>  <name>
Cc1cn[c;biphenyl]cc1

>  <apo>
1

>  <freq>
2

>  <freq0>
0

>  <freq1>
2

>  <freqA>
1.9984947

>  <a_count>
14

$$$$

  MOE2015           2D

  9  9  0  0  0  0  0  0  0  0999 V2000
    3.0000    3.1750    0.0000 I   0  0  0  0  0  0  0  0  0  0  0  0
    2.2500    1.8760    0.0000 C   0  0  0  0  0  0  0  0  0  0  0  0
    3.0000    0.5770    0.0000 C   0  0  0  0  0  0  0  0  0  0  0  0
    4.5000    0.5770    0.0000 C   0  0  0  0  0  0  0  0  0  0  0  0
    5.2500   -0.7220    0.0000 O   0  0  0  0  0  0  0  0  0  0  0  0
    2.2500   -0.7220    0.0000 C   0  0  0  0  0  0  0  0  0  0  0  0
    0.7500   -0.7220    0.0000 C   0  0  0  0  0  0  0  0  0  0  0  0
    0.0000    0.5770    0.0000 C   0  0  0  0  0  0  0  0  0  0  0  0
    0.7500    1.8760    0.0000 C   0  0  0  0  0  0  0  0  0  0  0  0
  1  2  1  0  0  0  0
  2  3  1  0  0  0  0
  2  9  2  0  0  0  0
  3  4  1  0  0  0  0
  3  6  2  0  0  0  0
  4  5  2  0  0  0  0
  6  7  1  0  0  0  0
  7  8  2  0  0  0  0
  8  9  1  0  0  0  0
M  END
>  <name>
Ic1c([C;amide]=O)cccc1

>  <apo>
1

>  <freq>
2

>  <freq0>
0

>  <freq1>
2

>  <freqA>
1.9984947

>  <a_count>
14

$$$$

  MOE2015           2D

  6  5  0  0  0  0  0  0  0  0999 V2000
   -0.0070   -1.2750    0.0000 O   0  0  0  0  0  0  0  0  0  0  0  0
    1.2920   -0.5250    0.0000 C   0  0  0  0  0  0  0  0  0  0  0  0
    1.2920    0.9750    0.0000 O   0  0  0  0  0  0  0  0  0  0  0  0
    2.5920   -1.2750    0.0000 C   0  0  0  0  0  0  0  0  0  0  0  0
    3.8910   -0.5250    0.0000 C   0  0  0  0  0  0  0  0  0  0  0  0
    5.1900   -1.2750    0.0000 C   0  0  0  0  0  0  0  0  0  0  0  0
  1  2  2  0  0  0  0
  2  3  1  0  0  0  0
  2  4  1  0  0  0  0
  4  5  1  0  0  0  0
  5  6  1  0  0  0  0
M  END
>  <name>
O=C(O)CC[C;amine]

>  <apo>
1

>  <freq>
2

>  <freq0>
0

>  <freq1>
2

>  <freqA>
1.9984947

>  <a_count>
14

$$$$

  MOE2015           2D

  8  8  0  0  0  0  0  0  0  0999 V2000
    0.4890   -1.1750    0.0000 O   0  0  0  0  0  0  0  0  0  0  0  0
    1.7880   -0.4250    0.0000 C   0  0  0  0  0  0  0  0  0  0  0  0
    1.7880    1.0750    0.0000 C   0  0  0  0  0  0  0  0  0  0  0  0
    0.4890    1.8250    0.0000 O   0  0  0  0  0  0  0  0  0  0  0  0
    3.0870    1.8250    0.0000 N   0  0  0  0  0  0  0  0  0  0  0  0
    4.3860    1.0750    0.0000 C   0  0  0  0  0  0  0  0  0  0  0  0
    4.3860   -0.4250    0.0000 C   0  0  0  0  0  0  0  0  0  0  0  0
    3.0870   -1.1750    0.0000 N   0  0  0  0  0  0  0  0  0  0  0  0
  1  2  2  0  0  0  0
  2  3  1  0  0  0  0
  2  8  1  0  0  0  0
  3  4  2  0  0  0  0
  3  5  1  0  0  0  0
  5  6  1  0  0  0  0
  6  7  1  0  0  0  0
  7  8  1  0  0  0  0
M  END
>  <name>
O=C1C(=O)[N;lactam]CC[N;urea]1

>  <apo>
2

>  <freq>
2

>  <freq0>
0

>  <freq1>
2

>  <freqA>
1.9984947

>  <a_count>
14

$$$$

  MOE2015           2D

  8  8  0  0  0  0  0  0  0  0999 V2000
    5.4110   -0.8000    0.0000 O   0  0  0  0  0  0  0  0  0  0  0  0
    4.1120   -0.0500    0.0000 C   0  0  0  0  0  0  0  0  0  0  0  0
    2.8120   -0.8000    0.0000 N   0  0  0  0  0  0  0  0  0  0  0  0
    1.5130   -0.0500    0.0000 C   0  0  0  0  0  0  0  0  0  0  0  0
    0.2140   -0.8000    0.0000 O   0  0  0  0  0  0  0  0  0  0  0  0
    1.5130    1.4500    0.0000 C   0  0  0  0  0  0  0  0  0  0  0  0
    2.8120    2.2000    0.0000 N   0  0  0  0  0  0  0  0  0  0  0  0
    4.1120    1.4500    0.0000 C   0  0  0  0  0  0  0  0  0  0  0  0
  1  2  2  0  0  0  0
  2  3  1  0  0  0  0
  2  8  1  0  0  0  0
  3  4  1  0  0  0  0
  4  5  2  0  0  0  0
  4  6  1  0  0  0  0
  6  7  1  0  0  0  0
  7  8  1  0  0  0  0
M  END
>  <name>
O=C1NC(=O)C[N;amine]C1

>  <apo>
1

>  <freq>
2

>  <freq0>
0

>  <freq1>
2

>  <freqA>
1.9984947

>  <a_count>
14

$$$$

  MOE2015           2D

  6  5  0  0  1  0  0  0  0  0999 V2000
   -0.3480   -1.2990    0.0000 O   0  0  0  0  0  0  0  0  0  0  0  0
    0.9510   -2.0490    0.0000 C   0  0  0  0  0  0  0  0  0  0  0  0
    2.2500   -1.2990    0.0000 C   0  0  1  0  0  0  0  0  0  0  0  0
    2.2500    0.2010    0.0000 N   0  0  0  0  0  0  0  0  0  0  0  0
    3.5490   -2.0490    0.0000 C   0  0  0  0  0  0  0  0  0  0  0  0
    4.8480   -1.2990    0.0000 N   0  0  0  0  0  0  0  0  0  0  0  0
  1  2  2  0  0  0  0
  2  3  1  0  0  0  0
  3  4  1  1  0  0  0
  3  5  1  0  0  0  0
  5  6  1  0  0  0  0
M  END
>  <name>
O=[C;amide][C@@H](N)C[N;amide]

>  <apo>
2

>  <freq>
2

>  <freq0>
0

>  <freq1>
2

>  <freqA>
1.9984947

>  <a_count>
14

$$$$

  MOE2015           2D

  8  8  0  0  0  0  0  0  0  0999 V2000
    5.3440   -0.8120    0.0000 O   0  0  0  0  0  0  0  0  0  0  0  0
    4.5940   -2.1110    0.0000 C   0  0  0  0  0  0  0  0  0  0  0  0
    3.0940   -2.1110    0.0000 C   0  0  0  0  0  0  0  0  0  0  0  0
    2.3440   -3.4100    0.0000 C   0  0  0  0  0  0  0  0  0  0  0  0
    0.8440   -3.4100    0.0000 C   0  0  0  0  0  0  0  0  0  0  0  0
    0.0940   -2.1110    0.0000 C   0  0  0  0  0  0  0  0  0  0  0  0
    0.8440   -0.8120    0.0000 C   0  0  0  0  0  0  0  0  0  0  0  0
    2.3440   -0.8120    0.0000 C   0  0  0  0  0  0  0  0  0  0  0  0
  1  2  2  0  0  0  0
  2  3  1  0  0  0  0
  3  4  1  0  0  0  0
  3  8  2  0  0  0  0
  4  5  2  0  0  0  0
  5  6  1  0  0  0  0
  6  7  2  0  0  0  0
  7  8  1  0  0  0  0
M  END
>  <name>
O=[C;amide]c1[c;biphenyl]cccc1

>  <apo>
2

>  <freq>
2

>  <freq0>
0

>  <freq1>
2

>  <freqA>
1.9984947

>  <a_count>
14

$$$$

  MOE2015           2D

  9  9  0  0  0  0  0  0  0  0999 V2000
    5.0000    0.2890    0.0000 O   0  0  0  0  0  0  0  0  0  0  0  0
    4.2500    1.5880    0.0000 N   0  3  0  0  0  0  0  0  0  0  0  0
    5.0000    2.8870    0.0000 O   0  5  0  0  0  0  0  0  0  0  0  0
    2.7500    1.5880    0.0000 C   0  0  0  0  0  0  0  0  0  0  0  0
    2.0000    2.8870    0.0000 C   0  0  0  0  0  0  0  0  0  0  0  0
    0.5000    2.8870    0.0000 C   0  0  0  0  0  0  0  0  0  0  0  0
   -0.2500    1.5880    0.0000 C   0  0  0  0  0  0  0  0  0  0  0  0
    0.5000    0.2890    0.0000 C   0  0  0  0  0  0  0  0  0  0  0  0
    2.0000    0.2890    0.0000 C   0  0  0  0  0  0  0  0  0  0  0  0
  1  2  2  0  0  0  0
  2  3  1  0  0  0  0
  2  4  1  0  0  0  0
  4  5  1  0  0  0  0
  4  9  2  0  0  0  0
  5  6  2  0  0  0  0
  6  7  1  0  0  0  0
  7  8  2  0  0  0  0
  8  9  1  0  0  0  0
M  CHG  1   2   1
M  CHG  1   3  -1
M  END
>  <name>
O=[N+]([O-])c1cc[c;biphenyl]cc1

>  <apo>
1

>  <freq>
2

>  <freq0>
0

>  <freq1>
2

>  <freqA>
1.9984947

>  <a_count>
14

$$$$

  MOE2015           2D

  5  4  0  0  0  0  0  0  0  0999 V2000
    4.9980   -1.3390    0.0000 O   0  0  0  0  0  0  0  0  0  0  0  0
    3.6990   -0.5890    0.0000 C   0  0  0  0  0  0  0  0  0  0  0  0
    2.4000   -1.3390    0.0000 C   0  0  0  0  0  0  0  0  0  0  0  0
    1.1010   -0.5890    0.0000 C   0  0  0  0  0  0  0  0  0  0  0  0
   -0.1980   -1.3390    0.0000 N   0  0  0  0  0  0  0  0  0  0  0  0
  1  2  1  0  0  0  0
  2  3  1  0  0  0  0
  3  4  1  0  0  0  0
  4  5  1  0  0  0  0
M  END
>  <name>
OCCC[N;amide]

>  <apo>
1

>  <freq>
2

>  <freq0>
0

>  <freq1>
2

>  <freqA>
1.9984947

>  <a_count>
14

$$$$

  MOE2015           2D

  8  8  0  0  0  0  0  0  0  0999 V2000
    5.4110   -0.8000    0.0000 O   0  0  0  0  0  0  0  0  0  0  0  0
    4.1120   -0.0500    0.0000 C   0  0  0  0  0  0  0  0  0  0  0  0
    2.8120   -0.8000    0.0000 C   0  0  0  0  0  0  0  0  0  0  0  0
    1.5130   -0.0500    0.0000 C   0  0  0  0  0  0  0  0  0  0  0  0
    0.2140   -0.8000    0.0000 O   0  0  0  0  0  0  0  0  0  0  0  0
    1.5130    1.4500    0.0000 C   0  0  0  0  0  0  0  0  0  0  0  0
    2.8120    2.2000    0.0000 C   0  0  0  0  0  0  0  0  0  0  0  0
    4.1120    1.4500    0.0000 C   0  0  0  0  0  0  0  0  0  0  0  0
  1  2  1  0  0  0  0
  2  3  1  0  0  0  0
  2  8  2  0  0  0  0
  3  4  2  0  0  0  0
  4  5  1  0  0  0  0
  4  6  1  0  0  0  0
  6  7  2  0  0  0  0
  7  8  1  0  0  0  0
M  END
>  <name>
Oc1cc([O;ether])cc[c;biphenyl]1

>  <apo>
2

>  <freq>
2

>  <freq0>
0

>  <freq1>
2

>  <freqA>
1.9984947

>  <a_count>
14

$$$$

  MOE2015           2D

  6  6  0  0  0  0  0  0  0  0999 V2000
    4.6270    0.0000    0.0000 C   0  0  0  0  0  0  0  0  0  0  0  0
    3.1270    0.0000    0.0000 C   0  0  0  0  0  0  0  0  0  0  0  0
    2.2450   -1.2140    0.0000 N   0  0  0  0  0  0  0  0  0  0  0  0
    0.8180   -0.7500    0.0000 C   0  0  0  0  0  0  0  0  0  0  0  0
    0.8180    0.7500    0.0000 C   0  0  0  0  0  0  0  0  0  0  0  0
    2.2450    1.2140    0.0000 N   0  0  0  0  0  0  0  0  0  0  0  0
  1  2  1  0  0  0  0
  2  3  2  0  0  0  0
  2  6  1  0  0  0  0
  3  4  1  0  0  0  0
  4  5  1  0  0  0  0
  5  6  1  0  0  0  0
M  END
>  <name>
[C;amine]C1=NCCN1

>  <apo>
1

>  <freq>
2

>  <freq0>
0

>  <freq1>
2

>  <freqA>
1.9984947

>  <a_count>
14

$$$$

  MOE2015           2D

  4  3  0  0  0  0  0  0  0  0999 V2000
    0.0000    0.0000    0.0000 C   0  0  0  0  0  0  0  0  0  0  0  0
   -1.2990   -0.7500    0.0000 C   0  0  0  0  0  0  0  0  0  0  0  0
    0.0000    1.5000    0.0000 C   0  0  0  0  0  0  0  0  0  0  0  0
    1.2990   -0.7500    0.0000 C   0  0  0  0  0  0  0  0  0  0  0  0
  1  2  1  0  0  0  0
  1  3  1  0  0  0  0
  1  4  1  0  0  0  0
M  END
>  <name>
[C;ether](C)(C)C

>  <apo>
1

>  <freq>
2

>  <freq0>
0

>  <freq1>
2

>  <freqA>
1.9984947

>  <a_count>
14

$$$$

  MOE2015           2D

  6  5  0  0  0  0  0  0  0  0999 V2000
    1.5000    1.5000    0.0000 O   0  0  0  0  0  0  0  0  0  0  0  0
    1.5000    0.0000    0.0000 C   0  0  0  0  0  0  0  0  0  0  0  0
    0.2010   -0.7500    0.0000 C   0  0  0  0  0  0  0  0  0  0  0  0
   -1.0980    0.0000    0.0000 O   0  0  0  0  0  0  0  0  0  0  0  0
    2.7990   -0.7500    0.0000 C   0  0  0  0  0  0  0  0  0  0  0  0
    4.0980    0.0000    0.0000 O   0  0  0  0  0  0  0  0  0  0  0  0
  1  2  1  0  0  0  0
  2  3  1  0  0  0  0
  2  5  1  0  0  0  0
  3  4  1  0  0  0  0
  5  6  1  0  0  0  0
M  END
>  <name>
[O;ester]C(C[O;ester])C[O;ester]

>  <apo>
3

>  <freq>
2

>  <freq0>
0

>  <freq1>
2

>  <freqA>
1.9984947

>  <a_count>
14

$$$$

  MOE2015           2D

  9  9  0  0  0  0  0  0  0  0999 V2000
    2.7500    3.0310    0.0000 O   0  0  0  0  0  0  0  0  0  0  0  0
    2.0000    1.7320    0.0000 C   0  0  0  0  0  0  0  0  0  0  0  0
    2.7500    0.4330    0.0000 C   0  0  0  0  0  0  0  0  0  0  0  0
    4.2500    0.4330    0.0000 C   0  0  0  0  0  0  0  0  0  0  0  0
    5.7500    0.4330    0.0000 N   0  0  0  0  0  0  0  0  0  0  0  0
    2.0000   -0.8660    0.0000 C   0  0  0  0  0  0  0  0  0  0  0  0
    0.5000   -0.8660    0.0000 C   0  0  0  0  0  0  0  0  0  0  0  0
   -0.2500    0.4330    0.0000 C   0  0  0  0  0  0  0  0  0  0  0  0
    0.5000    1.7320    0.0000 C   0  0  0  0  0  0  0  0  0  0  0  0
  1  2  1  0  0  0  0
  2  3  1  0  0  0  0
  2  9  2  0  0  0  0
  3  4  1  0  0  0  0
  3  6  2  0  0  0  0
  4  5  3  0  0  0  0
  6  7  1  0  0  0  0
  7  8  2  0  0  0  0
  8  9  1  0  0  0  0
M  END
>  <name>
[O;ether]c1c(C#N)c[c;biphenyl]cc1

>  <apo>
2

>  <freq>
2

>  <freq0>
0

>  <freq1>
2

>  <freqA>
1.9984947

>  <a_count>
14

$$$$

  MOE2015           2D

  8  8  0  0  0  0  0  0  0  0999 V2000
    0.4890   -1.1750    0.0000 O   0  0  0  0  0  0  0  0  0  0  0  0
    1.7880   -0.4250    0.0000 C   0  0  0  0  0  0  0  0  0  0  0  0
    1.7880    1.0750    0.0000 C   0  0  0  0  0  0  0  0  0  0  0  0
    0.4890    1.8250    0.0000 N   0  0  0  0  0  0  0  0  0  0  0  0
    3.0870    1.8250    0.0000 N   0  0  0  0  0  0  0  0  0  0  0  0
    4.3860    1.0750    0.0000 C   0  0  0  0  0  0  0  0  0  0  0  0
    4.3860   -0.4250    0.0000 C   0  0  0  0  0  0  0  0  0  0  0  0
    3.0870   -1.1750    0.0000 C   0  0  0  0  0  0  0  0  0  0  0  0
  1  2  1  0  0  0  0
  2  3  1  0  0  0  0
  2  8  2  0  0  0  0
  3  4  1  0  0  0  0
  3  5  2  0  0  0  0
  5  6  1  0  0  0  0
  6  7  2  0  0  0  0
  7  8  1  0  0  0  0
M  END
>  <name>
[O;ether]c1c(N)nc[c;biphenyl]c1

>  <apo>
2

>  <freq>
2

>  <freq0>
0

>  <freq1>
2

>  <freqA>
1.9984947

>  <a_count>
14

$$$$

  MOE2015           2D

  8  8  0  0  0  0  0  0  0  0999 V2000
    0.0000    0.0000    0.0000 O   0  0  0  0  0  0  0  0  0  0  0  0
    1.5000    0.0000    0.0000 C   0  0  0  0  0  0  0  0  0  0  0  0
    2.2500   -1.2990    0.0000 C   0  0  0  0  0  0  0  0  0  0  0  0
    3.7500   -1.2990    0.0000 C   0  0  0  0  0  0  0  0  0  0  0  0
    4.5000    0.0000    0.0000 C   0  0  0  0  0  0  0  0  0  0  0  0
    6.0000    0.0000    0.0000 O   0  0  0  0  0  0  0  0  0  0  0  0
    3.7500    1.2990    0.0000 C   0  0  0  0  0  0  0  0  0  0  0  0
    2.2500    1.2990    0.0000 C   0  0  0  0  0  0  0  0  0  0  0  0
  1  2  1  0  0  0  0
  2  3  1  0  0  0  0
  2  8  2  0  0  0  0
  3  4  2  0  0  0  0
  4  5  1  0  0  0  0
  5  6  1  0  0  0  0
  5  7  2  0  0  0  0
  7  8  1  0  0  0  0
M  END
>  <name>
[O;ether]c1ccc([O;ether])cc1

>  <apo>
2

>  <freq>
2

>  <freq0>
0

>  <freq1>
2

>  <freqA>
1.9984947

>  <a_count>
14

$$$$

  MOE2015           2D

  6  5  0  0  0  0  0  0  0  0999 V2000
   -1.2080   -0.9580    0.0000 S   0  0  0  0  0  0  0  0  0  0  0  0
   -1.2080    0.5420    0.0000 O   0  0  0  0  0  0  0  0  0  0  0  0
   -2.5070   -1.7080    0.0000 O   0  0  0  0  0  0  0  0  0  0  0  0
    0.0920   -1.7080    0.0000 C   0  0  0  0  0  0  0  0  0  0  0  0
    1.3910   -0.9580    0.0000 C   0  0  0  0  0  0  0  0  0  0  0  0
    2.6900   -1.7080    0.0000 C   0  0  0  0  0  0  0  0  0  0  0  0
  1  2  2  0  0  0  0
  1  3  2  0  0  0  0
  1  4  1  0  0  0  0
  4  5  1  0  0  0  0
  5  6  1  0  0  0  0
M  END
>  <name>
[SH;so2amide](=O)(=O)CCC

>  <apo>
1

>  <freq>
2

>  <freq0>
0

>  <freq1>
2

>  <freqA>
1.9984947

>  <a_count>
14

$$$$

  MOE2015           2D

  9 10  0  0  0  0  0  0  0  0999 V2000
    0.8370    0.6970    0.0000 N   0  0  0  0  0  0  0  0  0  0  0  0
   -0.5900    1.1610    0.0000 C   0  0  0  0  0  0  0  0  0  0  0  0
   -1.8890    0.4110    0.0000 N   0  0  0  0  0  0  0  0  0  0  0  0
   -3.1880    1.1610    0.0000 C   0  0  0  0  0  0  0  0  0  0  0  0
   -3.1880    2.6610    0.0000 N   0  0  0  0  0  0  0  0  0  0  0  0
   -1.8890    3.4110    0.0000 C   0  0  0  0  0  0  0  0  0  0  0  0
   -0.5900    2.6610    0.0000 C   0  0  0  0  0  0  0  0  0  0  0  0
    0.8370    3.1240    0.0000 C   0  0  0  0  0  0  0  0  0  0  0  0
    1.7190    1.9110    0.0000 C   0  0  0  0  0  0  0  0  0  0  0  0
  1  2  1  0  0  0  0
  1  9  1  0  0  0  0
  2  3  1  0  0  0  0
  2  7  2  0  0  0  0
  3  4  2  0  0  0  0
  4  5  1  0  0  0  0
  5  6  2  0  0  0  0
  6  7  1  0  0  0  0
  7  8  1  0  0  0  0
  8  9  2  0  0  0  0
M  END
>  <name>
[nH]1c2ncn[c;biphenyl]c2cc1

>  <apo>
1

>  <freq>
2

>  <freq0>
0

>  <freq1>
2

>  <freqA>
1.9984947

>  <a_count>
14

$$$$

  MOE2015           2D

  8  8  0  0  0  0  0  0  0  0999 V2000
    0.0000    0.0000    0.0000 Cl  0  0  0  0  0  0  0  0  0  0  0  0
    1.5000    0.0000    0.0000 C   0  0  0  0  0  0  0  0  0  0  0  0
    2.2500   -1.2990    0.0000 C   0  0  0  0  0  0  0  0  0  0  0  0
    3.7500   -1.2990    0.0000 N   0  0  0  0  0  0  0  0  0  0  0  0
    4.5000    0.0000    0.0000 C   0  0  0  0  0  0  0  0  0  0  0  0
    6.0000    0.0000    0.0000 N   0  0  0  0  0  0  0  0  0  0  0  0
    3.7500    1.2990    0.0000 C   0  0  0  0  0  0  0  0  0  0  0  0
    2.2500    1.2990    0.0000 C   0  0  0  0  0  0  0  0  0  0  0  0
  1  2  1  0  0  0  0
  2  3  1  0  0  0  0
  2  8  2  0  0  0  0
  3  4  2  0  0  0  0
  4  5  1  0  0  0  0
  5  6  1  0  0  0  0
  5  7  2  0  0  0  0
  7  8  1  0  0  0  0
M  END
>  <name>
Clc1cnc([N;amide])cc1

>  <apo>
1

>  <freq>
2

>  <freq0>
0

>  <freq1>
2

>  <freqA>
1.9984947

>  <a_count>
13

$$$$

  MOE2015           2D

  8  8  0  0  0  0  0  0  0  0999 V2000
    7.1250    0.0000    0.0000 N   0  0  0  0  0  0  0  0  0  0  0  0
    5.6250    0.0000    0.0000 C   0  0  0  0  0  0  0  0  0  0  0  0
    4.1250    0.0000    0.0000 C   0  0  0  0  0  0  0  0  0  0  0  0
    3.3750    1.2990    0.0000 C   0  0  0  0  0  0  0  0  0  0  0  0
    1.8750    1.2990    0.0000 C   0  0  0  0  0  0  0  0  0  0  0  0
    1.1250    0.0000    0.0000 C   0  0  0  0  0  0  0  0  0  0  0  0
    1.8750   -1.2990    0.0000 C   0  0  0  0  0  0  0  0  0  0  0  0
    3.3750   -1.2990    0.0000 C   0  0  0  0  0  0  0  0  0  0  0  0
  1  2  3  0  0  0  0
  2  3  1  0  0  0  0
  3  4  1  0  0  0  0
  3  8  2  0  0  0  0
  4  5  2  0  0  0  0
  5  6  1  0  0  0  0
  6  7  2  0  0  0  0
  7  8  1  0  0  0  0
M  END
>  <name>
N#Cc1cc[c;biphenyl]cc1

>  <apo>
1

>  <freq>
2

>  <freq0>
0

>  <freq1>
2

>  <freqA>
1.9984947

>  <a_count>
13

$$$$

  MOE2015           2D

  6  5  0  0  0  0  0  0  0  0999 V2000
   -0.0070    0.0250    0.0000 O   0  0  0  0  0  0  0  0  0  0  0  0
    1.2920    0.7750    0.0000 C   0  0  0  0  0  0  0  0  0  0  0  0
    1.2920    2.2750    0.0000 O   0  0  0  0  0  0  0  0  0  0  0  0
    2.5920    0.0250    0.0000 C   0  0  0  0  0  0  0  0  0  0  0  0
    3.8910    0.7750    0.0000 C   0  0  0  0  0  0  0  0  0  0  0  0
    5.1900    0.0250    0.0000 N   0  0  0  0  0  0  0  0  0  0  0  0
  1  2  2  0  0  0  0
  2  3  1  0  0  0  0
  2  4  1  0  0  0  0
  4  5  1  0  0  0  0
  5  6  1  0  0  0  0
M  END
>  <name>
O=C(O)CC[N;amide]

>  <apo>
1

>  <freq>
2

>  <freq0>
0

>  <freq1>
2

>  <freqA>
1.9984947

>  <a_count>
13

$$$$

  MOE2015           2D

  6  5  0  0  1  0  0  0  0  0999 V2000
    3.3750    0.6500    0.0000 O   0  0  0  0  0  0  0  0  0  0  0  0
    2.6250   -0.6500    0.0000 C   0  0  0  0  0  0  0  0  0  0  0  0
    3.3750   -1.9490    0.0000 O   0  0  0  0  0  0  0  0  0  0  0  0
    1.1250   -0.6500    0.0000 C   0  0  2  0  0  0  0  0  0  0  0  0
    0.3750    0.6500    0.0000 N   0  0  0  0  0  0  0  0  0  0  0  0
    0.3750   -1.9490    0.0000 C   0  0  0  0  0  0  0  0  0  0  0  0
  1  2  2  0  0  0  0
  2  3  1  0  0  0  0
  2  4  1  0  0  0  0
  4  5  1  1  0  0  0
  4  6  1  0  0  0  0
M  END
>  <name>
O=C(O)[C@H](N)[C;thioether]

>  <apo>
1

>  <freq>
2

>  <freq0>
0

>  <freq1>
2

>  <freqA>
1.9984947

>  <a_count>
13

$$$$

  MOE2015           2D

  6  6  0  0  0  0  0  0  0  0999 V2000
    4.6270    0.0000    0.0000 O   0  0  0  0  0  0  0  0  0  0  0  0
    3.1270    0.0000    0.0000 C   0  0  0  0  0  0  0  0  0  0  0  0
    2.2450   -1.2140    0.0000 N   0  0  0  0  0  0  0  0  0  0  0  0
    0.8180   -0.7500    0.0000 C   0  0  0  0  0  0  0  0  0  0  0  0
    0.8180    0.7500    0.0000 C   0  0  0  0  0  0  0  0  0  0  0  0
    2.2450    1.2140    0.0000 C   0  0  0  0  0  0  0  0  0  0  0  0
  1  2  2  0  0  0  0
  2  3  1  0  0  0  0
  2  6  1  0  0  0  0
  3  4  1  0  0  0  0
  4  5  1  0  0  0  0
  5  6  1  0  0  0  0
M  END
>  <name>
O=C1[N;lactam]CC[C;olefin]1

>  <apo>
2

>  <freq>
2

>  <freq0>
0

>  <freq1>
2

>  <freqA>
1.9984947

>  <a_count>
13

$$$$

  MOE2015           2D

  5  4  0  0  0  0  0  0  0  0999 V2000
    4.9980    0.7390    0.0000 O   0  0  0  0  0  0  0  0  0  0  0  0
    3.6990    1.4890    0.0000 C   0  0  0  0  0  0  0  0  0  0  0  0
    2.4000    0.7390    0.0000 C   0  0  0  0  0  0  0  0  0  0  0  0
    1.1010    1.4890    0.0000 C   0  0  0  0  0  0  0  0  0  0  0  0
   -0.1980    0.7390    0.0000 C   0  0  0  0  0  0  0  0  0  0  0  0
  1  2  2  0  0  0  0
  2  3  1  0  0  0  0
  3  4  1  0  0  0  0
  4  5  1  0  0  0  0
M  END
>  <name>
O=[C;amide]CCC

>  <apo>
1

>  <freq>
2

>  <freq0>
0

>  <freq1>
2

>  <freqA>
1.9984947

>  <a_count>
13

$$$$

  MOE2015           2D

  5  4  0  0  0  0  0  0  0  0999 V2000
    4.9980    0.7390    0.0000 O   0  0  0  0  0  0  0  0  0  0  0  0
    3.6990    1.4890    0.0000 C   0  0  0  0  0  0  0  0  0  0  0  0
    2.4000    0.7390    0.0000 C   0  0  0  0  0  0  0  0  0  0  0  0
    1.1010    1.4890    0.0000 C   0  0  0  0  0  0  0  0  0  0  0  0
   -0.1980    0.7390    0.0000 C   0  0  0  0  0  0  0  0  0  0  0  0
  1  2  2  0  0  0  0
  2  3  1  0  0  0  0
  3  4  1  0  0  0  0
  4  5  1  0  0  0  0
M  END
>  <name>
O=[C;ester]CC[C;olefin]

>  <apo>
2

>  <freq>
2

>  <freq0>
0

>  <freq1>
2

>  <freqA>
1.9984947

>  <a_count>
13

$$$$

  MOE2015           2D

  5  4  0  0  0  0  0  0  0  0999 V2000
    3.8780   -1.0390    0.0000 O   0  0  0  0  0  0  0  0  0  0  0  0
    2.5790   -1.7890    0.0000 C   0  0  0  0  0  0  0  0  0  0  0  0
    1.2800   -1.0390    0.0000 C   0  0  0  0  0  0  0  0  0  0  0  0
   -0.0190   -1.7890    0.0000 C   0  0  0  0  0  0  0  0  0  0  0  0
    1.2800    0.4610    0.0000 C   0  0  0  0  0  0  0  0  0  0  0  0
  1  2  2  0  0  0  0
  2  3  1  0  0  0  0
  3  4  1  0  0  0  0
  3  5  1  0  0  0  0
M  END
>  <name>
O=[C;ester][C;ether](C)C

>  <apo>
2

>  <freq>
2

>  <freq0>
0

>  <freq1>
2

>  <freqA>
1.9984947

>  <a_count>
13

$$$$

  MOE2015           2D

  7  7  0  0  0  0  0  0  0  0999 V2000
    5.1430    0.0000    0.0000 O   0  0  0  0  0  0  0  0  0  0  0  0
    3.6430    0.0000    0.0000 C   0  0  0  0  0  0  0  0  0  0  0  0
    2.8930    1.2990    0.0000 C   0  0  0  0  0  0  0  0  0  0  0  0
    1.3930    1.2990    0.0000 C   0  0  0  0  0  0  0  0  0  0  0  0
    0.6430    0.0000    0.0000 C   0  0  0  0  0  0  0  0  0  0  0  0
    1.3930   -1.2990    0.0000 C   0  0  0  0  0  0  0  0  0  0  0  0
    2.8930   -1.2990    0.0000 C   0  0  0  0  0  0  0  0  0  0  0  0
  1  2  1  0  0  0  0
  2  3  1  0  0  0  0
  2  7  2  0  0  0  0
  3  4  2  0  0  0  0
  4  5  1  0  0  0  0
  5  6  2  0  0  0  0
  6  7  1  0  0  0  0
M  END
>  <name>
Oc1[c;biphenyl]cccc1

>  <apo>
1

>  <freq>
2

>  <freq0>
0

>  <freq1>
2

>  <freqA>
1.9984947

>  <a_count>
13

$$$$

  MOE2015           2D

  7  7  0  0  0  0  0  0  0  0999 V2000
    5.1430    0.0000    0.0000 O   0  0  0  0  0  0  0  0  0  0  0  0
    3.6430    0.0000    0.0000 C   0  0  0  0  0  0  0  0  0  0  0  0
    2.8930    1.2990    0.0000 C   0  0  0  0  0  0  0  0  0  0  0  0
    1.3930    1.2990    0.0000 C   0  0  0  0  0  0  0  0  0  0  0  0
    0.6430    0.0000    0.0000 C   0  0  0  0  0  0  0  0  0  0  0  0
    1.3930   -1.2990    0.0000 C   0  0  0  0  0  0  0  0  0  0  0  0
    2.8930   -1.2990    0.0000 C   0  0  0  0  0  0  0  0  0  0  0  0
  1  2  1  0  0  0  0
  2  3  1  0  0  0  0
  2  7  2  0  0  0  0
  3  4  2  0  0  0  0
  4  5  1  0  0  0  0
  5  6  2  0  0  0  0
  6  7  1  0  0  0  0
M  END
>  <name>
Oc1cc[c;biphenyl]cc1

>  <apo>
1

>  <freq>
2

>  <freq0>
0

>  <freq1>
2

>  <freqA>
1.9984947

>  <a_count>
13

$$$$

  MOE2015           2D

  6  5  0  0  0  0  0  0  0  0999 V2000
    3.3750    0.6500    0.0000 S   0  0  0  0  0  0  0  0  0  0  0  0
    2.6250   -0.6500    0.0000 C   0  0  0  0  0  0  0  0  0  0  0  0
    3.3750   -1.9490    0.0000 S   0  0  0  0  0  0  0  0  0  0  0  0
    1.1250   -0.6500    0.0000 N   0  0  0  0  0  0  0  0  0  0  0  0
    0.3750    0.6500    0.0000 C   0  0  0  0  0  0  0  0  0  0  0  0
    0.3750   -1.9490    0.0000 C   0  0  0  0  0  0  0  0  0  0  0  0
  1  2  2  0  0  0  0
  2  3  1  0  0  0  0
  2  4  1  0  0  0  0
  4  5  1  0  0  0  0
  4  6  1  0  0  0  0
M  END
>  <name>
S=C([S;disulfide])N(C)C

>  <apo>
1

>  <freq>
2

>  <freq0>
0

>  <freq1>
2

>  <freqA>
1.9984947

>  <a_count>
13

$$$$

  MOE2015           2D

  4  3  0  0  0  0  0  0  0  0999 V2000
    3.0000    0.0000    0.0000 N   0  0  0  0  0  0  0  0  0  0  0  0
    1.5000    0.0000    0.0000 C   0  0  0  0  0  0  0  0  0  0  0  0
    0.7500   -1.2990    0.0000 C   0  0  0  0  0  0  0  0  0  0  0  0
    0.7500    1.2990    0.0000 C   0  0  0  0  0  0  0  0  0  0  0  0
  1  2  1  0  0  0  0
  2  3  1  0  0  0  0
  2  4  1  0  0  0  0
M  END
>  <name>
[N;amide]C(C)C

>  <apo>
1

>  <freq>
2

>  <freq0>
0

>  <freq1>
2

>  <freqA>
1.9984947

>  <a_count>
13

$$$$

  MOE2015           2D

  7  7  0  0  0  0  0  0  0  0999 V2000
    5.1430    0.0000    0.0000 N   0  0  0  0  0  0  0  0  0  0  0  0
    3.6430    0.0000    0.0000 C   0  0  0  0  0  0  0  0  0  0  0  0
    2.8930    1.2990    0.0000 N   0  0  0  0  0  0  0  0  0  0  0  0
    1.3930    1.2990    0.0000 C   0  0  0  0  0  0  0  0  0  0  0  0
    0.6430    0.0000    0.0000 C   0  0  0  0  0  0  0  0  0  0  0  0
    1.3930   -1.2990    0.0000 C   0  0  0  0  0  0  0  0  0  0  0  0
    2.8930   -1.2990    0.0000 C   0  0  0  0  0  0  0  0  0  0  0  0
  1  2  1  0  0  0  0
  2  3  1  0  0  0  0
  2  7  2  0  0  0  0
  3  4  2  0  0  0  0
  4  5  1  0  0  0  0
  5  6  2  0  0  0  0
  6  7  1  0  0  0  0
M  END
>  <name>
[N;so2amide]c1ncccc1

>  <apo>
1

>  <freq>
2

>  <freq0>
0

>  <freq1>
2

>  <freqA>
1.9984947

>  <a_count>
13

$$$$

  MOE2015           2D

  7  7  0  0  0  0  0  0  0  0999 V2000
    5.1430    0.0000    0.0000 O   0  0  0  0  0  0  0  0  0  0  0  0
    3.6430    0.0000    0.0000 C   0  0  0  0  0  0  0  0  0  0  0  0
    2.8930    1.2990    0.0000 C   0  0  0  0  0  0  0  0  0  0  0  0
    1.3930    1.2990    0.0000 C   0  0  0  0  0  0  0  0  0  0  0  0
    0.6430    0.0000    0.0000 C   0  0  0  0  0  0  0  0  0  0  0  0
    1.3930   -1.2990    0.0000 C   0  0  0  0  0  0  0  0  0  0  0  0
    2.8930   -1.2990    0.0000 C   0  0  0  0  0  0  0  0  0  0  0  0
  1  2  1  0  0  0  0
  2  3  1  0  0  0  0
  2  7  2  0  0  0  0
  3  4  2  0  0  0  0
  4  5  1  0  0  0  0
  5  6  2  0  0  0  0
  6  7  1  0  0  0  0
M  END
>  <name>
[O;ester]c1ccccc1

>  <apo>
1

>  <freq>
2

>  <freq0>
0

>  <freq1>
2

>  <freqA>
1.9984947

>  <a_count>
13

$$$$

  MOE2015           2D

  6  5  0  0  1  0  0  0  0  0999 V2000
   -0.3480   -1.2990    0.0000 S   0  0  0  0  0  0  0  0  0  0  0  0
    0.9510   -2.0490    0.0000 C   0  0  0  0  0  0  0  0  0  0  0  0
    2.2500   -1.2990    0.0000 C   0  0  3  0  0  0  0  0  0  0  0  0
    2.2500    0.2010    0.0000 N   0  0  0  0  0  0  0  0  0  0  0  0
    3.5490   -2.0490    0.0000 C   0  0  0  0  0  0  0  0  0  0  0  0
    4.8480   -1.2990    0.0000 O   0  0  0  0  0  0  0  0  0  0  0  0
  1  2  1  0  0  0  0
  2  3  1  0  0  0  0
  3  4  1  0  0  0  0
  3  5  1  0  0  0  0
  5  6  2  0  0  0  0
M  END
>  <name>
[S;disulfide]CC(N)[C;amide]=O

>  <apo>
2

>  <freq>
2

>  <freq0>
0

>  <freq1>
2

>  <freqA>
1.9984947

>  <a_count>
13

$$$$

  MOE2015           2D

  6  5  0  0  1  0  0  0  0  0999 V2000
   -0.3480   -1.2990    0.0000 S   0  0  0  0  0  0  0  0  0  0  0  0
    0.9510   -2.0490    0.0000 C   0  0  0  0  0  0  0  0  0  0  0  0
    2.2500   -1.2990    0.0000 C   0  0  1  0  0  0  0  0  0  0  0  0
    2.2500    0.2010    0.0000 N   0  0  0  0  0  0  0  0  0  0  0  0
    3.5490   -2.0490    0.0000 C   0  0  0  0  0  0  0  0  0  0  0  0
    4.8480   -1.2990    0.0000 O   0  0  0  0  0  0  0  0  0  0  0  0
  1  2  1  0  0  0  0
  2  3  1  0  0  0  0
  3  4  1  1  0  0  0
  3  5  1  0  0  0  0
  5  6  2  0  0  0  0
M  END
>  <name>
[S;disulfide]C[C@@H]([N;amide])[C;amide]=O

>  <apo>
3

>  <freq>
2

>  <freq0>
0

>  <freq1>
2

>  <freqA>
1.9984947

>  <a_count>
13

$$$$

  MOE2015           2D

  8  8  0  0  0  0  0  0  0  0999 V2000
    0.4890   -1.1750    0.0000 S   0  0  0  0  0  0  0  0  0  0  0  0
    1.7880   -0.4250    0.0000 C   0  0  0  0  0  0  0  0  0  0  0  0
    1.7880    1.0750    0.0000 N   0  3  0  0  0  0  0  0  0  0  0  0
    0.4890    1.8250    0.0000 O   0  5  0  0  0  0  0  0  0  0  0  0
    3.0870    1.8250    0.0000 C   0  0  0  0  0  0  0  0  0  0  0  0
    4.3860    1.0750    0.0000 C   0  0  0  0  0  0  0  0  0  0  0  0
    4.3860   -0.4250    0.0000 C   0  0  0  0  0  0  0  0  0  0  0  0
    3.0870   -1.1750    0.0000 C   0  0  0  0  0  0  0  0  0  0  0  0
  1  2  1  0  0  0  0
  2  3  1  0  0  0  0
  2  8  2  0  0  0  0
  3  4  1  0  0  0  0
  3  5  2  0  0  0  0
  5  6  1  0  0  0  0
  6  7  2  0  0  0  0
  7  8  1  0  0  0  0
M  CHG  1   3   1
M  CHG  1   4  -1
M  END
>  <name>
[S;disulfide]c1[n+]([O-])cccc1

>  <apo>
1

>  <freq>
2

>  <freq0>
0

>  <freq1>
2

>  <freqA>
1.9984947

>  <a_count>
13

$$$$

  MOE2015           2D

  7  7  0  0  0  0  0  0  0  0999 V2000
    5.1430    0.0000    0.0000 S   0  0  0  0  0  0  0  0  0  0  0  0
    3.6430    0.0000    0.0000 C   0  0  0  0  0  0  0  0  0  0  0  0
    2.8930    1.2990    0.0000 C   0  0  0  0  0  0  0  0  0  0  0  0
    1.3930    1.2990    0.0000 C   0  0  0  0  0  0  0  0  0  0  0  0
    0.6430    0.0000    0.0000 C   0  0  0  0  0  0  0  0  0  0  0  0
    1.3930   -1.2990    0.0000 C   0  0  0  0  0  0  0  0  0  0  0  0
    2.8930   -1.2990    0.0000 C   0  0  0  0  0  0  0  0  0  0  0  0
  1  2  1  0  0  0  0
  2  3  1  0  0  0  0
  2  7  2  0  0  0  0
  3  4  2  0  0  0  0
  4  5  1  0  0  0  0
  5  6  2  0  0  0  0
  6  7  1  0  0  0  0
M  END
>  <name>
[S;thioether]c1ccccc1

>  <apo>
1

>  <freq>
2

>  <freq0>
0

>  <freq1>
2

>  <freqA>
1.9984947

>  <a_count>
13

$$$$

  MOE2015           2D

  6  6  0  0  0  0  0  0  0  0999 V2000
    4.6270    0.0000    0.0000 C   0  0  0  0  0  0  0  0  0  0  0  0
    3.1270    0.0000    0.0000 N   0  0  0  0  0  0  0  0  0  0  0  0
    2.2450   -1.2140    0.0000 N   0  0  0  0  0  0  0  0  0  0  0  0
    0.8180   -0.7500    0.0000 C   0  0  0  0  0  0  0  0  0  0  0  0
    0.8180    0.7500    0.0000 C   0  0  0  0  0  0  0  0  0  0  0  0
    2.2450    1.2140    0.0000 C   0  0  0  0  0  0  0  0  0  0  0  0
  1  2  1  0  0  0  0
  2  3  1  0  0  0  0
  2  6  1  0  0  0  0
  3  4  2  0  0  0  0
  4  5  1  0  0  0  0
  5  6  2  0  0  0  0
M  END
>  <name>
Cn1nc[c;biphenyl]c1

>  <apo>
1

>  <freq>
2

>  <freq0>
0

>  <freq1>
2

>  <freqA>
1.9984947

>  <a_count>
12

$$$$

  MOE2015           2D

  7  7  0  0  0  0  0  0  0  0999 V2000
    5.1430    0.0000    0.0000 F   0  0  0  0  0  0  0  0  0  0  0  0
    3.6430    0.0000    0.0000 C   0  0  0  0  0  0  0  0  0  0  0  0
    2.8930    1.2990    0.0000 C   0  0  0  0  0  0  0  0  0  0  0  0
    1.3930    1.2990    0.0000 C   0  0  0  0  0  0  0  0  0  0  0  0
    0.6430    0.0000    0.0000 C   0  0  0  0  0  0  0  0  0  0  0  0
    1.3930   -1.2990    0.0000 C   0  0  0  0  0  0  0  0  0  0  0  0
    2.8930   -1.2990    0.0000 C   0  0  0  0  0  0  0  0  0  0  0  0
  1  2  1  0  0  0  0
  2  3  1  0  0  0  0
  2  7  2  0  0  0  0
  3  4  2  0  0  0  0
  4  5  1  0  0  0  0
  5  6  2  0  0  0  0
  6  7  1  0  0  0  0
M  END
>  <name>
Fc1[c;biphenyl]cccc1

>  <apo>
1

>  <freq>
2

>  <freq0>
0

>  <freq1>
2

>  <freqA>
1.9984947

>  <a_count>
12

$$$$

  MOE2015           2D

  6  5  0  0  0  0  0  0  0  0999 V2000
   -0.3480   -1.2990    0.0000 O   0  0  0  0  0  0  0  0  0  0  0  0
    0.9510   -2.0490    0.0000 C   0  0  0  0  0  0  0  0  0  0  0  0
    2.2500   -1.2990    0.0000 C   0  0  0  0  0  0  0  0  0  0  0  0
    2.2500    0.2010    0.0000 N   0  0  0  0  0  0  0  0  0  0  0  0
    3.5490   -2.0490    0.0000 C   0  0  0  0  0  0  0  0  0  0  0  0
    4.8480   -1.2990    0.0000 N   0  0  0  0  0  0  0  0  0  0  0  0
  1  2  2  0  0  0  0
  2  3  1  0  0  0  0
  3  4  1  0  0  0  0
  3  5  2  0  0  0  0
  5  6  1  0  0  0  0
M  END
>  <name>
O=[C;amide]/C(/[N;amide])=C/[N;urea]

>  <apo>
3

>  <freq>
2

>  <freq0>
0

>  <freq1>
2

>  <freqA>
1.9984947

>  <a_count>
12

$$$$

  MOE2015           2D

  5  4  0  0  0  0  0  0  0  0999 V2000
    4.9980   -1.3390    0.0000 O   0  0  0  0  0  0  0  0  0  0  0  0
    3.6990   -0.5890    0.0000 C   0  0  0  0  0  0  0  0  0  0  0  0
    2.4000   -1.3390    0.0000 C   0  0  0  0  0  0  0  0  0  0  0  0
    1.1010   -0.5890    0.0000 C   0  0  0  0  0  0  0  0  0  0  0  0
   -0.1980   -1.3390    0.0000 N   0  0  0  0  0  0  0  0  0  0  0  0
  1  2  2  0  0  0  0
  2  3  1  0  0  0  0
  3  4  1  0  0  0  0
  4  5  1  0  0  0  0
M  END
>  <name>
O=[C;amide]CC[N;amide]

>  <apo>
2

>  <freq>
2

>  <freq0>
0

>  <freq1>
2

>  <freqA>
1.9984947

>  <a_count>
12

$$$$

  MOE2015           2D

  5  4  0  0  1  0  0  0  0  0999 V2000
    3.8780   -1.0390    0.0000 O   0  0  0  0  0  0  0  0  0  0  0  0
    2.5790   -1.7890    0.0000 C   0  0  0  0  0  0  0  0  0  0  0  0
    1.2800   -1.0390    0.0000 C   0  0  1  0  0  0  0  0  0  0  0  0
   -0.0190   -1.7890    0.0000 N   0  0  0  0  0  0  0  0  0  0  0  0
    1.2800    0.4610    0.0000 C   0  0  0  0  0  0  0  0  0  0  0  0
  1  2  2  0  0  0  0
  2  3  1  0  0  0  0
  3  4  1  0  0  0  0
  3  5  1  1  0  0  0
M  END
>  <name>
O=[C;amide][C@@H](N)C

>  <apo>
1

>  <freq>
2

>  <freq0>
0

>  <freq1>
2

>  <freqA>
1.9984947

>  <a_count>
12

$$$$

  MOE2015           2D

  6  5  0  0  0  0  0  0  0  0999 V2000
    6.2480   -0.9240    0.0000 O   0  0  0  0  0  0  0  0  0  0  0  0
    4.9490   -1.6740    0.0000 C   0  0  0  0  0  0  0  0  0  0  0  0
    3.6500   -0.9240    0.0000 C   0  0  0  0  0  0  0  0  0  0  0  0
    2.3500   -1.6740    0.0000 C   0  0  0  0  0  0  0  0  0  0  0  0
    1.0510   -0.9240    0.0000 C   0  0  0  0  0  0  0  0  0  0  0  0
   -0.2480   -1.6740    0.0000 O   0  0  0  0  0  0  0  0  0  0  0  0
  1  2  2  0  0  0  0
  2  3  1  0  0  0  0
  3  4  1  0  0  0  0
  4  5  1  0  0  0  0
  5  6  2  0  0  0  0
M  END
>  <name>
O=[C;ester]CC[C;ester]=O

>  <apo>
2

>  <freq>
2

>  <freq0>
0

>  <freq1>
2

>  <freqA>
1.9984947

>  <a_count>
12

$$$$

  MOE2015           2D

  6  6  0  0  0  0  0  0  0  0999 V2000
    4.6270    0.0000    0.0000 C   0  0  0  0  0  0  0  0  0  0  0  0
    3.1270    0.0000    0.0000 C   0  0  0  0  0  0  0  0  0  0  0  0
    2.2450   -1.2140    0.0000 O   0  0  0  0  0  0  0  0  0  0  0  0
    0.8180   -0.7500    0.0000 C   0  0  0  0  0  0  0  0  0  0  0  0
    0.8180    0.7500    0.0000 C   0  0  0  0  0  0  0  0  0  0  0  0
    2.2450    1.2140    0.0000 C   0  0  0  0  0  0  0  0  0  0  0  0
  1  2  1  0  0  0  0
  2  3  1  0  0  0  0
  2  6  2  0  0  0  0
  3  4  1  0  0  0  0
  4  5  2  0  0  0  0
  5  6  1  0  0  0  0
M  END
>  <name>
[C;amine]c1occc1

>  <apo>
1

>  <freq>
2

>  <freq0>
0

>  <freq1>
2

>  <freqA>
1.9984947

>  <a_count>
12

$$$$

  MOE2015           2D

  7  7  0  0  0  0  0  0  0  0999 V2000
    5.1430    0.0000    0.0000 N   0  0  0  0  0  0  0  0  0  0  0  0
    3.6430    0.0000    0.0000 C   0  0  0  0  0  0  0  0  0  0  0  0
    2.8930    1.2990    0.0000 N   0  0  0  0  0  0  0  0  0  0  0  0
    1.3930    1.2990    0.0000 C   0  0  0  0  0  0  0  0  0  0  0  0
    0.6430    0.0000    0.0000 C   0  0  0  0  0  0  0  0  0  0  0  0
    1.3930   -1.2990    0.0000 C   0  0  0  0  0  0  0  0  0  0  0  0
    2.8930   -1.2990    0.0000 N   0  0  0  0  0  0  0  0  0  0  0  0
  1  2  1  0  0  0  0
  2  3  1  0  0  0  0
  2  7  2  0  0  0  0
  3  4  2  0  0  0  0
  4  5  1  0  0  0  0
  5  6  2  0  0  0  0
  6  7  1  0  0  0  0
M  END
>  <name>
[N;amine]c1ncccn1

>  <apo>
1

>  <freq>
2

>  <freq0>
0

>  <freq1>
2

>  <freqA>
1.9984947

>  <a_count>
12

$$$$

  MOE2015           2D

  4  3  0  0  0  0  0  0  0  0999 V2000
   -0.0740   -0.2750    0.0000 O   0  0  0  0  0  0  0  0  0  0  0  0
    1.2250   -1.0250    0.0000 C   0  0  0  0  0  0  0  0  0  0  0  0
    2.5250   -0.2750    0.0000 C   0  0  0  0  0  0  0  0  0  0  0  0
    3.8240   -1.0250    0.0000 C   0  0  0  0  0  0  0  0  0  0  0  0
  1  2  1  0  0  0  0
  2  3  1  0  0  0  0
  3  4  1  0  0  0  0
M  END
>  <name>
[O;ester]CCC

>  <apo>
1

>  <freq>
2

>  <freq0>
0

>  <freq1>
2

>  <freqA>
1.9984947

>  <a_count>
12

$$$$

  MOE2015           2D

  3  2  0  0  0  0  0  0  0  0999 V2000
    0.2500    0.0670    0.0000 C   0  0  0  0  0  0  0  0  0  0  0  0
    1.5490   -0.6830    0.0000 C   0  0  0  0  0  0  0  0  0  0  0  0
   -1.0490   -0.6830    0.0000 C   0  0  0  0  0  0  0  0  0  0  0  0
  1  2  1  0  0  0  0
  1  3  1  0  0  0  0
M  END
>  <name>
C(C)[C;olefin]

>  <apo>
1

>  <freq>
2

>  <freq0>
0

>  <freq1>
2

>  <freqA>
1.9984947

>  <a_count>
11

$$$$

  MOE2015           2D

  3  2  0  0  0  0  0  0  0  0999 V2000
    0.2500    0.0670    0.0000 C   0  0  0  0  0  0  0  0  0  0  0  0
    1.5490   -0.6830    0.0000 C   0  0  0  0  0  0  0  0  0  0  0  0
   -1.0490   -0.6830    0.0000 C   0  0  0  0  0  0  0  0  0  0  0  0
  1  2  1  0  0  0  0
  1  3  1  0  0  0  0
M  END
>  <name>
C([C;ether])[C;ether]

>  <apo>
2

>  <freq>
2

>  <freq0>
0

>  <freq1>
2

>  <freqA>
1.9984947

>  <a_count>
11

$$$$

  MOE2015           2D

  3  2  0  0  0  0  0  0  0  0999 V2000
    0.2500    0.0670    0.0000 C   0  0  0  0  0  0  0  0  0  0  0  0
    1.5490   -0.6830    0.0000 C   0  0  0  0  0  0  0  0  0  0  0  0
   -1.0490   -0.6830    0.0000 C   0  0  0  0  0  0  0  0  0  0  0  0
  1  2  1  0  0  0  0
  1  3  1  0  0  0  0
M  END
>  <name>
C([C;thioether])C

>  <apo>
1

>  <freq>
2

>  <freq0>
0

>  <freq1>
2

>  <freqA>
1.9984947

>  <a_count>
11

$$$$

  MOE2015           2D

  6  6  0  0  0  0  0  0  0  0999 V2000
    4.6270    0.0000    0.0000 C   0  0  0  0  0  0  0  0  0  0  0  0
    3.1270    0.0000    0.0000 C   0  0  0  0  0  0  0  0  0  0  0  0
    2.2450   -1.2140    0.0000 O   0  0  0  0  0  0  0  0  0  0  0  0
    0.8180   -0.7500    0.0000 N   0  0  0  0  0  0  0  0  0  0  0  0
    0.8180    0.7500    0.0000 C   0  0  0  0  0  0  0  0  0  0  0  0
    2.2450    1.2140    0.0000 C   0  0  0  0  0  0  0  0  0  0  0  0
  1  2  1  0  0  0  0
  2  3  1  0  0  0  0
  2  6  2  0  0  0  0
  3  4  1  0  0  0  0
  4  5  2  0  0  0  0
  5  6  1  0  0  0  0
M  END
>  <name>
Cc1on[c;biphenyl][c;biphenyl]1

>  <apo>
2

>  <freq>
2

>  <freq0>
0

>  <freq1>
2

>  <freqA>
1.9984947

>  <a_count>
11

$$$$

  MOE2015           2D

  5  4  0  0  0  0  0  0  0  0999 V2000
    4.9980   -1.3390    0.0000 S   0  0  0  0  0  0  0  0  0  0  0  0
    3.6990   -0.5890    0.0000 C   0  0  0  0  0  0  0  0  0  0  0  0
    2.4000   -1.3390    0.0000 C   0  0  0  0  0  0  0  0  0  0  0  0
    1.1010   -0.5890    0.0000 C   0  0  0  0  0  0  0  0  0  0  0  0
   -0.1980   -1.3390    0.0000 O   0  0  0  0  0  0  0  0  0  0  0  0
  1  2  1  0  0  0  0
  2  3  1  0  0  0  0
  3  4  1  0  0  0  0
  4  5  2  0  0  0  0
M  END
>  <name>
SC[C;amine][C;ester]=O

>  <apo>
2

>  <freq>
2

>  <freq0>
0

>  <freq1>
2

>  <freqA>
1.9984947

>  <a_count>
11

$$$$

  MOE2015           2D

  4  3  0  0  0  0  0  0  0  0999 V2000
   -0.0740   -1.0250    0.0000 O   0  0  0  0  0  0  0  0  0  0  0  0
    1.2250   -0.2750    0.0000 C   0  0  0  0  0  0  0  0  0  0  0  0
    2.5250   -1.0250    0.0000 C   0  0  0  0  0  0  0  0  0  0  0  0
    3.8240   -0.2750    0.0000 N   0  0  0  0  0  0  0  0  0  0  0  0
  1  2  1  0  0  0  0
  2  3  1  0  0  0  0
  3  4  1  0  0  0  0
M  END
>  <name>
[O;ester]CC[N;amide]

>  <apo>
2

>  <freq>
2

>  <freq0>
0

>  <freq1>
2

>  <freqA>
1.9984947

>  <a_count>
11

$$$$

  MOE2015           2D

  5  4  0  0  0  0  0  0  0  0999 V2000
    4.9980   -1.3390    0.0000 S   0  0  0  0  0  0  0  0  0  0  0  0
    3.6990   -0.5890    0.0000 C   0  0  0  0  0  0  0  0  0  0  0  0
    2.4000   -1.3390    0.0000 C   0  0  0  0  0  0  0  0  0  0  0  0
    1.1010   -0.5890    0.0000 C   0  0  0  0  0  0  0  0  0  0  0  0
   -0.1980   -1.3390    0.0000 O   0  0  0  0  0  0  0  0  0  0  0  0
  1  2  1  0  0  0  0
  2  3  1  0  0  0  0
  3  4  1  0  0  0  0
  4  5  2  0  0  0  0
M  END
>  <name>
[S;disulfide]CC[C;amide]=O

>  <apo>
2

>  <freq>
2

>  <freq0>
0

>  <freq1>
2

>  <freqA>
1.9984947

>  <a_count>
11

$$$$

  MOE2015           2D

  4  3  0  0  0  0  0  0  0  0999 V2000
   -0.0740   -1.0250    0.0000 S   0  0  0  0  0  0  0  0  0  0  0  0
    1.2250   -0.2750    0.0000 C   0  0  0  0  0  0  0  0  0  0  0  0
    2.5250   -1.0250    0.0000 C   0  0  0  0  0  0  0  0  0  0  0  0
    3.8240   -0.2750    0.0000 N   0  0  0  0  0  0  0  0  0  0  0  0
  1  2  1  0  0  0  0
  2  3  1  0  0  0  0
  3  4  1  0  0  0  0
M  END
>  <name>
[S;disulfide]CC[N;amide]

>  <apo>
2

>  <freq>
2

>  <freq0>
0

>  <freq1>
2

>  <freqA>
1.9984947

>  <a_count>
11

$$$$

  MOE2015           2D

  6  6  0  0  0  0  0  0  0  0999 V2000
   -2.0490    2.0490    0.0000 N   0  0  0  0  0  0  0  0  0  0  0  0
   -2.0490    0.5490    0.0000 C   0  0  0  0  0  0  0  0  0  0  0  0
   -0.7500   -0.2010    0.0000 C   0  0  0  0  0  0  0  0  0  0  0  0
    0.5490    0.5490    0.0000 C   0  0  0  0  0  0  0  0  0  0  0  0
    0.5490    2.0490    0.0000 C   0  0  0  0  0  0  0  0  0  0  0  0
   -0.7500    2.7990    0.0000 C   0  0  0  0  0  0  0  0  0  0  0  0
  1  2  1  0  0  0  0
  1  6  2  0  0  0  0
  2  3  2  0  0  0  0
  3  4  1  0  0  0  0
  4  5  2  0  0  0  0
  5  6  1  0  0  0  0
M  END
>  <name>
n1cc[c;biphenyl]cc1

>  <apo>
1

>  <freq>
2

>  <freq0>
0

>  <freq1>
2

>  <freqA>
1.9984947

>  <a_count>
11

$$$$

  MOE2015           2D

 75 84  0  0  1  0  0  0  0  0999 V2000
   13.0820  -12.4910    0.0000 O   0  0  0  0  0  0  0  0  0  0  0  0
   11.7460  -11.7790    0.0000 C   0  0  0  0  0  0  0  0  0  0  0  0
   10.4880  -12.5970    0.0000 N   0  0  0  0  0  0  0  0  0  0  0  0
   11.6970  -10.2880    0.0000 C   0  0  0  0  0  0  0  0  0  0  0  0
   10.4910   -9.4890    0.0000 C   0  0  0  0  0  0  0  0  0  0  0  0
   10.4170   -7.9950    0.0000 C   0  0  1  0  0  0  0  0  0  0  0  0
   11.5560   -6.9470    0.0000 C   0  0  1  0  0  0  0  0  0  0  0  0
   12.6530   -7.9350    0.0000 C   0  0  0  0  0  0  0  0  0  0  0  0
   14.0400   -7.9150    0.0000 C   0  0  0  0  0  0  0  0  0  0  0  0
   14.8760   -9.2610    0.0000 O   0  0  0  0  0  0  0  0  0  0  0  0
   14.9370   -6.6790    0.0000 N   0  0  0  0  0  0  0  0  0  0  0  0
   12.9120   -6.3450    0.0000 C   0  0  0  0  0  0  0  0  0  0  0  0
   10.7220   -5.7080    0.0000 C   0  0  1  0  0  0  0  0  0  0  0  0
   12.1680   -5.3580    0.0000 C   0  0  0  0  0  0  0  0  0  0  0  0
    9.3180   -5.6830    0.0000 N   0  3  0  0  0  0  0  0  0  0  0  0
    8.1110   -4.5400    0.0000 Co  0  7  0  0  0  0  0  0  0  0  0  0
    6.8020   -3.8500    0.0000 C   0  0  0  0  0  0  0  0  0  0  0  0
    6.5810   -4.5340    0.0000 N   0  3  0  0  0  0  0  0  0  0  0  0
    5.4270   -3.4850    0.0000 C   0  0  0  0  0  0  0  0  0  0  0  0
    4.0840   -4.3610    0.0000 C   0  0  0  0  0  0  0  0  0  0  0  0
    4.4850   -5.7340    0.0000 N   0  0  0  0  0  0  0  0  0  0  0  0
    5.9560   -5.9130    0.0000 C   0  0  0  0  0  0  0  0  0  0  0  0
    2.7580   -3.6800    0.0000 C   0  0  0  0  0  0  0  0  0  0  0  0
    2.4890   -2.2840    0.0000 C   0  0  0  0  0  0  0  0  0  0  0  0
    1.1160   -1.6620    0.0000 C   0  0  0  0  0  0  0  0  0  0  0  0
    3.7080   -1.3410    0.0000 C   0  0  0  0  0  0  0  0  0  0  0  0
    3.4860    0.0990    0.0000 C   0  0  0  0  0  0  0  0  0  0  0  0
    5.0960   -2.0620    0.0000 C   0  0  0  0  0  0  0  0  0  0  0  0
    6.8270   -5.5590    0.0000 N   0  3  0  0  0  0  0  0  0  0  0  0
    6.7320   -6.9910    0.0000 C   0  0  0  0  0  0  0  0  0  0  0  0
    5.4200   -7.6820    0.0000 C   0  0  2  0  0  0  0  0  0  0  0  0
    5.9810   -9.0870    0.0000 C   0  0  0  0  0  0  0  0  0  0  0  0
    5.2340  -10.3200    0.0000 C   0  0  0  0  0  0  0  0  0  0  0  0
    5.9790  -11.6830    0.0000 O   0  0  0  0  0  0  0  0  0  0  0  0
    3.7270  -10.4100    0.0000 N   0  0  0  0  0  0  0  0  0  0  0  0
    4.4100   -8.8000    0.0000 C   0  0  0  0  0  0  0  0  0  0  0  0
    4.4640   -6.5140    0.0000 C   0  0  2  0  0  0  0  0  0  0  0  0
    2.9550   -6.4840    0.0000 C   0  0  0  0  0  0  0  0  0  0  0  0
    2.1240   -7.6900    0.0000 C   0  0  0  0  0  0  0  0  0  0  0  0
    0.6440   -7.7160    0.0000 C   0  0  0  0  0  0  0  0  0  0  0  0
   -0.0920   -9.0500    0.0000 O   0  0  0  0  0  0  0  0  0  0  0  0
   -0.1730   -6.4570    0.0000 N   0  0  0  0  0  0  0  0  0  0  0  0
    5.4000   -5.3050    0.0000 C   0  0  0  0  0  0  0  0  0  0  0  0
    4.9830   -3.9620    0.0000 C   0  0  0  0  0  0  0  0  0  0  0  0
    5.9750   -2.7630    0.0000 C   0  0  0  0  0  0  0  0  0  0  0  0
    5.5780   -1.3370    0.0000 C   0  0  0  0  0  0  0  0  0  0  0  0
    4.2160   -2.0990    0.0000 C   0  0  0  0  0  0  0  0  0  0  0  0
    4.5260   -0.2510    0.0000 C   0  0  0  0  0  0  0  0  0  0  0  0
    6.8920   -0.6040    0.0000 C   0  0  2  0  0  0  0  0  0  0  0  0
    7.2200    0.8720    0.0000 C   0  0  0  0  0  0  0  0  0  0  0  0
    6.2190    1.9290    0.0000 C   0  0  0  0  0  0  0  0  0  0  0  0
    6.5120    3.3880    0.0000 C   0  0  0  0  0  0  0  0  0  0  0  0
    7.9220    3.9020    0.0000 O   0  0  0  0  0  0  0  0  0  0  0  0
    5.3720    4.3880    0.0000 N   0  0  0  0  0  0  0  0  0  0  0  0
    7.8340   -1.7530    0.0000 C   0  0  0  0  0  0  0  0  0  0  0  0
    9.2540   -1.5430    0.0000 C   0  0  0  0  0  0  0  0  0  0  0  0
    9.7750   -0.1270    0.0000 C   0  0  0  0  0  0  0  0  0  0  0  0
   10.1880   -2.6300    0.0000 C   0  0  0  0  0  0  0  0  0  0  0  0
   11.6270   -2.2970    0.0000 C   0  0  1  0  0  0  0  0  0  0  0  0
   12.9120   -1.5220    0.0000 C   0  0  0  0  0  0  0  0  0  0  0  0
   12.9810   -0.0480    0.0000 C   0  0  0  0  0  0  0  0  0  0  0  0
   14.2860    0.6930    0.0000 C   0  0  0  0  0  0  0  0  0  0  0  0
   14.3130    2.1910    0.0000 O   0  0  0  0  0  0  0  0  0  0  0  0
   11.4670   -0.8030    0.0000 C   0  0  0  0  0  0  0  0  0  0  0  0
   12.2290   -3.7000    0.0000 C   0  0  1  0  0  0  0  0  0  0  0  0
   13.6340   -4.1700    0.0000 C   0  0  0  0  0  0  0  0  0  0  0  0
   14.8610   -3.4370    0.0000 C   0  0  0  0  0  0  0  0  0  0  0  0
   16.2280   -4.1930    0.0000 O   0  0  0  0  0  0  0  0  0  0  0  0
   14.9750   -1.9320    0.0000 N   0  0  0  0  0  0  0  0  0  0  0  0
   10.9540   -4.5030    0.0000 C   0  0  1  0  0  0  0  0  0  0  0  0
    9.6860   -3.9730    0.0000 N   0  0  0  0  0  0  0  0  0  0  0  0
    7.3440   -3.0860    0.0000 N   0  3  0  0  0  0  0  0  0  0  0  0
    7.9560   -7.7390    0.0000 C   0  0  0  0  0  0  0  0  0  0  0  0
    7.9110   -9.2440    0.0000 C   0  0  0  0  0  0  0  0  0  0  0  0
    9.2490   -7.1030    0.0000 C   0  0  0  0  0  0  0  0  0  0  0  0
  1  2  2  0  0  0  0
  2  3  1  0  0  0  0
  2  4  1  0  0  0  0
  4  5  1  0  0  0  0
  6  5  1  6  0  0  0
  6  7  1  0  0  0  0
  6 75  1  0  0  0  0
  7  8  1  1  0  0  0
  7 12  1  6  0  0  0
  7 13  1  0  0  0  0
  8  9  1  0  0  0  0
  9 10  2  0  0  0  0
  9 11  1  0  0  0  0
 13 14  1  6  0  0  0
 13 15  1  0  0  0  0
 13 70  1  0  0  0  0
 15 16  1  0  0  0  0
 15 75  2  0  0  0  0
 16 17  1  0  0  0  0
 16 18  1  0  0  0  0
 16 29  1  0  0  0  0
 16 71  1  0  0  0  0
 16 72  1  0  0  0  0
 18 19  1  0  0  0  0
 18 22  2  0  0  0  0
 19 20  1  0  0  0  0
 19 28  2  0  0  0  0
 20 21  1  0  0  0  0
 20 23  2  0  0  0  0
 21 22  1  0  0  0  0
 23 24  1  0  0  0  0
 24 25  1  0  0  0  0
 24 26  2  0  0  0  0
 26 27  1  0  0  0  0
 26 28  1  0  0  0  0
 29 30  1  0  0  0  0
 29 43  2  0  0  0  0
 30 31  1  0  0  0  0
 30 73  2  0  0  0  0
 31 32  1  1  0  0  0
 31 36  1  6  0  0  0
 31 37  1  0  0  0  0
 32 33  1  0  0  0  0
 33 34  2  0  0  0  0
 33 35  1  0  0  0  0
 37 38  1  6  0  0  0
 37 43  1  0  0  0  0
 38 39  1  0  0  0  0
 39 40  1  0  0  0  0
 40 41  2  0  0  0  0
 40 42  1  0  0  0  0
 43 44  1  0  0  0  0
 44 45  2  0  0  0  0
 45 46  1  0  0  0  0
 45 72  1  0  0  0  0
 46 47  1  0  0  0  0
 46 48  1  0  0  0  0
 46 49  1  0  0  0  0
 49 50  1  6  0  0  0
 49 55  1  0  0  0  0
 50 51  1  0  0  0  0
 51 52  1  0  0  0  0
 52 53  2  0  0  0  0
 52 54  1  0  0  0  0
 55 56  1  0  0  0  0
 55 72  2  0  0  0  0
 56 57  1  0  0  0  0
 56 58  2  0  0  0  0
 58 59  1  0  0  0  0
 58 71  1  0  0  0  0
 59 60  1  6  0  0  0
 59 64  1  1  0  0  0
 59 65  1  0  0  0  0
 60 61  1  0  0  0  0
 61 62  1  0  0  0  0
 62 63  2  0  0  0  0
 65 66  1  1  0  0  0
 65 70  1  0  0  0  0
 66 67  1  0  0  0  0
 67 68  2  0  0  0  0
 67 69  1  0  0  0  0
 70 71  1  6  0  0  0
 73 74  1  0  0  0  0
 73 75  1  0  0  0  0
M  CHG  1  15   1
M  CHG  1  16  -3
M  CHG  1  18   1
M  CHG  1  29   1
M  CHG  1  72   1
M  END
>  <name>
O=C(N)CC[C@H]1[C@@](CC(=O)N)(C)[C@@]2(C)[N+]=3[Co-3]45(C)([n+]6c7c([nH;NaroC]c6)cc(C)c(C)c7)[N+]=6C([C@](CC(=O)N)(C)[C@H](CCC(=O)N)C=6C=C6C(C)(C)[C@H](CCC(=O)N)C(C(C)=C7[C@@](CC[C;amide]=O)(C)[C@@H](CC(=O)N)[C@H]2N47)=[N+]56)=C(C)C1=3

>  <apo>
2

>  <freq>
1

>  <freq0>
0

>  <freq1>
1

>  <freqA>
0.99887151

>  <a_count>
153

$$$$

  MOE2015           2D

 75 84  0  0  1  0  0  0  0  0999 V2000
   13.0820  -12.4910    0.0000 O   0  0  0  0  0  0  0  0  0  0  0  0
   11.7460  -11.7790    0.0000 C   0  0  0  0  0  0  0  0  0  0  0  0
   10.4880  -12.5970    0.0000 N   0  0  0  0  0  0  0  0  0  0  0  0
   11.6970  -10.2880    0.0000 C   0  0  0  0  0  0  0  0  0  0  0  0
   10.4910   -9.4890    0.0000 C   0  0  0  0  0  0  0  0  0  0  0  0
   10.4170   -7.9950    0.0000 C   0  0  1  0  0  0  0  0  0  0  0  0
   11.5560   -6.9470    0.0000 C   0  0  1  0  0  0  0  0  0  0  0  0
   12.6530   -7.9350    0.0000 C   0  0  0  0  0  0  0  0  0  0  0  0
   14.0400   -7.9150    0.0000 C   0  0  0  0  0  0  0  0  0  0  0  0
   14.8760   -9.2610    0.0000 O   0  0  0  0  0  0  0  0  0  0  0  0
   14.9370   -6.6790    0.0000 N   0  0  0  0  0  0  0  0  0  0  0  0
   12.9120   -6.3450    0.0000 C   0  0  0  0  0  0  0  0  0  0  0  0
   10.7220   -5.7080    0.0000 C   0  0  1  0  0  0  0  0  0  0  0  0
   12.1680   -5.3580    0.0000 C   0  0  0  0  0  0  0  0  0  0  0  0
    9.3180   -5.6830    0.0000 N   0  3  0  0  0  0  0  0  0  0  0  0
    8.1110   -4.5400    0.0000 Co  0  7  0  0  0  0  0  0  0  0  0  0
    6.8020   -3.8500    0.0000 O   0  0  0  0  0  0  0  0  0  0  0  0
    6.5810   -4.5340    0.0000 N   0  3  0  0  0  0  0  0  0  0  0  0
    5.4270   -3.4850    0.0000 C   0  0  0  0  0  0  0  0  0  0  0  0
    4.0840   -4.3610    0.0000 C   0  0  0  0  0  0  0  0  0  0  0  0
    4.4850   -5.7340    0.0000 N   0  0  0  0  0  0  0  0  0  0  0  0
    5.9560   -5.9130    0.0000 C   0  0  0  0  0  0  0  0  0  0  0  0
    2.7580   -3.6800    0.0000 C   0  0  0  0  0  0  0  0  0  0  0  0
    2.4890   -2.2840    0.0000 C   0  0  0  0  0  0  0  0  0  0  0  0
    1.1160   -1.6620    0.0000 C   0  0  0  0  0  0  0  0  0  0  0  0
    3.7080   -1.3410    0.0000 C   0  0  0  0  0  0  0  0  0  0  0  0
    3.4860    0.0990    0.0000 C   0  0  0  0  0  0  0  0  0  0  0  0
    5.0960   -2.0620    0.0000 C   0  0  0  0  0  0  0  0  0  0  0  0
    6.8270   -5.5590    0.0000 N   0  3  0  0  0  0  0  0  0  0  0  0
    6.7320   -6.9910    0.0000 C   0  0  0  0  0  0  0  0  0  0  0  0
    5.4200   -7.6820    0.0000 C   0  0  2  0  0  0  0  0  0  0  0  0
    5.9810   -9.0870    0.0000 C   0  0  0  0  0  0  0  0  0  0  0  0
    5.2340  -10.3200    0.0000 C   0  0  0  0  0  0  0  0  0  0  0  0
    5.9790  -11.6830    0.0000 O   0  0  0  0  0  0  0  0  0  0  0  0
    3.7270  -10.4100    0.0000 N   0  0  0  0  0  0  0  0  0  0  0  0
    4.4100   -8.8000    0.0000 C   0  0  0  0  0  0  0  0  0  0  0  0
    4.4640   -6.5140    0.0000 C   0  0  2  0  0  0  0  0  0  0  0  0
    2.9550   -6.4840    0.0000 C   0  0  0  0  0  0  0  0  0  0  0  0
    2.1240   -7.6900    0.0000 C   0  0  0  0  0  0  0  0  0  0  0  0
    0.6440   -7.7160    0.0000 C   0  0  0  0  0  0  0  0  0  0  0  0
   -0.0920   -9.0500    0.0000 O   0  0  0  0  0  0  0  0  0  0  0  0
   -0.1730   -6.4570    0.0000 N   0  0  0  0  0  0  0  0  0  0  0  0
    5.4000   -5.3050    0.0000 C   0  0  0  0  0  0  0  0  0  0  0  0
    4.9830   -3.9620    0.0000 C   0  0  0  0  0  0  0  0  0  0  0  0
    5.9750   -2.7630    0.0000 C   0  0  0  0  0  0  0  0  0  0  0  0
    5.5780   -1.3370    0.0000 C   0  0  0  0  0  0  0  0  0  0  0  0
    4.2160   -2.0990    0.0000 C   0  0  0  0  0  0  0  0  0  0  0  0
    4.5260   -0.2510    0.0000 C   0  0  0  0  0  0  0  0  0  0  0  0
    6.8920   -0.6040    0.0000 C   0  0  2  0  0  0  0  0  0  0  0  0
    7.2200    0.8720    0.0000 C   0  0  0  0  0  0  0  0  0  0  0  0
    6.2190    1.9290    0.0000 C   0  0  0  0  0  0  0  0  0  0  0  0
    6.5120    3.3880    0.0000 C   0  0  0  0  0  0  0  0  0  0  0  0
    7.9220    3.9020    0.0000 O   0  0  0  0  0  0  0  0  0  0  0  0
    5.3720    4.3880    0.0000 N   0  0  0  0  0  0  0  0  0  0  0  0
    7.8340   -1.7530    0.0000 C   0  0  0  0  0  0  0  0  0  0  0  0
    9.2540   -1.5430    0.0000 C   0  0  0  0  0  0  0  0  0  0  0  0
    9.7750   -0.1270    0.0000 C   0  0  0  0  0  0  0  0  0  0  0  0
   10.1880   -2.6300    0.0000 C   0  0  0  0  0  0  0  0  0  0  0  0
   11.6270   -2.2970    0.0000 C   0  0  1  0  0  0  0  0  0  0  0  0
   12.9120   -1.5220    0.0000 C   0  0  0  0  0  0  0  0  0  0  0  0
   12.9810   -0.0480    0.0000 C   0  0  0  0  0  0  0  0  0  0  0  0
   14.2860    0.6930    0.0000 C   0  0  0  0  0  0  0  0  0  0  0  0
   14.3130    2.1910    0.0000 O   0  0  0  0  0  0  0  0  0  0  0  0
   11.4670   -0.8030    0.0000 C   0  0  0  0  0  0  0  0  0  0  0  0
   12.2290   -3.7000    0.0000 C   0  0  1  0  0  0  0  0  0  0  0  0
   13.6340   -4.1700    0.0000 C   0  0  0  0  0  0  0  0  0  0  0  0
   14.8610   -3.4370    0.0000 C   0  0  0  0  0  0  0  0  0  0  0  0
   16.2280   -4.1930    0.0000 O   0  0  0  0  0  0  0  0  0  0  0  0
   14.9750   -1.9320    0.0000 N   0  0  0  0  0  0  0  0  0  0  0  0
   10.9540   -4.5030    0.0000 C   0  0  1  0  0  0  0  0  0  0  0  0
    9.6860   -3.9730    0.0000 N   0  0  0  0  0  0  0  0  0  0  0  0
    7.3440   -3.0860    0.0000 N   0  3  0  0  0  0  0  0  0  0  0  0
    7.9560   -7.7390    0.0000 C   0  0  0  0  0  0  0  0  0  0  0  0
    7.9110   -9.2440    0.0000 C   0  0  0  0  0  0  0  0  0  0  0  0
    9.2490   -7.1030    0.0000 C   0  0  0  0  0  0  0  0  0  0  0  0
  1  2  2  0  0  0  0
  2  3  1  0  0  0  0
  2  4  1  0  0  0  0
  4  5  1  0  0  0  0
  6  5  1  6  0  0  0
  6  7  1  0  0  0  0
  6 75  1  0  0  0  0
  7  8  1  1  0  0  0
  7 12  1  6  0  0  0
  7 13  1  0  0  0  0
  8  9  1  0  0  0  0
  9 10  2  0  0  0  0
  9 11  1  0  0  0  0
 13 14  1  6  0  0  0
 13 15  1  0  0  0  0
 13 70  1  0  0  0  0
 15 16  1  0  0  0  0
 15 75  2  0  0  0  0
 16 17  1  0  0  0  0
 16 18  1  0  0  0  0
 16 29  1  0  0  0  0
 16 71  1  0  0  0  0
 16 72  1  0  0  0  0
 18 19  1  0  0  0  0
 18 22  2  0  0  0  0
 19 20  1  0  0  0  0
 19 28  2  0  0  0  0
 20 21  1  0  0  0  0
 20 23  2  0  0  0  0
 21 22  1  0  0  0  0
 23 24  1  0  0  0  0
 24 25  1  0  0  0  0
 24 26  2  0  0  0  0
 26 27  1  0  0  0  0
 26 28  1  0  0  0  0
 29 30  1  0  0  0  0
 29 43  2  0  0  0  0
 30 31  1  0  0  0  0
 30 73  2  0  0  0  0
 31 32  1  1  0  0  0
 31 36  1  6  0  0  0
 31 37  1  0  0  0  0
 32 33  1  0  0  0  0
 33 34  2  0  0  0  0
 33 35  1  0  0  0  0
 37 38  1  6  0  0  0
 37 43  1  0  0  0  0
 38 39  1  0  0  0  0
 39 40  1  0  0  0  0
 40 41  2  0  0  0  0
 40 42  1  0  0  0  0
 43 44  1  0  0  0  0
 44 45  2  0  0  0  0
 45 46  1  0  0  0  0
 45 72  1  0  0  0  0
 46 47  1  0  0  0  0
 46 48  1  0  0  0  0
 46 49  1  0  0  0  0
 49 50  1  6  0  0  0
 49 55  1  0  0  0  0
 50 51  1  0  0  0  0
 51 52  1  0  0  0  0
 52 53  2  0  0  0  0
 52 54  1  0  0  0  0
 55 56  1  0  0  0  0
 55 72  2  0  0  0  0
 56 57  1  0  0  0  0
 56 58  2  0  0  0  0
 58 59  1  0  0  0  0
 58 71  1  0  0  0  0
 59 60  1  6  0  0  0
 59 64  1  1  0  0  0
 59 65  1  0  0  0  0
 60 61  1  0  0  0  0
 61 62  1  0  0  0  0
 62 63  2  0  0  0  0
 65 66  1  1  0  0  0
 65 70  1  0  0  0  0
 66 67  1  0  0  0  0
 67 68  2  0  0  0  0
 67 69  1  0  0  0  0
 70 71  1  6  0  0  0
 73 74  1  0  0  0  0
 73 75  1  0  0  0  0
M  CHG  1  15   1
M  CHG  1  16  -3
M  CHG  1  18   1
M  CHG  1  29   1
M  CHG  1  72   1
M  END
>  <name>
O=C(N)CC[C@H]1[C@@](CC(=O)N)(C)[C@@]2(C)[N+]=3[Co-3]45(O)([n+]6c7c([nH;NaroC]c6)cc(C)c(C)c7)[N+]=6C([C@](CC(=O)N)(C)[C@H](CCC(=O)N)C=6C=C6C(C)(C)[C@H](CCC(=O)N)C(C(C)=C7[C@@](CC[C;amide]=O)(C)[C@@H](CC(=O)N)[C@H]2N47)=[N+]56)=C(C)C1=3

>  <apo>
2

>  <freq>
1

>  <freq0>
0

>  <freq1>
1

>  <freqA>
0.99887151

>  <a_count>
151

$$$$

  MOE2015           2D

 74 77  0  0  1  0  0  0  0  0999 V2000
   -5.5750    1.4520    0.0000 S   0  0  0  0  0  0  0  0  0  0  0  0
   -6.8840    2.1840    0.0000 C   0  0  0  0  0  0  0  0  0  0  0  0
   -6.9050    3.6840    0.0000 C   0  0  3  0  0  0  0  0  0  0  0  0
   -8.2150    4.4160    0.0000 N   0  0  0  0  0  0  0  0  0  0  0  0
   -9.5030    3.6480    0.0000 C   0  0  0  0  0  0  0  0  0  0  0  0
  -10.8120    4.3800    0.0000 O   0  0  0  0  0  0  0  0  0  0  0  0
   -9.4820    2.1480    0.0000 C   0  0  3  0  0  0  0  0  0  0  0  0
   -8.1730    1.4160    0.0000 N   0  0  0  0  0  0  0  0  0  0  0  0
   -8.1520   -0.0840    0.0000 C   0  0  0  0  0  0  0  0  0  0  0  0
   -6.8430   -0.8160    0.0000 O   0  5  0  0  0  0  0  0  0  0  0  0
   -9.4400   -0.8520    0.0000 C   0  0  0  0  0  0  0  0  0  0  0  0
  -10.7710    1.3800    0.0000 C   0  0  0  0  0  0  0  0  0  0  0  0
  -12.0800    2.1120    0.0000 C   0  0  0  0  0  0  0  0  0  0  0  0
  -13.3690    1.3440    0.0000 C   0  0  0  0  0  0  0  0  0  0  0  0
  -14.6780    2.0760    0.0000 C   0  0  0  0  0  0  0  0  0  0  0  0
  -14.6990    3.5750    0.0000 C   0  0  0  0  0  0  0  0  0  0  0  0
  -13.4100    4.3430    0.0000 C   0  0  0  0  0  0  0  0  0  0  0  0
  -12.1010    3.6120    0.0000 C   0  0  0  0  0  0  0  0  0  0  0  0
   -5.6170    4.4520    0.0000 C   0  0  0  0  0  0  0  0  0  0  0  0
   -4.3070    3.7200    0.0000 O   0  0  0  0  0  0  0  0  0  0  0  0
   -5.6380    5.9520    0.0000 N   0  0  0  0  0  0  0  0  0  0  0  0
   -4.3490    6.7200    0.0000 C   0  0  3  0  0  0  0  0  0  0  0  0
   -3.0400    5.9880    0.0000 C   0  0  0  0  0  0  0  0  0  0  0  0
   -3.0190    4.4880    0.0000 O   0  0  0  0  0  0  0  0  0  0  0  0
   -1.7510    6.7560    0.0000 N   0  0  0  0  0  0  0  0  0  0  0  0
   -1.7720    8.2560    0.0000 C   0  0  3  0  0  0  0  0  0  0  0  0
   -0.4840    9.0240    0.0000 C   0  0  0  0  0  0  0  0  0  0  0  0
   -0.5050   10.5240    0.0000 O   0  0  0  0  0  0  0  0  0  0  0  0
    0.8260    8.2920    0.0000 N   0  0  0  0  0  0  0  0  0  0  0  0
    0.8460    6.7920    0.0000 C   0  0  3  0  0  0  0  0  0  0  0  0
    2.1560    6.0600    0.0000 C   0  0  0  0  0  0  0  0  0  0  0  0
    2.1770    4.5610    0.0000 O   0  5  0  0  0  0  0  0  0  0  0  0
    3.4440    6.8280    0.0000 N   0  0  0  0  0  0  0  0  0  0  0  0
    4.7540    6.0970    0.0000 C   0  0  3  0  0  0  0  0  0  0  0  0
    6.0420    6.8650    0.0000 C   0  0  0  0  0  0  0  0  0  0  0  0
    5.3890    8.2150    0.0000 O   0  0  0  0  0  0  0  0  0  0  0  0
    7.3510    6.1330    0.0000 N   0  0  0  0  0  0  0  0  0  0  0  0
    8.3320    4.9970    0.0000 C   0  0  3  0  0  0  0  0  0  0  0  0
   10.1320    5.8680    0.0000 C   0  0  0  0  0  0  0  0  0  0  0  0
   10.2420    7.3640    0.0000 O   0  0  0  0  0  0  0  0  0  0  0  0
   11.3730    5.0240    0.0000 N   0  0  0  0  0  0  0  0  0  0  0  0
   11.2630    3.5280    0.0000 C   0  0  3  0  0  0  0  0  0  0  0  0
    9.9120    2.8760    0.0000 C   0  0  3  0  0  0  0  0  0  0  0  0
    9.8020    1.3800    0.0000 O   0  0  0  0  0  0  0  0  0  0  0  0
    8.6720    3.7190    0.0000 C   0  0  0  0  0  0  0  0  0  0  0  0
   12.5030    2.6850    0.0000 C   0  0  0  0  0  0  0  0  0  0  0  0
   13.8540    3.3380    0.0000 O   0  0  0  0  0  0  0  0  0  0  0  0
    8.2220    3.5010    0.0000 C   0  0  0  0  0  0  0  0  0  0  0  0
    6.8710    2.8480    0.0000 S   0  0  0  0  0  0  0  0  0  0  0  0
    4.7750    4.5970    0.0000 C   0  0  3  0  0  0  0  0  0  0  0  0
    6.0840    3.8650    0.0000 O   0  0  0  0  0  0  0  0  0  0  0  0
    3.4860    3.8290    0.0000 C   0  0  0  0  0  0  0  0  0  0  0  0
   -0.4420    6.0240    0.0000 C   0  0  0  0  0  0  0  0  0  0  0  0
   -0.4210    4.5240    0.0000 C   0  0  0  0  0  0  0  0  0  0  0  0
    0.8880    3.7930    0.0000 C   0  0  0  0  0  0  0  0  0  0  0  0
    0.9090    2.2930    0.0000 C   0  0  0  0  0  0  0  0  0  0  0  0
   -0.3790    1.5250    0.0000 N   0  0  0  0  0  0  0  0  0  0  0  0
   -3.0820    8.9880    0.0000 C   0  0  0  0  0  0  0  0  0  0  0  0
   -3.1030   10.4880    0.0000 C   0  0  0  0  0  0  0  0  0  0  0  0
   -1.9010   11.3860    0.0000 C   0  0  0  0  0  0  0  0  0  0  0  0
   -2.3850   12.8060    0.0000 C   0  0  0  0  0  0  0  0  0  0  0  0
   -3.8850   12.7850    0.0000 N   0  0  0  0  0  0  0  0  0  0  0  0
   -4.3280   11.3520    0.0000 C   0  0  0  0  0  0  0  0  0  0  0  0
   -1.3970   13.9350    0.0000 C   0  0  0  0  0  0  0  0  0  0  0  0
    0.0750   13.6430    0.0000 C   0  0  0  0  0  0  0  0  0  0  0  0
    0.5580   12.2230    0.0000 C   0  0  0  0  0  0  0  0  0  0  0  0
   -0.4300   11.0950    0.0000 C   0  0  0  0  0  0  0  0  0  0  0  0
   -4.3700    8.2200    0.0000 C   0  0  0  0  0  0  0  0  0  0  0  0
   -5.6790    8.9520    0.0000 C   0  0  0  0  0  0  0  0  0  0  0  0
   -6.9680    8.1840    0.0000 C   0  0  0  0  0  0  0  0  0  0  0  0
   -8.2770    8.9150    0.0000 C   0  0  0  0  0  0  0  0  0  0  0  0
   -8.2980   10.4150    0.0000 C   0  0  0  0  0  0  0  0  0  0  0  0
   -7.0100   11.1830    0.0000 C   0  0  0  0  0  0  0  0  0  0  0  0
   -5.7000   10.4510    0.0000 C   0  0  0  0  0  0  0  0  0  0  0  0
  1  2  1  0  0  0  0
  2  3  1  0  0  0  0
  3  4  1  0  0  0  0
  3 19  1  0  0  0  0
  4  5  2  0  0  0  0
  5  6  1  0  0  0  0
  5  7  1  0  0  0  0
  7  8  1  0  0  0  0
  7 12  1  0  0  0  0
  8  9  2  0  0  0  0
  9 10  1  0  0  0  0
  9 11  1  0  0  0  0
 12 13  1  0  0  0  0
 13 14  1  0  0  0  0
 13 18  2  0  0  0  0
 14 15  2  0  0  0  0
 15 16  1  0  0  0  0
 16 17  2  0  0  0  0
 17 18  1  0  0  0  0
 19 20  1  0  0  0  0
 19 21  2  0  0  0  0
 21 22  1  0  0  0  0
 22 23  1  0  0  0  0
 22 68  1  0  0  0  0
 23 24  1  0  0  0  0
 23 25  2  0  0  0  0
 25 26  1  0  0  0  0
 26 27  1  0  0  0  0
 26 58  1  0  0  0  0
 27 28  1  0  0  0  0
 27 29  2  0  0  0  0
 29 30  1  0  0  0  0
 30 31  1  0  0  0  0
 30 53  1  0  0  0  0
 31 32  1  0  0  0  0
 31 33  2  0  0  0  0
 33 34  1  0  0  0  0
 34 35  1  0  0  0  0
 34 50  1  0  0  0  0
 35 36  1  0  0  0  0
 35 37  2  0  0  0  0
 37 38  1  0  0  0  0
 38 39  1  0  0  0  0
 38 48  1  0  0  0  0
 39 40  1  0  0  0  0
 39 41  2  0  0  0  0
 41 42  1  0  0  0  0
 42 43  1  0  0  0  0
 42 46  1  0  0  0  0
 43 44  1  0  0  0  0
 43 45  1  0  0  0  0
 46 47  1  0  0  0  0
 48 49  1  0  0  0  0
 50 51  1  0  0  0  0
 50 52  1  0  0  0  0
 53 54  1  0  0  0  0
 54 55  1  0  0  0  0
 55 56  1  0  0  0  0
 56 57  1  0  0  0  0
 58 59  1  0  0  0  0
 59 60  1  0  0  0  0
 59 63  2  0  0  0  0
 60 61  2  0  0  0  0
 60 67  1  0  0  0  0
 61 62  1  0  0  0  0
 61 64  1  0  0  0  0
 62 63  1  0  0  0  0
 64 65  2  0  0  0  0
 65 66  1  0  0  0  0
 66 67  2  0  0  0  0
 68 69  1  0  0  0  0
 69 70  1  0  0  0  0
 69 74  2  0  0  0  0
 70 71  2  0  0  0  0
 71 72  1  0  0  0  0
 72 73  2  0  0  0  0
 73 74  1  0  0  0  0
M  CHG  1  10  -1
M  CHG  1  32  -1
M  END
>  <name>
[S;disulfide]CC(/N=C(/O)\C(/N=C(/[O-])\[C;amine])Cc1ccccc1)/C(/O)=N/C(/C(/O)=N\C(/C(/O)=N\C(/C(/[O-])=N/C(/C(/O)=N\C(/C(/O)=N\C(C(O)C)CO)C[S;disulfide])C(O)C)CCCCN)Cc1c2c([nH]c1)cccc2)Cc1ccccc1

>  <apo>
3

>  <freq>
1

>  <freq0>
0

>  <freq1>
1

>  <freqA>
0.99887151

>  <a_count>
142

$$$$

  MOE2015           2D

 65 69  0  0  1  0  0  0  0  0999 V2000
   -5.6240    1.7860    0.0000 Co  0  3  0  0  0  0  0  0  0  0  0  0
   -6.8490    2.6520    0.0000 C   0  0  0  0  0  0  0  0  0  0  0  0
   -8.0740    3.5170    0.0000 N   0  0  0  0  0  0  0  0  0  0  0  0
   -4.3990    0.9210    0.0000 N   0  0  0  0  0  0  0  0  0  0  0  0
   -4.3610    2.4830    0.0000 C   0  0  2  0  0  0  0  0  0  0  0  0
   -4.6660    3.9520    0.0000 C   0  0  0  0  0  0  0  0  0  0  0  0
   -5.8370    2.8460    0.0000 C   0  0  2  0  0  0  0  0  0  0  0  0
   -7.0260    3.7600    0.0000 C   0  0  0  0  0  0  0  0  0  0  0  0
   -6.8280    5.2470    0.0000 C   0  0  0  0  0  0  0  0  0  0  0  0
   -8.0170    6.1620    0.0000 O   0  0  0  0  0  0  0  0  0  0  0  0
   -5.4420    5.8190    0.0000 N   0  0  0  0  0  0  0  0  0  0  0  0
   -5.6020    4.3270    0.0000 C   0  0  0  0  0  0  0  0  0  0  0  0
   -6.7040    1.6260    0.0000 C   0  0  2  0  0  0  0  0  0  0  0  0
   -8.2030    1.6500    0.0000 C   0  0  0  0  0  0  0  0  0  0  0  0
   -8.9750    0.3640    0.0000 C   0  0  0  0  0  0  0  0  0  0  0  0
  -10.4740    0.3880    0.0000 C   0  0  0  0  0  0  0  0  0  0  0  0
  -11.2460   -0.8980    0.0000 O   0  0  0  0  0  0  0  0  0  0  0  0
  -11.2030    1.6990    0.0000 N   0  0  0  0  0  0  0  0  0  0  0  0
   -5.8660    0.3600    0.0000 C   0  0  0  0  0  0  0  0  0  0  0  0
   -6.1880   -1.2940    0.0000 C   0  0  0  0  0  0  0  0  0  0  0  0
   -7.5740   -1.8660    0.0000 C   0  0  0  0  0  0  0  0  0  0  0  0
   -4.7940   -2.2410    0.0000 C   0  0  0  0  0  0  0  0  0  0  0  0
   -3.6950   -3.3950    0.0000 C   0  0  2  0  0  0  0  0  0  0  0  0
   -4.5070   -4.6560    0.0000 C   0  0  0  0  0  0  0  0  0  0  0  0
   -6.0060   -4.5830    0.0000 C   0  0  0  0  0  0  0  0  0  0  0  0
   -6.8180   -5.8440    0.0000 O   0  0  0  0  0  0  0  0  0  0  0  0
   -6.6910   -3.2490    0.0000 N   0  0  0  0  0  0  0  0  0  0  0  0
   -2.8090   -4.6050    0.0000 C   0  0  0  0  0  0  0  0  0  0  0  0
   -2.6240   -2.1310    0.0000 C   0  0  2  0  0  0  0  0  0  0  0  0
   -1.3460   -2.9170    0.0000 C   0  0  0  0  0  0  0  0  0  0  0  0
   -1.3880   -4.4170    0.0000 C   0  0  0  0  0  0  0  0  0  0  0  0
   -0.1100   -5.2020    0.0000 C   0  0  0  0  0  0  0  0  0  0  0  0
   -0.1520   -6.7020    0.0000 O   0  0  0  0  0  0  0  0  0  0  0  0
    1.2090   -4.4890    0.0000 N   0  0  0  0  0  0  0  0  0  0  0  0
   -2.0410   -0.7500    0.0000 C   0  0  0  0  0  0  0  0  0  0  0  0
   -3.3930   -1.4010    0.0000 N   0  0  0  0  0  0  0  0  0  0  0  0
   -1.0030   -1.8310    0.0000 C   0  0  0  0  0  0  0  0  0  0  0  0
    0.0410   -0.7560    0.0000 C   0  0  0  0  0  0  0  0  0  0  0  0
    1.5760   -0.8720    0.0000 C   0  0  0  0  0  0  0  0  0  0  0  0
    2.9070   -1.5630    0.0000 C   0  0  0  0  0  0  0  0  0  0  0  0
    1.5990   -2.3710    0.0000 C   0  0  0  0  0  0  0  0  0  0  0  0
    2.2160    0.4990    0.0000 C   0  0  2  0  0  0  0  0  0  0  0  0
    3.6960    0.7430    0.0000 C   0  0  0  0  0  0  0  0  0  0  0  0
    4.6470   -0.4170    0.0000 C   0  0  0  0  0  0  0  0  0  0  0  0
    6.1270   -0.1730    0.0000 C   0  0  0  0  0  0  0  0  0  0  0  0
    7.0780   -1.3330    0.0000 O   0  0  0  0  0  0  0  0  0  0  0  0
    6.6560    1.2310    0.0000 N   0  0  0  0  0  0  0  0  0  0  0  0
    1.1640    1.5990    0.0000 C   0  0  0  0  0  0  0  0  0  0  0  0
    1.1660    3.2760    0.0000 C   0  0  0  0  0  0  0  0  0  0  0  0
    2.3960    4.1350    0.0000 C   0  0  0  0  0  0  0  0  0  0  0  0
   -0.4180    3.8560    0.0000 C   0  0  0  0  0  0  0  0  0  0  0  0
   -1.2090    5.1360    0.0000 C   0  0  1  0  0  0  0  0  0  0  0  0
    0.0100    6.0100    0.0000 C   0  0  0  0  0  0  0  0  0  0  0  0
   -0.1380    7.5030    0.0000 C   0  0  0  0  0  0  0  0  0  0  0  0
    1.0810    8.3770    0.0000 C   0  0  0  0  0  0  0  0  0  0  0  0
    0.9330    9.8700    0.0000 O   0  0  0  0  0  0  0  0  0  0  0  0
   -1.4110    6.6220    0.0000 C   0  0  0  0  0  0  0  0  0  0  0  0
   -2.6670    4.8550    0.0000 C   0  0  1  0  0  0  0  0  0  0  0  0
   -3.7250    5.9190    0.0000 C   0  0  0  0  0  0  0  0  0  0  0  0
   -3.3340    7.3670    0.0000 C   0  0  0  0  0  0  0  0  0  0  0  0
   -1.8840    7.7510    0.0000 O   0  0  0  0  0  0  0  0  0  0  0  0
   -4.3920    8.4300    0.0000 N   0  0  0  0  0  0  0  0  0  0  0  0
   -2.9600    3.3760    0.0000 C   0  0  1  0  0  0  0  0  0  0  0  0
   -1.5440    2.7610    0.0000 N   0  0  0  0  0  0  0  0  0  0  0  0
   -0.2010    0.7690    0.0000 N   0  0  0  0  0  0  0  0  0  0  0  0
  1  2  1  0  0  0  0
  1  4  1  0  0  0  0
  2  3  3  0  0  0  0
  4  5  1  0  0  0  0
  4 19  1  0  0  0  0
  5  6  1  1  0  0  0
  5  7  1  0  0  0  0
  5 63  1  0  0  0  0
  7  8  1  6  0  0  0
  7 12  1  1  0  0  0
  7 13  1  0  0  0  0
  8  9  1  0  0  0  0
  9 10  2  0  0  0  0
  9 11  1  0  0  0  0
 13 14  1  1  0  0  0
 13 19  1  0  0  0  0
 14 15  1  0  0  0  0
 15 16  1  0  0  0  0
 16 17  2  0  0  0  0
 16 18  1  0  0  0  0
 19 20  2  0  0  0  0
 20 21  1  0  0  0  0
 20 22  1  0  0  0  0
 22 23  1  0  0  0  0
 22 36  2  0  0  0  0
 23 24  1  6  0  0  0
 23 28  1  1  0  0  0
 23 29  1  0  0  0  0
 24 25  1  0  0  0  0
 25 26  2  0  0  0  0
 25 27  1  0  0  0  0
 29 30  1  1  0  0  0
 29 35  1  0  0  0  0
 30 31  1  0  0  0  0
 31 32  1  0  0  0  0
 32 33  2  0  0  0  0
 32 34  1  0  0  0  0
 35 36  1  0  0  0  0
 35 37  2  0  0  0  0
 37 38  1  0  0  0  0
 38 39  1  0  0  0  0
 38 65  2  0  0  0  0
 39 40  1  0  0  0  0
 39 41  1  0  0  0  0
 39 42  1  0  0  0  0
 42 43  1  1  0  0  0
 42 48  1  0  0  0  0
 43 44  1  0  0  0  0
 44 45  1  0  0  0  0
 45 46  2  0  0  0  0
 45 47  1  0  0  0  0
 48 49  2  0  0  0  0
 48 65  1  0  0  0  0
 49 50  1  0  0  0  0
 49 51  1  0  0  0  0
 51 52  1  0  0  0  0
 51 64  2  0  0  0  0
 52 53  1  1  0  0  0
 52 57  1  6  0  0  0
 52 58  1  0  0  0  0
 53 54  1  0  0  0  0
 54 55  1  0  0  0  0
 55 56  2  0  0  0  0
 58 59  1  6  0  0  0
 58 63  1  0  0  0  0
 59 60  1  0  0  0  0
 60 61  2  0  0  0  0
 60 62  1  0  0  0  0
 63 64  1  1  0  0  0
M  CHG  1   1   1
M  END
>  <name>
[Co+](C#N)N/1[C@]2(C)[C@](CC(=O)N)(C)[C@H](CCC(=O)N)\C\1=C(/C)\C=1[C@](CC(=O)N)(C)[C@H](CCC(=O)N)/C(/N=1)=C\C=1C(C)(C)[C@H](CCC(=O)N)/C(=C(\C)/C=3[C@@](CC[C;amide]=O)(C)[C@@H](CC(=O)N)[C@H]2N=3)/N=1

>  <apo>
1

>  <freq>
1

>  <freq0>
0

>  <freq1>
1

>  <freqA>
0.99887151

>  <a_count>
130

$$$$

  MOE2015           2D

 56 63  0  0  1  0  0  0  0  0999 V2000
    2.0070    0.7500    0.0000 O   0  0  0  0  0  0  0  0  0  0  0  0
    3.1490    1.7230    0.0000 C   0  0  0  0  0  0  0  0  0  0  0  0
    4.5630    1.2210    0.0000 O   0  0  0  0  0  0  0  0  0  0  0  0
    4.8340   -0.2550    0.0000 C   0  0  0  0  0  0  0  0  0  0  0  0
    2.5050    3.0780    0.0000 C   0  0  2  0  0  0  0  0  0  0  0  0
    3.8600    3.7220    0.0000 C   0  0  0  0  0  0  0  0  0  0  0  0
    5.0950    2.8710    0.0000 C   0  0  2  0  0  0  0  0  0  0  0  0
    6.3170    3.7400    0.0000 C   0  0  0  0  0  0  0  0  0  0  0  0
    7.6820    3.1160    0.0000 C   0  0  1  0  0  0  0  0  0  0  0  0
    8.3050    4.4800    0.0000 O   0  0  0  0  0  0  0  0  0  0  0  0
    9.1750    3.2580    0.0000 C   0  0  0  0  0  0  0  0  0  0  0  0
   10.0440    2.0360    0.0000 C   0  0  0  0  0  0  0  0  0  0  0  0
    7.8230    1.6230    0.0000 C   0  0  0  0  0  0  0  0  0  0  0  0
    6.6010    0.7530    0.0000 N   0  0  0  0  0  0  0  0  0  0  0  0
    5.2370    1.3770    0.0000 C   0  0  0  0  0  0  0  0  0  0  0  0
    1.8610    4.4330    0.0000 C   0  0  0  0  0  0  0  0  0  0  0  0
    2.5790    5.7500    0.0000 C   0  0  0  0  0  0  0  0  0  0  0  0
    4.0660    5.9440    0.0000 C   0  0  0  0  0  0  0  0  0  0  0  0
    4.6420    7.3290    0.0000 C   0  0  0  0  0  0  0  0  0  0  0  0
    1.5480    6.8390    0.0000 C   0  0  0  0  0  0  0  0  0  0  0  0
    0.1930    6.1950    0.0000 C   0  0  0  0  0  0  0  0  0  0  0  0
    0.3870    4.7080    0.0000 N   0  0  0  0  0  0  0  0  0  0  0  0
   -1.0420    7.0460    0.0000 C   0  0  0  0  0  0  0  0  0  0  0  0
   -0.9220    8.5420    0.0000 C   0  0  0  0  0  0  0  0  0  0  0  0
    0.4320    9.1860    0.0000 C   0  0  0  0  0  0  0  0  0  0  0  0
    1.6670    8.3340    0.0000 C   0  0  0  0  0  0  0  0  0  0  0  0
    1.1510    2.4340    0.0000 C   0  0  0  0  0  0  0  0  0  0  0  0
    1.2920    0.9410    0.0000 C   0  0  0  0  0  0  0  0  0  0  0  0
    2.6570    0.3170    0.0000 O   0  0  0  0  0  0  0  0  0  0  0  0
    2.7980   -1.1770    0.0000 C   0  0  0  0  0  0  0  0  0  0  0  0
    0.0700    0.0710    0.0000 C   0  0  0  0  0  0  0  0  0  0  0  0
   -1.2940    0.6960    0.0000 C   0  0  0  0  0  0  0  0  0  0  0  0
   -2.6690    0.1000    0.0000 N   0  0  0  0  0  0  0  0  0  0  0  0
   -2.9920   -1.3650    0.0000 C   0  0  0  0  0  0  0  0  0  0  0  0
   -3.6660    1.2180    0.0000 C   0  0  1  0  0  0  0  0  0  0  0  0
   -5.1680    1.2300    0.0000 C   0  0  1  0  0  0  0  0  0  0  0  0
   -5.2640   -0.2670    0.0000 O   0  0  0  0  0  0  0  0  0  0  0  0
   -6.4980    0.5370    0.0000 C   0  0  0  0  0  0  0  0  0  0  0  0
   -6.5630   -0.9620    0.0000 O   0  0  0  0  0  0  0  0  0  0  0  0
   -7.7640    1.3420    0.0000 O   0  0  0  0  0  0  0  0  0  0  0  0
   -9.0940    0.6490    0.0000 C   0  0  0  0  0  0  0  0  0  0  0  0
   -5.9020    2.5390    0.0000 C   0  0  2  0  0  0  0  0  0  0  0  0
   -7.4020    2.5530    0.0000 O   0  0  0  0  0  0  0  0  0  0  0  0
   -5.1370    3.8450    0.0000 C   0  0  1  0  0  0  0  0  0  0  0  0
   -6.6350    3.9250    0.0000 C   0  0  0  0  0  0  0  0  0  0  0  0
   -7.3140    5.2620    0.0000 C   0  0  0  0  0  0  0  0  0  0  0  0
   -3.6490    3.7910    0.0000 C   0  0  2  0  0  0  0  0  0  0  0  0
   -2.8060    5.0010    0.0000 N   0  0  0  0  0  0  0  0  0  0  0  0
   -3.4800    6.3580    0.0000 C   0  0  0  0  0  0  0  0  0  0  0  0
   -4.9770    6.4540    0.0000 C   0  0  0  0  0  0  0  0  0  0  0  0
   -5.8060    5.2020    0.0000 C   0  0  0  0  0  0  0  0  0  0  0  0
   -1.3810    4.4610    0.0000 C   0  0  0  0  0  0  0  0  0  0  0  0
   -1.4350    2.9580    0.0000 C   0  0  0  0  0  0  0  0  0  0  0  0
   -2.8950    2.5220    0.0000 C   0  0  2  0  0  0  0  0  0  0  0  0
   -1.4360    2.1880    0.0000 C   0  0  0  0  0  0  0  0  0  0  0  0
   -0.2130    3.0580    0.0000 C   0  0  0  0  0  0  0  0  0  0  0  0
  1  2  2  0  0  0  0
  2  3  1  0  0  0  0
  5  2  1  1  0  0  0
  3  4  1  0  0  0  0
  5  6  1  0  0  0  0
  5 16  1  0  0  0  0
  5 27  1  6  0  0  0
  7  6  1  6  0  0  0
  7  8  1  0  0  0  0
  7 15  1  0  0  0  0
  8  9  1  0  0  0  0
  9 10  1  6  0  0  0
  9 11  1  1  0  0  0
  9 13  1  0  0  0  0
 11 12  1  0  0  0  0
 13 14  1  0  0  0  0
 14 15  1  0  0  0  0
 16 17  2  0  0  0  0
 16 22  1  0  0  0  0
 17 18  1  0  0  0  0
 17 20  1  0  0  0  0
 18 19  1  0  0  0  0
 20 21  2  0  0  0  0
 20 26  1  0  0  0  0
 21 22  1  0  0  0  0
 21 23  1  0  0  0  0
 23 24  2  0  0  0  0
 24 25  1  0  0  0  0
 25 26  2  0  0  0  0
 27 28  1  0  0  0  0
 27 56  2  0  0  0  0
 28 29  1  0  0  0  0
 28 31  2  0  0  0  0
 29 30  1  0  0  0  0
 31 32  1  0  0  0  0
 32 33  1  0  0  0  0
 32 55  2  0  0  0  0
 33 34  1  0  0  0  0
 35 33  1  1  0  0  0
 35 36  1  0  0  0  0
 35 54  1  0  0  0  0
 36 37  1  6  0  0  0
 36 38  1  1  0  0  0
 36 42  1  0  0  0  0
 38 39  2  0  0  0  0
 38 40  1  0  0  0  0
 40 41  1  0  0  0  0
 42 43  1  6  0  0  0
 42 44  1  0  0  0  0
 44 45  1  1  0  0  0
 44 47  1  0  0  0  0
 44 51  1  0  0  0  0
 45 46  1  0  0  0  0
 47 48  1  6  0  0  0
 54 47  1  1  0  0  0
 48 49  1  0  0  0  0
 48 52  1  0  0  0  0
 49 50  1  0  0  0  0
 50 51  2  0  0  0  0
 52 53  1  0  0  0  0
 54 53  1  6  0  0  0
 54 55  1  0  0  0  0
 55 56  1  0  0  0  0
M  END
>  <name>
O=C(OC)[C@](C[C@@H]1C[C@@](O)(CC)C[N;amine]C1)(c1c(C[C;amine])c2c([nH]1)cccc2)c1c(OC)cc2N(C)[C@H]3[C@@](O)(C(=O)OC)[C@H]([O;ester])[C@@]4(CC)[C@@H]5N(CC=C4)CC[C@]35c2c1

>  <apo>
3

>  <freq>
1

>  <freq0>
0

>  <freq1>
1

>  <freqA>
0.99887151

>  <a_count>
114

$$$$

  MOE2015           2D

 57 64  0  0  1  0  0  0  0  0999 V2000
    0.9230   -1.3740    0.0000 O   0  0  0  0  0  0  0  0  0  0  0  0
    2.3410   -0.8860    0.0000 C   0  0  0  0  0  0  0  0  0  0  0  0
    3.4730   -1.8710    0.0000 O   0  0  0  0  0  0  0  0  0  0  0  0
    3.1860   -3.3430    0.0000 C   0  0  0  0  0  0  0  0  0  0  0  0
    2.6280    0.5860    0.0000 C   0  0  2  0  0  0  0  0  0  0  0  0
    3.2870    1.9340    0.0000 C   0  0  0  0  0  0  0  0  0  0  0  0
    2.4490    3.1780    0.0000 C   0  0  2  0  0  0  0  0  0  0  0  0
    0.9570    3.3360    0.0000 C   0  0  0  0  0  0  0  0  0  0  0  0
    0.3480    4.7060    0.0000 C   0  0  1  0  0  0  0  0  0  0  0  0
   -1.0230    4.0970    0.0000 O   0  0  0  0  0  0  0  0  0  0  0  0
   -0.8650    5.5890    0.0000 C   0  0  0  0  0  0  0  0  0  0  0  0
   -0.7070    7.0810    0.0000 C   0  0  0  0  0  0  0  0  0  0  0  0
    1.2300    5.9190    0.0000 C   0  0  0  0  0  0  0  0  0  0  0  0
    2.7220    5.7620    0.0000 N   0  0  0  0  0  0  0  0  0  0  0  0
    3.3310    4.3910    0.0000 C   0  0  0  0  0  0  0  0  0  0  0  0
    1.1560    0.8730    0.0000 C   0  0  0  0  0  0  0  0  0  0  0  0
    0.0590   -0.1490    0.0000 C   0  0  0  0  0  0  0  0  0  0  0  0
    0.2400   -1.6380    0.0000 C   0  0  0  0  0  0  0  0  0  0  0  0
   -0.9580   -2.5400    0.0000 C   0  0  0  0  0  0  0  0  0  0  0  0
   -1.2530    0.5790    0.0000 C   0  0  0  0  0  0  0  0  0  0  0  0
   -0.9660    2.0510    0.0000 C   0  0  0  0  0  0  0  0  0  0  0  0
    0.5230    2.2330    0.0000 N   0  0  0  0  0  0  0  0  0  0  0  0
   -2.0970    3.0360    0.0000 C   0  0  0  0  0  0  0  0  0  0  0  0
   -3.5160    2.5490    0.0000 C   0  0  0  0  0  0  0  0  0  0  0  0
   -3.8030    1.0760    0.0000 C   0  0  0  0  0  0  0  0  0  0  0  0
   -2.6720    0.0920    0.0000 C   0  0  0  0  0  0  0  0  0  0  0  0
    4.1010    0.2990    0.0000 C   0  0  0  0  0  0  0  0  0  0  0  0
    4.8270   -1.0130    0.0000 C   0  0  0  0  0  0  0  0  0  0  0  0
    4.5400   -2.4860    0.0000 O   0  0  0  0  0  0  0  0  0  0  0  0
    5.6710   -3.4710    0.0000 C   0  0  0  0  0  0  0  0  0  0  0  0
    6.3270   -1.0410    0.0000 C   0  0  0  0  0  0  0  0  0  0  0  0
    7.1000    0.2460    0.0000 C   0  0  0  0  0  0  0  0  0  0  0  0
    8.5710    0.5310    0.0000 N   0  0  0  0  0  0  0  0  0  0  0  0
    9.6650   -0.4960    0.0000 C   0  0  0  0  0  0  0  0  0  0  0  0
    9.3230   -1.9560    0.0000 O   0  0  0  0  0  0  0  0  0  0  0  0
    8.7620    2.0160    0.0000 C   0  0  1  0  0  0  0  0  0  0  0  0
    9.9950    2.8740    0.0000 C   0  0  1  0  0  0  0  0  0  0  0  0
   11.4840    3.0540    0.0000 O   0  0  0  0  0  0  0  0  0  0  0  0
   10.9200    1.6930    0.0000 C   0  0  0  0  0  0  0  0  0  0  0  0
   10.3590    0.3020    0.0000 O   0  0  0  0  0  0  0  0  0  0  0  0
   12.4050    1.9040    0.0000 O   0  0  0  0  0  0  0  0  0  0  0  0
   13.3300    0.7230    0.0000 C   0  0  0  0  0  0  0  0  0  0  0  0
    9.8610    4.3690    0.0000 C   0  0  2  0  0  0  0  0  0  0  0  0
   11.0910    5.2280    0.0000 O   0  0  0  0  0  0  0  0  0  0  0  0
    8.4930    5.0140    0.0000 C   0  0  1  0  0  0  0  0  0  0  0  0
    9.6830    5.9270    0.0000 C   0  0  0  0  0  0  0  0  0  0  0  0
    9.4890    7.4140    0.0000 C   0  0  0  0  0  0  0  0  0  0  0  0
    7.2960    4.1300    0.0000 C   0  0  2  0  0  0  0  0  0  0  0  0
    5.9160    4.6520    0.0000 N   0  0  0  0  0  0  0  0  0  0  0  0
    5.7060    6.1530    0.0000 C   0  0  0  0  0  0  0  0  0  0  0  0
    6.8870    7.0780    0.0000 C   0  0  0  0  0  0  0  0  0  0  0  0
    8.2780    6.5120    0.0000 C   0  0  0  0  0  0  0  0  0  0  0  0
    5.0450    3.4010    0.0000 C   0  0  0  0  0  0  0  0  0  0  0  0
    5.9380    2.1920    0.0000 C   0  0  0  0  0  0  0  0  0  0  0  0
    7.3900    2.6570    0.0000 C   0  0  2  0  0  0  0  0  0  0  0  0
    6.3740    1.5570    0.0000 C   0  0  0  0  0  0  0  0  0  0  0  0
    4.8740    1.5840    0.0000 C   0  0  0  0  0  0  0  0  0  0  0  0
  1  2  2  0  0  0  0
  2  3  1  0  0  0  0
  5  2  1  1  0  0  0
  3  4  1  0  0  0  0
  5  6  1  0  0  0  0
  5 16  1  0  0  0  0
  5 27  1  6  0  0  0
  7  6  1  6  0  0  0
  7  8  1  0  0  0  0
  7 15  1  0  0  0  0
  8  9  1  0  0  0  0
  9 10  1  6  0  0  0
  9 11  1  1  0  0  0
  9 13  1  0  0  0  0
 11 12  1  0  0  0  0
 13 14  1  0  0  0  0
 14 15  1  0  0  0  0
 16 17  2  0  0  0  0
 16 22  1  0  0  0  0
 17 18  1  0  0  0  0
 17 20  1  0  0  0  0
 18 19  1  0  0  0  0
 20 21  2  0  0  0  0
 20 26  1  0  0  0  0
 21 22  1  0  0  0  0
 21 23  1  0  0  0  0
 23 24  2  0  0  0  0
 24 25  1  0  0  0  0
 25 26  2  0  0  0  0
 27 28  1  0  0  0  0
 27 57  2  0  0  0  0
 28 29  1  0  0  0  0
 28 31  2  0  0  0  0
 29 30  1  0  0  0  0
 31 32  1  0  0  0  0
 32 33  1  0  0  0  0
 32 56  2  0  0  0  0
 33 34  1  0  0  0  0
 36 33  1  6  0  0  0
 34 35  2  0  0  0  0
 36 37  1  0  0  0  0
 36 55  1  0  0  0  0
 37 38  1  1  0  0  0
 37 39  1  6  0  0  0
 37 43  1  0  0  0  0
 39 40  2  0  0  0  0
 39 41  1  0  0  0  0
 41 42  1  0  0  0  0
 43 44  1  1  0  0  0
 43 45  1  0  0  0  0
 45 46  1  6  0  0  0
 45 48  1  0  0  0  0
 45 52  1  0  0  0  0
 46 47  1  0  0  0  0
 48 49  1  1  0  0  0
 55 48  1  6  0  0  0
 49 50  1  0  0  0  0
 49 53  1  0  0  0  0
 50 51  1  0  0  0  0
 51 52  2  0  0  0  0
 53 54  1  0  0  0  0
 55 54  1  1  0  0  0
 55 56  1  0  0  0  0
 56 57  1  0  0  0  0
M  END
>  <name>
O=C(OC)[C@](C[C@@H]1C[C@@](O)(CC)C[N;amine]C1)(c1c(C[C;amine])c2c([nH]1)cccc2)c1c(OC)cc2N(C=O)[C@H]3[C@@](O)(C(=O)OC)[C@H]([O;ester])[C@@]4(CC)[C@@H]5N(CC=C4)CC[C@]35c2c1

>  <apo>
3

>  <freq>
1

>  <freq0>
0

>  <freq1>
1

>  <freqA>
0.99887151

>  <a_count>
113

$$$$

  MOE2015           2D

 55 62  0  0  1  0  0  0  0  0999 V2000
   -1.3300    6.2130    0.0000 O   0  0  0  0  0  0  0  0  0  0  0  0
   -1.4580    4.7190    0.0000 C   0  0  0  0  0  0  0  0  0  0  0  0
   -2.8170    4.0830    0.0000 O   0  0  0  0  0  0  0  0  0  0  0  0
   -4.0470    4.9410    0.0000 C   0  0  0  0  0  0  0  0  0  0  0  0
   -0.2280    3.8600    0.0000 C   0  0  2  0  0  0  0  0  0  0  0  0
    0.6300    5.0900    0.0000 C   0  0  0  0  0  0  0  0  0  0  0  0
    0.3670    6.5670    0.0000 C   0  0  2  0  0  0  0  0  0  0  0  0
    1.5150    7.5330    0.0000 C   0  0  0  0  0  0  0  0  0  0  0  0
    1.2520    9.0100    0.0000 C   0  0  1  0  0  0  0  0  0  0  0  0
    2.7290    9.2730    0.0000 O   0  0  0  0  0  0  0  0  0  0  0  0
    1.7630   10.4200    0.0000 C   0  0  0  0  0  0  0  0  0  0  0  0
    0.7970   11.5680    0.0000 C   0  0  0  0  0  0  0  0  0  0  0  0
   -0.1580    9.5210    0.0000 C   0  0  0  0  0  0  0  0  0  0  0  0
   -1.3060    8.5550    0.0000 N   0  0  0  0  0  0  0  0  0  0  0  0
   -1.0430    7.0780    0.0000 C   0  0  0  0  0  0  0  0  0  0  0  0
   -1.3760    2.8940    0.0000 C   0  0  0  0  0  0  0  0  0  0  0  0
   -2.8670    2.7350    0.0000 C   0  0  0  0  0  0  0  0  0  0  0  0
   -3.8730    3.8480    0.0000 C   0  0  0  0  0  0  0  0  0  0  0  0
   -5.3400    3.5340    0.0000 C   0  0  0  0  0  0  0  0  0  0  0  0
   -3.1770    1.2680    0.0000 C   0  0  0  0  0  0  0  0  0  0  0  0
   -1.8770    0.5200    0.0000 C   0  0  0  0  0  0  0  0  0  0  0  0
   -0.7640    1.5250    0.0000 N   0  0  0  0  0  0  0  0  0  0  0  0
   -1.8740   -0.9800    0.0000 C   0  0  0  0  0  0  0  0  0  0  0  0
   -3.1720   -1.7320    0.0000 C   0  0  0  0  0  0  0  0  0  0  0  0
   -4.4720   -0.9840    0.0000 C   0  0  0  0  0  0  0  0  0  0  0  0
   -4.4750    0.5160    0.0000 C   0  0  0  0  0  0  0  0  0  0  0  0
    1.0020    3.0020    0.0000 C   0  0  0  0  0  0  0  0  0  0  0  0
    0.8730    1.5070    0.0000 C   0  0  0  0  0  0  0  0  0  0  0  0
   -0.4850    0.8710    0.0000 O   0  0  0  0  0  0  0  0  0  0  0  0
   -0.6130   -0.6230    0.0000 C   0  0  0  0  0  0  0  0  0  0  0  0
    2.1040    0.6490    0.0000 C   0  0  0  0  0  0  0  0  0  0  0  0
    3.4620    1.2860    0.0000 C   0  0  0  0  0  0  0  0  0  0  0  0
    4.8430    0.7030    0.0000 N   0  0  0  0  0  0  0  0  0  0  0  0
    5.1790   -0.7590    0.0000 C   0  0  0  0  0  0  0  0  0  0  0  0
    5.8290    1.8290    0.0000 C   0  0  1  0  0  0  0  0  0  0  0  0
    7.3310    1.8550    0.0000 C   0  0  1  0  0  0  0  0  0  0  0  0
    7.4410    0.3590    0.0000 O   0  0  0  0  0  0  0  0  0  0  0  0
    8.6670    1.1740    0.0000 C   0  0  0  0  0  0  0  0  0  0  0  0
    9.9250    1.9910    0.0000 O   0  0  0  0  0  0  0  0  0  0  0  0
    8.7460   -0.3240    0.0000 N   0  0  0  0  0  0  0  0  0  0  0  0
    8.0530    3.1710    0.0000 C   0  0  2  0  0  0  0  0  0  0  0  0
    9.5530    3.1980    0.0000 O   0  0  0  0  0  0  0  0  0  0  0  0
    7.2770    4.4690    0.0000 C   0  0  1  0  0  0  0  0  0  0  0  0
    8.7740    4.5630    0.0000 C   0  0  0  0  0  0  0  0  0  0  0  0
    9.4410    5.9070    0.0000 C   0  0  0  0  0  0  0  0  0  0  0  0
    5.7900    4.4020    0.0000 C   0  0  2  0  0  0  0  0  0  0  0  0
    4.9350    5.6050    0.0000 N   0  0  0  0  0  0  0  0  0  0  0  0
    5.5970    6.9680    0.0000 C   0  0  0  0  0  0  0  0  0  0  0  0
    7.0940    7.0770    0.0000 C   0  0  0  0  0  0  0  0  0  0  0  0
    7.9330    5.8320    0.0000 C   0  0  0  0  0  0  0  0  0  0  0  0
    3.5150    5.0510    0.0000 C   0  0  0  0  0  0  0  0  0  0  0  0
    3.5820    3.5490    0.0000 C   0  0  0  0  0  0  0  0  0  0  0  0
    5.0470    3.1260    0.0000 C   0  0  2  0  0  0  0  0  0  0  0  0
    3.5900    2.7800    0.0000 C   0  0  0  0  0  0  0  0  0  0  0  0
    2.3600    3.6380    0.0000 C   0  0  0  0  0  0  0  0  0  0  0  0
  1  2  2  0  0  0  0
  2  3  1  0  0  0  0
  5  2  1  1  0  0  0
  3  4  1  0  0  0  0
  5  6  1  0  0  0  0
  5 16  1  6  0  0  0
  5 27  1  0  0  0  0
  7  6  1  1  0  0  0
  7  8  1  0  0  0  0
  7 15  1  0  0  0  0
  8  9  1  0  0  0  0
  9 10  1  1  0  0  0
  9 11  1  6  0  0  0
  9 13  1  0  0  0  0
 11 12  1  0  0  0  0
 13 14  1  0  0  0  0
 14 15  1  0  0  0  0
 16 17  2  0  0  0  0
 16 22  1  0  0  0  0
 17 18  1  0  0  0  0
 17 20  1  0  0  0  0
 18 19  1  0  0  0  0
 20 21  2  0  0  0  0
 20 26  1  0  0  0  0
 21 22  1  0  0  0  0
 21 23  1  0  0  0  0
 23 24  2  0  0  0  0
 24 25  1  0  0  0  0
 25 26  2  0  0  0  0
 27 28  1  0  0  0  0
 27 55  2  0  0  0  0
 28 29  1  0  0  0  0
 28 31  2  0  0  0  0
 29 30  1  0  0  0  0
 31 32  1  0  0  0  0
 32 33  1  0  0  0  0
 32 54  2  0  0  0  0
 33 34  1  0  0  0  0
 35 33  1  6  0  0  0
 35 36  1  0  0  0  0
 35 53  1  0  0  0  0
 36 37  1  1  0  0  0
 36 38  1  6  0  0  0
 36 41  1  0  0  0  0
 38 39  2  0  0  0  0
 38 40  1  0  0  0  0
 41 42  1  1  0  0  0
 41 43  1  0  0  0  0
 43 44  1  6  0  0  0
 43 46  1  0  0  0  0
 43 50  1  0  0  0  0
 44 45  1  0  0  0  0
 46 47  1  1  0  0  0
 53 46  1  6  0  0  0
 47 48  1  0  0  0  0
 47 51  1  0  0  0  0
 48 49  1  0  0  0  0
 49 50  2  0  0  0  0
 51 52  1  0  0  0  0
 53 52  1  1  0  0  0
 53 54  1  0  0  0  0
 54 55  1  0  0  0  0
M  END
>  <name>
O=C(OC)[C@](C[C@@H]1C[C@@](O)(CC)C[N;amine]C1)(c1c(C[C;amine])c2c([nH]1)cccc2)c1c(OC)cc2N(C)[C@H]3[C@@](O)(C(=O)N)[C@H](O)[C@@]4(CC)[C@@H]5N(CC=C4)CC[C@]35c2c1

>  <apo>
2

>  <freq>
1

>  <freq0>
0

>  <freq1>
1

>  <freqA>
0.99887151

>  <a_count>
112

$$$$

  MOE2015           2D

 56 64  0  0  1  0  0  0  0  0999 V2000
    1.2320    6.5300    0.0000 F   0  0  0  0  0  0  0  0  0  0  0  0
    2.0660    5.2830    0.0000 C   0  0  0  0  0  0  0  0  0  0  0  0
    0.5690    5.1850    0.0000 F   0  0  0  0  0  0  0  0  0  0  0  0
    3.3130    6.1170    0.0000 C   0  0  0  0  0  0  0  0  0  0  0  0
    2.1640    3.7860    0.0000 C   0  0  1  0  0  0  0  0  0  0  0  0
    0.9570    2.9770    0.0000 C   0  0  0  0  0  0  0  0  0  0  0  0
    1.0280    1.5210    0.0000 N   0  0  1  0  0  0  0  0  0  0  0  0
    2.3540    0.8930    0.0000 C   0  0  0  0  0  0  0  0  0  0  0  0
    3.5880    1.6860    0.0000 C   0  0  1  0  0  0  0  0  0  0  0  0
    3.4670    3.1420    0.0000 C   0  0  0  0  0  0  0  0  0  0  0  0
    4.7040    0.4970    0.0000 C   0  0  0  0  0  0  0  0  0  0  0  0
    3.8820   -0.8470    0.0000 C   0  0  2  0  0  0  0  0  0  0  0  0
    4.5470   -2.1920    0.0000 C   0  0  0  0  0  0  0  0  0  0  0  0
    3.7150   -3.4400    0.0000 O   0  0  0  0  0  0  0  0  0  0  0  0
    6.0440   -2.2880    0.0000 O   0  0  0  0  0  0  0  0  0  0  0  0
    6.7090   -3.6330    0.0000 C   0  0  0  0  0  0  0  0  0  0  0  0
    7.2330   -1.8580    0.0000 C   0  0  0  0  0  0  0  0  0  0  0  0
    7.8240   -3.2370    0.0000 C   0  0  0  0  0  0  0  0  0  0  0  0
    6.5690   -4.0580    0.0000 O   0  0  0  0  0  0  0  0  0  0  0  0
    6.6530   -5.5560    0.0000 C   0  0  0  0  0  0  0  0  0  0  0  0
    9.3140   -3.4140    0.0000 C   0  0  0  0  0  0  0  0  0  0  0  0
   10.2110   -2.2120    0.0000 C   0  0  0  0  0  0  0  0  0  0  0  0
   11.7040   -2.0760    0.0000 N   0  0  0  0  0  0  0  0  0  0  0  0
   12.6890   -3.2070    0.0000 C   0  0  0  0  0  0  0  0  0  0  0  0
   12.0430   -0.6170    0.0000 C   0  0  1  0  0  0  0  0  0  0  0  0
   13.3550    0.1140    0.0000 C   0  0  1  0  0  0  0  0  0  0  0  0
   14.1570   -1.1540    0.0000 O   0  0  0  0  0  0  0  0  0  0  0  0
   14.8550    0.1430    0.0000 C   0  0  0  0  0  0  0  0  0  0  0  0
   15.6300   -1.1420    0.0000 O   0  0  0  0  0  0  0  0  0  0  0  0
   15.5800    1.4560    0.0000 O   0  0  0  0  0  0  0  0  0  0  0  0
   17.0800    1.4850    0.0000 C   0  0  0  0  0  0  0  0  0  0  0  0
   13.3730    1.6140    0.0000 C   0  0  2  0  0  0  0  0  0  0  0  0
   14.6830    2.3450    0.0000 O   0  0  0  0  0  0  0  0  0  0  0  0
   12.0760    2.3930    0.0000 C   0  0  1  0  0  0  0  0  0  0  0  0
   13.3520    3.1820    0.0000 C   0  0  0  0  0  0  0  0  0  0  0  0
   13.3070    4.6810    0.0000 C   0  0  0  0  0  0  0  0  0  0  0  0
   10.7960    1.6330    0.0000 C   0  0  2  0  0  0  0  0  0  0  0  0
    9.4750    2.2910    0.0000 N   0  0  0  0  0  0  0  0  0  0  0  0
    9.4170    3.8060    0.0000 C   0  0  0  0  0  0  0  0  0  0  0  0
   10.6850    4.6070    0.0000 C   0  0  0  0  0  0  0  0  0  0  0  0
   12.0120    3.9050    0.0000 C   0  0  0  0  0  0  0  0  0  0  0  0
    8.4830    1.1340    0.0000 C   0  0  0  0  0  0  0  0  0  0  0  0
    9.2510   -0.1590    0.0000 C   0  0  0  0  0  0  0  0  0  0  0  0
   10.7420    0.1580    0.0000 C   0  0  2  0  0  0  0  0  0  0  0  0
    9.6210   -0.8340    0.0000 C   0  0  0  0  0  0  0  0  0  0  0  0
    8.1310   -0.6570    0.0000 C   0  0  0  0  0  0  0  0  0  0  0  0
    2.4800   -1.0280    0.0000 C   0  0  0  0  0  0  0  0  0  0  0  0
    2.9970   -2.4210    0.0000 N   0  0  0  0  0  0  0  0  0  0  0  0
    1.8090   -3.3380    0.0000 C   0  0  0  0  0  0  0  0  0  0  0  0
    0.5720   -2.4880    0.0000 C   0  0  0  0  0  0  0  0  0  0  0  0
    1.0640   -1.0280    0.0000 C   0  0  0  0  0  0  0  0  0  0  0  0
    0.0750    0.1960    0.0000 C   0  0  0  0  0  0  0  0  0  0  0  0
   -0.7800   -3.1370    0.0000 C   0  0  0  0  0  0  0  0  0  0  0  0
   -0.8940   -4.6330    0.0000 C   0  0  0  0  0  0  0  0  0  0  0  0
    0.3440   -5.4830    0.0000 C   0  0  0  0  0  0  0  0  0  0  0  0
    1.6960   -4.8330    0.0000 C   0  0  0  0  0  0  0  0  0  0  0  0
  1  2  1  0  0  0  0
  2  3  1  0  0  0  0
  2  4  1  0  0  0  0
  5  2  1  6  0  0  0
  5  6  1  0  0  0  0
  5 10  1  0  0  0  0
  6  7  1  0  0  0  0
  7  8  1  0  0  0  0
  7 52  1  1  0  0  0
  8  9  1  0  0  0  0
  9 10  1  0  0  0  0
  9 11  1  1  0  0  0
 11 12  1  0  0  0  0
 12 13  1  1  0  0  0
 12 17  1  6  0  0  0
 12 47  1  0  0  0  0
 13 14  2  0  0  0  0
 13 15  1  0  0  0  0
 15 16  1  0  0  0  0
 17 18  1  0  0  0  0
 17 46  2  0  0  0  0
 18 19  1  0  0  0  0
 18 21  2  0  0  0  0
 19 20  1  0  0  0  0
 21 22  1  0  0  0  0
 22 23  1  0  0  0  0
 22 45  2  0  0  0  0
 23 24  1  0  0  0  0
 25 23  1  6  0  0  0
 25 26  1  0  0  0  0
 25 44  1  0  0  0  0
 26 27  1  1  0  0  0
 26 28  1  6  0  0  0
 26 32  1  0  0  0  0
 28 29  2  0  0  0  0
 28 30  1  0  0  0  0
 30 31  1  0  0  0  0
 32 33  1  1  0  0  0
 32 34  1  0  0  0  0
 34 35  1  6  0  0  0
 34 37  1  0  0  0  0
 34 41  1  0  0  0  0
 35 36  1  0  0  0  0
 37 38  1  1  0  0  0
 44 37  1  6  0  0  0
 38 39  1  0  0  0  0
 38 42  1  0  0  0  0
 39 40  1  0  0  0  0
 40 41  2  0  0  0  0
 42 43  1  0  0  0  0
 44 43  1  1  0  0  0
 44 45  1  0  0  0  0
 45 46  1  0  0  0  0
 47 48  1  0  0  0  0
 47 51  2  0  0  0  0
 48 49  1  0  0  0  0
 49 50  2  0  0  0  0
 49 56  1  0  0  0  0
 50 51  1  0  0  0  0
 50 53  1  0  0  0  0
 51 52  1  0  0  0  0
 53 54  2  0  0  0  0
 54 55  1  0  0  0  0
 55 56  2  0  0  0  0
M  END
>  <name>
FC(F)(C)[C@H]1C[N@]2C[C@@H](C1)C[C@](C(=O)OC)(c1c(OC)cc3N(C)[C@H]4[C@@](O)(C(=O)OC)[C@H]([O;ester])[C@@]5(CC)[C@@H]6N(CC=C5)CC[C@]46c3c1)c1[nH]c3c(c1C2)cccc3

>  <apo>
1

>  <freq>
1

>  <freq0>
0

>  <freq1>
1

>  <freqA>
0.99887151

>  <a_count>
108

$$$$

  MOE2015           2D

 50 58  0  0  1  0  0  0  0  0999 V2000
    9.0160   -2.1310    0.0000 O   0  0  0  0  0  0  0  0  0  0  0  0
    7.6740   -1.4590    0.0000 C   0  0  0  0  0  0  0  0  0  0  0  0
    6.4910   -2.3120    0.0000 C   0  0  0  0  0  0  0  0  0  0  0  0
    5.0950   -2.0420    0.0000 C   0  0  2  0  0  0  0  0  0  0  0  0
    4.3100   -0.7790    0.0000 O   0  0  0  0  0  0  0  0  0  0  0  0
    2.8000   -0.8150    0.0000 C   0  0  2  0  0  0  0  0  0  0  0  0
    2.0640    0.4230    0.0000 C   0  0  2  0  0  0  0  0  0  0  0  0
    1.8880    2.1090    0.0000 O   0  0  0  0  0  0  0  0  0  0  0  0
    0.2100    2.0960    0.0000 C   0  0  2  0  0  0  0  0  0  0  0  0
   -0.0470    0.6000    0.0000 O   0  0  0  0  0  0  0  0  0  0  0  0
   -1.5430   -0.0360    0.0000 C   0  0  2  0  0  0  0  0  0  0  0  0
   -0.2390   -0.9290    0.0000 C   0  0  2  0  0  0  0  0  0  0  0  0
    0.5970   -2.2130    0.0000 O   0  0  0  0  0  0  0  0  0  0  0  0
    2.0980   -2.1720    0.0000 C   0  0  1  0  0  0  0  0  0  0  0  0
    2.9000   -3.4270    0.0000 C   0  0  0  0  0  0  0  0  0  0  0  0
    4.3990   -3.3710    0.0000 C   0  0  0  0  0  0  0  0  0  0  0  0
    0.5580    0.3400    0.0000 C   0  0  1  0  0  0  0  0  0  0  0  0
   -0.2950    1.5150    0.0000 O   0  0  0  0  0  0  0  0  0  0  0  0
   -1.9210    1.2090    0.0000 C   0  0  1  0  0  0  0  0  0  0  0  0
   -1.2150    2.5790    0.0000 C   0  0  0  0  0  0  0  0  0  0  0  0
   -0.3870    3.4030    0.0000 C   0  0  0  0  0  0  0  0  0  0  0  0
   -0.1490    4.7480    0.0000 C   0  0  0  0  0  0  0  0  0  0  0  0
    0.7230    5.8460    0.0000 C   0  0  2  0  0  0  0  0  0  0  0  0
    2.2280    5.8770    0.0000 O   0  0  0  0  0  0  0  0  0  0  0  0
    2.6910    7.3070    0.0000 C   0  0  2  0  0  0  0  0  0  0  0  0
    1.4580    8.1710    0.0000 C   0  0  0  0  0  0  0  0  0  0  0  0
    1.4330    9.6710    0.0000 C   0  0  0  0  0  0  0  0  0  0  0  0
    0.2560    7.2770    0.0000 C   0  0  0  0  0  0  0  0  0  0  0  0
    3.9640    7.8780    0.0000 C   0  0  0  0  0  0  0  0  0  0  0  0
    5.3400    7.7370    0.0000 C   0  0  0  0  0  0  0  0  0  0  0  0
    6.3960    6.7950    0.0000 C   0  0  2  0  0  0  0  0  0  0  0  0
    6.3580    5.2970    0.0000 O   0  0  0  0  0  0  0  0  0  0  0  0
    7.6430    4.5150    0.0000 C   0  0  1  0  0  0  0  0  0  0  0  0
    8.9630    5.2330    0.0000 C   0  0  0  0  0  0  0  0  0  0  0  0
   10.2430    4.4520    0.0000 C   0  0  0  0  0  0  0  0  0  0  0  0
    8.9980    6.7360    0.0000 C   0  0  2  0  0  0  0  0  0  0  0  0
   10.3140    7.4550    0.0000 C   0  0  0  0  0  0  0  0  0  0  0  0
    7.7140    7.5180    0.0000 C   0  0  0  0  0  0  0  0  0  0  0  0
    7.6450    3.0190    0.0000 C   0  0  0  0  0  0  0  0  0  0  0  0
    8.9590    2.2800    0.0000 C   0  0  2  0  0  0  0  0  0  0  0  0
   10.4670    2.3550    0.0000 O   0  0  0  0  0  0  0  0  0  0  0  0
   11.4180    1.1910    0.0000 C   0  0  1  0  0  0  0  0  0  0  0  0
   12.9150    1.0950    0.0000 C   0  0  0  0  0  0  0  0  0  0  0  0
   13.5800   -0.2500    0.0000 C   0  0  2  0  0  0  0  0  0  0  0  0
   12.7480   -1.4980    0.0000 O   0  0  0  0  0  0  0  0  0  0  0  0
   15.0770   -0.3460    0.0000 C   0  0  0  0  0  0  0  0  0  0  0  0
   15.7410   -1.6910    0.0000 N   0  0  0  0  0  0  0  0  0  0  0  0
   10.3260    0.1610    0.0000 C   0  0  0  0  0  0  0  0  0  0  0  0
    8.9610    0.7820    0.0000 C   0  0  1  0  0  0  0  0  0  0  0  0
    7.6470    0.0370    0.0000 C   0  0  0  0  0  0  0  0  0  0  0  0
  1  2  2  0  0  0  0
  2  3  1  0  0  0  0
  2 50  1  0  0  0  0
  4  3  1  1  0  0  0
  4  5  1  0  0  0  0
  4 16  1  0  0  0  0
  6  5  1  1  0  0  0
  6  7  1  0  0  0  0
  6 14  1  0  0  0  0
  7  8  1  1  0  0  0
  7 17  1  0  0  0  0
  9  8  1  6  0  0  0
  9 10  1  0  0  0  0
  9 20  1  0  0  0  0
  9 21  1  1  0  0  0
 11 10  1  6  0  0  0
 11 12  1  0  0  0  0
 11 19  1  0  0  0  0
 12 13  1  1  0  0  0
 12 17  1  0  0  0  0
 13 14  1  0  0  0  0
 14 15  1  6  0  0  0
 15 16  1  0  0  0  0
 17 18  1  1  0  0  0
 19 18  1  6  0  0  0
 19 20  1  0  0  0  0
 21 22  1  0  0  0  0
 23 22  1  1  0  0  0
 23 24  1  0  0  0  0
 23 28  1  0  0  0  0
 24 25  1  0  0  0  0
 25 26  1  0  0  0  0
 25 29  1  6  0  0  0
 26 27  2  0  0  0  0
 26 28  1  0  0  0  0
 29 30  1  0  0  0  0
 31 30  1  1  0  0  0
 31 32  1  0  0  0  0
 31 38  1  0  0  0  0
 33 32  1  1  0  0  0
 33 34  1  0  0  0  0
 33 39  1  0  0  0  0
 34 35  2  0  0  0  0
 34 36  1  0  0  0  0
 36 37  1  1  0  0  0
 36 38  1  0  0  0  0
 39 40  1  0  0  0  0
 40 41  1  6  0  0  0
 40 49  1  0  0  0  0
 41 42  1  0  0  0  0
 42 43  1  1  0  0  0
 42 48  1  0  0  0  0
 43 44  1  0  0  0  0
 44 45  1  1  0  0  0
 44 46  1  0  0  0  0
 46 47  1  0  0  0  0
 48 49  1  0  0  0  0
 49 50  1  1  0  0  0
M  END
>  <name>
O=C1C[C@@H]2O[C@@H]3[C@@H]4O[C@@]5(O[C@@H]6[C@H](O[C@H]3CC2)[C@H]4O[C@H]6C5)CC[C@@H]2O[C@H](C(=C)C2)CC[C@@H]2O[C@@H](C(=C)[C@H](C)C2)C[C@@H]2O[C@@H](C[C@H](O)CN)[C;ether][C@H]2C1

>  <apo>
1

>  <freq>
1

>  <freq0>
0

>  <freq1>
1

>  <freqA>
0.99887151

>  <a_count>
107

$$$$

  MOE2015           2D

 54 62  0  0  1  0  0  0  0  0999 V2000
   12.0760    5.6440    0.0000 O   0  0  0  0  0  0  0  0  0  0  0  0
   11.3900    6.9790    0.0000 C   0  0  0  0  0  0  0  0  0  0  0  0
   12.2030    8.2390    0.0000 O   0  0  0  0  0  0  0  0  0  0  0  0
   13.7010    8.1660    0.0000 C   0  0  0  0  0  0  0  0  0  0  0  0
    9.8920    7.0520    0.0000 C   0  0  1  0  0  0  0  0  0  0  0  0
   10.6040    5.7320    0.0000 O   0  0  0  0  0  0  0  0  0  0  0  0
    9.8820    8.5540    0.0000 C   0  0  2  0  0  0  0  0  0  0  0  0
   11.1780    9.3090    0.0000 O   0  0  0  0  0  0  0  0  0  0  0  0
    8.5710    9.3080    0.0000 C   0  0  1  0  0  0  0  0  0  0  0  0
    9.8320   10.1200    0.0000 C   0  0  0  0  0  0  0  0  0  0  0  0
    9.7590   11.6190    0.0000 C   0  0  0  0  0  0  0  0  0  0  0  0
    7.3040    8.5260    0.0000 C   0  0  2  0  0  0  0  0  0  0  0  0
    5.9710    9.1590    0.0000 N   0  0  0  0  0  0  0  0  0  0  0  0
    5.8850   10.6700    0.0000 C   0  0  0  0  0  0  0  0  0  0  0  0
    7.1390   11.4960    0.0000 C   0  0  0  0  0  0  0  0  0  0  0  0
    8.4790   10.8190    0.0000 C   0  0  0  0  0  0  0  0  0  0  0  0
    5.0010    7.9840    0.0000 C   0  0  0  0  0  0  0  0  0  0  0  0
    5.7920    6.7050    0.0000 C   0  0  0  0  0  0  0  0  0  0  0  0
    7.2770    7.0500    0.0000 C   0  0  2  0  0  0  0  0  0  0  0  0
    8.5920    6.2990    0.0000 C   0  0  1  0  0  0  0  0  0  0  0  0
    8.2800    4.8350    0.0000 N   0  0  0  0  0  0  0  0  0  0  0  0
    9.2860    3.7220    0.0000 C   0  0  0  0  0  0  0  0  0  0  0  0
    6.7900    4.6710    0.0000 C   0  0  0  0  0  0  0  0  0  0  0  0
    6.1740    6.0380    0.0000 C   0  0  0  0  0  0  0  0  0  0  0  0
    4.6810    6.1870    0.0000 C   0  0  0  0  0  0  0  0  0  0  0  0
    3.8040    4.9700    0.0000 C   0  0  0  0  0  0  0  0  0  0  0  0
    4.4210    3.6030    0.0000 C   0  0  0  0  0  0  0  0  0  0  0  0
    3.5450    2.3850    0.0000 O   0  0  0  0  0  0  0  0  0  0  0  0
    4.1620    1.0170    0.0000 C   0  0  0  0  0  0  0  0  0  0  0  0
    5.9140    3.4530    0.0000 C   0  0  0  0  0  0  0  0  0  0  0  0
    1.5520    6.0550    0.0000 C   0  0  2  0  0  0  0  0  0  0  0  0
    2.2420    4.7230    0.0000 C   0  0  0  0  0  0  0  0  0  0  0  0
    3.7400    4.6540    0.0000 O   0  0  0  0  0  0  0  0  0  0  0  0
    1.4330    3.4600    0.0000 O   0  0  0  0  0  0  0  0  0  0  0  0
    2.1230    2.1280    0.0000 C   0  0  0  0  0  0  0  0  0  0  0  0
    0.2110    5.6080    0.0000 C   0  0  0  0  0  0  0  0  0  0  0  0
    0.9850    4.3400    0.0000 N   0  0  0  0  0  0  0  0  0  0  0  0
   -0.0040    3.2130    0.0000 C   0  0  0  0  0  0  0  0  0  0  0  0
   -1.3820    3.8060    0.0000 C   0  0  0  0  0  0  0  0  0  0  0  0
   -1.1780    5.3350    0.0000 C   0  0  0  0  0  0  0  0  0  0  0  0
   -2.3840    6.3470    0.0000 C   0  0  0  0  0  0  0  0  0  0  0  0
   -1.7030    7.8310    0.0000 N   0  0  0  0  0  0  0  0  0  0  0  0
   -2.0520    9.2470    0.0000 C   0  0  0  0  0  0  0  0  0  0  0  0
   -1.0230   10.2730    0.0000 C   0  0  0  0  0  0  0  0  0  0  0  0
   -1.4070   11.7230    0.0000 C   0  0  0  0  0  0  0  0  0  0  0  0
   -2.8540   12.1160    0.0000 C   0  0  0  0  0  0  0  0  0  0  0  0
    0.3790    9.8900    0.0000 C   0  0  0  0  0  0  0  0  0  0  0  0
    0.7780    8.4850    0.0000 C   0  0  1  0  0  0  0  0  0  0  0  0
    2.1010    7.5320    0.0000 C   0  0  0  0  0  0  0  0  0  0  0  0
   -0.2810    7.4690    0.0000 C   0  0  0  0  0  0  0  0  0  0  0  0
   -2.5840    2.9090    0.0000 C   0  0  0  0  0  0  0  0  0  0  0  0
   -2.4090    1.4190    0.0000 C   0  0  0  0  0  0  0  0  0  0  0  0
   -1.0310    0.8270    0.0000 C   0  0  0  0  0  0  0  0  0  0  0  0
    0.1710    1.7240    0.0000 C   0  0  0  0  0  0  0  0  0  0  0  0
  1  2  2  0  0  0  0
  2  3  1  0  0  0  0
  5  2  1  6  0  0  0
  3  4  1  0  0  0  0
  5  6  1  1  0  0  0
  5  7  1  0  0  0  0
  5 20  1  0  0  0  0
  7  8  1  1  0  0  0
  7  9  1  0  0  0  0
  9 10  1  6  0  0  0
  9 12  1  0  0  0  0
  9 16  1  0  0  0  0
 10 11  1  0  0  0  0
 12 13  1  1  0  0  0
 19 12  1  6  0  0  0
 13 14  1  0  0  0  0
 13 17  1  0  0  0  0
 14 15  1  0  0  0  0
 15 16  2  0  0  0  0
 17 18  1  0  0  0  0
 19 18  1  1  0  0  0
 19 20  1  0  0  0  0
 19 24  1  0  0  0  0
 20 21  1  6  0  0  0
 21 22  1  0  0  0  0
 21 23  1  0  0  0  0
 23 24  2  0  0  0  0
 23 30  1  0  0  0  0
 24 25  1  0  0  0  0
 25 26  2  0  0  0  0
 26 27  1  0  0  0  0
 31 26  1  6  0  0  0
 27 28  1  0  0  0  0
 27 30  2  0  0  0  0
 28 29  1  0  0  0  0
 31 32  1  1  0  0  0
 31 36  1  0  0  0  0
 31 49  1  0  0  0  0
 32 33  2  0  0  0  0
 32 34  1  0  0  0  0
 34 35  1  0  0  0  0
 36 37  1  0  0  0  0
 36 40  2  0  0  0  0
 37 38  1  0  0  0  0
 38 39  2  0  0  0  0
 38 54  1  0  0  0  0
 39 40  1  0  0  0  0
 39 51  1  0  0  0  0
 40 41  1  0  0  0  0
 41 42  1  0  0  0  0
 42 43  1  0  0  0  0
 42 50  1  0  0  0  0
 43 44  1  0  0  0  0
 44 45  1  0  0  0  0
 44 47  2  0  0  0  0
 45 46  1  0  0  0  0
 48 47  1  1  0  0  0
 48 49  1  0  0  0  0
 48 50  1  0  0  0  0
 51 52  2  0  0  0  0
 52 53  1  0  0  0  0
 53 54  2  0  0  0  0
M  END
>  <name>
O=C(OC)[C@@]1(O)[C@H]([O;ester])[C@@]2(CC)[C@@H]3N(CC=C2)CC[C@@]23[C@H]1N(C)c1c2cc(c(OC)c1)[C@]1(C(=O)OC)c2[nH]c3c(c2CN2CC(CC)=C[C@@H](C1)C2)cccc3

>  <apo>
1

>  <freq>
1

>  <freq0>
0

>  <freq1>
1

>  <freqA>
0.99887151

>  <a_count>
106

$$$$

  MOE2015           2D

 48 51  0  0  1  0  0  0  0  0999 V2000
    1.3520   -1.0100    0.0000 O   0  0  0  0  0  0  0  0  0  0  0  0
    2.1240   -2.2960    0.0000 C   0  0  0  0  0  0  0  0  0  0  0  0
    3.6240   -2.2710    0.0000 C   0  0  0  0  0  0  0  0  0  0  0  0
    4.3960   -3.5570    0.0000 C   0  0  0  0  0  0  0  0  0  0  0  0
    5.8960   -3.5320    0.0000 C   0  0  2  0  0  0  0  0  0  0  0  0
    6.6240   -2.2200    0.0000 C   0  0  2  0  0  0  0  0  0  0  0  0
    5.8520   -0.9340    0.0000 O   0  0  0  0  0  0  0  0  0  0  0  0
    8.1230   -2.1950    0.0000 C   0  0  2  0  0  0  0  0  0  0  0  0
    8.8950   -3.4810    0.0000 C   0  0  2  0  0  0  0  0  0  0  0  0
    8.1670   -4.7920    0.0000 O   0  0  0  0  0  0  0  0  0  0  0  0
   10.3950   -3.4550    0.0000 C   0  0  1  0  0  0  0  0  0  0  0  0
   11.1670   -4.7420    0.0000 C   0  0  1  0  0  0  0  0  0  0  0  0
   10.4390   -6.0530    0.0000 O   0  0  0  0  0  0  0  0  0  0  0  0
   12.6670   -4.7160    0.0000 C   0  0  0  0  0  0  0  0  0  0  0  0
   13.3950   -3.4050    0.0000 C   0  0  0  0  0  0  0  0  0  0  0  0
   13.4390   -6.0020    0.0000 C   0  0  0  0  0  0  0  0  0  0  0  0
   11.1230   -2.1440    0.0000 C   0  0  0  0  0  0  0  0  0  0  0  0
    8.8510   -0.8830    0.0000 C   0  0  0  0  0  0  0  0  0  0  0  0
    6.6680   -4.8180    0.0000 C   0  0  0  0  0  0  0  0  0  0  0  0
   -0.1480   -1.0360    0.0000 C   0  0  2  0  0  0  0  0  0  0  0  0
    0.5560   -2.3600    0.0000 C   0  0  0  0  0  0  0  0  0  0  0  0
   -1.5230   -1.6330    0.0000 C   0  0  0  0  0  0  0  0  0  0  0  0
   -1.8490   -3.0970    0.0000 O   0  0  0  0  0  0  0  0  0  0  0  0
   -2.5170   -0.5090    0.0000 C   0  0  0  0  0  0  0  0  0  0  0  0
   -4.0170   -0.4950    0.0000 C   0  0  0  0  0  0  0  0  0  0  0  0
   -4.7790   -1.7870    0.0000 C   0  0  0  0  0  0  0  0  0  0  0  0
   -4.0410   -3.0930    0.0000 O   0  0  0  0  0  0  0  0  0  0  0  0
   -6.2790   -1.7730    0.0000 C   0  0  0  0  0  0  0  0  0  0  0  0
   -6.8050   -3.1780    0.0000 C   0  0  0  0  0  0  0  0  0  0  0  0
   -8.1700   -3.7990    0.0000 N   0  0  0  0  0  0  0  0  0  0  0  0
   -9.1230   -2.6410    0.0000 N   0  0  0  0  0  0  0  0  0  0  0  0
   -9.1100   -1.1410    0.0000 C   0  0  0  0  0  0  0  0  0  0  0  0
  -10.4020   -0.3790    0.0000 C   0  0  0  0  0  0  0  0  0  0  0  0
  -11.7080   -1.1170    0.0000 N   0  0  0  0  0  0  0  0  0  0  0  0
  -13.0000   -0.3550    0.0000 C   0  0  0  0  0  0  0  0  0  0  0  0
  -11.7210   -2.6170    0.0000 C   0  0  0  0  0  0  0  0  0  0  0  0
  -10.4290   -3.3790    0.0000 C   0  0  0  0  0  0  0  0  0  0  0  0
   -7.0170   -0.4670    0.0000 C   0  0  0  0  0  0  0  0  0  0  0  0
   -8.4910   -0.1930    0.0000 N   0  0  0  0  0  0  0  0  0  0  0  0
   -6.2550    0.8250    0.0000 C   0  0  0  0  0  0  0  0  0  0  0  0
   -6.9930    2.1310    0.0000 O   0  0  0  0  0  0  0  0  0  0  0  0
   -4.7550    0.8110    0.0000 C   0  0  0  0  0  0  0  0  0  0  0  0
   -3.9930    2.1030    0.0000 C   0  0  0  0  0  0  0  0  0  0  0  0
   -4.7310    3.4090    0.0000 O   0  0  0  0  0  0  0  0  0  0  0  0
   -2.4930    2.0890    0.0000 C   0  0  0  0  0  0  0  0  0  0  0  0
   -1.7310    3.3810    0.0000 C   0  0  0  0  0  0  0  0  0  0  0  0
   -1.7550    0.7830    0.0000 C   0  0  0  0  0  0  0  0  0  0  0  0
   -0.2900    0.4580    0.0000 O   0  0  0  0  0  0  0  0  0  0  0  0
  1  2  1  0  0  0  0
 20  1  1  6  0  0  0
  2  3  2  0  0  0  0
  3  4  1  0  0  0  0
  4  5  1  0  0  0  0
  5  6  1  0  0  0  0
  5 19  1  6  0  0  0
  6  7  1  6  0  0  0
  6  8  1  0  0  0  0
  8  9  1  0  0  0  0
  8 18  1  1  0  0  0
  9 10  1  1  0  0  0
  9 11  1  0  0  0  0
 11 12  1  0  0  0  0
 11 17  1  6  0  0  0
 12 13  1  6  0  0  0
 12 14  1  0  0  0  0
 14 15  1  0  0  0  0
 14 16  1  0  0  0  0
 20 21  1  1  0  0  0
 20 22  1  0  0  0  0
 20 48  1  0  0  0  0
 22 23  2  0  0  0  0
 22 24  1  0  0  0  0
 24 25  1  0  0  0  0
 24 47  2  0  0  0  0
 25 26  2  0  0  0  0
 25 42  1  0  0  0  0
 26 27  1  0  0  0  0
 26 28  1  0  0  0  0
 28 29  1  0  0  0  0
 28 38  2  0  0  0  0
 29 30  2  0  0  0  0
 30 31  1  0  0  0  0
 31 32  1  0  0  0  0
 31 37  1  0  0  0  0
 32 33  1  0  0  0  0
 33 34  1  0  0  0  0
 34 35  1  0  0  0  0
 34 36  1  0  0  0  0
 36 37  1  0  0  0  0
 38 39  1  0  0  0  0
 38 40  1  0  0  0  0
 40 41  1  0  0  0  0
 40 42  2  0  0  0  0
 42 43  1  0  0  0  0
 43 44  1  0  0  0  0
 43 45  2  0  0  0  0
 45 46  1  0  0  0  0
 45 47  1  0  0  0  0
 47 48  1  0  0  0  0
M  END
>  <name>
O(/C=C/[C;ether][C@H]([C@H]([O;ester])[C@H]([C@H](O)[C@@H]([C@@H](O)C([C;olefin])C)C)C)C)[C@]1(C)C(=O)c2c3c(O)c(/C=N\N4CCN(C)CC4)c([N;amide])c(O)c3c(O)c(C)c2O1

>  <apo>
4

>  <freq>
1

>  <freq0>
0

>  <freq1>
1

>  <freqA>
0.99887151

>  <a_count>
100

$$$$

  MOE2015           2D

 56 65  0  0  1  0  0  0  0  0999 V2000
    0.0360    1.4020    0.0000 F   0  0  0  0  0  0  0  0  0  0  0  0
    1.3350    0.6520    0.0000 C   0  0  0  0  0  0  0  0  0  0  0  0
    2.6340    1.4020    0.0000 C   0  0  0  0  0  0  0  0  0  0  0  0
    2.6340    2.9020    0.0000 N   0  0  0  0  0  0  0  0  0  0  0  0
    1.3350    3.6520    0.0000 C   0  0  0  0  0  0  0  0  0  0  0  0
    1.3350    5.1520    0.0000 C   0  0  0  0  0  0  0  0  0  0  0  0
    2.6340    5.9020    0.0000 C   0  0  0  0  0  0  0  0  0  0  0  0
    2.6340    7.4020    0.0000 C   0  0  0  0  0  0  0  0  0  0  0  0
    1.3350    8.1520    0.0000 C   0  0  0  0  0  0  0  0  0  0  0  0
    1.3350    9.6520    0.0000 C   0  0  0  0  0  0  0  0  0  0  0  0
    2.6340   10.4020    0.0000 C   0  0  0  0  0  0  0  0  0  0  0  0
    2.6340   11.9020    0.0000 F   0  0  0  0  0  0  0  0  0  0  0  0
    3.9330    9.6520    0.0000 C   0  0  0  0  0  0  0  0  0  0  0  0
    3.9330    8.1520    0.0000 C   0  0  0  0  0  0  0  0  0  0  0  0
    3.9330    5.1520    0.0000 C   0  0  0  0  0  0  0  0  0  0  0  0
    3.9330    3.6520    0.0000 C   0  0  0  0  0  0  0  0  0  0  0  0
    3.9330    0.6520    0.0000 C   0  0  0  0  0  0  0  0  0  0  0  0
    5.2320    1.4020    0.0000 F   0  0  0  0  0  0  0  0  0  0  0  0
    3.9330   -0.8480    0.0000 C   0  0  0  0  0  0  0  0  0  0  0  0
    2.6340   -1.5980    0.0000 C   0  0  0  0  0  0  0  0  0  0  0  0
    2.6340   -3.0980    0.0000 N   0  0  0  0  0  0  0  0  0  0  0  0
    3.8470   -3.9800    0.0000 C   0  0  1  0  0  0  0  0  0  0  0  0
    5.2740   -3.5160    0.0000 C   0  0  0  0  0  0  0  0  0  0  0  0
    6.3890   -4.5200    0.0000 C   0  0  0  0  0  0  0  0  0  0  0  0
    6.0770   -5.9870    0.0000 F   0  0  0  0  0  0  0  0  0  0  0  0
    7.8150   -4.0560    0.0000 C   0  0  0  0  0  0  0  0  0  0  0  0
    8.1270   -2.5890    0.0000 C   0  0  0  0  0  0  0  0  0  0  0  0
    9.4260   -1.8390    0.0000 N   0  0  0  0  0  0  0  0  0  0  0  0
    9.1140   -0.3720    0.0000 C   0  0  0  0  0  0  0  0  0  0  0  0
   10.1180    0.7430    0.0000 C   0  0  1  0  0  0  0  0  0  0  0  0
    9.8060    2.2100    0.0000 N   0  0  0  0  0  0  0  0  0  0  0  0
   11.1050    2.9600    0.0000 C   0  0  0  0  0  0  0  0  0  0  0  0
   12.2200    1.9560    0.0000 C   0  0  0  0  0  0  0  0  0  0  0  0
   11.6100    0.5860    0.0000 C   0  0  0  0  0  0  0  0  0  0  0  0
    7.6220   -0.2150    0.0000 N   0  0  0  0  0  0  0  0  0  0  0  0
    7.0120   -1.5860    0.0000 C   0  0  0  0  0  0  0  0  0  0  0  0
    5.5860   -2.0490    0.0000 C   0  0  0  0  0  0  0  0  0  0  0  0
    3.3840   -5.4060    0.0000 C   0  0  0  0  0  0  0  0  0  0  0  0
    1.8840   -5.4060    0.0000 C   0  0  0  0  0  0  0  0  0  0  0  0
    1.4200   -3.9800    0.0000 C   0  0  2  0  0  0  0  0  0  0  0  0
   -0.0060   -3.5160    0.0000 C   0  0  0  0  0  0  0  0  0  0  0  0
   -1.1210   -4.5200    0.0000 C   0  0  0  0  0  0  0  0  0  0  0  0
   -0.8090   -5.9870    0.0000 F   0  0  0  0  0  0  0  0  0  0  0  0
   -2.5480   -4.0560    0.0000 C   0  0  0  0  0  0  0  0  0  0  0  0
   -2.8590   -2.5890    0.0000 C   0  0  0  0  0  0  0  0  0  0  0  0
   -4.1590   -1.8390    0.0000 N   0  0  0  0  0  0  0  0  0  0  0  0
   -3.8470   -0.3720    0.0000 C   0  0  0  0  0  0  0  0  0  0  0  0
   -4.8500    0.7430    0.0000 C   0  0  1  0  0  0  0  0  0  0  0  0
   -6.3420    0.5860    0.0000 N   0  0  0  0  0  0  0  0  0  0  0  0
   -6.9520    1.9560    0.0000 C   0  0  0  0  0  0  0  0  0  0  0  0
   -5.8380    2.9600    0.0000 C   0  0  0  0  0  0  0  0  0  0  0  0
   -4.5380    2.2100    0.0000 C   0  0  0  0  0  0  0  0  0  0  0  0
   -2.3550   -0.2150    0.0000 N   0  0  0  0  0  0  0  0  0  0  0  0
   -1.7450   -1.5860    0.0000 C   0  0  0  0  0  0  0  0  0  0  0  0
   -0.3180   -2.0490    0.0000 C   0  0  0  0  0  0  0  0  0  0  0  0
    1.3350   -0.8480    0.0000 C   0  0  0  0  0  0  0  0  0  0  0  0
  1  2  1  0  0  0  0
  2  3  2  0  0  0  0
  2 56  1  0  0  0  0
  3  4  1  0  0  0  0
  3 17  1  0  0  0  0
  4  5  1  0  0  0  0
  4 16  1  0  0  0  0
  5  6  1  0  0  0  0
  6  7  1  0  0  0  0
  7  8  1  0  0  0  0
  7 15  1  0  0  0  0
  8  9  1  0  0  0  0
  8 14  2  0  0  0  0
  9 10  2  0  0  0  0
 10 11  1  0  0  0  0
 11 12  1  0  0  0  0
 11 13  2  0  0  0  0
 13 14  1  0  0  0  0
 15 16  1  0  0  0  0
 17 18  1  0  0  0  0
 17 19  2  0  0  0  0
 19 20  1  0  0  0  0
 20 21  1  0  0  0  0
 20 56  2  0  0  0  0
 21 22  1  0  0  0  0
 21 40  1  0  0  0  0
 22 23  1  1  0  0  0
 22 38  1  0  0  0  0
 23 24  2  0  0  0  0
 23 37  1  0  0  0  0
 24 25  1  0  0  0  0
 24 26  1  0  0  0  0
 26 27  2  0  0  0  0
 27 28  1  0  0  0  0
 27 36  1  0  0  0  0
 28 29  1  0  0  0  0
 30 29  1  1  0  0  0
 29 35  2  0  0  0  0
 30 31  1  0  0  0  0
 30 34  1  0  0  0  0
 31 32  1  0  0  0  0
 32 33  1  0  0  0  0
 33 34  1  0  0  0  0
 35 36  1  0  0  0  0
 36 37  2  0  0  0  0
 38 39  1  0  0  0  0
 39 40  1  0  0  0  0
 40 41  1  6  0  0  0
 41 42  2  0  0  0  0
 41 55  1  0  0  0  0
 42 43  1  0  0  0  0
 42 44  1  0  0  0  0
 44 45  2  0  0  0  0
 45 46  1  0  0  0  0
 45 54  1  0  0  0  0
 46 47  1  0  0  0  0
 48 47  1  1  0  0  0
 47 53  2  0  0  0  0
 48 49  1  0  0  0  0
 48 52  1  0  0  0  0
 49 50  1  0  0  0  0
 50 51  1  0  0  0  0
 51 52  1  0  0  0  0
 53 54  1  0  0  0  0
 54 55  2  0  0  0  0
M  END
>  <name>
Fc1c(N2CCC(c3ccc(F)cc3)CC2)c(F)cc(N2[C@@H](c3c(F)cc4[nH]c([C@H]5[N;amide]CCC5)nc4c3)CC[C@@H]2c2c(F)cc3[nH]c([C@H]4[N;amide]CCC4)nc3c2)c1

>  <apo>
2

>  <freq>
1

>  <freq0>
0

>  <freq1>
1

>  <freqA>
0.99887151

>  <a_count>
99

$$$$

  MOE2015           2D

 47 50  0  0  1  0  0  0  0  0999 V2000
    1.2450   -0.7630    0.0000 O   0  0  0  0  0  0  0  0  0  0  0  0
    2.0170   -2.0500    0.0000 C   0  0  0  0  0  0  0  0  0  0  0  0
    3.5160   -2.0250    0.0000 C   0  0  0  0  0  0  0  0  0  0  0  0
    4.2880   -3.3110    0.0000 C   0  0  0  0  0  0  0  0  0  0  0  0
    5.7880   -3.2860    0.0000 C   0  0  2  0  0  0  0  0  0  0  0  0
    6.5160   -1.9740    0.0000 C   0  0  2  0  0  0  0  0  0  0  0  0
    5.7440   -0.6880    0.0000 O   0  0  0  0  0  0  0  0  0  0  0  0
    8.0160   -1.9490    0.0000 C   0  0  2  0  0  0  0  0  0  0  0  0
    8.7870   -3.2360    0.0000 C   0  0  2  0  0  0  0  0  0  0  0  0
    8.0590   -4.5470    0.0000 O   0  0  0  0  0  0  0  0  0  0  0  0
   10.2870   -3.2110    0.0000 C   0  0  1  0  0  0  0  0  0  0  0  0
   11.0590   -4.4970    0.0000 C   0  0  1  0  0  0  0  0  0  0  0  0
   10.3300   -5.8080    0.0000 O   0  0  0  0  0  0  0  0  0  0  0  0
   12.5580   -4.4720    0.0000 C   0  0  0  0  0  0  0  0  0  0  0  0
   13.2870   -3.1610    0.0000 C   0  0  0  0  0  0  0  0  0  0  0  0
   13.3300   -5.7580    0.0000 C   0  0  0  0  0  0  0  0  0  0  0  0
   11.0150   -1.8990    0.0000 C   0  0  0  0  0  0  0  0  0  0  0  0
    8.7440   -0.6380    0.0000 C   0  0  0  0  0  0  0  0  0  0  0  0
    6.5590   -4.5720    0.0000 C   0  0  0  0  0  0  0  0  0  0  0  0
   -0.2550   -0.7880    0.0000 C   0  0  2  0  0  0  0  0  0  0  0  0
    0.4480   -2.1130    0.0000 C   0  0  0  0  0  0  0  0  0  0  0  0
   -1.6310   -1.3850    0.0000 C   0  0  0  0  0  0  0  0  0  0  0  0
   -1.9570   -2.8500    0.0000 O   0  0  0  0  0  0  0  0  0  0  0  0
   -2.6240   -0.2610    0.0000 C   0  0  0  0  0  0  0  0  0  0  0  0
   -4.1240   -0.2470    0.0000 C   0  0  0  0  0  0  0  0  0  0  0  0
   -4.8860   -1.5390    0.0000 C   0  0  0  0  0  0  0  0  0  0  0  0
   -4.1490   -2.8450    0.0000 O   0  0  0  0  0  0  0  0  0  0  0  0
   -6.3860   -1.5250    0.0000 C   0  0  0  0  0  0  0  0  0  0  0  0
   -6.9120   -2.9290    0.0000 C   0  0  0  0  0  0  0  0  0  0  0  0
   -8.2780   -3.5500    0.0000 N   0  0  0  0  0  0  0  0  0  0  0  0
   -9.2310   -2.3920    0.0000 N   0  0  0  0  0  0  0  0  0  0  0  0
   -9.2170   -0.8920    0.0000 C   0  0  0  0  0  0  0  0  0  0  0  0
  -10.5090   -0.1300    0.0000 C   0  0  0  0  0  0  0  0  0  0  0  0
  -11.8150   -0.8680    0.0000 N   0  0  0  0  0  0  0  0  0  0  0  0
  -11.8290   -2.3680    0.0000 C   0  0  0  0  0  0  0  0  0  0  0  0
  -10.5370   -3.1300    0.0000 C   0  0  0  0  0  0  0  0  0  0  0  0
   -7.1240   -0.2190    0.0000 C   0  0  0  0  0  0  0  0  0  0  0  0
   -8.5980    0.0560    0.0000 N   0  0  0  0  0  0  0  0  0  0  0  0
   -6.3620    1.0730    0.0000 C   0  0  0  0  0  0  0  0  0  0  0  0
   -7.0990    2.3790    0.0000 O   0  0  0  0  0  0  0  0  0  0  0  0
   -4.8620    1.0590    0.0000 C   0  0  0  0  0  0  0  0  0  0  0  0
   -4.0990    2.3510    0.0000 C   0  0  0  0  0  0  0  0  0  0  0  0
   -4.8370    3.6570    0.0000 O   0  0  0  0  0  0  0  0  0  0  0  0
   -2.5990    2.3370    0.0000 C   0  0  0  0  0  0  0  0  0  0  0  0
   -1.8370    3.6290    0.0000 C   0  0  0  0  0  0  0  0  0  0  0  0
   -1.8620    1.0310    0.0000 C   0  0  0  0  0  0  0  0  0  0  0  0
   -0.3980    0.7050    0.0000 O   0  0  0  0  0  0  0  0  0  0  0  0
  1  2  1  0  0  0  0
 20  1  1  6  0  0  0
  2  3  2  0  0  0  0
  3  4  1  0  0  0  0
  4  5  1  0  0  0  0
  5  6  1  0  0  0  0
  5 19  1  6  0  0  0
  6  7  1  6  0  0  0
  6  8  1  0  0  0  0
  8  9  1  0  0  0  0
  8 18  1  1  0  0  0
  9 10  1  1  0  0  0
  9 11  1  0  0  0  0
 11 12  1  0  0  0  0
 11 17  1  6  0  0  0
 12 13  1  6  0  0  0
 12 14  1  0  0  0  0
 14 15  1  0  0  0  0
 14 16  1  0  0  0  0
 20 21  1  1  0  0  0
 20 22  1  0  0  0  0
 20 47  1  0  0  0  0
 22 23  2  0  0  0  0
 22 24  1  0  0  0  0
 24 25  1  0  0  0  0
 24 46  2  0  0  0  0
 25 26  2  0  0  0  0
 25 41  1  0  0  0  0
 26 27  1  0  0  0  0
 26 28  1  0  0  0  0
 28 29  1  0  0  0  0
 28 37  2  0  0  0  0
 29 30  2  0  0  0  0
 30 31  1  0  0  0  0
 31 32  1  0  0  0  0
 31 36  1  0  0  0  0
 32 33  1  0  0  0  0
 33 34  1  0  0  0  0
 34 35  1  0  0  0  0
 35 36  1  0  0  0  0
 37 38  1  0  0  0  0
 37 39  1  0  0  0  0
 39 40  1  0  0  0  0
 39 41  2  0  0  0  0
 41 42  1  0  0  0  0
 42 43  1  0  0  0  0
 42 44  2  0  0  0  0
 44 45  1  0  0  0  0
 44 46  1  0  0  0  0
 46 47  1  0  0  0  0
M  END
>  <name>
O(/C=C/[C;ether][C@H]([C@H]([O;ester])[C@H]([C@H](O)[C@@H]([C@@H](O)C([C;olefin])C)C)C)C)[C@]1(C)C(=O)c2c3c(O)c(/C=N\N4CC[N;amine]CC4)c([N;amide])c(O)c3c(O)c(C)c2O1

>  <apo>
5

>  <freq>
1

>  <freq0>
0

>  <freq1>
1

>  <freqA>
0.99887151

>  <a_count>
97

$$$$

  MOE2015           2D

 46 50  0  0  1  0  0  0  0  0999 V2000
   -0.0010    0.2570    0.0000 O   0  0  0  0  0  0  0  0  0  0  0  0
    1.4990    0.2720    0.0000 C   0  0  0  0  0  0  0  0  0  0  0  0
    2.2350    1.5790    0.0000 C   0  0  0  0  0  0  0  0  0  0  0  0
    3.7350    1.5940    0.0000 C   0  0  0  0  0  0  0  0  0  0  0  0
    4.4720    2.9000    0.0000 C   0  0  2  0  0  0  0  0  0  0  0  0
    5.9720    2.9160    0.0000 C   0  0  2  0  0  0  0  0  0  0  0  0
    6.7090    4.2220    0.0000 O   0  0  0  0  0  0  0  0  0  0  0  0
    6.7350    1.6240    0.0000 C   0  0  2  0  0  0  0  0  0  0  0  0
    8.2350    1.6390    0.0000 C   0  0  2  0  0  0  0  0  0  0  0  0
    8.9720    2.9460    0.0000 O   0  0  0  0  0  0  0  0  0  0  0  0
    8.9980    0.3480    0.0000 C   0  0  1  0  0  0  0  0  0  0  0  0
   10.4980    0.3630    0.0000 C   0  0  1  0  0  0  0  0  0  0  0  0
   11.2350    1.6700    0.0000 O   0  0  0  0  0  0  0  0  0  0  0  0
   11.2610   -0.9280    0.0000 C   0  0  0  0  0  0  0  0  0  0  0  0
   10.5240   -2.2350    0.0000 C   0  0  0  0  0  0  0  0  0  0  0  0
   12.7610   -0.9130    0.0000 C   0  0  0  0  0  0  0  0  0  0  0  0
    8.2610   -0.9580    0.0000 C   0  0  0  0  0  0  0  0  0  0  0  0
    5.9980    0.3180    0.0000 C   0  0  0  0  0  0  0  0  0  0  0  0
    3.7090    4.1920    0.0000 C   0  0  0  0  0  0  0  0  0  0  0  0
   -0.7380   -1.0500    0.0000 C   0  0  2  0  0  0  0  0  0  0  0  0
    0.7610   -1.1000    0.0000 C   0  0  0  0  0  0  0  0  0  0  0  0
   -2.0900   -0.4000    0.0000 C   0  0  0  0  0  0  0  0  0  0  0  0
   -2.3590    1.0760    0.0000 O   0  0  0  0  0  0  0  0  0  0  0  0
   -3.1260   -1.4850    0.0000 C   0  0  0  0  0  0  0  0  0  0  0  0
   -2.4140   -2.8050    0.0000 C   0  0  0  0  0  0  0  0  0  0  0  0
   -3.2020   -4.0820    0.0000 C   0  0  0  0  0  0  0  0  0  0  0  0
   -2.4900   -5.4020    0.0000 C   0  0  0  0  0  0  0  0  0  0  0  0
   -4.7010   -4.0380    0.0000 C   0  0  0  0  0  0  0  0  0  0  0  0
   -5.4880   -5.3150    0.0000 O   0  0  0  0  0  0  0  0  0  0  0  0
   -5.4130   -2.7180    0.0000 C   0  0  0  0  0  0  0  0  0  0  0  0
   -6.9120   -2.6740    0.0000 C   0  0  0  0  0  0  0  0  0  0  0  0
   -7.7000   -3.9510    0.0000 O   0  0  0  0  0  0  0  0  0  0  0  0
   -7.6240   -1.3540    0.0000 C   0  0  0  0  0  0  0  0  0  0  0  0
   -9.1230   -1.3100    0.0000 N   0  0  0  0  0  0  0  0  0  0  0  0
   -6.8360   -0.0770    0.0000 C   0  0  0  0  0  0  0  0  0  0  0  0
   -7.2580    1.3620    0.0000 N   0  0  0  0  0  0  0  0  0  0  0  0
   -6.0190    2.2080    0.0000 C   0  0  0  0  0  0  0  0  0  0  0  0
   -4.8320    1.2920    0.0000 N   0  0  0  0  0  0  0  0  0  0  0  0
   -5.3370   -0.1210    0.0000 C   0  0  0  0  0  0  0  0  0  0  0  0
   -4.6250   -1.4410    0.0000 C   0  0  0  0  0  0  0  0  0  0  0  0
   -7.3360    2.9280    0.0000 C   0  0  0  0  0  0  0  0  0  0  0  0
   -7.3700    4.4280    0.0000 C   0  0  0  0  0  0  0  0  0  0  0  0
   -6.0890    5.2070    0.0000 N   0  0  0  0  0  0  0  0  0  0  0  0
   -4.7730    4.4880    0.0000 C   0  0  0  0  0  0  0  0  0  0  0  0
   -4.7380    2.9880    0.0000 C   0  0  0  0  0  0  0  0  0  0  0  0
   -0.9380   -2.5360    0.0000 O   0  0  0  0  0  0  0  0  0  0  0  0
  1  2  1  0  0  0  0
 20  1  1  1  0  0  0
  2  3  2  0  0  0  0
  3  4  1  0  0  0  0
  4  5  1  0  0  0  0
  5  6  1  0  0  0  0
  5 19  1  1  0  0  0
  6  7  1  6  0  0  0
  6  8  1  0  0  0  0
  8  9  1  0  0  0  0
  8 18  1  6  0  0  0
  9 10  1  6  0  0  0
  9 11  1  0  0  0  0
 11 12  1  0  0  0  0
 11 17  1  1  0  0  0
 12 13  1  1  0  0  0
 12 14  1  0  0  0  0
 14 15  1  0  0  0  0
 14 16  1  0  0  0  0
 20 21  1  6  0  0  0
 20 22  1  0  0  0  0
 20 46  1  0  0  0  0
 22 23  2  0  0  0  0
 22 24  1  0  0  0  0
 24 25  1  0  0  0  0
 24 40  2  0  0  0  0
 25 26  2  0  0  0  0
 25 46  1  0  0  0  0
 26 27  1  0  0  0  0
 26 28  1  0  0  0  0
 28 29  1  0  0  0  0
 28 30  2  0  0  0  0
 30 31  1  0  0  0  0
 30 40  1  0  0  0  0
 31 32  2  0  0  0  0
 31 33  1  0  0  0  0
 33 34  1  0  0  0  0
 33 35  2  0  0  0  0
 35 36  1  0  0  0  0
 35 39  1  0  0  0  0
 36 37  1  0  0  0  0
 37 38  1  0  0  0  0
 37 41  1  0  0  0  0
 37 45  1  0  0  0  0
 38 39  2  0  0  0  0
 39 40  1  0  0  0  0
 41 42  1  0  0  0  0
 42 43  1  0  0  0  0
 43 44  1  0  0  0  0
 44 45  1  0  0  0  0
M  END
>  <name>
O(/C=C/[C;ether][C@H]([C@H]([O;ester])[C@H]([C@H](O)[C@@H]([C@@H](O)C([C;olefin])C)C)C)C)[C@]1(C)C(=O)c2c(c(C)c(O)c3C(=O)C([N;amide])=C4NC5(N=C4c23)CC[N;amine]CC5)O1

>  <apo>
5

>  <freq>
1

>  <freq0>
0

>  <freq1>
1

>  <freqA>
0.99887151

>  <a_count>
94

$$$$

  MOE2015           2D

 46 50  0  0  1  0  0  0  0  0999 V2000
    0.8370   -3.0300    0.0000 O   0  0  0  0  0  0  0  0  0  0  0  0
    2.1250   -2.2600    0.0000 C   0  0  0  0  0  0  0  0  0  0  0  0
    3.4350   -2.9900    0.0000 C   0  0  0  0  0  0  0  0  0  0  0  0
    4.7220   -2.2190    0.0000 C   0  0  0  0  0  0  0  0  0  0  0  0
    6.0330   -2.9490    0.0000 C   0  0  2  0  0  0  0  0  0  0  0  0
    7.3200   -2.1790    0.0000 C   0  0  2  0  0  0  0  0  0  0  0  0
    7.2970   -0.6790    0.0000 O   0  0  0  0  0  0  0  0  0  0  0  0
    8.6310   -2.9080    0.0000 C   0  0  2  0  0  0  0  0  0  0  0  0
    9.9180   -2.1380    0.0000 C   0  0  2  0  0  0  0  0  0  0  0  0
    9.8940   -0.6380    0.0000 O   0  0  0  0  0  0  0  0  0  0  0  0
   11.2280   -2.8680    0.0000 C   0  0  1  0  0  0  0  0  0  0  0  0
   12.5160   -2.0980    0.0000 C   0  0  1  0  0  0  0  0  0  0  0  0
   12.4920   -0.5980    0.0000 O   0  0  0  0  0  0  0  0  0  0  0  0
   13.8260   -2.8270    0.0000 C   0  0  0  0  0  0  0  0  0  0  0  0
   15.1130   -2.0570    0.0000 C   0  0  0  0  0  0  0  0  0  0  0  0
   13.8500   -4.3270    0.0000 C   0  0  0  0  0  0  0  0  0  0  0  0
   11.2520   -4.3680    0.0000 C   0  0  0  0  0  0  0  0  0  0  0  0
    8.6540   -4.4080    0.0000 C   0  0  0  0  0  0  0  0  0  0  0  0
    6.0560   -4.4490    0.0000 C   0  0  0  0  0  0  0  0  0  0  0  0
   -0.4730   -2.3010    0.0000 C   0  0  2  0  0  0  0  0  0  0  0  0
   -0.5150   -3.8000    0.0000 C   0  0  0  0  0  0  0  0  0  0  0  0
   -1.9670   -2.1610    0.0000 C   0  0  0  0  0  0  0  0  0  0  0  0
   -2.9580   -3.2870    0.0000 O   0  0  0  0  0  0  0  0  0  0  0  0
   -2.2950   -0.6970    0.0000 C   0  0  0  0  0  0  0  0  0  0  0  0
   -3.6020    0.0380    0.0000 C   0  0  0  0  0  0  0  0  0  0  0  0
   -3.6190    1.5380    0.0000 C   0  0  0  0  0  0  0  0  0  0  0  0
   -4.9270    2.2730    0.0000 C   0  0  0  0  0  0  0  0  0  0  0  0
   -4.9440    3.7730    0.0000 O   0  0  0  0  0  0  0  0  0  0  0  0
   -6.2170    1.5090    0.0000 C   0  0  0  0  0  0  0  0  0  0  0  0
   -7.5250    2.2440    0.0000 N   0  0  0  0  0  0  0  0  0  0  0  0
   -6.2000    0.0090    0.0000 C   0  0  0  0  0  0  0  0  0  0  0  0
   -7.3040   -1.0070    0.0000 N   0  0  0  0  0  0  0  0  0  0  0  0
   -6.6780   -2.3710    0.0000 C   0  0  0  0  0  0  0  0  0  0  0  0
   -5.1880   -2.1970    0.0000 N   0  0  0  0  0  0  0  0  0  0  0  0
   -4.8930   -0.7260    0.0000 C   0  0  0  0  0  0  0  0  0  0  0  0
   -7.5460   -3.5940    0.0000 C   0  0  0  0  0  0  0  0  0  0  0  0
   -9.0400   -3.4540    0.0000 C   0  0  0  0  0  0  0  0  0  0  0  0
   -9.9080   -4.6770    0.0000 C   0  0  0  0  0  0  0  0  0  0  0  0
   -9.6650   -2.0910    0.0000 C   0  0  0  0  0  0  0  0  0  0  0  0
   -8.7970   -0.8670    0.0000 C   0  0  0  0  0  0  0  0  0  0  0  0
   -2.3290    2.3030    0.0000 C   0  0  0  0  0  0  0  0  0  0  0  0
   -2.3460    3.8030    0.0000 O   0  0  0  0  0  0  0  0  0  0  0  0
   -1.0210    1.5670    0.0000 C   0  0  0  0  0  0  0  0  0  0  0  0
    0.2690    2.3320    0.0000 C   0  0  0  0  0  0  0  0  0  0  0  0
   -1.0050    0.0680    0.0000 C   0  0  0  0  0  0  0  0  0  0  0  0
    0.1210   -0.9240    0.0000 O   0  0  0  0  0  0  0  0  0  0  0  0
  1  2  1  0  0  0  0
 20  1  1  6  0  0  0
  2  3  2  0  0  0  0
  3  4  1  0  0  0  0
  4  5  1  0  0  0  0
  5  6  1  0  0  0  0
  5 19  1  6  0  0  0
  6  7  1  6  0  0  0
  6  8  1  0  0  0  0
  8  9  1  0  0  0  0
  8 18  1  6  0  0  0
  9 10  1  6  0  0  0
  9 11  1  0  0  0  0
 11 12  1  0  0  0  0
 11 17  1  1  0  0  0
 12 13  1  1  0  0  0
 12 14  1  0  0  0  0
 14 15  1  0  0  0  0
 14 16  1  0  0  0  0
 20 21  1  1  0  0  0
 20 22  1  0  0  0  0
 20 46  1  0  0  0  0
 22 23  2  0  0  0  0
 22 24  1  0  0  0  0
 24 25  1  0  0  0  0
 24 45  2  0  0  0  0
 25 26  1  0  0  0  0
 25 35  2  0  0  0  0
 26 27  2  0  0  0  0
 26 41  1  0  0  0  0
 27 28  1  0  0  0  0
 27 29  1  0  0  0  0
 29 30  1  0  0  0  0
 29 31  2  0  0  0  0
 31 32  1  0  0  0  0
 31 35  1  0  0  0  0
 32 33  1  0  0  0  0
 32 40  1  0  0  0  0
 33 34  2  0  0  0  0
 33 36  1  0  0  0  0
 34 35  1  0  0  0  0
 36 37  2  0  0  0  0
 37 38  1  0  0  0  0
 37 39  1  0  0  0  0
 39 40  2  0  0  0  0
 41 42  1  0  0  0  0
 41 43  2  0  0  0  0
 43 44  1  0  0  0  0
 43 45  1  0  0  0  0
 45 46  1  0  0  0  0
M  END
>  <name>
O(/C=C/[C;ether][C@H]([C@H]([O;ester])[C@H]([C@H](O)[C@@H]([C@@H](O)C([C;olefin])C)C)C)C)[C@]1(C)C(=O)c2c3c(c(O)c([N;amide])c4n5c(nc34)C=C(C)C=C5)c(O)c(C)c2O1

>  <apo>
4

>  <freq>
1

>  <freq0>
0

>  <freq1>
1

>  <freqA>
0.99887151

>  <a_count>
91

$$$$

  MOE2015           2D

 45 49  0  0  1  0  0  0  0  0999 V2000
    5.5960    4.1130    0.0000 O   0  0  0  0  0  0  0  0  0  0  0  0
    5.6010    5.6130    0.0000 C   0  0  0  0  0  0  0  0  0  0  0  0
    6.9020    6.3590    0.0000 O   0  0  0  0  0  0  0  0  0  0  0  0
    8.1990    5.6050    0.0000 C   0  0  0  0  0  0  0  0  0  0  0  0
    4.3040    6.3670    0.0000 C   0  0  0  0  0  0  0  0  0  0  0  0
    3.0030    5.6210    0.0000 C   0  0  0  0  0  0  0  0  0  0  0  0
    1.9920    6.5080    0.0000 C   0  0  0  0  0  0  0  0  0  0  0  0
    2.5010    7.8940    0.0000 C   0  0  0  0  0  0  0  0  0  0  0  0
    3.9980    7.8120    0.0000 C   0  0  0  0  0  0  0  0  0  0  0  0
    4.8180    9.0690    0.0000 O   0  0  0  0  0  0  0  0  0  0  0  0
    1.2480    8.8060    0.0000 C   0  0  0  0  0  0  0  0  0  0  0  0
    1.2230   10.3060    0.0000 C   0  0  0  0  0  0  0  0  0  0  0  0
    0.0850    7.8970    0.0000 C   0  0  0  0  0  0  0  0  0  0  0  0
    0.5240    6.4970    0.0000 N   0  5  0  0  0  0  0  0  0  0  0  0
   -1.0690    8.5870    0.0000 C   0  0  0  0  0  0  0  0  0  0  0  0
   -1.9250    7.5480    0.0000 C   0  0  0  0  0  0  0  0  0  0  0  0
   -3.3260    8.0140    0.0000 C   0  0  2  0  0  0  0  0  0  0  0  0
   -3.8060    9.4350    0.0000 C   0  0  0  0  0  0  0  0  0  0  0  0
   -5.2770    9.7290    0.0000 C   0  0  0  0  0  0  0  0  0  0  0  0
   -4.1990    6.7330    0.0000 C   0  0  1  0  0  0  0  0  0  0  0  0
   -5.6970    6.6610    0.0000 C   0  0  0  0  0  0  0  0  0  0  0  0
   -3.2530    5.5990    0.0000 C   0  0  0  0  0  0  0  0  0  0  0  0
   -1.8670    6.0820    0.0000 N   0  0  0  0  0  0  0  0  0  0  0  0
   -3.9010    4.4250    0.0000 C   0  0  0  0  0  0  0  0  0  0  0  0
   -2.8900    3.5370    0.0000 C   0  0  0  0  0  0  0  0  0  0  0  0
   -3.4000    2.1510    0.0000 C   0  0  0  0  0  0  0  0  0  0  0  0
   -4.8350    1.7160    0.0000 C   0  0  0  0  0  0  0  0  0  0  0  0
   -5.9300    2.7410    0.0000 O   0  0  0  0  0  0  0  0  0  0  0  0
   -5.1760    0.2550    0.0000 C   0  0  0  0  0  0  0  0  0  0  0  0
   -2.1500    1.2380    0.0000 C   0  0  0  0  0  0  0  0  0  0  0  0
   -2.1240   -0.2620    0.0000 C   0  0  0  0  0  0  0  0  0  0  0  0
   -0.9860    2.1480    0.0000 C   0  0  0  0  0  0  0  0  0  0  0  0
   -1.4230    3.5480    0.0000 N   0  5  0  0  0  0  0  0  0  0  0  0
    0.1680    1.4580    0.0000 C   0  0  0  0  0  0  0  0  0  0  0  0
    1.0230    2.4960    0.0000 C   0  0  0  0  0  0  0  0  0  0  0  0
    2.4250    2.0300    0.0000 C   0  0  1  0  0  0  0  0  0  0  0  0
    2.9050    0.6090    0.0000 C   0  0  0  0  0  0  0  0  0  0  0  0
    3.2950    3.3110    0.0000 C   0  0  2  0  0  0  0  0  0  0  0  0
    4.7930    3.3840    0.0000 C   0  0  0  0  0  0  0  0  0  0  0  0
    5.6050    2.1230    0.0000 C   0  0  0  0  0  0  0  0  0  0  0  0
    7.1030    2.1950    0.0000 C   0  0  0  0  0  0  0  0  0  0  0  0
    7.9150    0.9340    0.0000 O   0  0  0  0  0  0  0  0  0  0  0  0
    7.7900    3.5290    0.0000 O   0  0  0  0  0  0  0  0  0  0  0  0
    2.3490    4.4450    0.0000 C   0  0  0  0  0  0  0  0  0  0  0  0
    0.9640    3.9620    0.0000 N   0  0  0  0  0  0  0  0  0  0  0  0
  1  2  2  0  0  0  0
  2  3  1  0  0  0  0
  2  5  1  0  0  0  0
  3  4  1  0  0  0  0
  5  6  1  0  0  0  0
  6  7  2  0  0  0  0
  6 44  1  0  0  0  0
  7  8  1  0  0  0  0
  7 14  1  0  0  0  0
  8  9  1  0  0  0  0
  8 11  2  0  0  0  0
  9 10  2  0  0  0  0
 11 12  1  0  0  0  0
 11 13  1  0  0  0  0
 13 14  1  0  0  0  0
 13 15  2  0  0  0  0
 15 16  1  0  0  0  0
 16 17  1  0  0  0  0
 16 23  2  0  0  0  0
 17 18  1  1  0  0  0
 17 20  1  0  0  0  0
 18 19  1  0  0  0  0
 20 21  1  6  0  0  0
 20 22  1  0  0  0  0
 22 23  1  0  0  0  0
 22 24  2  0  0  0  0
 24 25  1  0  0  0  0
 25 26  2  0  0  0  0
 25 33  1  0  0  0  0
 26 27  1  0  0  0  0
 26 30  1  0  0  0  0
 27 28  2  0  0  0  0
 27 29  1  0  0  0  0
 30 31  1  0  0  0  0
 30 32  2  0  0  0  0
 32 33  1  0  0  0  0
 32 34  1  0  0  0  0
 34 35  2  0  0  0  0
 35 36  1  0  0  0  0
 35 45  1  0  0  0  0
 36 37  1  6  0  0  0
 36 38  1  0  0  0  0
 38 39  1  1  0  0  0
 38 44  1  0  0  0  0
 39 40  1  0  0  0  0
 40 41  1  0  0  0  0
 41 42  2  0  0  0  0
 41 43  1  0  0  0  0
 44 45  2  0  0  0  0
M  CHG  1  14  -1
M  CHG  1  33  -1
M  END
>  <name>
O=C(OC)CC=1c2c([C;amide]=O)c(C)c([n-]2)C=C2[C@H](CC)[C@@H](C)C(=N2)C=[cH0]2c(C(=O)C)c(C)[cH0]([n-]2)=CC=2[C@@H](C)[C@H](CCC(=O)O)C=1N=2

>  <apo>
1

>  <freq>
1

>  <freq0>
0

>  <freq1>
1

>  <freqA>
0.99887151

>  <a_count>
83

$$$$

  MOE2015           2D

 33 37  0  0  1  0  0  0  0  0999 V2000
   -1.2240    7.7030    0.0000 O   0  0  0  0  0  0  0  0  0  0  0  0
   -1.9640    6.3980    0.0000 C   0  0  0  0  0  0  0  0  0  0  0  0
   -3.4640    6.3870    0.0000 O   0  0  0  0  0  0  0  0  0  0  0  0
   -1.2040    5.1050    0.0000 C   0  0  2  0  0  0  0  0  0  0  0  0
   -1.9440    3.8000    0.0000 C   0  0  2  0  0  0  0  0  0  0  0  0
   -3.2470    3.0570    0.0000 C   0  0  1  0  0  0  0  0  0  0  0  0
   -3.2550    1.5570    0.0000 C   0  0  0  0  0  0  0  0  0  0  0  0
   -1.9600    0.8000    0.0000 C   0  0  0  0  0  0  0  0  0  0  0  0
   -4.5580    0.8150    0.0000 C   0  0  0  0  0  0  0  0  0  0  0  0
   -4.5420    3.8140    0.0000 C   0  0  0  0  0  0  0  0  0  0  0  0
   -3.2430    4.5510    0.0000 C   0  0  0  0  0  0  0  0  0  0  0  0
   -1.1840    2.5070    0.0000 C   0  0  0  0  0  0  0  0  0  0  0  0
    0.3160    2.5190    0.0000 C   0  0  0  0  0  0  0  0  0  0  0  0
    1.0560    3.8230    0.0000 C   0  0  1  0  0  0  0  0  0  0  0  0
    1.8020    2.5220    0.0000 C   0  0  0  0  0  0  0  0  0  0  0  0
    0.2960    5.1170    0.0000 C   0  0  2  0  0  0  0  0  0  0  0  0
   -0.4500    6.4180    0.0000 C   0  0  0  0  0  0  0  0  0  0  0  0
    1.0360    6.4210    0.0000 C   0  0  0  0  0  0  0  0  0  0  0  0
    2.5360    6.4330    0.0000 C   0  0  0  0  0  0  0  0  0  0  0  0
    3.2890    5.1080    0.0000 C   0  0  0  0  0  0  0  0  0  0  0  0
    2.5520    3.8400    0.0000 C   0  0  2  0  0  0  0  0  0  0  0  0
    3.2780    2.5580    0.0000 C   0  0  0  0  0  0  0  0  0  0  0  0
    4.7540    2.5610    0.0000 C   0  0  0  0  0  0  0  0  0  0  0  0
    5.4910    3.8290    0.0000 C   0  0  2  0  0  0  0  0  0  0  0  0
    6.9120    3.8380    0.0000 C   0  0  1  0  0  0  0  0  0  0  0  0
    6.1580    2.5410    0.0000 C   0  0  0  0  0  0  0  0  0  0  0  0
    7.6120    2.5990    0.0000 C   0  0  0  0  0  0  0  0  0  0  0  0
    7.8610    4.1770    0.0000 O   0  0  0  0  0  0  0  0  0  0  0  0
    6.2050    5.1080    0.0000 C   0  0  0  0  0  0  0  0  0  0  0  0
    4.7630    5.1120    0.0000 C   0  0  1  0  0  0  0  0  0  0  0  0
    5.4990    6.3800    0.0000 C   0  0  0  0  0  0  0  0  0  0  0  0
    6.9640    6.3630    0.0000 C   0  0  0  0  0  0  0  0  0  0  0  0
    7.7010    5.1030    0.0000 C   0  0  0  0  0  0  0  0  0  0  0  0
  1  2  2  0  0  0  0
  2  3  1  0  0  0  0
  4  2  1  1  0  0  0
  4  5  1  0  0  0  0
  4 16  1  0  0  0  0
  5  6  1  0  0  0  0
  5 11  1  1  0  0  0
  5 12  1  0  0  0  0
  6  7  1  0  0  0  0
  6 10  1  1  0  0  0
  7  8  1  0  0  0  0
  7  9  1  0  0  0  0
 12 13  1  0  0  0  0
 13 14  1  0  0  0  0
 14 15  1  6  0  0  0
 14 16  1  0  0  0  0
 14 21  1  0  0  0  0
 16 17  1  1  0  0  0
 16 18  1  0  0  0  0
 18 19  1  0  0  0  0
 19 20  2  0  0  0  0
 20 21  1  0  0  0  0
 20 30  1  0  0  0  0
 21 22  1  6  0  0  0
 22 23  1  0  0  0  0
 24 23  1  1  0  0  0
 24 25  1  0  0  0  0
 30 24  1  1  0  0  0
 25 26  1  1  0  0  0
 25 27  1  0  0  0  0
 25 33  1  0  0  0  0
 27 28  1  0  0  0  0
 28 29  1  0  0  0  0
 30 29  1  6  0  0  0
 30 31  1  0  0  0  0
 31 32  1  0  0  0  0
 32 33  1  0  0  0  0
M  END
>  <name>
O=C(O)[C@@H]1[C@]([C@@H](C(C)C)C)(C)CC[C@@]2(C)[C@@]1(C)CC=C1[C@@H]2CC[C@@H]2[C@@]3(C)COC[C@@]12C[C;NaroC][C;ether]3

>  <apo>
2

>  <freq>
1

>  <freq0>
0

>  <freq1>
1

>  <freqA>
0.99887151

>  <a_count>
81

$$$$

  MOE2015           2D

 31 32  0  0  1  0  0  0  0  0999 V2000
   -0.4350   -0.7540    0.0000 O   0  0  0  0  0  0  0  0  0  0  0  0
    0.3150   -2.0530    0.0000 C   0  0  0  0  0  0  0  0  0  0  0  0
   -0.4350   -3.3520    0.0000 C   0  0  0  0  0  0  0  0  0  0  0  0
   -1.9350   -3.3520    0.0000 C   0  0  0  0  0  0  0  0  0  0  0  0
    0.3150   -4.6510    0.0000 C   0  0  0  0  0  0  0  0  0  0  0  0
   -0.4350   -5.9500    0.0000 C   0  0  0  0  0  0  0  0  0  0  0  0
    1.8150   -4.6510    0.0000 C   0  0  0  0  0  0  0  0  0  0  0  0
    2.5650   -5.9500    0.0000 O   0  0  0  0  0  0  0  0  0  0  0  0
    4.0650   -5.9500    0.0000 C   0  0  3  0  0  0  0  0  0  0  0  0
    5.3640   -6.7000    0.0000 C   0  0  0  0  0  0  0  0  0  0  0  0
    6.6630   -5.9500    0.0000 C   0  0  0  0  0  0  0  0  0  0  0  0
    7.9620   -6.7000    0.0000 C   0  0  0  0  0  0  0  0  0  0  0  0
    9.2610   -5.9500    0.0000 C   0  0  3  0  0  0  0  0  0  0  0  0
   10.5600   -6.7000    0.0000 C   0  0  0  0  0  0  0  0  0  0  0  0
   11.8590   -5.9500    0.0000 C   0  0  0  0  0  0  0  0  0  0  0  0
   13.1580   -6.7000    0.0000 C   0  0  0  0  0  0  0  0  0  0  0  0
   14.4570   -5.9500    0.0000 C   0  0  3  0  0  0  0  0  0  0  0  0
   15.7560   -6.7000    0.0000 C   0  0  0  0  0  0  0  0  0  0  0  0
   17.0550   -5.9500    0.0000 C   0  0  0  0  0  0  0  0  0  0  0  0
   18.3540   -6.7000    0.0000 C   0  0  0  0  0  0  0  0  0  0  0  0
   19.6530   -5.9500    0.0000 C   0  0  0  0  0  0  0  0  0  0  0  0
   19.6530   -4.4500    0.0000 C   0  0  0  0  0  0  0  0  0  0  0  0
   20.9520   -6.7000    0.0000 C   0  0  0  0  0  0  0  0  0  0  0  0
   14.4570   -4.4500    0.0000 C   0  0  0  0  0  0  0  0  0  0  0  0
    9.2610   -4.4500    0.0000 C   0  0  0  0  0  0  0  0  0  0  0  0
    4.0650   -7.4500    0.0000 C   0  0  0  0  0  0  0  0  0  0  0  0
    4.8150   -4.6510    0.0000 C   0  0  0  0  0  0  0  0  0  0  0  0
    4.0650   -3.3520    0.0000 C   0  0  0  0  0  0  0  0  0  0  0  0
    2.5650   -3.3520    0.0000 C   0  0  0  0  0  0  0  0  0  0  0  0
    1.8150   -2.0530    0.0000 C   0  0  0  0  0  0  0  0  0  0  0  0
    2.5650   -0.7540    0.0000 C   0  0  0  0  0  0  0  0  0  0  0  0
  1  2  1  0  0  0  0
  2  3  1  0  0  0  0
  2 30  2  0  0  0  0
  3  4  1  0  0  0  0
  3  5  2  0  0  0  0
  5  6  1  0  0  0  0
  5  7  1  0  0  0  0
  7  8  1  0  0  0  0
  7 29  2  0  0  0  0
  8  9  1  0  0  0  0
  9 10  1  0  0  0  0
  9 26  1  0  0  0  0
  9 27  1  0  0  0  0
 10 11  1  0  0  0  0
 11 12  1  0  0  0  0
 12 13  1  0  0  0  0
 13 14  1  0  0  0  0
 13 25  1  0  0  0  0
 14 15  1  0  0  0  0
 15 16  1  0  0  0  0
 16 17  1  0  0  0  0
 17 18  1  0  0  0  0
 17 24  1  0  0  0  0
 18 19  1  0  0  0  0
 19 20  1  0  0  0  0
 20 21  1  0  0  0  0
 21 22  1  0  0  0  0
 21 23  1  0  0  0  0
 27 28  1  0  0  0  0
 28 29  1  0  0  0  0
 29 30  1  0  0  0  0
 30 31  1  0  0  0  0
M  END
>  <name>
[O;ester]c1c(C)c(C)c2OC(CCCC(CCCC(CCCC(C)C)C)C)(C)CCc2c1C

>  <apo>
1

>  <freq>
1

>  <freq0>
0

>  <freq1>
1

>  <freqA>
0.99887151

>  <a_count>
81

$$$$

  MOE2015           2D

 39 41  0  0  1  0  0  0  0  0999 V2000
    0.2800    0.7800    0.0000 O   0  0  0  0  0  0  0  0  0  0  0  0
    1.5890    0.0470    0.0000 C   0  0  0  0  0  0  0  0  0  0  0  0
    2.8780    0.8140    0.0000 C   0  0  0  0  0  0  0  0  0  0  0  0
    4.1870    0.0820    0.0000 C   0  0  0  0  0  0  0  0  0  0  0  0
    5.4750    0.8490    0.0000 C   0  0  2  0  0  0  0  0  0  0  0  0
    6.7840    0.1160    0.0000 C   0  0  2  0  0  0  0  0  0  0  0  0
    6.8040   -1.3840    0.0000 O   0  0  0  0  0  0  0  0  0  0  0  0
    8.0730    0.8830    0.0000 C   0  0  2  0  0  0  0  0  0  0  0  0
    9.3820    0.1510    0.0000 C   0  0  2  0  0  0  0  0  0  0  0  0
    9.4020   -1.3490    0.0000 O   0  0  0  0  0  0  0  0  0  0  0  0
   10.6710    0.9180    0.0000 C   0  0  1  0  0  0  0  0  0  0  0  0
   11.9800    0.1850    0.0000 C   0  0  1  0  0  0  0  0  0  0  0  0
   12.0000   -1.3150    0.0000 O   0  0  0  0  0  0  0  0  0  0  0  0
   13.2690    0.9520    0.0000 C   0  0  0  0  0  0  0  0  0  0  0  0
   14.5780    0.2200    0.0000 C   0  0  0  0  0  0  0  0  0  0  0  0
   13.2490    2.4520    0.0000 C   0  0  0  0  0  0  0  0  0  0  0  0
   10.6510    2.4180    0.0000 C   0  0  0  0  0  0  0  0  0  0  0  0
    8.0530    2.3830    0.0000 C   0  0  0  0  0  0  0  0  0  0  0  0
    5.4560    2.3490    0.0000 C   0  0  0  0  0  0  0  0  0  0  0  0
   -1.0090    0.0130    0.0000 C   0  0  2  0  0  0  0  0  0  0  0  0
    0.2600   -0.7880    0.0000 C   0  0  0  0  0  0  0  0  0  0  0  0
   -1.9060   -1.1890    0.0000 C   0  0  0  0  0  0  0  0  0  0  0  0
   -1.4610   -2.6220    0.0000 O   0  0  0  0  0  0  0  0  0  0  0  0
   -3.3270   -0.7080    0.0000 C   0  0  0  0  0  0  0  0  0  0  0  0
   -4.6360   -1.4410    0.0000 C   0  0  0  0  0  0  0  0  0  0  0  0
   -4.6550   -2.9410    0.0000 C   0  0  0  0  0  0  0  0  0  0  0  0
   -3.3660   -3.7070    0.0000 O   0  0  0  0  0  0  0  0  0  0  0  0
   -5.9630   -3.6740    0.0000 C   0  0  0  0  0  0  0  0  0  0  0  0
   -7.2530   -2.9070    0.0000 C   0  0  0  0  0  0  0  0  0  0  0  0
   -8.5610   -3.6400    0.0000 N   0  0  0  0  0  0  0  0  0  0  0  0
   -7.2330   -1.4070    0.0000 C   0  0  0  0  0  0  0  0  0  0  0  0
   -8.5230   -0.6410    0.0000 O   0  0  0  0  0  0  0  0  0  0  0  0
   -5.9250   -0.6740    0.0000 C   0  0  0  0  0  0  0  0  0  0  0  0
   -5.9050    0.8260    0.0000 C   0  0  0  0  0  0  0  0  0  0  0  0
   -7.1950    1.5920    0.0000 O   0  0  0  0  0  0  0  0  0  0  0  0
   -4.5970    1.5590    0.0000 C   0  0  0  0  0  0  0  0  0  0  0  0
   -4.5770    3.0590    0.0000 C   0  0  0  0  0  0  0  0  0  0  0  0
   -3.3080    0.7920    0.0000 C   0  0  0  0  0  0  0  0  0  0  0  0
   -1.8750    1.2370    0.0000 O   0  0  0  0  0  0  0  0  0  0  0  0
  1  2  1  0  0  0  0
 20  1  1  6  0  0  0
  2  3  2  0  0  0  0
  3  4  1  0  0  0  0
  4  5  1  0  0  0  0
  5  6  1  0  0  0  0
  5 19  1  1  0  0  0
  6  7  1  1  0  0  0
  6  8  1  0  0  0  0
  8  9  1  0  0  0  0
  8 18  1  1  0  0  0
  9 10  1  1  0  0  0
  9 11  1  0  0  0  0
 11 12  1  0  0  0  0
 11 17  1  6  0  0  0
 12 13  1  6  0  0  0
 12 14  1  0  0  0  0
 14 15  1  0  0  0  0
 14 16  1  0  0  0  0
 20 21  1  1  0  0  0
 20 22  1  0  0  0  0
 20 39  1  0  0  0  0
 22 23  2  0  0  0  0
 22 24  1  0  0  0  0
 24 25  1  0  0  0  0
 24 38  2  0  0  0  0
 25 26  2  0  0  0  0
 25 33  1  0  0  0  0
 26 27  1  0  0  0  0
 26 28  1  0  0  0  0
 28 29  2  0  0  0  0
 29 30  1  0  0  0  0
 29 31  1  0  0  0  0
 31 32  1  0  0  0  0
 31 33  2  0  0  0  0
 33 34  1  0  0  0  0
 34 35  1  0  0  0  0
 34 36  2  0  0  0  0
 36 37  1  0  0  0  0
 36 38  1  0  0  0  0
 38 39  1  0  0  0  0
M  END
>  <name>
O(/C=C/[C;ether][C@H]([C@H]([O;ester])[C@H]([C@H](O)[C@@H]([C@@H](O)C([C;olefin])C)C)C)C)[C@]1(C)C(=O)c2c3c(O)cc([N;amide])c(O)c3c(O)c(C)c2O1

>  <apo>
4

>  <freq>
1

>  <freq0>
0

>  <freq1>
1

>  <freqA>
0.99887151

>  <a_count>
80

$$$$

  MOE2015           2D

 33 37  0  0  1  0  0  0  0  0999 V2000
    9.9540   -2.3620    0.0000 O   0  0  0  0  0  0  0  0  0  0  0  0
    9.9540   -3.8620    0.0000 C   0  0  0  0  0  0  0  0  0  0  0  0
   11.2530   -4.6120    0.0000 O   0  0  0  0  0  0  0  0  0  0  0  0
    8.6550   -4.6120    0.0000 C   0  0  2  0  0  0  0  0  0  0  0  0
    8.6550   -3.1120    0.0000 C   0  0  0  0  0  0  0  0  0  0  0  0
    7.1550   -4.6120    0.0000 C   0  0  0  0  0  0  0  0  0  0  0  0
    6.4050   -5.9110    0.0000 C   0  0  2  0  0  0  0  0  0  0  0  0
    7.1550   -7.2110    0.0000 C   0  0  1  0  0  0  0  0  0  0  0  0
    7.9050   -8.5100    0.0000 C   0  0  0  0  0  0  0  0  0  0  0  0
    6.4050   -8.5100    0.0000 C   0  0  0  0  0  0  0  0  0  0  0  0
    4.9050   -8.5100    0.0000 C   0  0  0  0  0  0  0  0  0  0  0  0
    4.1550   -7.2110    0.0000 C   0  0  1  0  0  0  0  0  0  0  0  0
    3.4050   -8.5100    0.0000 C   0  0  0  0  0  0  0  0  0  0  0  0
    2.6550   -7.2110    0.0000 C   0  0  1  0  0  0  0  0  0  0  0  0
    1.1550   -7.2110    0.0000 C   0  0  0  0  0  0  0  0  0  0  0  0
    1.9050   -5.9110    0.0000 C   0  0  2  0  0  0  0  0  0  0  0  0
    2.6550   -4.6120    0.0000 C   0  0  0  0  0  0  0  0  0  0  0  0
    1.9050   -3.3130    0.0000 O   0  0  0  0  0  0  0  0  0  0  0  0
    4.1550   -4.6120    0.0000 C   0  0  0  0  0  0  0  0  0  0  0  0
    4.9050   -5.9110    0.0000 C   0  0  0  0  0  0  0  0  0  0  0  0
    0.4050   -5.9110    0.0000 C   0  0  2  0  0  0  0  0  0  0  0  0
    1.1550   -4.6120    0.0000 C   0  0  0  0  0  0  0  0  0  0  0  0
   -0.3450   -7.2110    0.0000 C   0  0  1  0  0  0  0  0  0  0  0  0
   -1.8450   -7.2110    0.0000 C   0  0  0  0  0  0  0  0  0  0  0  0
   -3.1440   -7.9610    0.0000 C   0  0  0  0  0  0  0  0  0  0  0  0
   -1.8450   -8.7110    0.0000 C   0  0  0  0  0  0  0  0  0  0  0  0
   -2.5950   -5.9110    0.0000 C   0  0  0  0  0  0  0  0  0  0  0  0
   -1.8450   -4.6120    0.0000 C   0  0  0  0  0  0  0  0  0  0  0  0
   -0.3450   -4.6120    0.0000 C   0  0  0  0  0  0  0  0  0  0  0  0
    0.4050   -8.5100    0.0000 C   0  0  0  0  0  0  0  0  0  0  0  0
    1.9050   -8.5100    0.0000 C   0  0  0  0  0  0  0  0  0  0  0  0
    8.6550   -7.2110    0.0000 C   0  0  0  0  0  0  0  0  0  0  0  0
    9.4050   -5.9110    0.0000 C   0  0  0  0  0  0  0  0  0  0  0  0
  1  2  2  0  0  0  0
  2  3  1  0  0  0  0
  4  2  1  1  0  0  0
  4  5  1  6  0  0  0
  4  6  1  0  0  0  0
  4 33  1  0  0  0  0
  7  6  1  6  0  0  0
  7  8  1  0  0  0  0
  7 20  1  0  0  0  0
  8  9  1  1  0  0  0
  8 10  1  0  0  0  0
  8 32  1  0  0  0  0
 10 11  1  0  0  0  0
 11 12  1  0  0  0  0
 12 13  1  6  0  0  0
 12 14  1  0  0  0  0
 12 20  1  0  0  0  0
 14 15  1  1  0  0  0
 14 16  1  0  0  0  0
 14 31  1  0  0  0  0
 16 17  1  1  0  0  0
 16 21  1  0  0  0  0
 17 18  2  0  0  0  0
 17 19  1  0  0  0  0
 19 20  2  0  0  0  0
 21 22  1  1  0  0  0
 21 23  1  0  0  0  0
 21 29  1  0  0  0  0
 23 24  1  6  0  0  0
 23 30  1  0  0  0  0
 24 25  1  0  0  0  0
 24 26  1  0  0  0  0
 24 27  1  0  0  0  0
 27 28  1  0  0  0  0
 28 29  1  0  0  0  0
 30 31  1  0  0  0  0
 32 33  1  0  0  0  0
M  END
>  <name>
O=C(O)[C@]1(C)C[C@@H]2[C@@](C)(CC[C@@]3(C)[C@@]4(C)[C@H](C(=O)C=C23)[C@]2(C)[C@@H](C(C)(C)[C;ether]CC2)CC4)CC1

>  <apo>
1

>  <freq>
1

>  <freq0>
0

>  <freq1>
1

>  <freqA>
0.99887151

>  <a_count>
79

$$$$

  MOE2015           2D

 38 43  0  0  1  0  0  0  0  0999 V2000
   -1.3720   -4.4870    0.0000 O   0  0  0  0  0  0  0  0  0  0  0  0
   -0.6260   -3.1860    0.0000 C   0  0  0  0  0  0  0  0  0  0  0  0
    0.8740   -3.1810    0.0000 N   0  0  0  0  0  0  0  0  0  0  0  0
    1.6280   -4.4780    0.0000 N   0  0  0  0  0  0  0  0  0  0  0  0
    3.1280   -4.4730    0.0000 C   0  0  0  0  0  0  0  0  0  0  0  0
    3.8820   -5.7700    0.0000 C   0  0  0  0  0  0  0  0  0  0  0  0
    5.3820   -5.7660    0.0000 C   0  0  0  0  0  0  0  0  0  0  0  0
    6.1280   -4.4640    0.0000 C   0  0  1  0  0  0  0  0  0  0  0  0
    6.9190   -3.1900    0.0000 C   0  0  0  0  0  0  0  0  0  0  0  0
    7.6280   -4.4600    0.0000 C   0  0  2  0  0  0  0  0  0  0  0  0
    8.3820   -5.7560    0.0000 C   0  0  2  0  0  0  0  0  0  0  0  0
    9.8820   -5.7520    0.0000 C   0  0  1  0  0  0  0  0  0  0  0  0
   10.6280   -4.4500    0.0000 C   0  0  1  0  0  0  0  0  0  0  0  0
   11.5270   -3.2490    0.0000 C   0  0  0  0  0  0  0  0  0  0  0  0
   12.0960   -4.7580    0.0000 C   0  0  1  0  0  0  0  0  0  0  0  0
   13.2080   -3.7500    0.0000 O   0  0  0  0  0  0  0  0  0  0  0  0
   12.2580   -6.2490    0.0000 C   0  0  0  0  0  0  0  0  0  0  0  0
   10.8890   -6.8630    0.0000 C   0  0  0  0  0  0  0  0  0  0  0  0
    9.8740   -3.1540    0.0000 C   0  0  0  0  0  0  0  0  0  0  0  0
    8.3740   -3.1580    0.0000 C   0  0  0  0  0  0  0  0  0  0  0  0
    7.6360   -7.0580    0.0000 C   0  0  0  0  0  0  0  0  0  0  0  0
    6.1360   -7.0620    0.0000 C   0  0  0  0  0  0  0  0  0  0  0  0
    5.3740   -3.1670    0.0000 C   0  0  0  0  0  0  0  0  0  0  0  0
    3.8740   -3.1720    0.0000 C   0  0  0  0  0  0  0  0  0  0  0  0
   -1.3800   -1.8890    0.0000 C   0  0  0  0  0  0  0  0  0  0  0  0
   -0.0830   -1.1350    0.0000 O   0  0  0  0  0  0  0  0  0  0  0  0
   -2.1340   -0.5930    0.0000 C   0  0  0  0  0  0  0  0  0  0  0  0
   -3.6340   -0.5970    0.0000 C   0  0  0  0  0  0  0  0  0  0  0  0
   -4.3880    0.6990    0.0000 C   0  0  0  0  0  0  0  0  0  0  0  0
   -3.6420    2.0010    0.0000 C   0  0  0  0  0  0  0  0  0  0  0  0
   -2.1420    2.0050    0.0000 C   0  0  0  0  0  0  0  0  0  0  0  0
   -1.3880    0.7090    0.0000 C   0  0  0  0  0  0  0  0  0  0  0  0
   -2.6760   -2.6430    0.0000 C   0  0  0  0  0  0  0  0  0  0  0  0
   -2.6720   -4.1430    0.0000 C   0  0  0  0  0  0  0  0  0  0  0  0
   -3.9680   -4.8970    0.0000 C   0  0  0  0  0  0  0  0  0  0  0  0
   -5.2700   -4.1510    0.0000 C   0  0  0  0  0  0  0  0  0  0  0  0
   -5.2740   -2.6510    0.0000 C   0  0  0  0  0  0  0  0  0  0  0  0
   -3.9780   -1.8970    0.0000 C   0  0  0  0  0  0  0  0  0  0  0  0
  1  2  2  0  0  0  0
  2  3  1  0  0  0  0
  2 25  1  0  0  0  0
  3  4  1  0  0  0  0
  4  5  2  0  0  0  0
  5  6  1  0  0  0  0
  5 24  1  0  0  0  0
  6  7  2  0  0  0  0
  7  8  1  0  0  0  0
  7 22  1  0  0  0  0
  8  9  1  1  0  0  0
  8 10  1  0  0  0  0
  8 23  1  0  0  0  0
 10 11  1  0  0  0  0
 10 20  1  1  0  0  0
 11 12  1  0  0  0  0
 11 21  1  6  0  0  0
 12 13  1  0  0  0  0
 12 18  1  1  0  0  0
 13 14  1  1  0  0  0
 13 15  1  0  0  0  0
 13 19  1  0  0  0  0
 15 16  1  1  0  0  0
 15 17  1  0  0  0  0
 17 18  1  0  0  0  0
 19 20  1  0  0  0  0
 21 22  1  0  0  0  0
 23 24  1  0  0  0  0
 25 26  1  0  0  0  0
 25 27  1  0  0  0  0
 25 33  1  0  0  0  0
 27 28  1  0  0  0  0
 27 32  2  0  0  0  0
 28 29  2  0  0  0  0
 29 30  1  0  0  0  0
 30 31  2  0  0  0  0
 31 32  1  0  0  0  0
 33 34  1  0  0  0  0
 33 38  2  0  0  0  0
 34 35  2  0  0  0  0
 35 36  1  0  0  0  0
 36 37  2  0  0  0  0
 37 38  1  0  0  0  0
M  END
>  <name>
O=C(NN=C1C=C2[C@@](C)([C@@H]3[C@H]([C@H]4[C@@](C)([C@@H]([O;ester])CC4)CC3)CC2)CC1)C(O)(c1ccccc1)c1ccccc1

>  <apo>
1

>  <freq>
1

>  <freq0>
0

>  <freq1>
1

>  <freqA>
0.99887151

>  <a_count>
78

$$$$

  MOE2015           2D

 43 46  0  0  1  0  0  0  0  0999 V2000
    3.1970   -5.5250    0.0000 P   0  0  2  0  0  0  0  0  0  0  0  0
    3.9450   -4.2250    0.0000 O   0  0  0  0  0  0  0  0  0  0  0  0
    4.4980   -6.2730    0.0000 O   0  0  0  0  0  0  0  0  0  0  0  0
    5.7950   -5.5200    0.0000 P   0  0  1  0  0  0  0  0  0  0  0  0
    5.0430   -4.2230    0.0000 O   0  0  0  0  0  0  0  0  0  0  0  0
    7.0930   -4.7680    0.0000 O   0  0  0  0  0  0  0  0  0  0  0  0
    8.3930   -5.5150    0.0000 C   0  0  0  0  0  0  0  0  0  0  0  0
    9.6910   -4.7630    0.0000 C   0  0  2  0  0  0  0  0  0  0  0  0
   11.0620   -5.3700    0.0000 C   0  0  1  0  0  0  0  0  0  0  0  0
   11.3770   -6.8370    0.0000 O   0  0  0  0  0  0  0  0  0  0  0  0
   12.0640   -4.2540    0.0000 C   0  0  2  0  0  0  0  0  0  0  0  0
   13.5560   -4.4080    0.0000 O   0  0  0  0  0  0  0  0  0  0  0  0
   11.3120   -2.9560    0.0000 C   0  0  0  0  0  0  0  0  0  0  0  0
    9.8450   -3.2710    0.0000 O   0  0  0  0  0  0  0  0  0  0  0  0
    6.5480   -6.8180    0.0000 O   0  0  0  0  0  0  0  0  0  0  0  0
    1.8970   -4.7780    0.0000 O   0  0  0  0  0  0  0  0  0  0  0  0
    0.5990   -5.5310    0.0000 C   0  0  0  0  0  0  0  0  0  0  0  0
   -0.7010   -4.7830    0.0000 C   0  0  1  0  0  0  0  0  0  0  0  0
   -0.7040   -3.2830    0.0000 O   0  0  0  0  0  0  0  0  0  0  0  0
   -1.9990   -5.5360    0.0000 C   0  0  1  0  0  0  0  0  0  0  0  0
   -1.9960   -7.0360    0.0000 O   0  0  0  0  0  0  0  0  0  0  0  0
   -3.2990   -4.7880    0.0000 C   0  0  1  0  0  0  0  0  0  0  0  0
   -4.5970   -5.5410    0.0000 O   0  0  0  0  0  0  0  0  0  0  0  0
   -3.3020   -3.2880    0.0000 C   0  0  0  0  0  0  0  0  0  0  0  0
   -4.6030   -2.5410    0.0000 N   0  0  0  0  0  0  0  0  0  0  0  0
   -4.6060   -1.0410    0.0000 C   0  0  0  0  0  0  0  0  0  0  0  0
   -5.9060   -0.2930    0.0000 C   0  0  0  0  0  0  0  0  0  0  0  0
   -7.2040   -1.0460    0.0000 N   0  0  0  0  0  0  0  0  0  0  0  0
   -7.2010   -2.5460    0.0000 C   0  0  0  0  0  0  0  0  0  0  0  0
   -8.4980   -3.2980    0.0000 C   0  0  0  0  0  0  0  0  0  0  0  0
   -9.7990   -2.5510    0.0000 O   0  0  0  0  0  0  0  0  0  0  0  0
   -8.4950   -4.7980    0.0000 N   0  0  0  0  0  0  0  0  0  0  0  0
   -7.1950   -5.5460    0.0000 C   0  0  0  0  0  0  0  0  0  0  0  0
   -7.1920   -7.0460    0.0000 O   0  0  0  0  0  0  0  0  0  0  0  0
   -5.8970   -4.7930    0.0000 N   0  0  0  0  0  0  0  0  0  0  0  0
   -5.9000   -3.2930    0.0000 C   0  0  0  0  0  0  0  0  0  0  0  0
   -5.9090    1.2070    0.0000 C   0  0  0  0  0  0  0  0  0  0  0  0
   -4.6110    1.9590    0.0000 C   0  0  0  0  0  0  0  0  0  0  0  0
   -4.6140    3.4590    0.0000 C   0  0  0  0  0  0  0  0  0  0  0  0
   -3.3110    1.2120    0.0000 C   0  0  0  0  0  0  0  0  0  0  0  0
   -2.0130    1.9640    0.0000 C   0  0  0  0  0  0  0  0  0  0  0  0
   -3.3080   -0.2880    0.0000 C   0  0  0  0  0  0  0  0  0  0  0  0
    2.4500   -6.8260    0.0000 O   0  0  0  0  0  0  0  0  0  0  0  0
  1  2  2  0  0  0  0
  1  3  1  0  0  0  0
  1 16  1  6  0  0  0
  1 43  1  1  0  0  0
  3  4  1  0  0  0  0
  4  5  2  0  0  0  0
  4  6  1  1  0  0  0
  4 15  1  6  0  0  0
  6  7  1  0  0  0  0
  8  7  1  1  0  0  0
  8  9  1  0  0  0  0
  8 14  1  0  0  0  0
  9 10  1  6  0  0  0
  9 11  1  0  0  0  0
 11 12  1  1  0  0  0
 11 13  1  0  0  0  0
 13 14  1  0  0  0  0
 16 17  1  0  0  0  0
 17 18  1  0  0  0  0
 18 19  1  6  0  0  0
 18 20  1  0  0  0  0
 20 21  1  1  0  0  0
 20 22  1  0  0  0  0
 22 23  1  1  0  0  0
 22 24  1  0  0  0  0
 24 25  1  0  0  0  0
 25 26  1  0  0  0  0
 25 36  1  0  0  0  0
 26 27  1  0  0  0  0
 26 42  2  0  0  0  0
 27 28  1  0  0  0  0
 27 37  2  0  0  0  0
 28 29  2  0  0  0  0
 29 30  1  0  0  0  0
 29 36  1  0  0  0  0
 30 31  2  0  0  0  0
 30 32  1  0  0  0  0
 32 33  1  0  0  0  0
 33 34  2  0  0  0  0
 33 35  1  0  0  0  0
 35 36  2  0  0  0  0
 37 38  1  0  0  0  0
 38 39  1  0  0  0  0
 38 40  2  0  0  0  0
 40 41  1  0  0  0  0
 40 42  1  0  0  0  0
M  END
>  <name>
[P@](=O)(O[P@@](=O)(OC[C@@H]1[C@@H](O)[C@H](O)[C;NaroC]O1)O)(OC[C@@H](O)[C@@H](O)[C@@H](O)CN1c2c(N=C3C(=O)NC(=O)N=C13)cc(C)c(C)c2)O

>  <apo>
1

>  <freq>
1

>  <freq0>
0

>  <freq1>
1

>  <freqA>
0.99887151

>  <a_count>
73

$$$$

  MOE2015           2D

 34 39  0  0  1  0  0  0  0  0999 V2000
    1.9290    4.4850    0.0000 O   0  0  0  0  0  0  0  0  0  0  0  0
    2.9610    3.3950    0.0000 C   0  0  0  0  0  0  0  0  0  0  0  0
    4.4200    3.7440    0.0000 C   0  0  0  0  0  0  0  0  0  0  0  0
    4.8470    5.1820    0.0000 O   0  0  0  0  0  0  0  0  0  0  0  0
    2.5330    1.9580    0.0000 C   0  0  2  0  0  0  0  0  0  0  0  0
    1.0750    2.3090    0.0000 C   0  0  2  0  0  0  0  0  0  0  0  0
    1.5030    3.7470    0.0000 C   0  0  0  0  0  0  0  0  0  0  0  0
    0.2900    1.0310    0.0000 C   0  0  2  0  0  0  0  0  0  0  0  0
   -1.2090    1.0720    0.0000 C   0  0  1  0  0  0  0  0  0  0  0  0
   -1.9240    2.3910    0.0000 C   0  0  2  0  0  0  0  0  0  0  0  0
   -1.1390    3.6690    0.0000 C   0  0  1  0  0  0  0  0  0  0  0  0
   -1.8530    4.9880    0.0000 O   0  0  0  0  0  0  0  0  0  0  0  0
    0.3610    3.6280    0.0000 C   0  0  0  0  0  0  0  0  0  0  0  0
   -3.4230    2.4320    0.0000 C   0  0  2  0  0  0  0  0  0  0  0  0
   -2.6380    3.7100    0.0000 C   0  0  0  0  0  0  0  0  0  0  0  0
   -4.2080    1.1540    0.0000 C   0  0  0  0  0  0  0  0  0  0  0  0
   -5.7080    1.1940    0.0000 C   0  0  0  0  0  0  0  0  0  0  0  0
   -6.4220    2.5130    0.0000 C   0  0  0  0  0  0  0  0  0  0  0  0
   -7.9220    2.5540    0.0000 O   0  0  0  0  0  0  0  0  0  0  0  0
   -5.6370    3.7910    0.0000 C   0  0  0  0  0  0  0  0  0  0  0  0
   -4.1380    3.7510    0.0000 C   0  0  0  0  0  0  0  0  0  0  0  0
   -3.4940   -0.1650    0.0000 C   0  0  0  0  0  0  0  0  0  0  0  0
   -1.9940   -0.2060    0.0000 C   0  0  0  0  0  0  0  0  0  0  0  0
    1.2630   -0.1110    0.0000 C   0  0  0  0  0  0  0  0  0  0  0  0
    2.6490    0.4620    0.0000 C   0  0  1  0  0  0  0  0  0  0  0  0
    4.1080    0.1100    0.0000 O   0  0  0  0  0  0  0  0  0  0  0  0
    4.8930    1.3890    0.0000 C   0  0  1  0  0  0  0  0  0  0  0  0
    6.3880    1.5050    0.0000 C   0  0  0  0  0  0  0  0  0  0  0  0
    7.2370    0.2680    0.0000 C   0  0  0  0  0  0  0  0  0  0  0  0
    8.7320    0.3840    0.0000 C   0  0  0  0  0  0  0  0  0  0  0  0
    9.3790    1.7370    0.0000 C   0  0  0  0  0  0  0  0  0  0  0  0
    8.5310    2.9740    0.0000 C   0  0  0  0  0  0  0  0  0  0  0  0
    7.0350    2.8580    0.0000 C   0  0  0  0  0  0  0  0  0  0  0  0
    3.9200    2.5300    0.0000 O   0  0  0  0  0  0  0  0  0  0  0  0
  1  2  2  0  0  0  0
  2  3  1  0  0  0  0
  5  2  1  1  0  0  0
  3  4  1  0  0  0  0
  5  6  1  0  0  0  0
  5 25  1  0  0  0  0
  5 34  1  0  0  0  0
  6  7  1  1  0  0  0
  6  8  1  0  0  0  0
  6 13  1  0  0  0  0
  8  9  1  0  0  0  0
  8 24  1  1  0  0  0
  9 10  1  0  0  0  0
  9 23  1  6  0  0  0
 10 11  1  1  0  0  0
 10 14  1  0  0  0  0
 11 12  1  1  0  0  0
 11 13  1  0  0  0  0
 14 15  1  1  0  0  0
 14 16  1  0  0  0  0
 14 21  1  0  0  0  0
 16 17  2  0  0  0  0
 16 22  1  0  0  0  0
 17 18  1  0  0  0  0
 18 19  2  0  0  0  0
 18 20  1  0  0  0  0
 20 21  2  0  0  0  0
 22 23  1  0  0  0  0
 25 24  1  6  0  0  0
 25 26  1  0  0  0  0
 26 27  1  0  0  0  0
 27 28  1  6  0  0  0
 27 34  1  0  0  0  0
 28 29  1  0  0  0  0
 28 33  1  0  0  0  0
 29 30  1  0  0  0  0
 30 31  1  0  0  0  0
 31 32  1  0  0  0  0
 32 33  1  0  0  0  0
M  END
>  <name>
O=C(C[O;ester])[C@]12[C@]3(C)[C@H]([C@H]4[C@H]([C@@H](O)C3)[C@]3(C)C(=CC(=O)C=C3)CC4)C[C@H]1O[C@@H](C1CCCCC1)O2

>  <apo>
1

>  <freq>
1

>  <freq0>
0

>  <freq1>
1

>  <freqA>
0.99887151

>  <a_count>
72

$$$$

  MOE2015           2D

 34 33  0  0  1  0  0  0  0  0999 V2000
   -0.7500    4.9180    0.0000 O   0  0  0  0  0  0  0  0  0  0  0  0
    0.5490    4.1680    0.0000 C   0  0  0  0  0  0  0  0  0  0  0  0
    0.5490    2.6680    0.0000 O   0  0  0  0  0  0  0  0  0  0  0  0
    1.8480    4.9180    0.0000 C   0  0  3  0  0  0  0  0  0  0  0  0
    3.1470    4.1680    0.0000 C   0  0  3  0  0  0  0  0  0  0  0  0
    4.4460    4.9180    0.0000 O   0  0  0  0  0  0  0  0  0  0  0  0
    3.1470    2.6680    0.0000 C   0  0  0  0  0  0  0  0  0  0  0  0
    4.4460    1.9180    0.0000 C   0  0  0  0  0  0  0  0  0  0  0  0
    4.4460    0.4180    0.0000 O   0  0  0  0  0  0  0  0  0  0  0  0
    5.7450    2.6680    0.0000 C   0  0  0  0  0  0  0  0  0  0  0  0
    7.0440    1.9180    0.0000 C   0  0  3  0  0  0  0  0  0  0  0  0
    7.0440    0.4180    0.0000 O   0  0  0  0  0  0  0  0  0  0  0  0
    8.3430    2.6680    0.0000 C   0  0  0  0  0  0  0  0  0  0  0  0
    9.6420    1.9180    0.0000 C   0  0  3  0  0  0  0  0  0  0  0  0
    9.6420    0.4180    0.0000 O   0  0  0  0  0  0  0  0  0  0  0  0
   10.9410    2.6680    0.0000 C   0  0  0  0  0  0  0  0  0  0  0  0
   12.2400    1.9180    0.0000 C   0  0  3  0  0  0  0  0  0  0  0  0
   12.2400    0.4180    0.0000 O   0  0  0  0  0  0  0  0  0  0  0  0
   13.5390    2.6680    0.0000 C   0  0  0  0  0  0  0  0  0  0  0  0
   13.5390    4.1680    0.0000 C   0  0  0  0  0  0  0  0  0  0  0  0
   12.2400    4.9180    0.0000 O   0  0  0  0  0  0  0  0  0  0  0  0
   14.8380    4.9180    0.0000 C   0  0  0  0  0  0  0  0  0  0  0  0
   16.1370    4.1680    0.0000 C   0  0  0  0  0  0  0  0  0  0  0  0
   17.4360    4.9180    0.0000 C   0  0  0  0  0  0  0  0  0  0  0  0
   18.7350    4.1680    0.0000 C   0  0  0  0  0  0  0  0  0  0  0  0
   18.7350    2.6680    0.0000 O   0  0  0  0  0  0  0  0  0  0  0  0
   20.0340    4.9180    0.0000 C   0  0  0  0  0  0  0  0  0  0  0  0
   21.3330    4.1680    0.0000 C   0  0  0  0  0  0  0  0  0  0  0  0
   22.6320    4.9180    0.0000 O   0  0  0  0  0  0  0  0  0  0  0  0
    1.8480    6.4180    0.0000 C   0  0  3  0  0  0  0  0  0  0  0  0
    3.1470    7.1680    0.0000 O   0  0  0  0  0  0  0  0  0  0  0  0
    0.5490    7.1680    0.0000 C   0  0  0  0  0  0  0  0  0  0  0  0
    0.5490    8.6680    0.0000 C   0  0  0  0  0  0  0  0  0  0  0  0
   -0.7500    9.4180    0.0000 C   0  0  0  0  0  0  0  0  0  0  0  0
  1  2  2  0  0  0  0
  2  3  1  0  0  0  0
  2  4  1  0  0  0  0
  4  5  1  0  0  0  0
  4 30  1  0  0  0  0
  5  6  1  0  0  0  0
  5  7  1  0  0  0  0
  7  8  1  0  0  0  0
  8  9  2  0  0  0  0
  8 10  1  0  0  0  0
 10 11  1  0  0  0  0
 11 12  1  0  0  0  0
 11 13  1  0  0  0  0
 13 14  1  0  0  0  0
 14 15  1  0  0  0  0
 14 16  1  0  0  0  0
 16 17  1  0  0  0  0
 17 18  1  0  0  0  0
 17 19  1  0  0  0  0
 19 20  1  0  0  0  0
 20 21  2  0  0  0  0
 20 22  1  0  0  0  0
 22 23  1  0  0  0  0
 23 24  1  0  0  0  0
 24 25  1  0  0  0  0
 25 26  2  0  0  0  0
 25 27  1  0  0  0  0
 27 28  1  0  0  0  0
 28 29  2  0  0  0  0
 30 31  1  0  0  0  0
 30 32  1  0  0  0  0
 32 33  1  0  0  0  0
 33 34  1  0  0  0  0
M  END
>  <name>
O=C(O)C(C(O)CC(=O)CC(O)CC(O)CC(O)CC(=O)CCCC(=O)C[C;ester]=O)C(O)C[C;ether][C;olefin]

>  <apo>
3

>  <freq>
1

>  <freq0>
0

>  <freq1>
1

>  <freqA>
0.99887151

>  <a_count>
72

$$$$

  MOE2015           2D

 29 28  0  0  1  0  0  0  0  0999 V2000
   19.3340    5.1800    0.0000 O   0  0  0  0  0  0  0  0  0  0  0  0
   18.0350    4.4300    0.0000 C   0  0  0  0  0  0  0  0  0  0  0  0
   16.7360    5.1800    0.0000 C   0  0  1  0  0  0  0  0  0  0  0  0
   15.4370    4.4300    0.0000 C   0  0  0  0  0  0  0  0  0  0  0  0
   14.1370    5.1800    0.0000 C   0  0  1  0  0  0  0  0  0  0  0  0
   12.8380    4.4300    0.0000 C   0  0  0  0  0  0  0  0  0  0  0  0
   11.5390    5.1800    0.0000 C   0  0  1  0  0  0  0  0  0  0  0  0
   12.2890    6.4790    0.0000 O   0  0  0  0  0  0  0  0  0  0  0  0
   10.2400    5.9300    0.0000 C   0  0  0  0  0  0  0  0  0  0  0  0
    8.9410    5.1800    0.0000 C   0  0  2  0  0  0  0  0  0  0  0  0
    7.6420    5.9300    0.0000 C   0  0  0  0  0  0  0  0  0  0  0  0
    7.6420    7.4300    0.0000 N   0  0  0  0  0  0  0  0  0  0  0  0
    6.3430    8.1800    0.0000 O   0  0  0  0  0  0  0  0  0  0  0  0
    6.3430    9.6800    0.0000 C   0  0  0  0  0  0  0  0  0  0  0  0
    6.3430    5.1800    0.0000 C   0  0  1  0  0  0  0  0  0  0  0  0
    5.0440    5.9300    0.0000 C   0  0  1  0  0  0  0  0  0  0  0  0
    5.0440    7.4300    0.0000 O   0  0  0  0  0  0  0  0  0  0  0  0
    3.7450    5.1800    0.0000 C   0  0  1  0  0  0  0  0  0  0  0  0
    2.9950    6.4790    0.0000 O   0  0  0  0  0  0  0  0  0  0  0  0
    2.4460    4.4300    0.0000 C   0  0  2  0  0  0  0  0  0  0  0  0
    2.4460    2.9300    0.0000 O   0  0  0  0  0  0  0  0  0  0  0  0
    1.1470    5.1800    0.0000 C   0  0  0  0  0  0  0  0  0  0  0  0
   -0.1520    4.4300    0.0000 C   0  0  0  0  0  0  0  0  0  0  0  0
    4.4950    3.8810    0.0000 C   0  0  0  0  0  0  0  0  0  0  0  0
    6.3430    3.6800    0.0000 C   0  0  0  0  0  0  0  0  0  0  0  0
    8.9410    3.6800    0.0000 C   0  0  0  0  0  0  0  0  0  0  0  0
   10.7890    3.8810    0.0000 C   0  0  0  0  0  0  0  0  0  0  0  0
   14.1370    6.6800    0.0000 C   0  0  0  0  0  0  0  0  0  0  0  0
   16.7360    6.6800    0.0000 C   0  0  0  0  0  0  0  0  0  0  0  0
  1  2  2  0  0  0  0
  2  3  1  0  0  0  0
  3  4  1  0  0  0  0
  3 29  1  1  0  0  0
  4  5  1  0  0  0  0
  5  6  1  0  0  0  0
  5 28  1  1  0  0  0
  7  6  1  6  0  0  0
  7  8  1  1  0  0  0
  7  9  1  0  0  0  0
  7 27  1  0  0  0  0
  9 10  1  0  0  0  0
 10 11  1  0  0  0  0
 10 26  1  1  0  0  0
 11 12  2  0  0  0  0
 11 15  1  0  0  0  0
 12 13  1  0  0  0  0
 13 14  1  0  0  0  0
 15 16  1  0  0  0  0
 15 25  1  6  0  0  0
 16 17  1  6  0  0  0
 18 16  1  6  0  0  0
 18 19  1  1  0  0  0
 18 20  1  0  0  0  0
 18 24  1  0  0  0  0
 20 21  1  6  0  0  0
 20 22  1  0  0  0  0
 22 23  1  0  0  0  0
M  END
>  <name>
O=[C;ester][C@@H]([C;ether][C@@H]([C;ether][C@@](O)(C[C@H](/C(=N/O[C;ether])/[C@@H]([C@@H](O)[C@@](O)([C@H]([O;ester])CC)C)C)C)C)C)C

>  <apo>
5

>  <freq>
1

>  <freq0>
0

>  <freq1>
1

>  <freqA>
0.99887151

>  <a_count>
72

$$$$

  MOE2015           2D

 32 32  0  0  1  0  0  0  0  0999 V2000
   -3.6310    8.3660    0.0000 O   0  0  0  0  0  0  0  0  0  0  0  0
   -2.8810    7.0670    0.0000 C   0  0  0  0  0  0  0  0  0  0  0  0
   -3.6310    5.7680    0.0000 O   0  0  0  0  0  0  0  0  0  0  0  0
   -1.3810    7.0670    0.0000 C   0  0  1  0  0  0  0  0  0  0  0  0
   -0.6310    8.3660    0.0000 C   0  0  2  0  0  0  0  0  0  0  0  0
   -1.3810    9.6650    0.0000 C   0  0  0  0  0  0  0  0  0  0  0  0
   -0.6310   10.9640    0.0000 C   0  0  0  0  0  0  0  0  0  0  0  0
   -1.3810   12.2630    0.0000 C   0  0  0  0  0  0  0  0  0  0  0  0
    0.8690    8.3660    0.0000 O   0  0  0  0  0  0  0  0  0  0  0  0
    1.6190    7.0670    0.0000 C   0  0  2  0  0  0  0  0  0  0  0  0
    2.9180    7.8170    0.0000 O   0  0  0  0  0  0  0  0  0  0  0  0
    2.9180    6.3170    0.0000 C   0  0  0  0  0  0  0  0  0  0  0  0
    4.2170    7.0670    0.0000 C   0  0  1  0  0  0  0  0  0  0  0  0
    4.2170    8.5670    0.0000 O   0  0  0  0  0  0  0  0  0  0  0  0
    5.5160    6.3170    0.0000 C   0  0  0  0  0  0  0  0  0  0  0  0
    6.8150    7.0670    0.0000 C   0  0  1  0  0  0  0  0  0  0  0  0
    6.8150    8.5670    0.0000 O   0  0  0  0  0  0  0  0  0  0  0  0
    8.1140    6.3170    0.0000 C   0  0  2  0  0  0  0  0  0  0  0  0
    8.1140    4.8170    0.0000 O   0  0  0  0  0  0  0  0  0  0  0  0
    9.4130    7.0670    0.0000 C   0  0  0  0  0  0  0  0  0  0  0  0
   10.7120    6.3170    0.0000 C   0  0  0  0  0  0  0  0  0  0  0  0
   12.0110    7.0670    0.0000 C   0  0  1  0  0  0  0  0  0  0  0  0
   12.0110    8.5670    0.0000 O   0  0  0  0  0  0  0  0  0  0  0  0
   13.3100    6.3170    0.0000 C   0  0  0  0  0  0  0  0  0  0  0  0
   14.6090    7.0670    0.0000 C   0  0  1  0  0  0  0  0  0  0  0  0
   14.6090    8.5670    0.0000 O   0  0  0  0  0  0  0  0  0  0  0  0
   15.9080    6.3170    0.0000 C   0  0  0  0  0  0  0  0  0  0  0  0
   17.2070    7.0670    0.0000 C   0  0  0  0  0  0  0  0  0  0  0  0
   18.5060    6.3170    0.0000 O   0  0  0  0  0  0  0  0  0  0  0  0
    0.8690    5.7680    0.0000 C   0  0  0  0  0  0  0  0  0  0  0  0
   -0.6310    5.7680    0.0000 C   0  0  2  0  0  0  0  0  0  0  0  0
   -1.3810    4.4690    0.0000 O   0  0  0  0  0  0  0  0  0  0  0  0
  1  2  2  0  0  0  0
  2  3  1  0  0  0  0
  4  2  1  1  0  0  0
  4  5  1  0  0  0  0
  4 31  1  0  0  0  0
  5  6  1  6  0  0  0
  5  9  1  0  0  0  0
  6  7  1  0  0  0  0
  7  8  1  0  0  0  0
  9 10  1  0  0  0  0
 10 11  1  1  0  0  0
 10 12  1  6  0  0  0
 10 30  1  0  0  0  0
 12 13  1  0  0  0  0
 13 14  1  1  0  0  0
 13 15  1  0  0  0  0
 15 16  1  0  0  0  0
 16 17  1  1  0  0  0
 16 18  1  0  0  0  0
 18 19  1  1  0  0  0
 18 20  1  0  0  0  0
 20 21  1  0  0  0  0
 21 22  1  0  0  0  0
 22 23  1  1  0  0  0
 22 24  1  0  0  0  0
 24 25  1  0  0  0  0
 25 26  1  1  0  0  0
 25 27  1  0  0  0  0
 27 28  1  0  0  0  0
 28 29  2  0  0  0  0
 30 31  1  0  0  0  0
 31 32  1  6  0  0  0
M  END
>  <name>
O=C(O)[C@H]1[C@H](C[C;ether][C;olefin])O[C@](O)(C[C@@H](O)C[C@@H](O)[C@H](O)CC[C@@H](O)C[C@@H](O)C[C;ester]=O)C[C@@H]1O

>  <apo>
3

>  <freq>
1

>  <freq0>
0

>  <freq1>
1

>  <freqA>
0.99887151

>  <a_count>
70

$$$$

  MOE2015           2D

 32 32  0  0  1  0  0  0  0  0999 V2000
   -3.5040   -7.3610    0.0000 O   0  0  0  0  0  0  0  0  0  0  0  0
   -2.7540   -6.0620    0.0000 C   0  0  0  0  0  0  0  0  0  0  0  0
   -3.5040   -4.7630    0.0000 O   0  0  0  0  0  0  0  0  0  0  0  0
   -1.2540   -6.0620    0.0000 C   0  0  1  0  0  0  0  0  0  0  0  0
   -0.5040   -4.7630    0.0000 C   0  0  2  0  0  0  0  0  0  0  0  0
   -1.2540   -3.4640    0.0000 C   0  0  0  0  0  0  0  0  0  0  0  0
   -0.5040   -2.1650    0.0000 C   0  0  0  0  0  0  0  0  0  0  0  0
   -1.2540   -0.8660    0.0000 C   0  0  0  0  0  0  0  0  0  0  0  0
    0.9960   -4.7630    0.0000 O   0  0  0  0  0  0  0  0  0  0  0  0
    1.7460   -6.0620    0.0000 C   0  0  2  0  0  0  0  0  0  0  0  0
    3.0450   -5.3120    0.0000 O   0  0  0  0  0  0  0  0  0  0  0  0
    3.0450   -6.8120    0.0000 C   0  0  0  0  0  0  0  0  0  0  0  0
    3.0450   -8.3120    0.0000 C   0  0  1  0  0  0  0  0  0  0  0  0
    1.7460   -9.0620    0.0000 O   0  0  0  0  0  0  0  0  0  0  0  0
    4.3440   -9.0620    0.0000 C   0  0  2  0  0  0  0  0  0  0  0  0
    4.3440  -10.5620    0.0000 O   0  0  0  0  0  0  0  0  0  0  0  0
    5.6430   -8.3120    0.0000 C   0  0  0  0  0  0  0  0  0  0  0  0
    6.9420   -9.0620    0.0000 C   0  0  0  0  0  0  0  0  0  0  0  0
    8.2410   -8.3120    0.0000 C   0  0  1  0  0  0  0  0  0  0  0  0
    8.2410   -6.8120    0.0000 O   0  0  0  0  0  0  0  0  0  0  0  0
    9.5400   -9.0620    0.0000 C   0  0  0  0  0  0  0  0  0  0  0  0
   10.8390   -8.3120    0.0000 C   0  0  1  0  0  0  0  0  0  0  0  0
   12.1380   -9.0620    0.0000 O   0  0  0  0  0  0  0  0  0  0  0  0
   10.8390   -6.8120    0.0000 C   0  0  0  0  0  0  0  0  0  0  0  0
   12.1380   -6.0620    0.0000 C   0  0  1  0  0  0  0  0  0  0  0  0
   12.1380   -4.5620    0.0000 O   0  0  0  0  0  0  0  0  0  0  0  0
   13.4370   -6.8120    0.0000 C   0  0  0  0  0  0  0  0  0  0  0  0
   14.7360   -6.0620    0.0000 C   0  0  0  0  0  0  0  0  0  0  0  0
   16.0350   -6.8120    0.0000 O   0  0  0  0  0  0  0  0  0  0  0  0
    0.9960   -7.3610    0.0000 C   0  0  0  0  0  0  0  0  0  0  0  0
   -0.5040   -7.3610    0.0000 C   0  0  2  0  0  0  0  0  0  0  0  0
   -1.2540   -8.6600    0.0000 O   0  0  0  0  0  0  0  0  0  0  0  0
  1  2  2  0  0  0  0
  2  3  1  0  0  0  0
  4  2  1  1  0  0  0
  4  5  1  0  0  0  0
  4 31  1  0  0  0  0
  5  6  1  6  0  0  0
  5  9  1  0  0  0  0
  6  7  1  0  0  0  0
  7  8  1  0  0  0  0
  9 10  1  0  0  0  0
 10 11  1  1  0  0  0
 10 12  1  6  0  0  0
 10 30  1  0  0  0  0
 12 13  1  0  0  0  0
 13 14  1  6  0  0  0
 13 15  1  0  0  0  0
 15 16  1  1  0  0  0
 15 17  1  0  0  0  0
 17 18  1  0  0  0  0
 18 19  1  0  0  0  0
 19 20  1  1  0  0  0
 19 21  1  0  0  0  0
 21 22  1  0  0  0  0
 22 23  1  6  0  0  0
 22 24  1  0  0  0  0
 24 25  1  0  0  0  0
 25 26  1  1  0  0  0
 25 27  1  0  0  0  0
 27 28  1  0  0  0  0
 28 29  2  0  0  0  0
 30 31  1  0  0  0  0
 31 32  1  6  0  0  0
M  END
>  <name>
O=C(O)[C@H]1[C@H](C[C;ether][C;olefin])O[C@](O)(C[C@@H](O)[C@H](O)CC[C@@H](O)C[C@@H](O)C[C@@H](O)C[C;ester]=O)C[C@@H]1O

>  <apo>
3

>  <freq>
1

>  <freq0>
0

>  <freq1>
1

>  <freqA>
0.99887151

>  <a_count>
70

$$$$

  MOE2015           2D

 33 34  0  0  1  0  0  0  0  0999 V2000
    0.0000    0.0000    0.0000 O   0  0  0  0  0  0  0  0  0  0  0  0
    1.5000    0.0000    0.0000 C   0  0  0  0  0  0  0  0  0  0  0  0
    2.2500   -1.2990    0.0000 O   0  0  0  0  0  0  0  0  0  0  0  0
    1.5000   -2.5980    0.0000 C   0  0  0  0  0  0  0  0  0  0  0  0
    2.2500    1.2990    0.0000 N   0  0  0  0  0  0  0  0  0  0  0  0
    1.5000    2.5980    0.0000 C   0  0  2  0  0  0  0  0  0  0  0  0
    2.2500    3.8970    0.0000 C   0  0  0  0  0  0  0  0  0  0  0  0
    1.5000    5.1960    0.0000 O   0  0  0  0  0  0  0  0  0  0  0  0
    3.7500    3.8970    0.0000 N   0  0  0  0  0  0  0  0  0  0  0  0
    4.5000    5.1960    0.0000 N   0  0  0  0  0  0  0  0  0  0  0  0
    6.0000    5.1960    0.0000 C   0  0  0  0  0  0  0  0  0  0  0  0
    6.7500    3.8970    0.0000 C   0  0  2  0  0  0  0  0  0  0  0  0
    6.0000    2.5980    0.0000 O   0  0  0  0  0  0  0  0  0  0  0  0
    8.2500    3.8970    0.0000 C   0  0  1  0  0  0  0  0  0  0  0  0
    9.0000    5.1960    0.0000 N   0  0  0  0  0  0  0  0  0  0  0  0
    9.0000    2.5980    0.0000 C   0  0  0  0  0  0  0  0  0  0  0  0
   10.5000    2.5980    0.0000 C   0  0  0  0  0  0  0  0  0  0  0  0
   11.2500    1.2990    0.0000 C   0  0  0  0  0  0  0  0  0  0  0  0
   12.7500    1.2990    0.0000 C   0  0  0  0  0  0  0  0  0  0  0  0
   13.5000    2.5980    0.0000 C   0  0  0  0  0  0  0  0  0  0  0  0
   12.7500    3.8970    0.0000 C   0  0  0  0  0  0  0  0  0  0  0  0
   11.2500    3.8970    0.0000 C   0  0  0  0  0  0  0  0  0  0  0  0
    3.7500    6.4950    0.0000 C   0  0  0  0  0  0  0  0  0  0  0  0
    4.5000    7.7940    0.0000 C   0  0  0  0  0  0  0  0  0  0  0  0
    3.7500    9.0930    0.0000 C   0  0  0  0  0  0  0  0  0  0  0  0
    4.5000   10.3920    0.0000 C   0  0  0  0  0  0  0  0  0  0  0  0
    6.0000   10.3920    0.0000 C   0  0  0  0  0  0  0  0  0  0  0  0
    6.7500    9.0930    0.0000 C   0  0  0  0  0  0  0  0  0  0  0  0
    6.0000    7.7940    0.0000 C   0  0  0  0  0  0  0  0  0  0  0  0
    0.0000    2.5980    0.0000 C   0  0  0  0  0  0  0  0  0  0  0  0
    0.0000    1.0980    0.0000 C   0  0  0  0  0  0  0  0  0  0  0  0
    0.0000    4.0980    0.0000 C   0  0  0  0  0  0  0  0  0  0  0  0
   -1.5000    2.5980    0.0000 C   0  0  0  0  0  0  0  0  0  0  0  0
  1  2  2  0  0  0  0
  2  3  1  0  0  0  0
  2  5  1  0  0  0  0
  3  4  1  0  0  0  0
  6  5  1  1  0  0  0
  6  7  1  0  0  0  0
  6 30  1  0  0  0  0
  7  8  2  0  0  0  0
  7  9  1  0  0  0  0
  9 10  1  0  0  0  0
 10 11  1  0  0  0  0
 10 23  1  0  0  0  0
 11 12  1  0  0  0  0
 12 13  1  1  0  0  0
 12 14  1  0  0  0  0
 14 15  1  1  0  0  0
 14 16  1  0  0  0  0
 16 17  1  0  0  0  0
 17 18  1  0  0  0  0
 17 22  2  0  0  0  0
 18 19  2  0  0  0  0
 19 20  1  0  0  0  0
 20 21  2  0  0  0  0
 21 22  1  0  0  0  0
 23 24  1  0  0  0  0
 24 25  1  0  0  0  0
 24 29  2  0  0  0  0
 25 26  2  0  0  0  0
 26 27  1  0  0  0  0
 27 28  2  0  0  0  0
 28 29  1  0  0  0  0
 30 31  1  0  0  0  0
 30 32  1  0  0  0  0
 30 33  1  0  0  0  0
M  END
>  <name>
O=C(OC)N[C@H](C(=O)NN(C[C@H](O)[C@@H]([N;amide])Cc1ccccc1)Cc1cc[c;biphenyl]cc1)C(C)(C)C

>  <apo>
2

>  <freq>
1

>  <freq0>
0

>  <freq1>
1

>  <freqA>
0.99887151

>  <a_count>
69

$$$$

  MOE2015           2D

 28 28  0  0  1  0  0  0  0  0999 V2000
    0.3210   -0.5780    0.0000 O   0  0  0  0  0  0  0  0  0  0  0  0
    1.1140    0.6950    0.0000 C   0  0  0  0  0  0  0  0  0  0  0  0
    2.6130    0.6450    0.0000 C   0  0  1  0  0  0  0  0  0  0  0  0
    3.3190   -0.6780    0.0000 C   0  0  1  0  0  0  0  0  0  0  0  0
    2.5270   -1.9510    0.0000 O   0  0  0  0  0  0  0  0  0  0  0  0
    4.8190   -0.7280    0.0000 C   0  0  2  0  0  0  0  0  0  0  0  0
    5.6110    0.5460    0.0000 C   0  0  0  0  0  0  0  0  0  0  0  0
    7.1110    0.4960    0.0000 C   0  0  0  0  0  0  0  0  0  0  0  0
    7.9030    1.7690    0.0000 C   0  0  0  0  0  0  0  0  0  0  0  0
    9.4020    1.7200    0.0000 C   0  0  2  0  0  0  0  0  0  0  0  0
    8.9660    0.2840    0.0000 C   0  0  0  0  0  0  0  0  0  0  0  0
   10.0220    3.0860    0.0000 C   0  0  2  0  0  0  0  0  0  0  0  0
    9.8760    4.5780    0.0000 C   0  0  0  0  0  0  0  0  0  0  0  0
   11.0960    5.4520    0.0000 C   0  0  1  0  0  0  0  0  0  0  0  0
   12.4620    4.8320    0.0000 N   0  0  0  0  0  0  0  0  0  0  0  0
   10.9490    6.9440    0.0000 C   0  0  0  0  0  0  0  0  0  0  0  0
   12.1690    7.8180    0.0000 C   0  0  0  0  0  0  0  0  0  0  0  0
   10.8950    1.8660    0.0000 O   0  0  0  0  0  0  0  0  0  0  0  0
    5.5250   -2.0510    0.0000 C   0  0  0  0  0  0  0  0  0  0  0  0
    3.4060    1.9190    0.0000 C   0  0  0  0  0  0  0  0  0  0  0  0
    0.4070    2.0180    0.0000 C   0  0  0  0  0  0  0  0  0  0  0  0
   -0.2990    3.3420    0.0000 C   0  0  1  0  0  0  0  0  0  0  0  0
   -1.7980    3.3910    0.0000 O   0  0  0  0  0  0  0  0  0  0  0  0
    0.4940    4.6150    0.0000 C   0  0  0  0  0  0  0  0  0  0  0  0
   -0.2130    5.9380    0.0000 C   0  0  0  0  0  0  0  0  0  0  0  0
    0.5800    7.2120    0.0000 O   0  0  0  0  0  0  0  0  0  0  0  0
   -0.9160    1.3120    0.0000 C   0  0  0  0  0  0  0  0  0  0  0  0
    1.7310    2.7250    0.0000 C   0  0  0  0  0  0  0  0  0  0  0  0
  1  2  2  0  0  0  0
  2  3  1  0  0  0  0
  2 21  1  0  0  0  0
  3  4  1  0  0  0  0
  3 20  1  6  0  0  0
  4  5  1  6  0  0  0
  4  6  1  0  0  0  0
  6  7  1  0  0  0  0
  6 19  1  6  0  0  0
  7  8  1  0  0  0  0
  8  9  1  0  0  0  0
 10  9  1  6  0  0  0
 10 11  1  1  0  0  0
 10 12  1  0  0  0  0
 10 18  1  0  0  0  0
 12 13  1  6  0  0  0
 12 18  1  0  0  0  0
 13 14  1  0  0  0  0
 14 15  1  6  0  0  0
 14 16  1  0  0  0  0
 16 17  1  0  0  0  0
 21 22  1  0  0  0  0
 21 27  1  0  0  0  0
 21 28  1  0  0  0  0
 22 23  1  1  0  0  0
 22 24  1  0  0  0  0
 24 25  1  0  0  0  0
 25 26  2  0  0  0  0
M  END
>  <name>
O=C([C@@H]([C@@H](O)[C@H](CCC[C@]1(C)[C@H](C[C@@H]([N;amide])[C;olefin]C)O1)C)C)C([C@@H](O)C[C;amide]=O)(C)C

>  <apo>
3

>  <freq>
1

>  <freq0>
0

>  <freq1>
1

>  <freqA>
0.99887151

>  <a_count>
69

$$$$

  MOE2015           2D

 32 34  0  0  1  0  0  0  0  0999 V2000
    4.2300   -5.3810    0.0000 O   0  0  0  0  0  0  0  0  0  0  0  0
    4.5840   -3.9240    0.0000 S   0  0  0  0  0  0  0  0  0  0  0  0
    5.6100   -5.0180    0.0000 O   0  0  0  0  0  0  0  0  0  0  0  0
    3.1020   -3.6930    0.0000 C   0  0  0  0  0  0  0  0  0  0  0  0
    2.3580   -2.3900    0.0000 C   0  0  0  0  0  0  0  0  0  0  0  0
    2.9120   -0.9960    0.0000 C   0  0  2  0  0  0  0  0  0  0  0  0
    4.3470   -0.5620    0.0000 C   0  0  1  0  0  0  0  0  0  0  0  0
    4.5790    0.9200    0.0000 O   0  0  0  0  0  0  0  0  0  0  0  0
    5.5820   -1.4110    0.0000 C   0  0  0  0  0  0  0  0  0  0  0  0
    7.0820   -1.3900    0.0000 C   0  0  0  0  0  0  0  0  0  0  0  0
    7.8500   -2.6780    0.0000 C   0  0  0  0  0  0  0  0  0  0  0  0
    9.3500   -2.6570    0.0000 C   0  0  0  0  0  0  0  0  0  0  0  0
   10.1180   -3.9450    0.0000 C   0  0  0  0  0  0  0  0  0  0  0  0
    6.3620   -0.1300    0.0000 C   0  0  0  0  0  0  0  0  0  0  0  0
    7.8620   -0.1650    0.0000 C   0  0  0  0  0  0  0  0  0  0  0  0
    8.6420    1.1160    0.0000 C   0  0  0  0  0  0  0  0  0  0  0  0
   10.1410    1.0810    0.0000 C   0  0  0  0  0  0  0  0  0  0  0  0
    5.6880   -2.9080    0.0000 C   0  0  0  0  0  0  0  0  0  0  0  0
    1.8970    0.1080    0.0000 C   0  0  0  0  0  0  0  0  0  0  0  0
    2.3460    1.5400    0.0000 C   0  0  0  0  0  0  0  0  0  0  0  0
    1.3300    2.6440    0.0000 C   0  0  0  0  0  0  0  0  0  0  0  0
   -0.1340    2.3170    0.0000 C   0  0  0  0  0  0  0  0  0  0  0  0
   -1.1490    3.4210    0.0000 O   0  0  0  0  0  0  0  0  0  0  0  0
   -0.5820    0.8860    0.0000 C   0  0  0  0  0  0  0  0  0  0  0  0
    0.4330   -0.2190    0.0000 C   0  0  0  0  0  0  0  0  0  0  0  0
    0.8580   -2.3830    0.0000 C   0  0  0  0  0  0  0  0  0  0  0  0
    0.1020   -3.6790    0.0000 C   0  0  0  0  0  0  0  0  0  0  0  0
   -1.3980   -3.6720    0.0000 N   0  0  0  0  0  0  0  0  0  0  0  0
   -2.1540   -4.9680    0.0000 C   0  0  0  0  0  0  0  0  0  0  0  0
   -2.1420   -2.3700    0.0000 C   0  0  0  0  0  0  0  0  0  0  0  0
    0.8460   -4.9810    0.0000 C   0  0  0  0  0  0  0  0  0  0  0  0
    2.3460   -4.9880    0.0000 C   0  0  0  0  0  0  0  0  0  0  0  0
  1  2  2  0  0  0  0
  2  3  2  0  0  0  0
  2  4  1  0  0  0  0
  2 18  1  0  0  0  0
  4  5  1  0  0  0  0
  4 32  2  0  0  0  0
  5  6  1  0  0  0  0
  5 26  2  0  0  0  0
  6  7  1  0  0  0  0
  6 19  1  1  0  0  0
  7  8  1  1  0  0  0
  7  9  1  0  0  0  0
  9 10  1  0  0  0  0
  9 14  1  0  0  0  0
  9 18  1  0  0  0  0
 10 11  1  0  0  0  0
 11 12  1  0  0  0  0
 12 13  1  0  0  0  0
 14 15  1  0  0  0  0
 15 16  1  0  0  0  0
 16 17  1  0  0  0  0
 19 20  1  0  0  0  0
 19 25  2  0  0  0  0
 20 21  2  0  0  0  0
 21 22  1  0  0  0  0
 22 23  1  0  0  0  0
 22 24  2  0  0  0  0
 24 25  1  0  0  0  0
 26 27  1  0  0  0  0
 27 28  1  0  0  0  0
 27 31  2  0  0  0  0
 28 29  1  0  0  0  0
 28 30  1  0  0  0  0
 31 32  1  0  0  0  0
M  END
>  <name>
O=S1(=O)c2c([C@H]([C@@H](O)C(CCCC)(CCCC)C1)c1ccc([O;ether])cc1)cc(N(C)C)cc2

>  <apo>
1

>  <freq>
1

>  <freq0>
0

>  <freq1>
1

>  <freqA>
0.99887151

>  <a_count>
69

$$$$

  MOE2015           2D

 28 31  0  0  1  0  0  0  0  0999 V2000
   16.7640   -6.4680    0.0000 O   0  0  0  0  0  0  0  0  0  0  0  0
   15.6530   -5.4610    0.0000 C   0  0  0  0  0  0  0  0  0  0  0  0
   14.2250   -5.9190    0.0000 C   0  0  0  0  0  0  0  0  0  0  0  0
   13.1130   -4.9120    0.0000 C   0  0  0  0  0  0  0  0  0  0  0  0
   11.6850   -5.3700    0.0000 C   0  0  1  0  0  0  0  0  0  0  0  0
   11.3680   -6.8360    0.0000 C   0  0  0  0  0  0  0  0  0  0  0  0
   10.5740   -4.3630    0.0000 C   0  0  2  0  0  0  0  0  0  0  0  0
    9.1060   -4.6700    0.0000 C   0  0  1  0  0  0  0  0  0  0  0  0
    9.9620   -5.9010    0.0000 C   0  0  0  0  0  0  0  0  0  0  0  0
    8.3510   -5.9660    0.0000 C   0  0  1  0  0  0  0  0  0  0  0  0
    9.0970   -7.2680    0.0000 O   0  0  0  0  0  0  0  0  0  0  0  0
    6.8510   -5.9610    0.0000 C   0  0  0  0  0  0  0  0  0  0  0  0
    6.1060   -4.6590    0.0000 C   0  0  2  0  0  0  0  0  0  0  0  0
    4.6060   -4.6540    0.0000 C   0  0  2  0  0  0  0  0  0  0  0  0
    5.3510   -5.9560    0.0000 C   0  0  0  0  0  0  0  0  0  0  0  0
    3.8600   -3.3530    0.0000 C   0  0  2  0  0  0  0  0  0  0  0  0
    4.6150   -2.0560    0.0000 C   0  0  0  0  0  0  0  0  0  0  0  0
    6.1150   -2.0610    0.0000 C   0  0  1  0  0  0  0  0  0  0  0  0
    6.8690   -0.7650    0.0000 O   0  0  0  0  0  0  0  0  0  0  0  0
    6.8600   -3.3630    0.0000 C   0  0  1  0  0  0  0  0  0  0  0  0
    8.3600   -3.3680    0.0000 C   0  0  2  0  0  0  0  0  0  0  0  0
    9.3680   -2.2570    0.0000 C   0  0  0  0  0  0  0  0  0  0  0  0
   10.7360   -2.8720    0.0000 C   0  0  0  0  0  0  0  0  0  0  0  0
    2.3600   -3.3480    0.0000 C   0  0  0  0  0  0  0  0  0  0  0  0
    1.6060   -4.6440    0.0000 C   0  0  2  0  0  0  0  0  0  0  0  0
    0.1060   -4.6390    0.0000 O   0  0  0  0  0  0  0  0  0  0  0  0
    2.3510   -5.9460    0.0000 C   0  0  0  0  0  0  0  0  0  0  0  0
    3.8510   -5.9510    0.0000 C   0  0  0  0  0  0  0  0  0  0  0  0
  1  2  2  0  0  0  0
  2  3  1  0  0  0  0
  3  4  1  0  0  0  0
  4  5  1  0  0  0  0
  5  6  1  1  0  0  0
  5  7  1  0  0  0  0
  7  8  1  0  0  0  0
  7 23  1  6  0  0  0
  8  9  1  6  0  0  0
  8 10  1  0  0  0  0
  8 21  1  0  0  0  0
 10 11  1  1  0  0  0
 10 12  1  0  0  0  0
 13 12  1  6  0  0  0
 13 14  1  0  0  0  0
 13 20  1  0  0  0  0
 14 15  1  6  0  0  0
 14 16  1  0  0  0  0
 14 28  1  0  0  0  0
 16 17  1  1  0  0  0
 16 24  1  0  0  0  0
 17 18  1  0  0  0  0
 18 19  1  1  0  0  0
 20 18  1  1  0  0  0
 20 21  1  0  0  0  0
 21 22  1  6  0  0  0
 22 23  1  0  0  0  0
 24 25  1  0  0  0  0
 25 26  1  1  0  0  0
 25 27  1  0  0  0  0
 27 28  1  0  0  0  0
M  END
>  <name>
O=[C;amide]CC[C@@H](C)[C@@H]1[C@@]2(C)[C@@H](O)C[C@@H]3[C@]4(C)[C@H](C[C@@H](O)[C@H]3[C@@H]2CC1)C[C@H](O)CC4

>  <apo>
1

>  <freq>
1

>  <freq0>
0

>  <freq1>
1

>  <freqA>
0.99887151

>  <a_count>
68

$$$$

  MOE2015           2D

 27 26  0  0  1  0  0  0  0  0999 V2000
    0.7820    0.7820    0.0000 O   0  0  0  0  0  0  0  0  0  0  0  0
    0.7820   -0.7180    0.0000 C   0  0  0  0  0  0  0  0  0  0  0  0
   -0.5170   -1.4680    0.0000 C   0  0  1  0  0  0  0  0  0  0  0  0
   -1.8160   -0.7180    0.0000 C   0  0  1  0  0  0  0  0  0  0  0  0
   -1.8160    0.7820    0.0000 O   0  0  0  0  0  0  0  0  0  0  0  0
   -3.1150   -1.4680    0.0000 C   0  0  1  0  0  0  0  0  0  0  0  0
   -2.3650   -2.7670    0.0000 O   0  0  0  0  0  0  0  0  0  0  0  0
   -4.4140   -2.2180    0.0000 C   0  0  2  0  0  0  0  0  0  0  0  0
   -4.4140   -3.7180    0.0000 O   0  0  0  0  0  0  0  0  0  0  0  0
   -5.7130   -1.4680    0.0000 C   0  0  0  0  0  0  0  0  0  0  0  0
   -7.0120   -2.2180    0.0000 C   0  0  0  0  0  0  0  0  0  0  0  0
   -3.8650   -0.1690    0.0000 C   0  0  0  0  0  0  0  0  0  0  0  0
   -0.5170   -2.9680    0.0000 C   0  0  0  0  0  0  0  0  0  0  0  0
    2.0810   -1.4680    0.0000 C   0  0  1  0  0  0  0  0  0  0  0  0
    3.3800   -0.7180    0.0000 C   0  0  0  0  0  0  0  0  0  0  0  0
    4.6790   -1.4680    0.0000 C   0  0  2  0  0  0  0  0  0  0  0  0
    3.9290   -2.7670    0.0000 O   0  0  0  0  0  0  0  0  0  0  0  0
    5.4290   -0.1690    0.0000 C   0  0  0  0  0  0  0  0  0  0  0  0
    6.9290   -0.1690    0.0000 C   0  0  2  0  0  0  0  0  0  0  0  0
    7.6790   -1.4680    0.0000 C   0  0  0  0  0  0  0  0  0  0  0  0
    9.1790   -1.4680    0.0000 C   0  0  2  0  0  0  0  0  0  0  0  0
    9.9290   -0.1690    0.0000 C   0  0  0  0  0  0  0  0  0  0  0  0
   11.4290   -0.1690    0.0000 O   0  0  0  0  0  0  0  0  0  0  0  0
    9.9290   -2.7670    0.0000 C   0  0  0  0  0  0  0  0  0  0  0  0
    7.6790    1.1300    0.0000 C   0  0  0  0  0  0  0  0  0  0  0  0
    5.9780   -2.2180    0.0000 C   0  0  0  0  0  0  0  0  0  0  0  0
    2.0810   -2.9680    0.0000 C   0  0  0  0  0  0  0  0  0  0  0  0
  1  2  2  0  0  0  0
  2  3  1  0  0  0  0
  2 14  1  0  0  0  0
  3  4  1  0  0  0  0
  3 13  1  6  0  0  0
  4  5  1  6  0  0  0
  6  4  1  1  0  0  0
  6  7  1  0  0  0  0
  6  8  1  0  0  0  0
  6 12  1  6  0  0  0
  8  9  1  6  0  0  0
  8 10  1  0  0  0  0
 10 11  1  0  0  0  0
 14 15  1  0  0  0  0
 14 27  1  1  0  0  0
 15 16  1  0  0  0  0
 16 17  1  1  0  0  0
 16 18  1  0  0  0  0
 16 26  1  6  0  0  0
 18 19  1  0  0  0  0
 19 20  1  0  0  0  0
 19 25  1  1  0  0  0
 20 21  1  0  0  0  0
 21 22  1  0  0  0  0
 21 24  1  6  0  0  0
 22 23  2  0  0  0  0
M  END
>  <name>
O=C([C@@H]([C@@H](O)[C@@](O)([C@H]([O;ester])CC)C)C)[C@@H](C[C@](O)([C;ether][C@H]([C;ether][C@H]([C;ester]=O)C)C)C)C

>  <apo>
4

>  <freq>
1

>  <freq0>
0

>  <freq1>
1

>  <freqA>
0.99887151

>  <a_count>
67

$$$$

  MOE2015           2D

 25 25  0  0  1  0  0  0  0  0999 V2000
    0.3960    3.5620    0.0000 O   0  0  0  0  0  0  0  0  0  0  0  0
    1.6950    2.8120    0.0000 C   0  0  0  0  0  0  0  0  0  0  0  0
    2.0830    1.3630    0.0000 C   0  0  1  0  0  0  0  0  0  0  0  0
    1.3330    0.0640    0.0000 C   0  0  0  0  0  0  0  0  0  0  0  0
   -0.1670    0.0640    0.0000 C   0  0  0  0  0  0  0  0  0  0  0  0
   -0.9170   -1.2350    0.0000 C   0  0  0  0  0  0  0  0  0  0  0  0
   -2.4170   -1.2350    0.0000 C   0  0  0  0  0  0  0  0  0  0  0  0
   -3.1670   -2.5340    0.0000 C   0  0  0  0  0  0  0  0  0  0  0  0
   -4.6670   -2.5340    0.0000 C   0  0  0  0  0  0  0  0  0  0  0  0
    3.5320    1.7510    0.0000 C   0  0  2  0  0  0  0  0  0  0  0  0
    4.8310    1.0010    0.0000 C   0  0  0  0  0  0  0  0  0  0  0  0
    6.1300    1.7510    0.0000 C   0  0  1  0  0  0  0  0  0  0  0  0
    6.1300    3.2510    0.0000 O   0  0  0  0  0  0  0  0  0  0  0  0
    7.4290    1.0010    0.0000 C   0  0  0  0  0  0  0  0  0  0  0  0
    8.7280    1.7510    0.0000 C   0  0  0  0  0  0  0  0  0  0  0  0
   10.0270    1.0010    0.0000 C   0  0  0  0  0  0  0  0  0  0  0  0
   11.3270    1.7510    0.0000 C   0  0  0  0  0  0  0  0  0  0  0  0
   12.6260    1.0010    0.0000 C   0  0  0  0  0  0  0  0  0  0  0  0
   13.9250    1.7510    0.0000 C   0  0  0  0  0  0  0  0  0  0  0  0
   15.2240    1.0010    0.0000 C   0  0  0  0  0  0  0  0  0  0  0  0
   16.5230    1.7510    0.0000 C   0  0  0  0  0  0  0  0  0  0  0  0
   17.8220    1.0010    0.0000 C   0  0  0  0  0  0  0  0  0  0  0  0
   19.1210    1.7510    0.0000 C   0  0  0  0  0  0  0  0  0  0  0  0
   20.4200    1.0010    0.0000 C   0  0  0  0  0  0  0  0  0  0  0  0
    3.1440    3.2000    0.0000 O   0  0  0  0  0  0  0  0  0  0  0  0
  1  2  2  0  0  0  0
  2  3  1  0  0  0  0
  2 25  1  0  0  0  0
  3  4  1  6  0  0  0
  3 10  1  0  0  0  0
  4  5  1  0  0  0  0
  5  6  1  0  0  0  0
  6  7  1  0  0  0  0
  7  8  1  0  0  0  0
  8  9  1  0  0  0  0
 10 11  1  1  0  0  0
 10 25  1  0  0  0  0
 11 12  1  0  0  0  0
 12 13  1  1  0  0  0
 12 14  1  0  0  0  0
 14 15  1  0  0  0  0
 15 16  1  0  0  0  0
 16 17  1  0  0  0  0
 17 18  1  0  0  0  0
 18 19  1  0  0  0  0
 19 20  1  0  0  0  0
 20 21  1  0  0  0  0
 21 22  1  0  0  0  0
 22 23  1  0  0  0  0
 23 24  1  0  0  0  0
M  END
>  <name>
O=C1[C@@H](CCCCCC)[C@H](C[C@@H]([O;ester])CCCCCCCCCCC)O1

>  <apo>
1

>  <freq>
1

>  <freq0>
0

>  <freq1>
1

>  <freqA>
0.99887151

>  <a_count>
67

$$$$

  MOE2015           2D

 27 30  0  0  1  0  0  0  0  0999 V2000
   17.0880    2.5750    0.0000 O   0  0  0  0  0  0  0  0  0  0  0  0
   15.9760    3.5820    0.0000 C   0  0  0  0  0  0  0  0  0  0  0  0
   14.5480    3.1240    0.0000 C   0  0  0  0  0  0  0  0  0  0  0  0
   13.4370    4.1320    0.0000 C   0  0  0  0  0  0  0  0  0  0  0  0
   12.0090    3.6730    0.0000 C   0  0  1  0  0  0  0  0  0  0  0  0
   11.6920    2.2070    0.0000 C   0  0  0  0  0  0  0  0  0  0  0  0
   10.8980    4.6810    0.0000 C   0  0  2  0  0  0  0  0  0  0  0  0
    9.4290    4.3740    0.0000 C   0  0  2  0  0  0  0  0  0  0  0  0
   10.2850    3.1430    0.0000 C   0  0  0  0  0  0  0  0  0  0  0  0
    8.6840    5.6760    0.0000 C   0  0  2  0  0  0  0  0  0  0  0  0
    7.1840    5.6810    0.0000 C   0  0  2  0  0  0  0  0  0  0  0  0
    6.4390    6.9830    0.0000 C   0  0  1  0  0  0  0  0  0  0  0  0
    7.1930    8.2800    0.0000 O   0  0  0  0  0  0  0  0  0  0  0  0
    4.9390    6.9890    0.0000 C   0  0  0  0  0  0  0  0  0  0  0  0
    4.1840    5.6920    0.0000 C   0  0  1  0  0  0  0  0  0  0  0  0
    4.9290    4.3910    0.0000 C   0  0  1  0  0  0  0  0  0  0  0  0
    3.4290    4.3960    0.0000 C   0  0  0  0  0  0  0  0  0  0  0  0
    6.4290    4.3850    0.0000 C   0  0  1  0  0  0  0  0  0  0  0  0
    7.1750    3.0830    0.0000 C   0  0  0  0  0  0  0  0  0  0  0  0
    8.6750    3.0780    0.0000 C   0  0  0  0  0  0  0  0  0  0  0  0
    4.1750    3.0940    0.0000 C   0  0  0  0  0  0  0  0  0  0  0  0
    2.6750    3.1000    0.0000 C   0  0  0  0  0  0  0  0  0  0  0  0
    1.9290    4.4010    0.0000 C   0  0  1  0  0  0  0  0  0  0  0  0
    0.4290    4.4070    0.0000 O   0  0  0  0  0  0  0  0  0  0  0  0
    2.6840    5.6980    0.0000 C   0  0  0  0  0  0  0  0  0  0  0  0
    9.6920    6.7870    0.0000 C   0  0  0  0  0  0  0  0  0  0  0  0
   11.0600    6.1720    0.0000 C   0  0  0  0  0  0  0  0  0  0  0  0
  1  2  2  0  0  0  0
  2  3  1  0  0  0  0
  3  4  1  0  0  0  0
  4  5  1  0  0  0  0
  5  6  1  1  0  0  0
  5  7  1  0  0  0  0
  7  8  1  0  0  0  0
  7 27  1  6  0  0  0
  8  9  1  6  0  0  0
  8 10  1  0  0  0  0
  8 20  1  0  0  0  0
 10 11  1  0  0  0  0
 10 26  1  6  0  0  0
 11 12  1  1  0  0  0
 11 18  1  0  0  0  0
 12 13  1  6  0  0  0
 12 14  1  0  0  0  0
 15 14  1  1  0  0  0
 15 16  1  0  0  0  0
 15 25  1  0  0  0  0
 16 17  1  6  0  0  0
 16 18  1  0  0  0  0
 16 21  1  0  0  0  0
 18 19  1  6  0  0  0
 19 20  1  0  0  0  0
 21 22  1  0  0  0  0
 22 23  1  0  0  0  0
 23 24  1  1  0  0  0
 23 25  1  0  0  0  0
 26 27  1  0  0  0  0
M  END
>  <name>
O=[C;amide]CC[C@@H](C)[C@@H]1[C@]2(C)[C@H]([C@@H]3[C@@H](O)C[C@H]4[C@@](C)([C@H]3CC2)CC[C@@H](O)C4)CC1

>  <apo>
1

>  <freq>
1

>  <freq0>
0

>  <freq1>
1

>  <freqA>
0.99887151

>  <a_count>
67

$$$$

  MOE2015           2D

 33 38  0  0  1  0  0  0  0  0999 V2000
    5.4700    3.1420    0.0000 F   0  0  0  0  0  0  0  0  0  0  0  0
    4.7140    1.8460    0.0000 C   0  0  2  0  0  0  0  0  0  0  0  0
    3.9700    3.1490    0.0000 C   0  0  1  0  0  0  0  0  0  0  0  0
    4.7260    4.4440    0.0000 O   0  0  0  0  0  0  0  0  0  0  0  0
    2.4700    3.1550    0.0000 C   0  0  0  0  0  0  0  0  0  0  0  0
    1.7140    1.8600    0.0000 C   0  0  2  0  0  0  0  0  0  0  0  0
    1.3330    3.3100    0.0000 C   0  0  0  0  0  0  0  0  0  0  0  0
    0.2460    1.5550    0.0000 C   0  0  2  0  0  0  0  0  0  0  0  0
   -0.1360    3.0050    0.0000 C   0  0  0  0  0  0  0  0  0  0  0  0
    0.9300    4.0610    0.0000 O   0  0  0  0  0  0  0  0  0  0  0  0
   -1.5830    3.4000    0.0000 C   0  0  0  0  0  0  0  0  0  0  0  0
   -1.9650    4.8510    0.0000 O   0  0  0  0  0  0  0  0  0  0  0  0
   -1.1220    2.1710    0.0000 O   0  0  0  0  0  0  0  0  0  0  0  0
   -2.1300    1.0610    0.0000 C   0  0  0  0  0  0  0  0  0  0  0  0
   -1.3860   -0.2420    0.0000 O   0  0  0  0  0  0  0  0  0  0  0  0
    0.0820    0.0640    0.0000 C   0  0  2  0  0  0  0  0  0  0  0  0
    1.4500   -0.5530    0.0000 C   0  0  0  0  0  0  0  0  0  0  0  0
    2.4580    0.5570    0.0000 C   0  0  1  0  0  0  0  0  0  0  0  0
    3.9580    0.5500    0.0000 C   0  0  2  0  0  0  0  0  0  0  0  0
    4.7030   -0.7520    0.0000 C   0  0  0  0  0  0  0  0  0  0  0  0
    6.2030   -0.7590    0.0000 C   0  0  0  0  0  0  0  0  0  0  0  0
    6.9580    0.5370    0.0000 C   0  0  0  0  0  0  0  0  0  0  0  0
    6.2140    1.8390    0.0000 C   0  0  1  0  0  0  0  0  0  0  0  0
    7.7140    1.8320    0.0000 C   0  0  0  0  0  0  0  0  0  0  0  0
    6.9700    3.1350    0.0000 C   0  0  0  0  0  0  0  0  0  0  0  0
    8.4700    3.1280    0.0000 C   0  0  0  0  0  0  0  0  0  0  0  0
    9.2140    1.8260    0.0000 C   0  0  0  0  0  0  0  0  0  0  0  0
   10.7140    1.8190    0.0000 O   0  0  0  0  0  0  0  0  0  0  0  0
    8.4580    0.5300    0.0000 C   0  0  0  0  0  0  0  0  0  0  0  0
   -3.1200   -0.0670    0.0000 C   0  0  0  0  0  0  0  0  0  0  0  0
   -4.4980    0.5260    0.0000 C   0  0  0  0  0  0  0  0  0  0  0  0
   -4.3600    2.0190    0.0000 C   0  0  0  0  0  0  0  0  0  0  0  0
   -2.8970    2.3500    0.0000 C   0  0  0  0  0  0  0  0  0  0  0  0
  2  1  1  1  0  0  0
  2  3  1  0  0  0  0
  2 19  1  0  0  0  0
  2 23  1  0  0  0  0
  3  4  1  6  0  0  0
  3  5  1  0  0  0  0
  5  6  1  0  0  0  0
  6  7  1  6  0  0  0
  6  8  1  0  0  0  0
  6 18  1  0  0  0  0
  8  9  1  6  0  0  0
  8 13  1  0  0  0  0
  8 16  1  0  0  0  0
  9 10  2  0  0  0  0
  9 11  1  0  0  0  0
 11 12  1  0  0  0  0
 13 14  1  0  0  0  0
 14 15  1  0  0  0  0
 14 30  1  0  0  0  0
 14 33  1  0  0  0  0
 16 15  1  1  0  0  0
 16 17  1  0  0  0  0
 18 17  1  6  0  0  0
 18 19  1  0  0  0  0
 19 20  1  1  0  0  0
 20 21  1  0  0  0  0
 21 22  1  0  0  0  0
 22 23  1  0  0  0  0
 22 29  2  0  0  0  0
 23 24  1  6  0  0  0
 23 25  1  0  0  0  0
 25 26  2  0  0  0  0
 26 27  1  0  0  0  0
 27 28  2  0  0  0  0
 27 29  1  0  0  0  0
 30 31  1  0  0  0  0
 31 32  1  0  0  0  0
 32 33  1  0  0  0  0
M  END
>  <name>
F[C@]12[C@@H](O)C[C@]3(C)[C@]4(C(=O)C[O;ester])OC5(O[C@@H]4C[C@H]3[C@@H]1CCC=1[C@]2(C)C=CC(=O)C=1)CCCC5

>  <apo>
1

>  <freq>
1

>  <freq0>
0

>  <freq1>
1

>  <freqA>
0.99887151

>  <a_count>
66

$$$$

  MOE2015           2D

 37 42  0  0  1  0  0  0  0  0999 V2000
    5.5380    2.8000    0.0000 O   0  0  0  0  0  0  0  0  0  0  0  0
    6.3410    4.0670    0.0000 C   0  0  0  0  0  0  0  0  0  0  0  0
    5.6450    5.3960    0.0000 O   0  0  0  0  0  0  0  0  0  0  0  0
    4.1470    5.4580    0.0000 C   0  0  0  0  0  0  0  0  0  0  0  0
    3.4510    6.7870    0.0000 C   0  0  0  0  0  0  0  0  0  0  0  0
    1.9530    6.8500    0.0000 C   0  0  0  0  0  0  0  0  0  0  0  0
    1.2570    8.1790    0.0000 C   0  0  0  0  0  0  0  0  0  0  0  0
    2.0610    9.4450    0.0000 C   0  0  0  0  0  0  0  0  0  0  0  0
    1.3650   10.7740    0.0000 C   0  0  0  0  0  0  0  0  0  0  0  0
   -0.2410    8.2410    0.0000 C   0  0  0  0  0  0  0  0  0  0  0  0
   -1.0450    6.9740    0.0000 C   0  0  0  0  0  0  0  0  0  0  0  0
   -0.3490    5.6450    0.0000 N   0  0  0  0  0  0  0  0  0  0  0  0
    1.1490    5.5830    0.0000 C   0  0  0  0  0  0  0  0  0  0  0  0
    1.8450    4.2540    0.0000 C   0  0  0  0  0  0  0  0  0  0  0  0
    3.3430    4.1910    0.0000 C   0  0  0  0  0  0  0  0  0  0  0  0
   -2.4980    7.3470    0.0000 C   0  0  0  0  0  0  0  0  0  0  0  0
   -2.5920    8.8440    0.0000 N   0  0  0  0  0  0  0  0  0  0  0  0
   -3.9360    9.5100    0.0000 C   0  0  0  0  0  0  0  0  0  0  0  0
   -4.0310   11.0070    0.0000 O   0  0  0  0  0  0  0  0  0  0  0  0
   -5.1850    8.6800    0.0000 C   0  0  0  0  0  0  0  0  0  0  0  0
   -5.0910    7.1830    0.0000 C   0  0  0  0  0  0  0  0  0  0  0  0
   -6.3400    6.3520    0.0000 C   0  0  1  0  0  0  0  0  0  0  0  0
   -7.0060    5.0080    0.0000 O   0  0  0  0  0  0  0  0  0  0  0  0
   -5.5090    5.1030    0.0000 C   0  0  0  0  0  0  0  0  0  0  0  0
   -6.1760    3.7590    0.0000 C   0  0  0  0  0  0  0  0  0  0  0  0
   -7.6840    7.0190    0.0000 C   0  0  0  0  0  0  0  0  0  0  0  0
   -8.9330    6.1880    0.0000 O   0  0  0  0  0  0  0  0  0  0  0  0
   -7.7780    8.5160    0.0000 O   0  0  0  0  0  0  0  0  0  0  0  0
   -6.5290    9.3460    0.0000 C   0  0  0  0  0  0  0  0  0  0  0  0
   -3.7470    6.5160    0.0000 C   0  0  0  0  0  0  0  0  0  0  0  0
   -1.1980    9.3960    0.0000 C   0  0  0  0  0  0  0  0  0  0  0  0
    7.8400    4.0040    0.0000 N   0  0  0  0  0  0  0  0  0  0  0  0
    8.6430    5.2710    0.0000 C   0  0  0  0  0  0  0  0  0  0  0  0
   10.1420    5.2090    0.0000 C   0  0  0  0  0  0  0  0  0  0  0  0
   10.8370    3.8800    0.0000 C   0  0  0  0  0  0  0  0  0  0  0  0
   10.0340    2.6130    0.0000 C   0  0  0  0  0  0  0  0  0  0  0  0
    8.5350    2.6750    0.0000 C   0  0  0  0  0  0  0  0  0  0  0  0
  1  2  2  0  0  0  0
  2  3  1  0  0  0  0
  2 32  1  0  0  0  0
  3  4  1  0  0  0  0
  4  5  1  0  0  0  0
  4 15  2  0  0  0  0
  5  6  2  0  0  0  0
  6  7  1  0  0  0  0
  6 13  1  0  0  0  0
  7  8  1  0  0  0  0
  7 10  2  0  0  0  0
  8  9  1  0  0  0  0
 10 11  1  0  0  0  0
 10 31  1  0  0  0  0
 11 12  2  0  0  0  0
 11 16  1  0  0  0  0
 12 13  1  0  0  0  0
 13 14  2  0  0  0  0
 14 15  1  0  0  0  0
 16 17  1  0  0  0  0
 16 30  2  0  0  0  0
 17 18  1  0  0  0  0
 17 31  1  0  0  0  0
 18 19  2  0  0  0  0
 18 20  1  0  0  0  0
 20 21  2  0  0  0  0
 20 29  1  0  0  0  0
 21 22  1  0  0  0  0
 21 30  1  0  0  0  0
 22 23  1  6  0  0  0
 22 24  1  1  0  0  0
 22 26  1  0  0  0  0
 24 25  1  0  0  0  0
 26 27  2  0  0  0  0
 26 28  1  0  0  0  0
 28 29  1  0  0  0  0
 32 33  1  0  0  0  0
 32 37  1  0  0  0  0
 33 34  1  0  0  0  0
 34 35  1  0  0  0  0
 35 36  1  0  0  0  0
 36 37  1  0  0  0  0
M  END
>  <name>
O=C(Oc1cc2c(CC)c3c(nc2cc1)C=1N(C(=O)C2=C([C@@](O)(CC)C(=O)OC2)C=1)C3)N1CC[C;amine]CC1

>  <apo>
1

>  <freq>
1

>  <freq0>
0

>  <freq1>
1

>  <freqA>
0.99887151

>  <a_count>
66

$$$$

  MOE2015           2D

 28 30  0  0  1  0  0  0  0  0999 V2000
    3.0180    3.0180    0.0000 O   0  0  0  0  0  0  0  0  0  0  0  0
    3.0180    1.5180    0.0000 C   0  0  0  0  0  0  0  0  0  0  0  0
    4.3170    0.7680    0.0000 C   0  0  1  0  0  0  0  0  0  0  0  0
    5.6160    1.5180    0.0000 C   0  0  0  0  0  0  0  0  0  0  0  0
    6.9150    0.7680    0.0000 C   0  0  0  0  0  0  0  0  0  0  0  0
    8.2140    1.5180    0.0000 C   0  0  0  0  0  0  0  0  0  0  0  0
    9.5130    0.7680    0.0000 C   0  0  0  0  0  0  0  0  0  0  0  0
   10.8120    1.5180    0.0000 C   0  0  1  0  0  0  0  0  0  0  0  0
   10.8120    3.0180    0.0000 O   0  0  0  0  0  0  0  0  0  0  0  0
   12.1110    0.7680    0.0000 C   0  0  0  0  0  0  0  0  0  0  0  0
   13.4100    1.5180    0.0000 C   0  0  0  0  0  0  0  0  0  0  0  0
    4.3170   -0.7320    0.0000 C   0  0  0  0  0  0  0  0  0  0  0  0
    1.7190    0.7680    0.0000 C   0  0  0  0  0  0  0  0  0  0  0  0
    0.3490    1.3780    0.0000 C   0  0  1  0  0  0  0  0  0  0  0  0
    0.0370    2.8450    0.0000 C   0  0  0  0  0  0  0  0  0  0  0  0
   -1.3900    3.3090    0.0000 C   0  0  0  0  0  0  0  0  0  0  0  0
   -1.7020    4.7760    0.0000 O   0  0  0  0  0  0  0  0  0  0  0  0
   -0.6550    0.2630    0.0000 C   0  0  1  0  0  0  0  0  0  0  0  0
    0.0950   -1.0360    0.0000 C   0  0  2  0  0  0  0  0  0  0  0  0
   -0.6550   -2.3350    0.0000 C   0  0  1  0  0  0  0  0  0  0  0  0
   -2.1550   -2.3350    0.0000 C   0  0  2  0  0  0  0  0  0  0  0  0
   -2.9050   -1.0360    0.0000 C   0  0  0  0  0  0  0  0  0  0  0  0
   -4.4050   -1.0360    0.0000 C   0  0  0  0  0  0  0  0  0  0  0  0
   -2.1550    0.2630    0.0000 C   0  0  0  0  0  0  0  0  0  0  0  0
   -2.6190   -3.7610    0.0000 C   0  0  0  0  0  0  0  0  0  0  0  0
   -1.4050   -4.6430    0.0000 C   0  0  0  0  0  0  0  0  0  0  0  0
   -0.1910   -3.7610    0.0000 C   0  0  0  0  0  0  0  0  0  0  0  0
    1.5620   -0.7240    0.0000 C   0  0  0  0  0  0  0  0  0  0  0  0
  1  2  2  0  0  0  0
  2  3  1  0  0  0  0
  2 13  1  0  0  0  0
  3  4  1  0  0  0  0
  3 12  1  1  0  0  0
  4  5  1  0  0  0  0
  5  6  1  0  0  0  0
  6  7  1  0  0  0  0
  7  8  1  0  0  0  0
  8  9  1  1  0  0  0
  8 10  1  0  0  0  0
 10 11  1  0  0  0  0
 13 14  1  0  0  0  0
 13 28  2  0  0  0  0
 14 15  1  6  0  0  0
 14 18  1  0  0  0  0
 15 16  1  0  0  0  0
 16 17  2  0  0  0  0
 18 19  1  0  0  0  0
 18 24  1  1  0  0  0
 19 20  1  0  0  0  0
 19 28  1  1  0  0  0
 20 21  1  0  0  0  0
 20 27  1  6  0  0  0
 21 22  1  1  0  0  0
 21 25  1  0  0  0  0
 22 23  1  0  0  0  0
 22 24  2  0  0  0  0
 25 26  1  0  0  0  0
 26 27  1  0  0  0  0
M  END
>  <name>
O=C([C@@H]([C;ether]CCC[C@@H]([O;ester])CC)C)C=1[C@@H](C[C;ester]=O)[C@H]2[C@H]([C@H]3[C@H](C(C)=C2)C[C;ether]C3)C=1

>  <apo>
4

>  <freq>
1

>  <freq0>
0

>  <freq1>
1

>  <freqA>
0.99887151

>  <a_count>
66

$$$$

  MOE2015           2D

 35 38  0  0  0  0  0  0  0  0999 V2000
    2.3570   -3.7860    0.0000 Cl  0  0  0  0  0  0  0  0  0  0  0  0
    3.1070   -2.4870    0.0000 C   0  0  0  0  0  0  0  0  0  0  0  0
    2.3570   -1.1880    0.0000 C   0  0  0  0  0  0  0  0  0  0  0  0
    0.8570   -1.1880    0.0000 N   0  0  0  0  0  0  0  0  0  0  0  0
    0.1070    0.1110    0.0000 C   0  0  0  0  0  0  0  0  0  0  0  0
   -1.3930    0.1110    0.0000 C   0  0  0  0  0  0  0  0  0  0  0  0
   -2.1430   -1.1880    0.0000 S   0  0  0  0  0  0  0  0  0  0  0  0
   -3.4420   -0.4380    0.0000 O   0  0  0  0  0  0  0  0  0  0  0  0
   -0.8440   -1.9380    0.0000 O   0  0  0  0  0  0  0  0  0  0  0  0
   -2.8930   -2.4870    0.0000 C   0  0  0  0  0  0  0  0  0  0  0  0
   -4.3930   -2.4870    0.0000 C   0  0  0  0  0  0  0  0  0  0  0  0
   -2.1430   -3.7860    0.0000 C   0  0  0  0  0  0  0  0  0  0  0  0
   -2.1430    1.4100    0.0000 C   0  0  0  0  0  0  0  0  0  0  0  0
   -1.3930    2.7090    0.0000 C   0  0  0  0  0  0  0  0  0  0  0  0
    0.1070    2.7090    0.0000 C   0  0  0  0  0  0  0  0  0  0  0  0
    0.8570    1.4100    0.0000 C   0  0  0  0  0  0  0  0  0  0  0  0
    3.1070    0.1110    0.0000 N   0  0  0  0  0  0  0  0  0  0  0  0
    4.6070    0.1110    0.0000 C   0  0  0  0  0  0  0  0  0  0  0  0
    5.3570    1.4100    0.0000 N   0  0  0  0  0  0  0  0  0  0  0  0
    6.8570    1.4100    0.0000 C   0  0  0  0  0  0  0  0  0  0  0  0
    7.6070    2.7090    0.0000 C   0  0  0  0  0  0  0  0  0  0  0  0
    6.8570    4.0080    0.0000 O   0  0  0  0  0  0  0  0  0  0  0  0
    9.1070    2.7090    0.0000 C   0  0  0  0  0  0  0  0  0  0  0  0
    9.8570    1.4100    0.0000 C   0  0  0  0  0  0  0  0  0  0  0  0
    9.1070    0.1110    0.0000 C   0  0  0  0  0  0  0  0  0  0  0  0
    9.8570   -1.1880    0.0000 C   0  0  0  0  0  0  0  0  0  0  0  0
    7.6070    0.1110    0.0000 C   0  0  0  0  0  0  0  0  0  0  0  0
   11.3570    1.4100    0.0000 C   0  0  0  0  0  0  0  0  0  0  0  0
   12.1070    2.7090    0.0000 C   0  0  0  0  0  0  0  0  0  0  0  0
   13.6070    2.7090    0.0000 C   0  0  0  0  0  0  0  0  0  0  0  0
   14.3570    1.4100    0.0000 N   0  0  0  0  0  0  0  0  0  0  0  0
   13.6070    0.1110    0.0000 C   0  0  0  0  0  0  0  0  0  0  0  0
   12.1070    0.1110    0.0000 C   0  0  0  0  0  0  0  0  0  0  0  0
    5.3570   -1.1880    0.0000 N   0  0  0  0  0  0  0  0  0  0  0  0
    4.6070   -2.4870    0.0000 C   0  0  0  0  0  0  0  0  0  0  0  0
  1  2  1  0  0  0  0
  2  3  1  0  0  0  0
  2 35  2  0  0  0  0
  3  4  1  0  0  0  0
  3 17  2  0  0  0  0
  4  5  1  0  0  0  0
  5  6  1  0  0  0  0
  5 16  2  0  0  0  0
  6  7  1  0  0  0  0
  6 13  2  0  0  0  0
  7  8  2  0  0  0  0
  7  9  2  0  0  0  0
  7 10  1  0  0  0  0
 10 11  1  0  0  0  0
 10 12  1  0  0  0  0
 13 14  1  0  0  0  0
 14 15  2  0  0  0  0
 15 16  1  0  0  0  0
 17 18  1  0  0  0  0
 18 19  1  0  0  0  0
 18 34  2  0  0  0  0
 19 20  1  0  0  0  0
 20 21  1  0  0  0  0
 20 27  2  0  0  0  0
 21 22  1  0  0  0  0
 21 23  2  0  0  0  0
 23 24  1  0  0  0  0
 24 25  2  0  0  0  0
 24 28  1  0  0  0  0
 25 26  1  0  0  0  0
 25 27  1  0  0  0  0
 28 29  1  0  0  0  0
 28 33  1  0  0  0  0
 29 30  1  0  0  0  0
 30 31  1  0  0  0  0
 31 32  1  0  0  0  0
 32 33  1  0  0  0  0
 34 35  1  0  0  0  0
M  END
>  <name>
Clc1c(Nc2c(S(=O)(=O)C(C)C)cccc2)nc(Nc2c([O;ether])cc(c(C)c2)C2CCNCC2)nc1

>  <apo>
1

>  <freq>
1

>  <freq0>
0

>  <freq1>
1

>  <freqA>
0.99887151

>  <a_count>
65

$$$$

  MOE2015           2D

 34 36  0  0  1  0  0  0  0  0999 V2000
   -2.2400    1.2930    0.0000 F   0  0  0  0  0  0  0  0  0  0  0  0
   -2.9900    2.5920    0.0000 C   0  0  0  0  0  0  0  0  0  0  0  0
   -3.7400    1.2930    0.0000 F   0  0  0  0  0  0  0  0  0  0  0  0
   -1.6910    3.3420    0.0000 C   0  0  0  0  0  0  0  0  0  0  0  0
   -0.3920    2.5920    0.0000 C   0  0  0  0  0  0  0  0  0  0  0  0
    0.9070    3.3420    0.0000 C   0  0  0  0  0  0  0  0  0  0  0  0
    2.2060    2.5920    0.0000 C   0  0  0  0  0  0  0  0  0  0  0  0
    3.5050    3.3420    0.0000 C   0  0  1  0  0  0  0  0  0  0  0  0
    5.0050    3.3420    0.0000 C   0  0  2  0  0  0  0  0  0  0  0  0
    6.3040    2.5920    0.0000 O   0  0  0  0  0  0  0  0  0  0  0  0
    7.6030    3.3420    0.0000 C   0  0  0  0  0  0  0  0  0  0  0  0
    7.6030    4.8420    0.0000 O   0  0  0  0  0  0  0  0  0  0  0  0
    8.9020    2.5920    0.0000 N   0  0  0  0  0  0  0  0  0  0  0  0
   10.2010    3.3420    0.0000 C   0  0  1  0  0  0  0  0  0  0  0  0
   11.5000    2.5920    0.0000 C   0  0  0  0  0  0  0  0  0  0  0  0
   12.7990    1.8420    0.0000 C   0  0  0  0  0  0  0  0  0  0  0  0
   10.7500    1.2930    0.0000 C   0  0  0  0  0  0  0  0  0  0  0  0
   12.2500    3.8910    0.0000 C   0  0  0  0  0  0  0  0  0  0  0  0
   10.2010    4.8420    0.0000 C   0  0  0  0  0  0  0  0  0  0  0  0
   11.5000    5.5920    0.0000 O   0  0  0  0  0  0  0  0  0  0  0  0
    4.2550    4.6410    0.0000 C   0  0  0  0  0  0  0  0  0  0  0  0
   -4.2890    3.3420    0.0000 C   0  0  0  0  0  0  0  0  0  0  0  0
   -4.2890    4.8420    0.0000 C   0  0  0  0  0  0  0  0  0  0  0  0
   -2.9900    5.5920    0.0000 O   0  0  0  0  0  0  0  0  0  0  0  0
   -5.5880    5.5920    0.0000 N   0  0  0  0  0  0  0  0  0  0  0  0
   -6.8870    4.8420    0.0000 C   0  0  0  0  0  0  0  0  0  0  0  0
   -6.8870    3.3420    0.0000 C   0  0  0  0  0  0  0  0  0  0  0  0
   -5.5880    2.5920    0.0000 N   0  0  0  0  0  0  0  0  0  0  0  0
   -8.1860    2.5920    0.0000 C   0  0  0  0  0  0  0  0  0  0  0  0
   -9.4850    3.3420    0.0000 C   0  0  0  0  0  0  0  0  0  0  0  0
   -9.4850    4.8420    0.0000 C   0  0  0  0  0  0  0  0  0  0  0  0
  -10.7840    5.5920    0.0000 O   0  0  0  0  0  0  0  0  0  0  0  0
  -12.0830    4.8420    0.0000 C   0  0  0  0  0  0  0  0  0  0  0  0
   -8.1860    5.5920    0.0000 C   0  0  0  0  0  0  0  0  0  0  0  0
  1  2  1  0  0  0  0
  2  3  1  0  0  0  0
  2  4  1  0  0  0  0
  2 22  1  0  0  0  0
  4  5  1  0  0  0  0
  5  6  1  0  0  0  0
  6  7  1  0  0  0  0
  8  7  1  6  0  0  0
  8  9  1  0  0  0  0
  8 21  1  0  0  0  0
  9 10  1  1  0  0  0
  9 21  1  0  0  0  0
 10 11  1  0  0  0  0
 11 12  2  0  0  0  0
 11 13  1  0  0  0  0
 14 13  1  6  0  0  0
 14 15  1  0  0  0  0
 14 19  1  0  0  0  0
 15 16  1  0  0  0  0
 15 17  1  0  0  0  0
 15 18  1  0  0  0  0
 19 20  2  0  0  0  0
 22 23  2  0  0  0  0
 22 28  1  0  0  0  0
 23 24  1  0  0  0  0
 23 25  1  0  0  0  0
 25 26  2  0  0  0  0
 26 27  1  0  0  0  0
 26 34  1  0  0  0  0
 27 28  2  0  0  0  0
 27 29  1  0  0  0  0
 29 30  2  0  0  0  0
 30 31  1  0  0  0  0
 31 32  1  0  0  0  0
 31 34  2  0  0  0  0
 32 33  1  0  0  0  0
M  END
>  <name>
FC(F)(CCCC[C@H]1[C@H](OC(=O)N[C@@H](C(C)(C)C)[C;amide]=O)C1)c1c([O;ether])nc2c(n1)ccc(OC)c2

>  <apo>
2

>  <freq>
1

>  <freq0>
0

>  <freq1>
1

>  <freqA>
0.99887151

>  <a_count>
65

$$$$

  MOE2015           2D

 32 34  0  0  1  0  0  0  0  0999 V2000
    6.7240  -11.6470    0.0000 O   0  0  0  0  0  0  0  0  0  0  0  0
    7.4740  -10.3480    0.0000 C   0  0  0  0  0  0  0  0  0  0  0  0
    6.7240   -9.0490    0.0000 O   0  0  0  0  0  0  0  0  0  0  0  0
    5.2240   -9.0490    0.0000 C   0  0  1  0  0  0  0  0  0  0  0  0
    3.9250   -8.2990    0.0000 C   0  0  2  0  0  0  0  0  0  0  0  0
    3.1750   -7.0000    0.0000 C   0  0  0  0  0  0  0  0  0  0  0  0
    1.6750   -7.0000    0.0000 C   0  0  0  0  0  0  0  0  0  0  0  0
    0.9250   -5.7010    0.0000 C   0  0  0  0  0  0  0  0  0  0  0  0
   -0.5750   -5.7010    0.0000 C   0  0  0  0  0  0  0  0  0  0  0  0
   -1.3250   -4.4020    0.0000 C   0  0  0  0  0  0  0  0  0  0  0  0
   -2.8250   -4.4020    0.0000 C   0  0  0  0  0  0  0  0  0  0  0  0
   -3.5750   -3.1030    0.0000 C   0  0  0  0  0  0  0  0  0  0  0  0
   -2.8250   -1.8040    0.0000 O   0  0  0  0  0  0  0  0  0  0  0  0
   -5.0750   -3.1030    0.0000 N   0  0  0  0  0  0  0  0  0  0  0  0
   -5.8250   -4.4020    0.0000 C   0  0  0  0  0  0  0  0  0  0  0  0
   -5.0750   -5.7010    0.0000 C   0  0  0  0  0  0  0  0  0  0  0  0
   -3.5750   -5.7010    0.0000 N   0  0  0  0  0  0  0  0  0  0  0  0
   -5.8250   -7.0000    0.0000 C   0  0  0  0  0  0  0  0  0  0  0  0
   -7.3250   -7.0000    0.0000 C   0  0  0  0  0  0  0  0  0  0  0  0
   -8.0750   -5.7010    0.0000 C   0  0  0  0  0  0  0  0  0  0  0  0
   -9.5750   -5.7010    0.0000 O   0  0  0  0  0  0  0  0  0  0  0  0
  -10.3250   -7.0000    0.0000 C   0  0  0  0  0  0  0  0  0  0  0  0
   -7.3250   -4.4020    0.0000 C   0  0  0  0  0  0  0  0  0  0  0  0
    3.9250   -9.7990    0.0000 C   0  0  0  0  0  0  0  0  0  0  0  0
    8.9740  -10.3480    0.0000 N   0  0  0  0  0  0  0  0  0  0  0  0
    9.7240   -9.0490    0.0000 C   0  0  1  0  0  0  0  0  0  0  0  0
   11.2240   -9.0490    0.0000 C   0  0  0  0  0  0  0  0  0  0  0  0
   12.7240   -9.0490    0.0000 C   0  0  0  0  0  0  0  0  0  0  0  0
   11.2240   -7.5490    0.0000 C   0  0  0  0  0  0  0  0  0  0  0  0
   11.2240  -10.5490    0.0000 C   0  0  0  0  0  0  0  0  0  0  0  0
    8.9740   -7.7500    0.0000 C   0  0  0  0  0  0  0  0  0  0  0  0
    9.7240   -6.4510    0.0000 O   0  0  0  0  0  0  0  0  0  0  0  0
  1  2  2  0  0  0  0
  2  3  1  0  0  0  0
  2 25  1  0  0  0  0
  4  3  1  6  0  0  0
  4  5  1  0  0  0  0
  4 24  1  0  0  0  0
  5  6  1  1  0  0  0
  5 24  1  0  0  0  0
  6  7  1  0  0  0  0
  7  8  1  0  0  0  0
  8  9  1  0  0  0  0
  9 10  1  0  0  0  0
 10 11  1  0  0  0  0
 11 12  2  0  0  0  0
 11 17  1  0  0  0  0
 12 13  1  0  0  0  0
 12 14  1  0  0  0  0
 14 15  2  0  0  0  0
 15 16  1  0  0  0  0
 15 23  1  0  0  0  0
 16 17  2  0  0  0  0
 16 18  1  0  0  0  0
 18 19  2  0  0  0  0
 19 20  1  0  0  0  0
 20 21  1  0  0  0  0
 20 23  2  0  0  0  0
 21 22  1  0  0  0  0
 26 25  1  6  0  0  0
 26 27  1  0  0  0  0
 26 31  1  0  0  0  0
 27 28  1  0  0  0  0
 27 29  1  0  0  0  0
 27 30  1  0  0  0  0
 31 32  2  0  0  0  0
M  END
>  <name>
O=C(O[C@H]1[C@H](CCCCCc2c([O;ether])nc3c(n2)ccc(OC)c3)C1)N[C@@H](C(C)(C)C)[C;amide]=O

>  <apo>
2

>  <freq>
1

>  <freq0>
0

>  <freq1>
1

>  <freqA>
0.99887151

>  <a_count>
65

$$$$

  MOE2015           2D

 30 34  0  0  1  0  0  0  0  0999 V2000
   16.1530   -0.2720    0.0000 O   0  0  0  0  0  0  0  0  0  0  0  0
   14.6450   -0.2780    0.0000 C   0  0  0  0  0  0  0  0  0  0  0  0
   13.7800   -1.5040    0.0000 O   0  0  0  0  0  0  0  0  0  0  0  0
   12.3460   -1.0490    0.0000 C   0  0  0  0  0  0  0  0  0  0  0  0
   12.3140    0.4340    0.0000 C   0  0  0  0  0  0  0  0  0  0  0  0
   11.1210    1.3440    0.0000 C   0  0  2  0  0  0  0  0  0  0  0  0
    9.6710    1.0040    0.0000 C   0  0  2  0  0  0  0  0  0  0  0  0
   10.5290   -0.2220    0.0000 C   0  0  0  0  0  0  0  0  0  0  0  0
    8.8770    2.2840    0.0000 C   0  0  1  0  0  0  0  0  0  0  0  0
    8.2380    3.6440    0.0000 O   0  0  0  0  0  0  0  0  0  0  0  0
    7.3810    2.2510    0.0000 C   0  0  1  0  0  0  0  0  0  0  0  0
    6.6250    0.9480    0.0000 C   0  0  2  0  0  0  0  0  0  0  0  0
    7.4170   -0.3250    0.0000 C   0  0  2  0  0  0  0  0  0  0  0  0
    6.7420   -1.6710    0.0000 O   0  0  0  0  0  0  0  0  0  0  0  0
    8.9200   -0.2940    0.0000 C   0  0  0  0  0  0  0  0  0  0  0  0
    5.1060    0.9280    0.0000 C   0  0  1  0  0  0  0  0  0  0  0  0
    5.3760   -0.4950    0.0000 C   0  0  0  0  0  0  0  0  0  0  0  0
    4.0410   -1.4990    0.0000 O   0  0  0  0  0  0  0  0  0  0  0  0
    4.2880   -0.2790    0.0000 C   0  0  2  0  0  0  0  0  0  0  0  0
    5.3040   -1.4900    0.0000 O   0  0  0  0  0  0  0  0  0  0  0  0
    2.7760   -0.2740    0.0000 C   0  0  0  0  0  0  0  0  0  0  0  0
    2.0680    1.0560    0.0000 C   0  0  0  0  0  0  0  0  0  0  0  0
    2.8760    2.3020    0.0000 C   0  0  0  0  0  0  0  0  0  0  0  0
    4.3730    2.2740    0.0000 C   0  0  1  0  0  0  0  0  0  0  0  0
    3.6510    3.5760    0.0000 O   0  0  0  0  0  0  0  0  0  0  0  0
    5.1460    3.5460    0.0000 C   0  0  0  0  0  0  0  0  0  0  0  0
    6.6230    3.5540    0.0000 C   0  0  0  0  0  0  0  0  0  0  0  0
    9.8650    3.4210    0.0000 C   0  0  0  0  0  0  0  0  0  0  0  0
   11.2320    2.8670    0.0000 C   0  0  0  0  0  0  0  0  0  0  0  0
   13.7590    0.9220    0.0000 C   0  0  0  0  0  0  0  0  0  0  0  0
  1  2  2  0  0  0  0
  2  3  1  0  0  0  0
  2 30  1  0  0  0  0
  3  4  1  0  0  0  0
  4  5  1  0  0  0  0
  6  5  1  6  0  0  0
  5 30  2  0  0  0  0
  6  7  1  0  0  0  0
  6 29  1  0  0  0  0
  7  8  1  6  0  0  0
  7  9  1  0  0  0  0
  7 15  1  0  0  0  0
  9 10  1  6  0  0  0
  9 11  1  0  0  0  0
  9 28  1  0  0  0  0
 11 12  1  0  0  0  0
 11 27  1  1  0  0  0
 12 13  1  6  0  0  0
 12 16  1  0  0  0  0
 13 14  1  1  0  0  0
 13 15  1  0  0  0  0
 16 17  1  6  0  0  0
 16 19  1  0  0  0  0
 16 24  1  0  0  0  0
 17 18  1  0  0  0  0
 19 20  1  6  0  0  0
 19 21  1  0  0  0  0
 21 22  1  0  0  0  0
 22 23  1  0  0  0  0
 23 24  1  0  0  0  0
 24 25  1  1  0  0  0
 24 26  1  0  0  0  0
 26 27  1  0  0  0  0
 28 29  1  0  0  0  0
M  END
>  <name>
O=C1OCC([C@@H]2[C@]3(C)[C@@](O)([C@H]4[C@H]([C@H](O)C3)[C@@]3(CO)[C@H](O)C[C;ether]C[C@]3(O)CC4)CC2)=C1

>  <apo>
1

>  <freq>
1

>  <freq0>
0

>  <freq1>
1

>  <freqA>
0.99887151

>  <a_count>
64

$$$$

  MOE2015           2D

 38 40  0  0  1  0  0  0  0  0999 V2000
   -1.6500   -8.4000    0.0000 Cl  0  0  0  0  0  0  0  0  0  0  0  0
   -1.6500   -6.9000    0.0000 C   0  0  0  0  0  0  0  0  0  0  0  0
   -0.3510   -6.1500    0.0000 C   0  0  0  0  0  0  0  0  0  0  0  0
    0.9480   -6.9000    0.0000 O   0  0  0  0  0  0  0  0  0  0  0  0
    2.2470   -6.1500    0.0000 C   0  0  0  0  0  0  0  0  0  0  0  0
    3.5460   -6.9000    0.0000 C   0  0  0  0  0  0  0  0  0  0  0  0
    3.5460   -8.4000    0.0000 O   0  0  0  0  0  0  0  0  0  0  0  0
    4.8450   -6.1500    0.0000 C   0  0  0  0  0  0  0  0  0  0  0  0
    6.1440   -6.9000    0.0000 O   0  0  0  0  0  0  0  0  0  0  0  0
    7.4430   -6.1500    0.0000 C   0  0  0  0  0  0  0  0  0  0  0  0
    8.7420   -6.9000    0.0000 C   0  0  0  0  0  0  0  0  0  0  0  0
    8.7420   -8.4000    0.0000 Cl  0  0  0  0  0  0  0  0  0  0  0  0
   10.0410   -6.1500    0.0000 C   0  0  0  0  0  0  0  0  0  0  0  0
   10.0410   -4.6500    0.0000 C   0  0  0  0  0  0  0  0  0  0  0  0
   11.3400   -3.9000    0.0000 C   0  0  0  0  0  0  0  0  0  0  0  0
   12.6390   -4.6500    0.0000 C   0  0  2  0  0  0  0  0  0  0  0  0
   12.6390   -6.1500    0.0000 N   0  0  0  0  0  0  0  0  0  0  0  0
   13.9380   -3.9000    0.0000 C   0  0  0  0  0  0  0  0  0  0  0  0
   15.2370   -4.6500    0.0000 O   0  0  0  0  0  0  0  0  0  0  0  0
    8.7420   -3.9000    0.0000 C   0  0  0  0  0  0  0  0  0  0  0  0
    7.4430   -4.6500    0.0000 C   0  0  0  0  0  0  0  0  0  0  0  0
    4.8450   -4.6500    0.0000 C   0  0  0  0  0  0  0  0  0  0  0  0
    3.5460   -3.9000    0.0000 C   0  0  0  0  0  0  0  0  0  0  0  0
    3.5460   -2.4000    0.0000 C   0  0  1  0  0  0  0  0  0  0  0  0
    2.2470   -1.6500    0.0000 N   0  0  0  0  0  0  0  0  0  0  0  0
    4.8450   -1.6500    0.0000 C   0  0  0  0  0  0  0  0  0  0  0  0
    4.8450   -0.1500    0.0000 O   0  0  0  0  0  0  0  0  0  0  0  0
    2.2470   -4.6500    0.0000 C   0  0  0  0  0  0  0  0  0  0  0  0
   -0.3510   -4.6500    0.0000 C   0  0  0  0  0  0  0  0  0  0  0  0
   -1.6500   -3.9000    0.0000 C   0  0  0  0  0  0  0  0  0  0  0  0
   -2.9490   -4.6500    0.0000 C   0  0  0  0  0  0  0  0  0  0  0  0
   -4.2480   -3.9000    0.0000 C   0  0  1  0  0  0  0  0  0  0  0  0
   -4.2480   -2.4000    0.0000 O   0  0  0  0  0  0  0  0  0  0  0  0
   -5.5470   -4.6500    0.0000 C   0  0  1  0  0  0  0  0  0  0  0  0
   -5.5470   -6.1500    0.0000 N   0  0  0  0  0  0  0  0  0  0  0  0
   -6.8460   -3.9000    0.0000 C   0  0  0  0  0  0  0  0  0  0  0  0
   -8.1450   -4.6500    0.0000 O   0  0  0  0  0  0  0  0  0  0  0  0
   -2.9490   -6.1500    0.0000 C   0  0  0  0  0  0  0  0  0  0  0  0
  1  2  1  0  0  0  0
  2  3  1  0  0  0  0
  2 38  2  0  0  0  0
  3  4  1  0  0  0  0
  3 29  2  0  0  0  0
  4  5  1  0  0  0  0
  5  6  2  0  0  0  0
  5 28  1  0  0  0  0
  6  7  1  0  0  0  0
  6  8  1  0  0  0  0
  8  9  1  0  0  0  0
  8 22  2  0  0  0  0
  9 10  1  0  0  0  0
 10 11  2  0  0  0  0
 10 21  1  0  0  0  0
 11 12  1  0  0  0  0
 11 13  1  0  0  0  0
 13 14  2  0  0  0  0
 14 15  1  0  0  0  0
 14 20  1  0  0  0  0
 15 16  1  0  0  0  0
 16 17  1  1  0  0  0
 16 18  1  0  0  0  0
 18 19  2  0  0  0  0
 20 21  2  0  0  0  0
 22 23  1  0  0  0  0
 23 24  1  0  0  0  0
 23 28  2  0  0  0  0
 24 25  1  1  0  0  0
 24 26  1  0  0  0  0
 26 27  2  0  0  0  0
 29 30  1  0  0  0  0
 30 31  2  0  0  0  0
 31 32  1  0  0  0  0
 31 38  1  0  0  0  0
 32 33  1  6  0  0  0
 32 34  1  0  0  0  0
 34 35  1  1  0  0  0
 34 36  1  0  0  0  0
 36 37  2  0  0  0  0
M  END
>  <name>
Clc1c(Oc2c([O;ether])c(Oc3c(Cl)cc([C;ether][C@H]([N;amide])[C;amide]=O)cc3)cc([C@@H]([N;amide])[C;amide]=O)c2)ccc([C@@H](O)[C@@H]([N;amide])[C;amide]=O)c1

>  <apo>
8

>  <freq>
1

>  <freq0>
0

>  <freq1>
1

>  <freqA>
0.99887151

>  <a_count>
63

$$$$

  MOE2015           2D

 31 34  0  0  1  0  0  0  0  0999 V2000
    4.8690    2.1820    0.0000 O   0  0  0  0  0  0  0  0  0  0  0  0
    5.4430    3.5680    0.0000 C   0  0  0  0  0  0  0  0  0  0  0  0
    6.9300    3.7640    0.0000 O   0  0  0  0  0  0  0  0  0  0  0  0
    7.8440    2.5740    0.0000 C   0  0  0  0  0  0  0  0  0  0  0  0
    9.3310    2.7700    0.0000 C   0  0  0  0  0  0  0  0  0  0  0  0
    4.5300    4.7580    0.0000 O   0  0  0  0  0  0  0  0  0  0  0  0
    3.0430    4.5620    0.0000 C   0  0  1  0  0  0  0  0  0  0  0  0
    3.5680    5.9670    0.0000 C   0  0  0  0  0  0  0  0  0  0  0  0
    2.6130    7.1240    0.0000 O   0  0  0  0  0  0  0  0  0  0  0  0
    5.0470    6.2150    0.0000 C   0  0  0  0  0  0  0  0  0  0  0  0
    5.5720    7.6200    0.0000 O   0  0  0  0  0  0  0  0  0  0  0  0
    1.5840    4.9120    0.0000 C   0  0  2  0  0  0  0  0  0  0  0  0
    2.4760    6.1180    0.0000 C   0  0  0  0  0  0  0  0  0  0  0  0
    0.8000    3.6330    0.0000 C   0  0  2  0  0  0  0  0  0  0  0  0
   -0.6990    3.6720    0.0000 C   0  0  1  0  0  0  0  0  0  0  0  0
   -1.4150    4.9900    0.0000 C   0  0  2  0  0  0  0  0  0  0  0  0
   -0.6320    6.2690    0.0000 C   0  0  1  0  0  0  0  0  0  0  0  0
   -1.3480    7.5870    0.0000 O   0  0  0  0  0  0  0  0  0  0  0  0
    0.8680    6.2300    0.0000 C   0  0  0  0  0  0  0  0  0  0  0  0
   -2.9150    5.0290    0.0000 C   0  0  2  0  0  0  0  0  0  0  0  0
   -2.1310    6.3080    0.0000 C   0  0  0  0  0  0  0  0  0  0  0  0
   -3.6980    3.7500    0.0000 C   0  0  0  0  0  0  0  0  0  0  0  0
   -5.1980    3.7890    0.0000 C   0  0  0  0  0  0  0  0  0  0  0  0
   -5.9140    5.1070    0.0000 C   0  0  0  0  0  0  0  0  0  0  0  0
   -7.4130    5.1460    0.0000 O   0  0  0  0  0  0  0  0  0  0  0  0
   -5.1300    6.3860    0.0000 C   0  0  0  0  0  0  0  0  0  0  0  0
   -3.6310    6.3470    0.0000 C   0  0  0  0  0  0  0  0  0  0  0  0
   -2.9820    2.4310    0.0000 C   0  0  0  0  0  0  0  0  0  0  0  0
   -1.4830    2.3920    0.0000 C   0  0  0  0  0  0  0  0  0  0  0  0
    1.7750    2.4920    0.0000 C   0  0  0  0  0  0  0  0  0  0  0  0
    3.1610    3.0660    0.0000 C   0  0  0  0  0  0  0  0  0  0  0  0
  1  2  2  0  0  0  0
  2  3  1  0  0  0  0
  2  6  1  0  0  0  0
  3  4  1  0  0  0  0
  4  5  1  0  0  0  0
  7  6  1  6  0  0  0
  7  8  1  1  0  0  0
  7 12  1  0  0  0  0
  7 31  1  0  0  0  0
  8  9  2  0  0  0  0
  8 10  1  0  0  0  0
 10 11  1  0  0  0  0
 12 13  1  1  0  0  0
 12 14  1  0  0  0  0
 12 19  1  0  0  0  0
 14 15  1  0  0  0  0
 14 30  1  1  0  0  0
 15 16  1  0  0  0  0
 15 29  1  6  0  0  0
 16 17  1  1  0  0  0
 16 20  1  0  0  0  0
 17 18  1  1  0  0  0
 17 19  1  0  0  0  0
 20 21  1  1  0  0  0
 20 22  1  0  0  0  0
 20 27  1  0  0  0  0
 22 23  2  0  0  0  0
 22 28  1  0  0  0  0
 23 24  1  0  0  0  0
 24 25  2  0  0  0  0
 24 26  1  0  0  0  0
 26 27  2  0  0  0  0
 28 29  1  0  0  0  0
 30 31  1  0  0  0  0
M  END
>  <name>
O=C(OCC)O[C@@]1(C(=O)C[O;ester])[C@]2(C)[C@H]([C@H]3[C@H]([C@@H](O)C2)[C@]2(C)C(=CC(=O)C=C2)CC3)CC1

>  <apo>
1

>  <freq>
1

>  <freq0>
0

>  <freq1>
1

>  <freqA>
0.99887151

>  <a_count>
63

$$$$

  MOE2015           2D

 27 29  0  0  1  0  0  0  0  0999 V2000
    2.7050    2.7050    0.0000 O   0  0  0  0  0  0  0  0  0  0  0  0
    2.7050    1.2050    0.0000 C   0  0  0  0  0  0  0  0  0  0  0  0
    4.0040    0.4550    0.0000 C   0  0  1  0  0  0  0  0  0  0  0  0
    5.3030    1.2050    0.0000 C   0  0  0  0  0  0  0  0  0  0  0  0
    6.6020    0.4550    0.0000 C   0  0  0  0  0  0  0  0  0  0  0  0
    7.9010    1.2050    0.0000 C   0  0  0  0  0  0  0  0  0  0  0  0
    9.2000    0.4550    0.0000 C   0  0  0  0  0  0  0  0  0  0  0  0
   10.4990    1.2050    0.0000 C   0  0  1  0  0  0  0  0  0  0  0  0
   10.4990    2.7050    0.0000 O   0  0  0  0  0  0  0  0  0  0  0  0
   11.7980    0.4550    0.0000 C   0  0  0  0  0  0  0  0  0  0  0  0
   13.0970    1.2050    0.0000 C   0  0  0  0  0  0  0  0  0  0  0  0
    4.0040   -1.0450    0.0000 C   0  0  0  0  0  0  0  0  0  0  0  0
    1.4060    0.4550    0.0000 C   0  0  0  0  0  0  0  0  0  0  0  0
    0.0350    1.0650    0.0000 C   0  0  1  0  0  0  0  0  0  0  0  0
   -0.2760    2.5320    0.0000 C   0  0  0  0  0  0  0  0  0  0  0  0
   -1.7030    2.9960    0.0000 C   0  0  0  0  0  0  0  0  0  0  0  0
   -2.0150    4.4630    0.0000 O   0  0  0  0  0  0  0  0  0  0  0  0
   -0.9680   -0.0500    0.0000 C   0  0  1  0  0  0  0  0  0  0  0  0
   -0.2180   -1.3490    0.0000 C   0  0  2  0  0  0  0  0  0  0  0  0
   -0.9680   -2.6480    0.0000 C   0  0  1  0  0  0  0  0  0  0  0  0
   -2.4680   -2.6480    0.0000 C   0  0  2  0  0  0  0  0  0  0  0  0
   -3.2180   -1.3490    0.0000 C   0  0  0  0  0  0  0  0  0  0  0  0
   -2.4680   -0.0500    0.0000 C   0  0  0  0  0  0  0  0  0  0  0  0
   -2.9320   -4.0750    0.0000 C   0  0  0  0  0  0  0  0  0  0  0  0
   -1.7180   -4.9560    0.0000 C   0  0  0  0  0  0  0  0  0  0  0  0
   -0.5050   -4.0750    0.0000 C   0  0  0  0  0  0  0  0  0  0  0  0
    1.2490   -1.0370    0.0000 C   0  0  0  0  0  0  0  0  0  0  0  0
  1  2  2  0  0  0  0
  2  3  1  0  0  0  0
  2 13  1  0  0  0  0
  3  4  1  0  0  0  0
  3 12  1  1  0  0  0
  4  5  1  0  0  0  0
  5  6  1  0  0  0  0
  6  7  1  0  0  0  0
  7  8  1  0  0  0  0
  8  9  1  1  0  0  0
  8 10  1  0  0  0  0
 10 11  1  0  0  0  0
 13 14  1  0  0  0  0
 13 27  2  0  0  0  0
 14 15  1  6  0  0  0
 14 18  1  0  0  0  0
 15 16  1  0  0  0  0
 16 17  2  0  0  0  0
 18 19  1  0  0  0  0
 18 23  1  1  0  0  0
 19 20  1  0  0  0  0
 19 27  1  1  0  0  0
 20 21  1  0  0  0  0
 20 26  1  6  0  0  0
 21 22  1  1  0  0  0
 21 24  1  0  0  0  0
 22 23  2  0  0  0  0
 24 25  1  0  0  0  0
 25 26  1  0  0  0  0
M  END
>  <name>
O=C([C@@H]([C;ether]CCC[C@@H]([O;ester])CC)C)C=1[C@@H](C[C;ester]=O)[C@H]2[C@H]([C@H]3[C@H](C=C2)C[C;ether]C3)C=1

>  <apo>
4

>  <freq>
1

>  <freq0>
0

>  <freq1>
1

>  <freqA>
0.99887151

>  <a_count>
63

$$$$

  MOE2015           2D

 33 36  0  0  0  0  0  0  0  0999 V2000
    2.5000   -4.3300    0.0000 Cl  0  0  0  0  0  0  0  0  0  0  0  0
    3.2500   -3.0310    0.0000 C   0  0  0  0  0  0  0  0  0  0  0  0
    2.5000   -1.7320    0.0000 C   0  0  0  0  0  0  0  0  0  0  0  0
    1.0000   -1.7320    0.0000 N   0  0  0  0  0  0  0  0  0  0  0  0
    0.2500   -0.4330    0.0000 C   0  0  0  0  0  0  0  0  0  0  0  0
   -1.2500   -0.4330    0.0000 C   0  0  0  0  0  0  0  0  0  0  0  0
   -2.0000   -1.7320    0.0000 P   0  0  0  0  0  0  0  0  0  0  0  0
   -3.2990   -0.9820    0.0000 O   0  0  0  0  0  0  0  0  0  0  0  0
   -0.7010   -2.4820    0.0000 C   0  0  0  0  0  0  0  0  0  0  0  0
   -2.7500   -3.0310    0.0000 C   0  0  0  0  0  0  0  0  0  0  0  0
   -2.0000    0.8660    0.0000 C   0  0  0  0  0  0  0  0  0  0  0  0
   -1.2500    2.1650    0.0000 C   0  0  0  0  0  0  0  0  0  0  0  0
    0.2500    2.1650    0.0000 C   0  0  0  0  0  0  0  0  0  0  0  0
    1.0000    0.8660    0.0000 C   0  0  0  0  0  0  0  0  0  0  0  0
    3.2500   -0.4330    0.0000 N   0  0  0  0  0  0  0  0  0  0  0  0
    4.7500   -0.4330    0.0000 C   0  0  0  0  0  0  0  0  0  0  0  0
    5.5000    0.8660    0.0000 N   0  0  0  0  0  0  0  0  0  0  0  0
    7.0000    0.8660    0.0000 C   0  0  0  0  0  0  0  0  0  0  0  0
    7.7500    2.1650    0.0000 C   0  0  0  0  0  0  0  0  0  0  0  0
    7.0000    3.4640    0.0000 O   0  0  0  0  0  0  0  0  0  0  0  0
    7.7500    4.7630    0.0000 C   0  0  0  0  0  0  0  0  0  0  0  0
    9.2500    2.1650    0.0000 C   0  0  0  0  0  0  0  0  0  0  0  0
   10.0000    0.8660    0.0000 C   0  0  0  0  0  0  0  0  0  0  0  0
   11.5000    0.8660    0.0000 N   0  0  0  0  0  0  0  0  0  0  0  0
   12.2500   -0.4330    0.0000 C   0  0  0  0  0  0  0  0  0  0  0  0
   13.7500   -0.4330    0.0000 C   0  0  0  0  0  0  0  0  0  0  0  0
   14.5000    0.8660    0.0000 C   0  0  0  0  0  0  0  0  0  0  0  0
   13.7500    2.1650    0.0000 C   0  0  0  0  0  0  0  0  0  0  0  0
   12.2500    2.1650    0.0000 C   0  0  0  0  0  0  0  0  0  0  0  0
    9.2500   -0.4330    0.0000 C   0  0  0  0  0  0  0  0  0  0  0  0
    7.7500   -0.4330    0.0000 C   0  0  0  0  0  0  0  0  0  0  0  0
    5.5000   -1.7320    0.0000 N   0  0  0  0  0  0  0  0  0  0  0  0
    4.7500   -3.0310    0.0000 C   0  0  0  0  0  0  0  0  0  0  0  0
  1  2  1  0  0  0  0
  2  3  1  0  0  0  0
  2 33  2  0  0  0  0
  3  4  1  0  0  0  0
  3 15  2  0  0  0  0
  4  5  1  0  0  0  0
  5  6  1  0  0  0  0
  5 14  2  0  0  0  0
  6  7  1  0  0  0  0
  6 11  2  0  0  0  0
  7  8  2  0  0  0  0
  7  9  1  0  0  0  0
  7 10  1  0  0  0  0
 11 12  1  0  0  0  0
 12 13  2  0  0  0  0
 13 14  1  0  0  0  0
 15 16  1  0  0  0  0
 16 17  1  0  0  0  0
 16 32  2  0  0  0  0
 17 18  1  0  0  0  0
 18 19  1  0  0  0  0
 18 31  2  0  0  0  0
 19 20  1  0  0  0  0
 19 22  2  0  0  0  0
 20 21  1  0  0  0  0
 22 23  1  0  0  0  0
 23 24  1  0  0  0  0
 23 30  2  0  0  0  0
 24 25  1  0  0  0  0
 24 29  1  0  0  0  0
 25 26  1  0  0  0  0
 26 27  1  0  0  0  0
 27 28  1  0  0  0  0
 28 29  1  0  0  0  0
 30 31  1  0  0  0  0
 32 33  1  0  0  0  0
M  END
>  <name>
Clc1c(Nc2c(P(=O)(C)C)cccc2)nc(Nc2c(OC)cc(N3CC[C;amine]CC3)cc2)nc1

>  <apo>
1

>  <freq>
1

>  <freq0>
0

>  <freq1>
1

>  <freqA>
0.99887151

>  <a_count>
62

$$$$

  MOE2015           2D

 37 39  0  0  1  0  0  0  0  0999 V2000
    8.5350   -8.5350    0.0000 Cl  0  0  0  0  0  0  0  0  0  0  0  0
    8.5350   -7.0350    0.0000 C   0  0  0  0  0  0  0  0  0  0  0  0
    7.2360   -6.2850    0.0000 C   0  0  0  0  0  0  0  0  0  0  0  0
    5.9370   -7.0350    0.0000 O   0  0  0  0  0  0  0  0  0  0  0  0
    4.6380   -6.2850    0.0000 C   0  0  0  0  0  0  0  0  0  0  0  0
    3.3390   -7.0350    0.0000 C   0  0  0  0  0  0  0  0  0  0  0  0
    3.3390   -8.5350    0.0000 O   0  0  0  0  0  0  0  0  0  0  0  0
    2.0400   -6.2850    0.0000 C   0  0  0  0  0  0  0  0  0  0  0  0
    0.7410   -7.0350    0.0000 O   0  0  0  0  0  0  0  0  0  0  0  0
   -0.5580   -6.2850    0.0000 C   0  0  0  0  0  0  0  0  0  0  0  0
   -1.8570   -7.0350    0.0000 C   0  0  0  0  0  0  0  0  0  0  0  0
   -1.8570   -8.5350    0.0000 Cl  0  0  0  0  0  0  0  0  0  0  0  0
   -3.1560   -6.2850    0.0000 C   0  0  0  0  0  0  0  0  0  0  0  0
   -3.1560   -4.7850    0.0000 C   0  0  0  0  0  0  0  0  0  0  0  0
   -4.4550   -4.0350    0.0000 C   0  0  0  0  0  0  0  0  0  0  0  0
   -5.7540   -4.7850    0.0000 C   0  0  2  0  0  0  0  0  0  0  0  0
   -5.7540   -6.2850    0.0000 N   0  0  0  0  0  0  0  0  0  0  0  0
   -7.0530   -4.0350    0.0000 C   0  0  0  0  0  0  0  0  0  0  0  0
   -8.3520   -4.7850    0.0000 O   0  0  0  0  0  0  0  0  0  0  0  0
   -1.8570   -4.0350    0.0000 C   0  0  0  0  0  0  0  0  0  0  0  0
   -0.5580   -4.7850    0.0000 C   0  0  0  0  0  0  0  0  0  0  0  0
    2.0400   -4.7850    0.0000 C   0  0  0  0  0  0  0  0  0  0  0  0
    3.3390   -4.0350    0.0000 C   0  0  0  0  0  0  0  0  0  0  0  0
    3.3390   -2.5350    0.0000 C   0  0  1  0  0  0  0  0  0  0  0  0
    4.6380   -1.7850    0.0000 N   0  0  0  0  0  0  0  0  0  0  0  0
    2.0400   -1.7850    0.0000 C   0  0  0  0  0  0  0  0  0  0  0  0
    2.0400   -0.2850    0.0000 O   0  0  0  0  0  0  0  0  0  0  0  0
    4.6380   -4.7850    0.0000 C   0  0  0  0  0  0  0  0  0  0  0  0
    7.2360   -4.7850    0.0000 C   0  0  0  0  0  0  0  0  0  0  0  0
    8.5350   -4.0350    0.0000 C   0  0  0  0  0  0  0  0  0  0  0  0
    9.8340   -4.7850    0.0000 C   0  0  0  0  0  0  0  0  0  0  0  0
   11.1330   -4.0350    0.0000 C   0  0  0  0  0  0  0  0  0  0  0  0
   12.4320   -4.7850    0.0000 C   0  0  1  0  0  0  0  0  0  0  0  0
   12.4320   -6.2850    0.0000 N   0  0  0  0  0  0  0  0  0  0  0  0
   13.7310   -4.0350    0.0000 C   0  0  0  0  0  0  0  0  0  0  0  0
   15.0310   -4.7850    0.0000 O   0  0  0  0  0  0  0  0  0  0  0  0
    9.8340   -6.2850    0.0000 C   0  0  0  0  0  0  0  0  0  0  0  0
  1  2  1  0  0  0  0
  2  3  1  0  0  0  0
  2 37  2  0  0  0  0
  3  4  1  0  0  0  0
  3 29  2  0  0  0  0
  4  5  1  0  0  0  0
  5  6  2  0  0  0  0
  5 28  1  0  0  0  0
  6  7  1  0  0  0  0
  6  8  1  0  0  0  0
  8  9  1  0  0  0  0
  8 22  2  0  0  0  0
  9 10  1  0  0  0  0
 10 11  2  0  0  0  0
 10 21  1  0  0  0  0
 11 12  1  0  0  0  0
 11 13  1  0  0  0  0
 13 14  2  0  0  0  0
 14 15  1  0  0  0  0
 14 20  1  0  0  0  0
 15 16  1  0  0  0  0
 16 17  1  6  0  0  0
 16 18  1  0  0  0  0
 18 19  2  0  0  0  0
 20 21  2  0  0  0  0
 22 23  1  0  0  0  0
 23 24  1  0  0  0  0
 23 28  2  0  0  0  0
 24 25  1  6  0  0  0
 24 26  1  0  0  0  0
 26 27  2  0  0  0  0
 29 30  1  0  0  0  0
 30 31  2  0  0  0  0
 31 32  1  0  0  0  0
 31 37  1  0  0  0  0
 32 33  1  0  0  0  0
 33 34  1  6  0  0  0
 33 35  1  0  0  0  0
 35 36  2  0  0  0  0
M  END
>  <name>
Clc1c(Oc2c([O;ether])c(Oc3c(Cl)cc([C;ether][C@H]([N;amide])[C;amide]=O)cc3)cc([C@@H]([N;amide])[C;amide]=O)c2)ccc(C[C@@H]([N;amide])[C;amide]=O)c1

>  <apo>
8

>  <freq>
1

>  <freq0>
0

>  <freq1>
1

>  <freqA>
0.99887151

>  <a_count>
62

$$$$

  MOE2015           2D

 32 36  0  0  1  0  0  0  0  0999 V2000
    9.1950    5.2830    0.0000 F   0  0  0  0  0  0  0  0  0  0  0  0
    8.4400    3.9880    0.0000 C   0  0  2  0  0  0  0  0  0  0  0  0
    9.1850    2.6850    0.0000 C   0  0  0  0  0  0  0  0  0  0  0  0
    8.4290    1.3900    0.0000 C   0  0  1  0  0  0  0  0  0  0  0  0
    7.7200    0.0680    0.0000 C   0  0  0  0  0  0  0  0  0  0  0  0
    6.9290    1.3960    0.0000 C   0  0  1  0  0  0  0  0  0  0  0  0
    5.4300    1.3500    0.0000 F   0  0  0  0  0  0  0  0  0  0  0  0
    6.1740    0.1000    0.0000 C   0  0  1  0  0  0  0  0  0  0  0  0
    6.9180   -1.2020    0.0000 O   0  0  0  0  0  0  0  0  0  0  0  0
    4.6740    0.1060    0.0000 C   0  0  0  0  0  0  0  0  0  0  0  0
    3.9290    1.4080    0.0000 C   0  0  2  0  0  0  0  0  0  0  0  0
    3.2200    0.0870    0.0000 C   0  0  0  0  0  0  0  0  0  0  0  0
    2.4630    1.7260    0.0000 C   0  0  2  0  0  0  0  0  0  0  0  0
    2.1200    0.2660    0.0000 C   0  0  0  0  0  0  0  0  0  0  0  0
    3.2130   -0.7610    0.0000 O   0  0  0  0  0  0  0  0  0  0  0  0
    0.6840   -0.1660    0.0000 C   0  0  0  0  0  0  0  0  0  0  0  0
    0.3400   -1.6270    0.0000 O   0  0  0  0  0  0  0  0  0  0  0  0
    1.0910    1.1220    0.0000 O   0  0  0  0  0  0  0  0  0  0  0  0
    0.0910    2.2410    0.0000 C   0  0  0  0  0  0  0  0  0  0  0  0
   -1.0900    1.3170    0.0000 C   0  0  0  0  0  0  0  0  0  0  0  0
   -1.2740    2.8630    0.0000 C   0  0  0  0  0  0  0  0  0  0  0  0
    0.8470    3.5370    0.0000 O   0  0  0  0  0  0  0  0  0  0  0  0
    2.3130    3.2190    0.0000 C   0  0  2  0  0  0  0  0  0  0  0  0
    3.6860    3.8230    0.0000 C   0  0  0  0  0  0  0  0  0  0  0  0
    4.6850    2.7040    0.0000 C   0  0  1  0  0  0  0  0  0  0  0  0
    6.1850    2.6980    0.0000 C   0  0  2  0  0  0  0  0  0  0  0  0
    6.9400    3.9940    0.0000 C   0  0  0  0  0  0  0  0  0  0  0  0
    9.1740    0.0870    0.0000 C   0  0  0  0  0  0  0  0  0  0  0  0
   10.6740    0.0810    0.0000 C   0  0  0  0  0  0  0  0  0  0  0  0
   11.4290    1.3770    0.0000 C   0  0  0  0  0  0  0  0  0  0  0  0
   12.9290    1.3710    0.0000 O   0  0  0  0  0  0  0  0  0  0  0  0
   10.6850    2.6790    0.0000 C   0  0  0  0  0  0  0  0  0  0  0  0
  2  1  1  6  0  0  0
  2  3  1  0  0  0  0
  2 27  1  0  0  0  0
  3  4  1  0  0  0  0
  3 32  2  0  0  0  0
  4  5  1  1  0  0  0
  4  6  1  0  0  0  0
  4 28  1  0  0  0  0
  6  7  1  6  0  0  0
  6  8  1  0  0  0  0
  6 26  1  0  0  0  0
  8  9  1  1  0  0  0
  8 10  1  0  0  0  0
 10 11  1  0  0  0  0
 11 12  1  1  0  0  0
 11 13  1  0  0  0  0
 11 25  1  0  0  0  0
 13 14  1  1  0  0  0
 13 18  1  0  0  0  0
 13 23  1  0  0  0  0
 14 15  2  0  0  0  0
 14 16  1  0  0  0  0
 16 17  1  0  0  0  0
 18 19  1  0  0  0  0
 19 20  1  0  0  0  0
 19 21  1  0  0  0  0
 19 22  1  0  0  0  0
 23 22  1  6  0  0  0
 23 24  1  0  0  0  0
 25 24  1  1  0  0  0
 25 26  1  0  0  0  0
 26 27  1  6  0  0  0
 28 29  2  0  0  0  0
 29 30  1  0  0  0  0
 30 31  2  0  0  0  0
 30 32  1  0  0  0  0
M  END
>  <name>
F[C@@H]1C=2[C@@](C)([C@@]3(F)[C@@H](O)C[C@]4(C)[C@]5(C(=O)C[O;ester])OC(C)(C)O[C@@H]5C[C@H]4[C@@H]3C1)C=CC(=O)C=2

>  <apo>
1

>  <freq>
1

>  <freq0>
0

>  <freq1>
1

>  <freqA>
0.99887151

>  <a_count>
62

$$$$

  MOE2015           2D

 30 32  0  0  0  0  0  0  0  0999 V2000
   -8.8940    1.2880    0.0000 S   0  0  0  0  0  0  0  0  0  0  0  0
   -9.6370   -0.0150    0.0000 C   0  0  0  0  0  0  0  0  0  0  0  0
   -7.3940    1.2950    0.0000 C   0  0  0  0  0  0  0  0  0  0  0  0
   -6.6370    0.0000    0.0000 C   0  0  0  0  0  0  0  0  0  0  0  0
   -7.3800   -1.3030    0.0000 O   0  0  0  0  0  0  0  0  0  0  0  0
   -5.1370    0.0080    0.0000 C   0  0  0  0  0  0  0  0  0  0  0  0
   -4.3940    1.3110    0.0000 C   0  0  0  0  0  0  0  0  0  0  0  0
   -2.9090    1.0950    0.0000 S   0  0  0  0  0  0  0  0  0  0  0  0
   -1.7950    0.0910    0.0000 O   0  0  0  0  0  0  0  0  0  0  0  0
   -3.1390   -0.3880    0.0000 O   0  0  0  0  0  0  0  0  0  0  0  0
   -1.8160    2.1220    0.0000 N   0  0  0  0  0  0  0  0  0  0  0  0
   -1.9360    3.6170    0.0000 C   0  0  0  0  0  0  0  0  0  0  0  0
   -0.4370    3.6390    0.0000 C   0  0  0  0  0  0  0  0  0  0  0  0
    0.3330    2.3510    0.0000 C   0  0  0  0  0  0  0  0  0  0  0  0
    1.8330    2.3740    0.0000 C   0  0  0  0  0  0  0  0  0  0  0  0
    2.6020    1.0860    0.0000 C   0  0  0  0  0  0  0  0  0  0  0  0
   -1.1490    4.8940    0.0000 C   0  0  0  0  0  0  0  0  0  0  0  0
   -1.8620    6.2140    0.0000 C   0  0  0  0  0  0  0  0  0  0  0  0
   -1.0750    7.4910    0.0000 C   0  0  0  0  0  0  0  0  0  0  0  0
   -1.7870    8.8110    0.0000 C   0  0  0  0  0  0  0  0  0  0  0  0
   -3.1800    4.4570    0.0000 C   0  0  0  0  0  0  0  0  0  0  0  0
   -4.6110    4.0060    0.0000 N   0  0  0  0  0  0  0  0  0  0  0  0
   -5.6370    5.0990    0.0000 C   0  0  0  0  0  0  0  0  0  0  0  0
   -5.2040    6.5350    0.0000 C   0  0  0  0  0  0  0  0  0  0  0  0
   -6.2310    7.6290    0.0000 C   0  0  0  0  0  0  0  0  0  0  0  0
   -7.6910    7.2860    0.0000 C   0  0  0  0  0  0  0  0  0  0  0  0
   -8.1250    5.8500    0.0000 C   0  0  0  0  0  0  0  0  0  0  0  0
   -7.0980    4.7570    0.0000 C   0  0  0  0  0  0  0  0  0  0  0  0
   -5.1510    2.6060    0.0000 C   0  0  0  0  0  0  0  0  0  0  0  0
   -6.6510    2.5980    0.0000 C   0  0  0  0  0  0  0  0  0  0  0  0
  1  2  1  0  0  0  0
  1  3  1  0  0  0  0
  3  4  1  0  0  0  0
  3 30  2  0  0  0  0
  4  5  1  0  0  0  0
  4  6  2  0  0  0  0
  6  7  1  0  0  0  0
  7  8  1  0  0  0  0
  7 29  2  0  0  0  0
  8  9  2  0  0  0  0
  8 10  2  0  0  0  0
  8 11  1  0  0  0  0
 11 12  1  0  0  0  0
 12 13  1  0  0  0  0
 12 17  1  0  0  0  0
 12 21  1  0  0  0  0
 13 14  1  0  0  0  0
 14 15  1  0  0  0  0
 15 16  1  0  0  0  0
 17 18  1  0  0  0  0
 18 19  1  0  0  0  0
 19 20  1  0  0  0  0
 21 22  1  0  0  0  0
 22 23  1  0  0  0  0
 22 29  1  0  0  0  0
 23 24  1  0  0  0  0
 23 28  2  0  0  0  0
 24 25  2  0  0  0  0
 25 26  1  0  0  0  0
 26 27  2  0  0  0  0
 27 28  1  0  0  0  0
 29 30  1  0  0  0  0
M  END
>  <name>
S(C)c1c([O;ether])cc2S(=O)(=O)NC(CCCC)(CCCC)CN(c3ccccc3)c2c1

>  <apo>
1

>  <freq>
1

>  <freq0>
0

>  <freq1>
1

>  <freqA>
0.99887151

>  <a_count>
62

$$$$

  MOE2015           2D

 38 41  0  0  0  0  0  0  0  0999 V2000
    9.3210   -7.8210    0.0000 F   0  0  0  0  0  0  0  0  0  0  0  0
    9.0600   -6.3440    0.0000 C   0  0  0  0  0  0  0  0  0  0  0  0
    7.5830   -6.6040    0.0000 F   0  0  0  0  0  0  0  0  0  0  0  0
   10.5370   -6.0830    0.0000 F   0  0  0  0  0  0  0  0  0  0  0  0
    8.8000   -4.8660    0.0000 C   0  0  0  0  0  0  0  0  0  0  0  0
    7.3900   -4.3530    0.0000 C   0  0  0  0  0  0  0  0  0  0  0  0
    6.6400   -5.6520    0.0000 C   0  0  0  0  0  0  0  0  0  0  0  0
    5.1400   -5.6520    0.0000 N   0  0  0  0  0  0  0  0  0  0  0  0
    4.3900   -4.3530    0.0000 C   0  0  0  0  0  0  0  0  0  0  0  0
    4.9030   -2.9440    0.0000 O   0  0  0  0  0  0  0  0  0  0  0  0
    2.8900   -4.3530    0.0000 N   0  0  0  0  0  0  0  0  0  0  0  0
    2.1400   -3.0540    0.0000 C   0  0  0  0  0  0  0  0  0  0  0  0
    0.6400   -3.0540    0.0000 C   0  0  0  0  0  0  0  0  0  0  0  0
   -0.1100   -1.7550    0.0000 C   0  0  0  0  0  0  0  0  0  0  0  0
   -1.6100   -1.7550    0.0000 C   0  0  0  0  0  0  0  0  0  0  0  0
   -2.3600   -0.4560    0.0000 C   0  0  0  0  0  0  0  0  0  0  0  0
   -1.6100    0.8430    0.0000 C   0  0  0  0  0  0  0  0  0  0  0  0
   -0.1100    0.8430    0.0000 C   0  0  0  0  0  0  0  0  0  0  0  0
    0.6400   -0.4560    0.0000 C   0  0  0  0  0  0  0  0  0  0  0  0
    2.1400   -5.6520    0.0000 C   0  0  0  0  0  0  0  0  0  0  0  0
    0.6400   -5.6520    0.0000 O   0  0  0  0  0  0  0  0  0  0  0  0
    2.8900   -6.9520    0.0000 C   0  0  0  0  0  0  0  0  0  0  0  0
    2.1400   -8.2510    0.0000 C   0  0  0  0  0  0  0  0  0  0  0  0
    0.6400   -8.2510    0.0000 C   0  0  0  0  0  0  0  0  0  0  0  0
   -0.1100   -6.9520    0.0000 F   0  0  0  0  0  0  0  0  0  0  0  0
   -0.1100   -9.5500    0.0000 C   0  0  0  0  0  0  0  0  0  0  0  0
   -1.6100   -9.5500    0.0000 O   0  0  0  0  0  0  0  0  0  0  0  0
   -2.3600  -10.8490    0.0000 C   0  0  0  0  0  0  0  0  0  0  0  0
    0.6400  -10.8490    0.0000 C   0  0  0  0  0  0  0  0  0  0  0  0
    2.1400  -10.8490    0.0000 C   0  0  0  0  0  0  0  0  0  0  0  0
    2.8900   -9.5500    0.0000 C   0  0  0  0  0  0  0  0  0  0  0  0
    4.3900   -6.9520    0.0000 C   0  0  0  0  0  0  0  0  0  0  0  0
    5.1400   -8.2510    0.0000 C   0  0  0  0  0  0  0  0  0  0  0  0
    7.1300   -2.8760    0.0000 C   0  0  0  0  0  0  0  0  0  0  0  0
    5.8310   -2.1260    0.0000 F   0  0  0  0  0  0  0  0  0  0  0  0
    8.2790   -1.9120    0.0000 C   0  0  0  0  0  0  0  0  0  0  0  0
    9.6880   -2.4250    0.0000 C   0  0  0  0  0  0  0  0  0  0  0  0
    9.9490   -3.9020    0.0000 C   0  0  0  0  0  0  0  0  0  0  0  0
  1  2  1  0  0  0  0
  2  3  1  0  0  0  0
  2  4  1  0  0  0  0
  2  5  1  0  0  0  0
  5  6  1  0  0  0  0
  5 38  2  0  0  0  0
  6  7  1  0  0  0  0
  6 34  2  0  0  0  0
  7  8  1  0  0  0  0
  8  9  1  0  0  0  0
  8 32  1  0  0  0  0
  9 10  2  0  0  0  0
  9 11  1  0  0  0  0
 11 12  1  0  0  0  0
 11 20  1  0  0  0  0
 12 13  1  0  0  0  0
 13 14  1  0  0  0  0
 14 15  1  0  0  0  0
 14 19  2  0  0  0  0
 15 16  2  0  0  0  0
 16 17  1  0  0  0  0
 17 18  2  0  0  0  0
 18 19  1  0  0  0  0
 20 21  2  0  0  0  0
 20 22  1  0  0  0  0
 22 23  1  0  0  0  0
 22 32  2  0  0  0  0
 23 24  1  0  0  0  0
 23 31  2  0  0  0  0
 24 25  1  0  0  0  0
 24 26  2  0  0  0  0
 26 27  1  0  0  0  0
 26 29  1  0  0  0  0
 27 28  1  0  0  0  0
 29 30  2  0  0  0  0
 30 31  1  0  0  0  0
 32 33  1  0  0  0  0
 34 35  1  0  0  0  0
 34 36  1  0  0  0  0
 36 37  2  0  0  0  0
 37 38  1  0  0  0  0
M  END
>  <name>
FC(F)(F)c1c(CN2C(=O)N(C[C;amine]c3ccccc3)C(=O)C(c3c(F)c(OC)ccc3)=C2C)c(F)ccc1

>  <apo>
1

>  <freq>
1

>  <freq0>
0

>  <freq1>
1

>  <freqA>
0.99887151

>  <a_count>
61

$$$$

  MOE2015           2D

 25 25  0  0  1  0  0  0  0  0999 V2000
   -0.2620    0.2990    0.0000 O   0  0  0  0  0  0  0  0  0  0  0  0
   -0.0660    1.7860    0.0000 C   0  0  0  0  0  0  0  0  0  0  0  0
   -1.2560    2.6990    0.0000 C   0  0  1  0  0  0  0  0  0  0  0  0
   -2.6420    2.1250    0.0000 C   0  0  1  0  0  0  0  0  0  0  0  0
   -2.8380    0.6380    0.0000 O   0  0  0  0  0  0  0  0  0  0  0  0
   -3.8320    3.0380    0.0000 C   0  0  2  0  0  0  0  0  0  0  0  0
   -5.2180    2.4640    0.0000 C   0  0  2  0  0  0  0  0  0  0  0  0
   -6.4080    3.3770    0.0000 O   0  0  0  0  0  0  0  0  0  0  0  0
   -5.4140    0.9770    0.0000 C   0  0  0  0  0  0  0  0  0  0  0  0
   -3.6360    4.5250    0.0000 C   0  0  0  0  0  0  0  0  0  0  0  0
   -1.0600    4.1860    0.0000 C   0  0  0  0  0  0  0  0  0  0  0  0
    1.3200    2.3600    0.0000 C   0  0  2  0  0  0  0  0  0  0  0  0
    1.5150    0.8730    0.0000 C   0  0  0  0  0  0  0  0  0  0  0  0
    2.9010    0.2990    0.0000 C   0  0  2  0  0  0  0  0  0  0  0  0
    4.0910    1.2120    0.0000 C   0  0  0  0  0  0  0  0  0  0  0  0
    5.4770    0.6380    0.0000 C   0  0  2  0  0  0  0  0  0  0  0  0
    6.6670    1.5510    0.0000 C   0  0  0  0  0  0  0  0  0  0  0  0
    8.0530    0.9770    0.0000 C   0  0  2  0  0  0  0  0  0  0  0  0
    8.2490   -0.5100    0.0000 C   0  0  0  0  0  0  0  0  0  0  0  0
    9.6340   -1.0840    0.0000 O   0  0  0  0  0  0  0  0  0  0  0  0
    9.2430    1.8900    0.0000 C   0  0  0  0  0  0  0  0  0  0  0  0
    5.6730   -0.8490    0.0000 C   0  0  0  0  0  0  0  0  0  0  0  0
    3.0970   -1.1880    0.0000 C   0  0  0  0  0  0  0  0  0  0  0  0
    1.3200    3.8600    0.0000 O   0  0  0  0  0  0  0  0  0  0  0  0
    2.6190    3.1100    0.0000 C   0  0  0  0  0  0  0  0  0  0  0  0
  1  2  2  0  0  0  0
  2  3  1  0  0  0  0
 12  2  1  6  0  0  0
  3  4  1  0  0  0  0
  3 11  1  1  0  0  0
  4  5  1  1  0  0  0
  4  6  1  0  0  0  0
  6  7  1  0  0  0  0
  6 10  1  6  0  0  0
  7  8  1  1  0  0  0
  7  9  1  0  0  0  0
 12 13  1  1  0  0  0
 12 24  1  0  0  0  0
 12 25  1  0  0  0  0
 13 14  1  0  0  0  0
 14 15  1  0  0  0  0
 14 23  1  6  0  0  0
 15 16  1  0  0  0  0
 16 17  1  0  0  0  0
 16 22  1  6  0  0  0
 17 18  1  0  0  0  0
 18 19  1  0  0  0  0
 18 21  1  1  0  0  0
 19 20  2  0  0  0  0
 24 25  1  0  0  0  0
M  END
>  <name>
O=C([C@@H]([C@@H]([O;ester])[C@H]([C@H]([O;ester])C)C)C)[C@]1(C[C@H]([C;ether][C@H]([C;ether][C@H]([C;ester]=O)C)C)C)OC1

>  <apo>
5

>  <freq>
1

>  <freq0>
0

>  <freq1>
1

>  <freqA>
0.99887151

>  <a_count>
61

$$$$

  MOE2015           2D

 26 26  0  0  1  0  0  0  0  0999 V2000
   15.4040    0.1000    0.0000 O   0  0  0  0  0  0  0  0  0  0  0  0
   13.9040    0.1000    0.0000 C   0  0  0  0  0  0  0  0  0  0  0  0
   13.1540   -1.1990    0.0000 C   0  0  2  0  0  0  0  0  0  0  0  0
   13.9040   -2.4980    0.0000 C   0  0  0  0  0  0  0  0  0  0  0  0
   13.1540   -3.7970    0.0000 C   0  0  0  0  0  0  0  0  0  0  0  0
   15.4040   -2.4980    0.0000 C   0  0  0  0  0  0  0  0  0  0  0  0
   11.6540   -1.1990    0.0000 C   0  0  0  0  0  0  0  0  0  0  0  0
   10.9040    0.1000    0.0000 C   0  0  2  0  0  0  0  0  0  0  0  0
   11.6540    1.3990    0.0000 O   0  0  0  0  0  0  0  0  0  0  0  0
    9.4040    0.1000    0.0000 C   0  0  1  0  0  0  0  0  0  0  0  0
    8.6540   -1.1990    0.0000 N   0  0  0  0  0  0  0  0  0  0  0  0
    8.6540    1.3990    0.0000 C   0  0  0  0  0  0  0  0  0  0  0  0
    7.1540    1.3990    0.0000 C   0  0  1  0  0  0  0  0  0  0  0  0
    6.4040    2.6980    0.0000 C   0  0  0  0  0  0  0  0  0  0  0  0
    4.9040    2.6980    0.0000 C   0  0  0  0  0  0  0  0  0  0  0  0
    7.1540    3.9970    0.0000 C   0  0  0  0  0  0  0  0  0  0  0  0
    6.4040    0.1000    0.0000 C   0  0  0  0  0  0  0  0  0  0  0  0
    4.9040    0.1000    0.0000 C   0  0  0  0  0  0  0  0  0  0  0  0
    4.1540   -1.1990    0.0000 C   0  0  0  0  0  0  0  0  0  0  0  0
    2.6540   -1.1990    0.0000 C   0  0  0  0  0  0  0  0  0  0  0  0
    1.9040   -2.4980    0.0000 O   0  0  0  0  0  0  0  0  0  0  0  0
    1.9040    0.1000    0.0000 C   0  0  0  0  0  0  0  0  0  0  0  0
    0.4040    0.1000    0.0000 O   0  0  0  0  0  0  0  0  0  0  0  0
   -0.3460    1.3990    0.0000 C   0  0  0  0  0  0  0  0  0  0  0  0
    2.6540    1.3990    0.0000 C   0  0  0  0  0  0  0  0  0  0  0  0
    4.1540    1.3990    0.0000 C   0  0  0  0  0  0  0  0  0  0  0  0
  1  2  2  0  0  0  0
  3  2  1  6  0  0  0
  3  4  1  0  0  0  0
  3  7  1  0  0  0  0
  4  5  1  0  0  0  0
  4  6  1  0  0  0  0
  7  8  1  0  0  0  0
  8  9  1  1  0  0  0
  8 10  1  0  0  0  0
 10 11  1  1  0  0  0
 10 12  1  0  0  0  0
 12 13  1  0  0  0  0
 13 14  1  6  0  0  0
 13 17  1  0  0  0  0
 14 15  1  0  0  0  0
 14 16  1  0  0  0  0
 17 18  1  0  0  0  0
 18 19  1  0  0  0  0
 18 26  2  0  0  0  0
 19 20  2  0  0  0  0
 20 21  1  0  0  0  0
 20 22  1  0  0  0  0
 22 23  1  0  0  0  0
 22 25  2  0  0  0  0
 23 24  1  0  0  0  0
 25 26  1  0  0  0  0
M  END
>  <name>
O=[C;amide][C@H](C(C)C)C[C@H](O)[C@@H](N)C[C@@H](C(C)C)Cc1cc([O;ether])c(OC)cc1

>  <apo>
2

>  <freq>
1

>  <freq0>
0

>  <freq1>
1

>  <freqA>
0.99887151

>  <a_count>
61

$$$$

  MOE2015           2D

 28 33  0  0  1  0  0  0  0  0999 V2000
    5.3840   -5.3910    0.0000 O   0  0  0  0  0  0  0  0  0  0  0  0
    5.3860   -3.8910    0.0000 C   0  0  1  0  0  0  0  0  0  0  0  0
    6.8860   -3.8920    0.0000 C   0  0  0  0  0  0  0  0  0  0  0  0
    8.3860   -3.8940    0.0000 C   0  0  0  0  0  0  0  0  0  0  0  0
    6.8840   -5.3920    0.0000 C   0  0  0  0  0  0  0  0  0  0  0  0
    6.8880   -2.3920    0.0000 C   0  0  0  0  0  0  0  0  0  0  0  0
    5.3880   -2.3910    0.0000 C   0  0  0  0  0  0  0  0  0  0  0  0
    3.8860   -3.8890    0.0000 C   0  0  1  0  0  0  0  0  0  0  0  0
    3.1390   -5.1740    0.0000 C   0  0  2  0  0  0  0  0  0  0  0  0
    1.6650   -5.1750    0.0000 C   0  0  1  0  0  0  0  0  0  0  0  0
    0.2500   -5.9730    0.0000 O   0  0  0  0  0  0  0  0  0  0  0  0
   -1.2510   -5.2090    0.0000 C   0  0  0  0  0  0  0  0  0  0  0  0
   -2.7330   -5.1770    0.0000 C   0  0  0  0  0  0  0  0  0  0  0  0
   -3.4950   -6.4680    0.0000 O   0  0  0  0  0  0  0  0  0  0  0  0
   -3.4730   -3.9000    0.0000 C   0  0  0  0  0  0  0  0  0  0  0  0
   -2.7330   -2.6410    0.0000 C   0  0  0  0  0  0  0  0  0  0  0  0
   -1.2750   -2.6330    0.0000 C   0  0  0  0  0  0  0  0  0  0  0  0
   -0.5340   -3.8990    0.0000 C   0  0  0  0  0  0  0  0  0  0  0  0
    0.9220   -3.8910    0.0000 C   0  0  2  0  0  0  0  0  0  0  0  0
    1.6620   -2.6140    0.0000 C   0  0  1  0  0  0  0  0  0  0  0  0
    0.9210   -1.3470    0.0000 C   0  0  2  0  0  0  0  0  0  0  0  0
    1.2810    0.0780    0.0000 N   0  0  0  0  0  0  0  0  0  0  0  0
    0.1550   -0.6560    0.0000 C   0  0  0  0  0  0  0  0  0  0  0  0
    0.1730   -2.1200    0.0000 C   0  0  0  0  0  0  0  0  0  0  0  0
   -0.5610   -1.3480    0.0000 C   0  0  0  0  0  0  0  0  0  0  0  0
    3.1440   -2.6050    0.0000 C   0  0  0  0  0  0  0  0  0  0  0  0
    2.8900   -3.3950    0.0000 C   0  0  0  0  0  0  0  0  0  0  0  0
    1.8620   -4.4410    0.0000 C   0  0  0  0  0  0  0  0  0  0  0  0
  2  1  1  6  0  0  0
  2  3  1  1  0  0  0
  2  7  1  0  0  0  0
  2  8  1  0  0  0  0
  3  4  1  0  0  0  0
  3  5  1  0  0  0  0
  3  6  1  0  0  0  0
  8  9  1  0  0  0  0
  8 26  1  1  0  0  0
  9 10  1  0  0  0  0
  9 28  1  6  0  0  0
 10 11  1  1  0  0  0
 10 19  1  0  0  0  0
 11 12  1  0  0  0  0
 12 13  1  0  0  0  0
 12 18  2  0  0  0  0
 13 14  1  0  0  0  0
 13 15  2  0  0  0  0
 15 16  1  0  0  0  0
 16 17  2  0  0  0  0
 17 18  1  0  0  0  0
 17 25  1  0  0  0  0
 18 19  1  0  0  0  0
 19 20  1  0  0  0  0
 19 24  1  1  0  0  0
 20 21  1  0  0  0  0
 20 26  1  1  0  0  0
 20 27  1  6  0  0  0
 21 22  1  1  0  0  0
 21 25  1  0  0  0  0
 22 23  1  0  0  0  0
 23 24  1  0  0  0  0
 27 28  1  0  0  0  0
M  END
>  <name>
O[C@@](C(C)(C)C)(C)[C@H]1[C@@H;ether]2[C@H]3Oc4c(O)ccc5c4[C@@]43[C@@]([C@H]([N;amine]CC4)C5)(C1)CC2

>  <apo>
2

>  <freq>
1

>  <freq0>
0

>  <freq1>
1

>  <freqA>
0.99887151

>  <a_count>
61

$$$$

  MOE2015           2D

 23 22  0  0  0  0  0  0  0  0999 V2000
   -4.3490    7.5330    0.0000 P   0  0  0  0  0  0  0  0  0  0  0  0
   -3.5990    8.8320    0.0000 O   0  0  0  0  0  0  0  0  0  0  0  0
   -3.0500    6.7830    0.0000 O   0  0  0  0  0  0  0  0  0  0  0  0
   -1.7510    7.5330    0.0000 C   0  0  0  0  0  0  0  0  0  0  0  0
   -0.4520    6.7830    0.0000 C   0  0  0  0  0  0  0  0  0  0  0  0
    0.8470    7.5330    0.0000 C   0  0  0  0  0  0  0  0  0  0  0  0
    2.1460    6.7830    0.0000 C   0  0  0  0  0  0  0  0  0  0  0  0
    3.4450    7.5330    0.0000 C   0  0  0  0  0  0  0  0  0  0  0  0
    4.7440    6.7830    0.0000 C   0  0  0  0  0  0  0  0  0  0  0  0
    6.0430    7.5330    0.0000 C   0  0  0  0  0  0  0  0  0  0  0  0
    7.3420    6.7830    0.0000 C   0  0  0  0  0  0  0  0  0  0  0  0
    8.6410    7.5330    0.0000 C   0  0  0  0  0  0  0  0  0  0  0  0
    9.9400    6.7830    0.0000 C   0  0  0  0  0  0  0  0  0  0  0  0
   11.2400    7.5330    0.0000 C   0  0  0  0  0  0  0  0  0  0  0  0
   12.5390    6.7830    0.0000 C   0  0  0  0  0  0  0  0  0  0  0  0
   13.8380    7.5330    0.0000 C   0  0  0  0  0  0  0  0  0  0  0  0
   15.1370    6.7830    0.0000 C   0  0  0  0  0  0  0  0  0  0  0  0
   16.4360    7.5330    0.0000 C   0  0  0  0  0  0  0  0  0  0  0  0
   17.7350    6.7830    0.0000 C   0  0  0  0  0  0  0  0  0  0  0  0
   -5.6480    8.2830    0.0000 O   0  0  0  0  0  0  0  0  0  0  0  0
   -6.9470    7.5330    0.0000 C   0  0  0  0  0  0  0  0  0  0  0  0
   -8.2460    8.2830    0.0000 C   0  0  0  0  0  0  0  0  0  0  0  0
   -5.0990    6.2340    0.0000 O   0  5  0  0  0  0  0  0  0  0  0  0
  1  2  2  0  0  0  0
  1  3  1  0  0  0  0
  1 20  1  0  0  0  0
  1 23  1  0  0  0  0
  3  4  1  0  0  0  0
  4  5  1  0  0  0  0
  5  6  1  0  0  0  0
  6  7  1  0  0  0  0
  7  8  1  0  0  0  0
  8  9  1  0  0  0  0
  9 10  1  0  0  0  0
 10 11  1  0  0  0  0
 11 12  1  0  0  0  0
 12 13  1  0  0  0  0
 13 14  1  0  0  0  0
 14 15  1  0  0  0  0
 15 16  1  0  0  0  0
 16 17  1  0  0  0  0
 17 18  1  0  0  0  0
 18 19  1  0  0  0  0
 20 21  1  0  0  0  0
 21 22  1  0  0  0  0
M  CHG  1  23  -1
M  END
>  <name>
P(=O)(OCCCCCCCCCCCCCCCC)(OC[C;quatN])[O-]

>  <apo>
1

>  <freq>
1

>  <freq0>
0

>  <freq1>
1

>  <freqA>
0.99887151

>  <a_count>
61

$$$$

  MOE2015           2D

 34 38  0  0  1  0  0  0  0  0999 V2000
   12.4590   -7.1930    0.0000 Br  0  0  0  0  0  0  0  0  0  0  0  0
   11.7090   -5.8940    0.0000 C   0  0  0  0  0  0  0  0  0  0  0  0
   10.2090   -5.8940    0.0000 C   0  0  0  0  0  0  0  0  0  0  0  0
    9.4590   -4.5950    0.0000 C   0  0  0  0  0  0  0  0  0  0  0  0
   10.2090   -3.2960    0.0000 C   0  0  0  0  0  0  0  0  0  0  0  0
    9.4590   -1.9970    0.0000 N   0  0  0  0  0  0  0  0  0  0  0  0
    7.9590   -1.9970    0.0000 C   0  0  0  0  0  0  0  0  0  0  0  0
    7.2090   -0.6980    0.0000 O   0  0  0  0  0  0  0  0  0  0  0  0
    7.9590    0.6010    0.0000 C   0  0  0  0  0  0  0  0  0  0  0  0
    7.2090   -3.2960    0.0000 C   0  0  0  0  0  0  0  0  0  0  0  0
    5.7090   -3.2960    0.0000 C   0  0  2  0  0  0  0  0  0  0  0  0
    4.9590   -4.5950    0.0000 C   0  0  1  0  0  0  0  0  0  0  0  0
    3.6600   -3.8450    0.0000 O   0  0  0  0  0  0  0  0  0  0  0  0
    6.2580   -5.3450    0.0000 C   0  0  0  0  0  0  0  0  0  0  0  0
    6.2580   -6.8450    0.0000 C   0  0  0  0  0  0  0  0  0  0  0  0
    4.2090   -5.8940    0.0000 C   0  0  0  0  0  0  0  0  0  0  0  0
    2.7090   -5.8940    0.0000 C   0  0  0  0  0  0  0  0  0  0  0  0
    1.9590   -7.1930    0.0000 C   0  0  0  0  0  0  0  0  0  0  0  0
    2.7090   -8.4920    0.0000 C   0  0  0  0  0  0  0  0  0  0  0  0
    4.2090   -8.4920    0.0000 C   0  0  0  0  0  0  0  0  0  0  0  0
    4.9590   -7.1930    0.0000 C   0  0  0  0  0  0  0  0  0  0  0  0
    0.4590   -7.1930    0.0000 C   0  0  0  0  0  0  0  0  0  0  0  0
   -0.2910   -5.8940    0.0000 C   0  0  0  0  0  0  0  0  0  0  0  0
    0.4590   -4.5950    0.0000 C   0  0  0  0  0  0  0  0  0  0  0  0
    1.9590   -4.5950    0.0000 C   0  0  0  0  0  0  0  0  0  0  0  0
    4.9590   -1.9970    0.0000 C   0  0  0  0  0  0  0  0  0  0  0  0
    3.4590   -1.9970    0.0000 C   0  0  0  0  0  0  0  0  0  0  0  0
    2.7090   -0.6980    0.0000 C   0  0  0  0  0  0  0  0  0  0  0  0
    3.4590    0.6010    0.0000 C   0  0  0  0  0  0  0  0  0  0  0  0
    4.9590    0.6010    0.0000 C   0  0  0  0  0  0  0  0  0  0  0  0
    5.7090   -0.6980    0.0000 C   0  0  0  0  0  0  0  0  0  0  0  0
    7.9590   -4.5950    0.0000 C   0  0  0  0  0  0  0  0  0  0  0  0
   11.7090   -3.2960    0.0000 C   0  0  0  0  0  0  0  0  0  0  0  0
   12.4590   -4.5950    0.0000 C   0  0  0  0  0  0  0  0  0  0  0  0
  1  2  1  0  0  0  0
  2  3  1  0  0  0  0
  2 34  2  0  0  0  0
  3  4  2  0  0  0  0
  4  5  1  0  0  0  0
  4 32  1  0  0  0  0
  5  6  1  0  0  0  0
  5 33  2  0  0  0  0
  6  7  2  0  0  0  0
  7  8  1  0  0  0  0
  7 10  1  0  0  0  0
  8  9  1  0  0  0  0
 11 10  1  6  0  0  0
 10 32  2  0  0  0  0
 11 12  1  0  0  0  0
 11 26  1  0  0  0  0
 12 13  1  6  0  0  0
 12 14  1  0  0  0  0
 12 16  1  1  0  0  0
 14 15  1  0  0  0  0
 16 17  1  0  0  0  0
 16 21  2  0  0  0  0
 17 18  1  0  0  0  0
 17 25  2  0  0  0  0
 18 19  1  0  0  0  0
 18 22  2  0  0  0  0
 19 20  2  0  0  0  0
 20 21  1  0  0  0  0
 22 23  1  0  0  0  0
 23 24  2  0  0  0  0
 24 25  1  0  0  0  0
 26 27  1  0  0  0  0
 26 31  2  0  0  0  0
 27 28  2  0  0  0  0
 28 29  1  0  0  0  0
 29 30  2  0  0  0  0
 30 31  1  0  0  0  0
 33 34  1  0  0  0  0
M  END
>  <name>
Brc1cc2c(nc(OC)c([C@H]([C@@](O)(C[C;amine])c3c4c(ccc3)cccc4)c3ccccc3)c2)cc1

>  <apo>
1

>  <freq>
1

>  <freq0>
0

>  <freq1>
1

>  <freqA>
0.99887151

>  <a_count>
60

$$$$

  MOE2015           2D

 30 32  0  0  0  0  0  0  0  0999 V2000
   -3.5370    3.9740    0.0000 F   0  0  0  0  0  0  0  0  0  0  0  0
   -2.7870    2.6750    0.0000 C   0  0  0  0  0  0  0  0  0  0  0  0
   -4.0860    1.9250    0.0000 F   0  0  0  0  0  0  0  0  0  0  0  0
   -2.0370    1.3760    0.0000 F   0  0  0  0  0  0  0  0  0  0  0  0
   -1.4880    3.4250    0.0000 C   0  0  0  0  0  0  0  0  0  0  0  0
   -1.4880    4.9250    0.0000 C   0  0  0  0  0  0  0  0  0  0  0  0
   -2.7870    5.6750    0.0000 C   0  0  0  0  0  0  0  0  0  0  0  0
   -4.0860    4.9250    0.0000 C   0  0  0  0  0  0  0  0  0  0  0  0
   -5.3850    5.6750    0.0000 C   0  0  0  0  0  0  0  0  0  0  0  0
   -5.3850    7.1750    0.0000 C   0  0  0  0  0  0  0  0  0  0  0  0
   -4.0860    7.9250    0.0000 C   0  0  0  0  0  0  0  0  0  0  0  0
   -2.7870    7.1750    0.0000 C   0  0  0  0  0  0  0  0  0  0  0  0
   -0.1890    5.6750    0.0000 C   0  0  0  0  0  0  0  0  0  0  0  0
    1.1100    4.9250    0.0000 C   0  0  0  0  0  0  0  0  0  0  0  0
    1.1100    3.4250    0.0000 C   0  0  0  0  0  0  0  0  0  0  0  0
    2.4090    2.6750    0.0000 C   0  0  0  0  0  0  0  0  0  0  0  0
    3.7080    3.4250    0.0000 O   0  0  0  0  0  0  0  0  0  0  0  0
    5.0070    2.6750    0.0000 N   0  0  0  0  0  0  0  0  0  0  0  0
    6.3060    3.4250    0.0000 C   0  0  0  0  0  0  0  0  0  0  0  0
    7.6050    2.6750    0.0000 C   0  0  0  0  0  0  0  0  0  0  0  0
    6.3060    4.9250    0.0000 C   0  0  0  0  0  0  0  0  0  0  0  0
    7.6050    5.6750    0.0000 C   0  0  0  0  0  0  0  0  0  0  0  0
    7.6050    7.1750    0.0000 C   0  0  0  0  0  0  0  0  0  0  0  0
    8.9050    7.9250    0.0000 C   0  0  0  0  0  0  0  0  0  0  0  0
   10.2040    7.1750    0.0000 C   0  0  0  0  0  0  0  0  0  0  0  0
    6.3060    7.9250    0.0000 C   0  0  0  0  0  0  0  0  0  0  0  0
    6.3060    9.4250    0.0000 C   0  0  0  0  0  0  0  0  0  0  0  0
    5.0070    7.1750    0.0000 C   0  0  0  0  0  0  0  0  0  0  0  0
    5.0070    5.6750    0.0000 C   0  0  0  0  0  0  0  0  0  0  0  0
   -0.1890    2.6750    0.0000 C   0  0  0  0  0  0  0  0  0  0  0  0
  1  2  1  0  0  0  0
  2  3  1  0  0  0  0
  2  4  1  0  0  0  0
  2  5  1  0  0  0  0
  5  6  1  0  0  0  0
  5 30  2  0  0  0  0
  6  7  1  0  0  0  0
  6 13  2  0  0  0  0
  7  8  1  0  0  0  0
  7 12  1  0  0  0  0
  8  9  1  0  0  0  0
  9 10  1  0  0  0  0
 10 11  1  0  0  0  0
 11 12  1  0  0  0  0
 13 14  1  0  0  0  0
 14 15  2  0  0  0  0
 15 16  1  0  0  0  0
 15 30  1  0  0  0  0
 16 17  1  0  0  0  0
 17 18  1  0  0  0  0
 18 19  2  0  0  0  0
 19 20  1  0  0  0  0
 19 21  1  0  0  0  0
 21 22  1  0  0  0  0
 21 29  2  0  0  0  0
 22 23  2  0  0  0  0
 23 24  1  0  0  0  0
 23 26  1  0  0  0  0
 24 25  1  0  0  0  0
 26 27  1  0  0  0  0
 26 28  2  0  0  0  0
 28 29  1  0  0  0  0
M  END
>  <name>
FC(F)(F)c1c(C2CCCCC2)ccc(CO/N=C(/C)\c2cc(CC)c([C;amine])cc2)c1

>  <apo>
1

>  <freq>
1

>  <freq0>
0

>  <freq1>
1

>  <freqA>
0.99887151

>  <a_count>
60

$$$$

  MOE2015           2D

 28 30  0  0  1  0  0  0  0  0999 V2000
    3.3820   -0.1840    0.0000 O   0  0  0  0  0  0  0  0  0  0  0  0
    3.3820    1.3160    0.0000 C   0  0  0  0  0  0  0  0  0  0  0  0
    4.6810    2.0660    0.0000 O   0  0  0  0  0  0  0  0  0  0  0  0
    5.9800    1.3160    0.0000 C   0  0  2  0  0  0  0  0  0  0  0  0
    7.3510    1.9260    0.0000 C   0  0  1  0  0  0  0  0  0  0  0  0
    8.3540    0.8120    0.0000 C   0  0  1  0  0  0  0  0  0  0  0  0
    7.6040   -0.4870    0.0000 O   0  0  0  0  0  0  0  0  0  0  0  0
    6.1370   -0.1750    0.0000 C   0  0  0  0  0  0  0  0  0  0  0  0
    9.7250    1.4220    0.0000 O   0  0  0  0  0  0  0  0  0  0  0  0
    9.5680    2.9140    0.0000 C   0  0  0  0  0  0  0  0  0  0  0  0
    8.1010    3.2250    0.0000 C   0  0  0  0  0  0  0  0  0  0  0  0
    2.0830    2.0660    0.0000 N   0  0  0  0  0  0  0  0  0  0  0  0
    0.7840    1.3160    0.0000 C   0  0  2  0  0  0  0  0  0  0  0  0
   -0.5150    2.0660    0.0000 C   0  0  2  0  0  0  0  0  0  0  0  0
   -1.8140    1.3160    0.0000 O   0  0  0  0  0  0  0  0  0  0  0  0
   -0.5150    3.5660    0.0000 C   0  0  0  0  0  0  0  0  0  0  0  0
   -1.8140    4.3160    0.0000 N   0  0  0  0  0  0  0  0  0  0  0  0
   -1.8140    5.8160    0.0000 C   0  0  0  0  0  0  0  0  0  0  0  0
   -3.1130    6.5660    0.0000 C   0  0  0  0  0  0  0  0  0  0  0  0
   -4.4120    5.8160    0.0000 C   0  0  0  0  0  0  0  0  0  0  0  0
   -3.1130    8.0660    0.0000 C   0  0  0  0  0  0  0  0  0  0  0  0
    0.7840   -0.1840    0.0000 C   0  0  0  0  0  0  0  0  0  0  0  0
   -0.5150   -0.9340    0.0000 C   0  0  0  0  0  0  0  0  0  0  0  0
   -1.8140   -0.1840    0.0000 C   0  0  0  0  0  0  0  0  0  0  0  0
   -3.1130   -0.9340    0.0000 C   0  0  0  0  0  0  0  0  0  0  0  0
   -3.1130   -2.4340    0.0000 C   0  0  0  0  0  0  0  0  0  0  0  0
   -1.8140   -3.1840    0.0000 C   0  0  0  0  0  0  0  0  0  0  0  0
   -0.5150   -2.4340    0.0000 C   0  0  0  0  0  0  0  0  0  0  0  0
  1  2  2  0  0  0  0
  2  3  1  0  0  0  0
  2 12  1  0  0  0  0
  4  3  1  6  0  0  0
  4  5  1  0  0  0  0
  4  8  1  0  0  0  0
  5  6  1  0  0  0  0
  5 11  1  6  0  0  0
  6  7  1  6  0  0  0
  6  9  1  0  0  0  0
  7  8  1  0  0  0  0
  9 10  1  0  0  0  0
 10 11  1  0  0  0  0
 13 12  1  1  0  0  0
 13 14  1  0  0  0  0
 13 22  1  0  0  0  0
 14 15  1  6  0  0  0
 14 16  1  0  0  0  0
 16 17  1  0  0  0  0
 17 18  1  0  0  0  0
 18 19  1  0  0  0  0
 19 20  1  0  0  0  0
 19 21  1  0  0  0  0
 22 23  1  0  0  0  0
 23 24  1  0  0  0  0
 23 28  2  0  0  0  0
 24 25  2  0  0  0  0
 25 26  1  0  0  0  0
 26 27  2  0  0  0  0
 27 28  1  0  0  0  0
M  END
>  <name>
O=C(O[C@@H]1[C@H]2[C@@H](OC1)OCC2)N[C@H]([C@H](O)C[N;so2amide]CC(C)C)Cc1ccccc1

>  <apo>
1

>  <freq>
1

>  <freq0>
0

>  <freq1>
1

>  <freqA>
0.99887151

>  <a_count>
60

$$$$

  MOE2015           2D

 29 31  0  0  1  0  0  0  0  0999 V2000
    0.4740    1.7700    0.0000 O   0  0  0  0  0  0  0  0  0  0  0  0
    1.7730    1.0200    0.0000 C   0  0  0  0  0  0  0  0  0  0  0  0
    1.7730   -0.4800    0.0000 C   0  0  0  0  0  0  0  0  0  0  0  0
    0.4740   -1.2300    0.0000 C   0  0  2  0  0  0  0  0  0  0  0  0
    0.4740   -2.7300    0.0000 C   0  0  0  0  0  0  0  0  0  0  0  0
   -0.8250   -3.4800    0.0000 C   0  0  0  0  0  0  0  0  0  0  0  0
   -0.8250   -0.4800    0.0000 C   0  0  0  0  0  0  0  0  0  0  0  0
   -2.1240   -1.2300    0.0000 C   0  0  0  0  0  0  0  0  0  0  0  0
   -3.4230   -0.4800    0.0000 C   0  0  0  0  0  0  0  0  0  0  0  0
   -4.7220   -1.2300    0.0000 N   0  0  0  0  0  0  0  0  0  0  0  0
   -3.4230    1.0200    0.0000 C   0  0  0  0  0  0  0  0  0  0  0  0
   -2.1240    1.7700    0.0000 C   0  0  0  0  0  0  0  0  0  0  0  0
   -0.8250    1.0200    0.0000 C   0  0  0  0  0  0  0  0  0  0  0  0
    3.0720   -1.2300    0.0000 C   0  0  0  0  0  0  0  0  0  0  0  0
    3.0720   -2.7300    0.0000 O   0  0  0  0  0  0  0  0  0  0  0  0
    4.3710   -0.4800    0.0000 C   0  0  0  0  0  0  0  0  0  0  0  0
    4.3710    1.0200    0.0000 C   0  0  1  0  0  0  0  0  0  0  0  0
    5.1210    2.3190    0.0000 C   0  0  0  0  0  0  0  0  0  0  0  0
    4.3710    3.6180    0.0000 C   0  0  0  0  0  0  0  0  0  0  0  0
    5.1210    4.9170    0.0000 C   0  0  0  0  0  0  0  0  0  0  0  0
    5.8710    1.0200    0.0000 C   0  0  0  0  0  0  0  0  0  0  0  0
    6.6210   -0.2790    0.0000 C   0  0  0  0  0  0  0  0  0  0  0  0
    8.1210   -0.2790    0.0000 C   0  0  0  0  0  0  0  0  0  0  0  0
    8.8710   -1.5780    0.0000 C   0  0  0  0  0  0  0  0  0  0  0  0
   10.3710   -1.5780    0.0000 C   0  0  0  0  0  0  0  0  0  0  0  0
   11.1210   -0.2790    0.0000 C   0  0  0  0  0  0  0  0  0  0  0  0
   10.3710    1.0200    0.0000 C   0  0  0  0  0  0  0  0  0  0  0  0
    8.8710    1.0200    0.0000 C   0  0  0  0  0  0  0  0  0  0  0  0
    3.0720    1.7700    0.0000 O   0  0  0  0  0  0  0  0  0  0  0  0
  1  2  2  0  0  0  0
  2  3  1  0  0  0  0
  2 29  1  0  0  0  0
  4  3  1  6  0  0  0
  3 14  2  0  0  0  0
  4  5  1  0  0  0  0
  4  7  1  0  0  0  0
  5  6  1  0  0  0  0
  7  8  2  0  0  0  0
  7 13  1  0  0  0  0
  8  9  1  0  0  0  0
  9 10  1  0  0  0  0
  9 11  2  0  0  0  0
 11 12  1  0  0  0  0
 12 13  2  0  0  0  0
 14 15  1  0  0  0  0
 14 16  1  0  0  0  0
 16 17  1  0  0  0  0
 17 18  1  1  0  0  0
 17 21  1  6  0  0  0
 17 29  1  0  0  0  0
 18 19  1  0  0  0  0
 19 20  1  0  0  0  0
 21 22  1  0  0  0  0
 22 23  1  0  0  0  0
 23 24  1  0  0  0  0
 23 28  2  0  0  0  0
 24 25  2  0  0  0  0
 25 26  1  0  0  0  0
 26 27  2  0  0  0  0
 27 28  1  0  0  0  0
M  END
>  <name>
O=C1C([C@H](CC)c2cc([N;so2amide])ccc2)=C(O)C[C@@](CCC)(CCc2ccccc2)O1

>  <apo>
1

>  <freq>
1

>  <freq0>
0

>  <freq1>
1

>  <freqA>
0.99887151

>  <a_count>
60

$$$$

  MOE2015           2D

 31 34  0  0  1  0  0  0  0  0999 V2000
   -3.3860   -2.5080    0.0000 O   0  0  0  0  0  0  0  0  0  0  0  0
   -3.8240   -3.9430    0.0000 C   0  0  0  0  0  0  0  0  0  0  0  0
   -5.2410   -4.4330    0.0000 N   0  0  0  0  0  0  0  0  0  0  0  0
   -6.4710   -3.5730    0.0000 C   0  0  2  0  0  0  0  0  0  0  0  0
   -7.8300   -4.2090    0.0000 C   0  0  1  0  0  0  0  0  0  0  0  0
   -9.0590   -3.3490    0.0000 O   0  0  0  0  0  0  0  0  0  0  0  0
   -7.9590   -5.7030    0.0000 C   0  0  0  0  0  0  0  0  0  0  0  0
   -6.3420   -2.0790    0.0000 C   0  0  0  0  0  0  0  0  0  0  0  0
   -7.5710   -1.2200    0.0000 C   0  0  0  0  0  0  0  0  0  0  0  0
   -5.2140   -5.9320    0.0000 N   0  0  0  0  0  0  0  0  0  0  0  0
   -3.7790   -6.3700    0.0000 C   0  0  0  0  0  0  0  0  0  0  0  0
   -2.9200   -5.1400    0.0000 N   0  0  0  0  0  0  0  0  0  0  0  0
   -1.4200   -5.1130    0.0000 C   0  0  0  0  0  0  0  0  0  0  0  0
   -0.6460   -6.3980    0.0000 C   0  0  0  0  0  0  0  0  0  0  0  0
    0.8540   -6.3700    0.0000 C   0  0  0  0  0  0  0  0  0  0  0  0
    1.5800   -5.0570    0.0000 C   0  0  0  0  0  0  0  0  0  0  0  0
    3.0790   -5.0300    0.0000 N   0  0  0  0  0  0  0  0  0  0  0  0
    3.8530   -6.3150    0.0000 C   0  0  0  0  0  0  0  0  0  0  0  0
    5.3530   -6.2870    0.0000 C   0  0  0  0  0  0  0  0  0  0  0  0
    6.0790   -4.9750    0.0000 N   0  0  0  0  0  0  0  0  0  0  0  0
    7.5790   -4.9470    0.0000 C   0  0  0  0  0  0  0  0  0  0  0  0
    8.3520   -6.2320    0.0000 C   0  0  0  0  0  0  0  0  0  0  0  0
    9.8520   -6.2050    0.0000 C   0  0  0  0  0  0  0  0  0  0  0  0
   10.5780   -4.8920    0.0000 C   0  0  0  0  0  0  0  0  0  0  0  0
   12.0780   -4.8650    0.0000 O   0  0  0  0  0  0  0  0  0  0  0  0
    9.8040   -3.6070    0.0000 C   0  0  0  0  0  0  0  0  0  0  0  0
    8.3050   -3.6350    0.0000 C   0  0  0  0  0  0  0  0  0  0  0  0
    5.3050   -3.6900    0.0000 C   0  0  0  0  0  0  0  0  0  0  0  0
    3.8050   -3.7170    0.0000 C   0  0  0  0  0  0  0  0  0  0  0  0
    0.8060   -3.7720    0.0000 C   0  0  0  0  0  0  0  0  0  0  0  0
   -0.6940   -3.8000    0.0000 C   0  0  0  0  0  0  0  0  0  0  0  0
  1  2  2  0  0  0  0
  2  3  1  0  0  0  0
  2 12  1  0  0  0  0
  4  3  1  6  0  0  0
  3 10  1  0  0  0  0
  4  5  1  0  0  0  0
  4  8  1  0  0  0  0
  5  6  1  6  0  0  0
  5  7  1  0  0  0  0
  8  9  1  0  0  0  0
 10 11  2  0  0  0  0
 11 12  1  0  0  0  0
 12 13  1  0  0  0  0
 13 14  1  0  0  0  0
 13 31  2  0  0  0  0
 14 15  2  0  0  0  0
 15 16  1  0  0  0  0
 16 17  1  0  0  0  0
 16 30  2  0  0  0  0
 17 18  1  0  0  0  0
 17 29  1  0  0  0  0
 18 19  1  0  0  0  0
 19 20  1  0  0  0  0
 20 21  1  0  0  0  0
 20 28  1  0  0  0  0
 21 22  1  0  0  0  0
 21 27  2  0  0  0  0
 22 23  2  0  0  0  0
 23 24  1  0  0  0  0
 24 25  1  0  0  0  0
 24 26  2  0  0  0  0
 26 27  1  0  0  0  0
 28 29  1  0  0  0  0
 30 31  1  0  0  0  0
M  END
>  <name>
O=C1N([C@H]([C@@H](O)C)CC)N=CN1c1ccc(N2CCN(c3ccc([O;ether])cc3)CC2)cc1

>  <apo>
1

>  <freq>
1

>  <freq0>
0

>  <freq1>
1

>  <freqA>
0.99887151

>  <a_count>
60

$$$$

  MOE2015           2D

 24 27  0  0  1  0  0  0  0  0999 V2000
   -0.0010    1.4870    0.0000 O   0  0  0  0  0  0  0  0  0  0  0  0
    1.4990    1.4880    0.0000 C   0  0  1  0  0  0  0  0  0  0  0  0
    2.2500    0.1900    0.0000 C   0  0  1  0  0  0  0  0  0  0  0  0
    1.5010   -1.1100    0.0000 C   0  0  0  0  0  0  0  0  0  0  0  0
    3.7500    0.1910    0.0000 C   0  0  1  0  0  0  0  0  0  0  0  0
    4.4990    1.4900    0.0000 C   0  0  1  0  0  0  0  0  0  0  0  0
    3.0000    1.4370    0.0000 C   0  0  0  0  0  0  0  0  0  0  0  0
    5.9990    1.4910    0.0000 C   0  0  2  0  0  0  0  0  0  0  0  0
    6.7490    2.7910    0.0000 C   0  0  2  0  0  0  0  0  0  0  0  0
    5.9980    4.0890    0.0000 O   0  0  0  0  0  0  0  0  0  0  0  0
    8.2490    2.7920    0.0000 C   0  0  0  0  0  0  0  0  0  0  0  0
    8.9990    1.4930    0.0000 C   0  0  2  0  0  0  0  0  0  0  0  0
    8.2500    0.1940    0.0000 C   0  0  1  0  0  0  0  0  0  0  0  0
    8.1730   -1.3040    0.0000 C   0  0  0  0  0  0  0  0  0  0  0  0
    6.7500    0.1930    0.0000 C   0  0  2  0  0  0  0  0  0  0  0  0
    7.0630   -1.2740    0.0000 C   0  0  0  0  0  0  0  0  0  0  0  0
    6.0010   -1.1070    0.0000 C   0  0  0  0  0  0  0  0  0  0  0  0
    4.5010   -1.1080    0.0000 C   0  0  0  0  0  0  0  0  0  0  0  0
    9.2550   -0.9200    0.0000 C   0  0  0  0  0  0  0  0  0  0  0  0
   10.6250   -0.3090    0.0000 C   0  0  1  0  0  0  0  0  0  0  0  0
   11.9240   -1.0580    0.0000 O   0  0  0  0  0  0  0  0  0  0  0  0
   10.4670    1.1820    0.0000 C   0  0  0  0  0  0  0  0  0  0  0  0
    3.7490    2.7890    0.0000 C   0  0  0  0  0  0  0  0  0  0  0  0
    2.2490    2.7880    0.0000 C   0  0  0  0  0  0  0  0  0  0  0  0
  2  1  1  6  0  0  0
  2  3  1  0  0  0  0
  2 24  1  0  0  0  0
  3  4  1  6  0  0  0
  3  5  1  0  0  0  0
  5  6  1  0  0  0  0
  5 18  1  1  0  0  0
  6  7  1  1  0  0  0
  6  8  1  0  0  0  0
  6 23  1  0  0  0  0
  8  9  1  6  0  0  0
  8 15  1  0  0  0  0
  9 10  1  6  0  0  0
  9 11  1  0  0  0  0
 12 11  1  1  0  0  0
 12 13  1  0  0  0  0
 12 22  1  0  0  0  0
 13 14  1  1  0  0  0
 13 15  1  0  0  0  0
 13 19  1  0  0  0  0
 15 16  1  6  0  0  0
 15 17  1  0  0  0  0
 17 18  1  0  0  0  0
 19 20  1  0  0  0  0
 20 21  1  6  0  0  0
 20 22  1  0  0  0  0
 23 24  1  0  0  0  0
M  END
>  <name>
O[C@H]1[C@@H](C)[C@H]2[C@@](C)([C@@H]3[C@H](O)C[C@@H]4[C@@](C)([C@@]3(C)CC2)C[C@@H]([O;ester])[C;olefin]4)CC1

>  <apo>
2

>  <freq>
1

>  <freq0>
0

>  <freq1>
1

>  <freqA>
0.99887151

>  <a_count>
60

$$$$

  MOE2015           2D

 29 30  0  0  1  0  0  0  0  0999 V2000
    1.5900    0.0000    0.0000 P   0  0  0  0  0  0  0  0  0  0  0  0
    0.0900    0.0000    0.0000 O   0  0  0  0  0  0  0  0  0  0  0  0
    1.5900    1.5000    0.0000 O   0  0  0  0  0  0  0  0  0  0  0  0
    0.2910    2.2500    0.0000 C   0  0  1  0  0  0  0  0  0  0  0  0
    0.2910    3.7500    0.0000 C   0  0  1  0  0  0  0  0  0  0  0  0
    1.5900    4.5000    0.0000 N   0  0  0  0  0  0  0  0  0  0  0  0
    2.8890    3.7500    0.0000 C   0  0  0  0  0  0  0  0  0  0  0  0
    2.8890    2.2500    0.0000 O   0  0  0  0  0  0  0  0  0  0  0  0
    4.1880    4.5000    0.0000 O   0  0  0  0  0  0  0  0  0  0  0  0
    5.4870    3.7500    0.0000 C   0  0  2  0  0  0  0  0  0  0  0  0
    5.6440    2.2580    0.0000 C   0  0  0  0  0  0  0  0  0  0  0  0
    7.1110    1.9460    0.0000 O   0  0  0  0  0  0  0  0  0  0  0  0
    7.8610    3.2450    0.0000 C   0  0  0  0  0  0  0  0  0  0  0  0
    6.8570    4.3600    0.0000 C   0  0  0  0  0  0  0  0  0  0  0  0
   -1.0080    4.5000    0.0000 C   0  0  0  0  0  0  0  0  0  0  0  0
   -1.0080    6.0000    0.0000 C   0  0  0  0  0  0  0  0  0  0  0  0
    0.2910    6.7500    0.0000 C   0  0  0  0  0  0  0  0  0  0  0  0
    0.2910    8.2500    0.0000 C   0  0  0  0  0  0  0  0  0  0  0  0
   -1.0080    9.0000    0.0000 C   0  0  0  0  0  0  0  0  0  0  0  0
   -2.3070    8.2500    0.0000 C   0  0  0  0  0  0  0  0  0  0  0  0
   -2.3070    6.7500    0.0000 C   0  0  0  0  0  0  0  0  0  0  0  0
   -1.0080    1.5000    0.0000 C   0  0  0  0  0  0  0  0  0  0  0  0
   -2.3070    2.2500    0.0000 N   0  0  0  0  0  0  0  0  0  0  0  0
   -3.6060    1.5000    0.0000 C   0  0  0  0  0  0  0  0  0  0  0  0
   -4.9050    2.2500    0.0000 C   0  0  0  0  0  0  0  0  0  0  0  0
   -6.2040    1.5000    0.0000 C   0  0  0  0  0  0  0  0  0  0  0  0
   -4.9050    3.7500    0.0000 C   0  0  0  0  0  0  0  0  0  0  0  0
    3.0900    0.0000    0.0000 O   0  0  0  0  0  0  0  0  0  0  0  0
    1.5900   -1.5000    0.0000 O   0  0  0  0  0  0  0  0  0  0  0  0
  1  2  2  0  0  0  0
  1  3  1  0  0  0  0
  1 28  1  0  0  0  0
  1 29  1  0  0  0  0
  4  3  1  6  0  0  0
  4  5  1  0  0  0  0
  4 22  1  0  0  0  0
  5  6  1  6  0  0  0
  5 15  1  0  0  0  0
  6  7  1  0  0  0  0
  7  8  2  0  0  0  0
  7  9  1  0  0  0  0
 10  9  1  1  0  0  0
 10 11  1  0  0  0  0
 10 14  1  0  0  0  0
 11 12  1  0  0  0  0
 12 13  1  0  0  0  0
 13 14  1  0  0  0  0
 15 16  1  0  0  0  0
 16 17  1  0  0  0  0
 16 21  2  0  0  0  0
 17 18  2  0  0  0  0
 18 19  1  0  0  0  0
 19 20  2  0  0  0  0
 20 21  1  0  0  0  0
 22 23  1  0  0  0  0
 23 24  1  0  0  0  0
 24 25  1  0  0  0  0
 25 26  1  0  0  0  0
 25 27  1  0  0  0  0
M  END
>  <name>
P(=O)(O[C@@H]([C@@H](NC(=O)O[C@@H]1COCC1)Cc1ccccc1)C[N;so2amide]CC(C)C)(O)O

>  <apo>
1

>  <freq>
1

>  <freq0>
0

>  <freq1>
1

>  <freqA>
0.99887151

>  <a_count>
60

$$$$

  MOE2015           2D

 29 32  0  0  1  0  0  0  0  0999 V2000
   -0.1230   -4.6840    0.0000 N   0  0  0  0  0  0  0  0  0  0  0  0
    1.3750   -4.7620    0.0000 C   0  0  0  0  0  0  0  0  0  0  0  0
    2.0560   -6.0990    0.0000 C   0  0  0  0  0  0  0  0  0  0  0  0
    3.5540   -6.1770    0.0000 C   0  0  0  0  0  0  0  0  0  0  0  0
    4.3710   -4.9190    0.0000 C   0  0  0  0  0  0  0  0  0  0  0  0
    5.8690   -4.9980    0.0000 C   0  0  1  0  0  0  0  0  0  0  0  0
    6.8130   -3.8320    0.0000 N   0  0  0  0  0  0  0  0  0  0  0  0
    8.2130   -4.3690    0.0000 C   0  0  2  0  0  0  0  0  0  0  0  0
    9.4710   -3.5520    0.0000 C   0  0  0  0  0  0  0  0  0  0  0  0
   10.8080   -4.2330    0.0000 C   0  0  0  0  0  0  0  0  0  0  0  0
   12.0660   -3.4160    0.0000 C   0  0  0  0  0  0  0  0  0  0  0  0
   11.9880   -1.9180    0.0000 C   0  0  0  0  0  0  0  0  0  0  0  0
   13.2460   -1.1020    0.0000 N   0  0  0  0  0  0  0  0  0  0  0  0
   10.6510   -1.2380    0.0000 C   0  0  0  0  0  0  0  0  0  0  0  0
    9.3930   -2.0540    0.0000 C   0  0  0  0  0  0  0  0  0  0  0  0
    8.1350   -5.8670    0.0000 C   0  0  0  0  0  0  0  0  0  0  0  0
    6.6860   -6.2560    0.0000 C   0  0  0  0  0  0  0  0  0  0  0  0
    6.4250   -2.3830    0.0000 C   0  0  0  0  0  0  0  0  0  0  0  0
    7.4860   -1.3220    0.0000 C   0  0  0  0  0  0  0  0  0  0  0  0
    7.0970    0.1270    0.0000 C   0  0  0  0  0  0  0  0  0  0  0  0
    5.6480    0.5150    0.0000 C   0  0  0  0  0  0  0  0  0  0  0  0
    5.2600    1.9640    0.0000 C   0  0  0  0  0  0  0  0  0  0  0  0
    6.7090    2.3520    0.0000 C   0  0  0  0  0  0  0  0  0  0  0  0
    3.8110    1.5760    0.0000 C   0  0  0  0  0  0  0  0  0  0  0  0
    4.8720    3.4130    0.0000 C   0  0  0  0  0  0  0  0  0  0  0  0
    4.5880   -0.5460    0.0000 C   0  0  0  0  0  0  0  0  0  0  0  0
    4.9760   -1.9950    0.0000 C   0  0  0  0  0  0  0  0  0  0  0  0
    3.6900   -3.5830    0.0000 C   0  0  0  0  0  0  0  0  0  0  0  0
    2.1920   -3.5040    0.0000 C   0  0  0  0  0  0  0  0  0  0  0  0
  1  2  1  0  0  0  0
  2  3  1  0  0  0  0
  2 29  2  0  0  0  0
  3  4  2  0  0  0  0
  4  5  1  0  0  0  0
  6  5  1  1  0  0  0
  5 28  2  0  0  0  0
  6  7  1  0  0  0  0
  6 17  1  0  0  0  0
  7  8  1  0  0  0  0
  7 18  1  0  0  0  0
  8  9  1  6  0  0  0
  8 16  1  0  0  0  0
  9 10  1  0  0  0  0
  9 15  2  0  0  0  0
 10 11  2  0  0  0  0
 11 12  1  0  0  0  0
 12 13  1  0  0  0  0
 12 14  2  0  0  0  0
 14 15  1  0  0  0  0
 16 17  1  0  0  0  0
 18 19  1  0  0  0  0
 18 27  2  0  0  0  0
 19 20  2  0  0  0  0
 20 21  1  0  0  0  0
 21 22  1  0  0  0  0
 21 26  2  0  0  0  0
 22 23  1  0  0  0  0
 22 24  1  0  0  0  0
 22 25  1  0  0  0  0
 26 27  1  0  0  0  0
 28 29  1  0  0  0  0
M  END
>  <name>
[N;amide]c1ccc([C@H]2N([C@H](c3ccc([N;amide])cc3)CC2)c2ccc(C(C)(C)C)cc2)cc1

>  <apo>
2

>  <freq>
1

>  <freq0>
0

>  <freq1>
1

>  <freqA>
0.99887151

>  <a_count>
60

$$$$

  MOE2015           2D

 34 36  0  0  1  0  0  0  0  0999 V2000
    1.5870    1.6350    0.0000 P   0  0  2  0  0  0  0  0  0  0  0  0
    1.6580    3.1330    0.0000 O   0  0  0  0  0  0  0  0  0  0  0  0
    3.0850    1.5630    0.0000 O   0  0  0  0  0  0  0  0  0  0  0  0
    3.7720    0.2300    0.0000 P   0  0  2  0  0  0  0  0  0  0  0  0
    4.4590   -1.1040    0.0000 O   0  0  0  0  0  0  0  0  0  0  0  0
    5.1060    0.9170    0.0000 O   0  0  0  0  0  0  0  0  0  0  0  0
    6.3670    0.1060    0.0000 C   0  0  0  0  0  0  0  0  0  0  0  0
    7.7010    0.7930    0.0000 C   0  0  2  0  0  0  0  0  0  0  0  0
    9.0400    0.1180    0.0000 C   0  0  1  0  0  0  0  0  0  0  0  0
    9.2820   -1.3620    0.0000 O   0  0  0  0  0  0  0  0  0  0  0  0
   10.0960    1.1840    0.0000 C   0  0  2  0  0  0  0  0  0  0  0  0
   11.5790    0.9560    0.0000 O   0  0  0  0  0  0  0  0  0  0  0  0
    9.4090    2.5170    0.0000 C   0  0  0  0  0  0  0  0  0  0  0  0
    7.9280    2.2760    0.0000 O   0  0  0  0  0  0  0  0  0  0  0  0
    2.4390   -0.4580    0.0000 O   0  0  0  0  0  0  0  0  0  0  0  0
    0.0880    1.7060    0.0000 O   0  0  0  0  0  0  0  0  0  0  0  0
   -0.5990    3.0390    0.0000 C   0  0  0  0  0  0  0  0  0  0  0  0
   -2.0970    3.1110    0.0000 C   0  0  2  0  0  0  0  0  0  0  0  0
   -2.9200    4.3650    0.0000 C   0  0  1  0  0  0  0  0  0  0  0  0
   -2.3890    5.7680    0.0000 O   0  0  0  0  0  0  0  0  0  0  0  0
   -4.3670    3.9700    0.0000 C   0  0  1  0  0  0  0  0  0  0  0  0
   -5.5370    4.9090    0.0000 O   0  0  0  0  0  0  0  0  0  0  0  0
   -4.4380    2.4720    0.0000 C   0  0  2  0  0  0  0  0  0  0  0  0
   -5.6930    1.6490    0.0000 N   0  0  0  0  0  0  0  0  0  0  0  0
   -7.0320    2.3240    0.0000 C   0  0  0  0  0  0  0  0  0  0  0  0
   -8.2870    1.5010    0.0000 C   0  0  0  0  0  0  0  0  0  0  0  0
   -9.6260    2.1760    0.0000 C   0  0  0  0  0  0  0  0  0  0  0  0
  -10.8800    1.3530    0.0000 O   0  0  0  0  0  0  0  0  0  0  0  0
   -9.7120    3.6730    0.0000 N   0  0  0  0  0  0  0  0  0  0  0  0
   -8.2010    0.0030    0.0000 C   0  0  0  0  0  0  0  0  0  0  0  0
   -6.8610   -0.6710    0.0000 C   0  0  0  0  0  0  0  0  0  0  0  0
   -5.6070    0.1510    0.0000 C   0  0  0  0  0  0  0  0  0  0  0  0
   -3.0360    1.9410    0.0000 O   0  0  0  0  0  0  0  0  0  0  0  0
    1.5150    0.1360    0.0000 O   0  0  0  0  0  0  0  0  0  0  0  0
  1  2  2  0  0  0  0
  1  3  1  0  0  0  0
  1 16  1  6  0  0  0
  1 34  1  1  0  0  0
  4  3  1  1  0  0  0
  4  5  2  0  0  0  0
  4  6  1  0  0  0  0
  4 15  1  6  0  0  0
  6  7  1  0  0  0  0
  8  7  1  1  0  0  0
  8  9  1  0  0  0  0
  8 14  1  0  0  0  0
  9 10  1  6  0  0  0
  9 11  1  0  0  0  0
 11 12  1  1  0  0  0
 11 13  1  0  0  0  0
 13 14  1  0  0  0  0
 16 17  1  0  0  0  0
 18 17  1  1  0  0  0
 18 19  1  0  0  0  0
 18 33  1  0  0  0  0
 19 20  1  6  0  0  0
 19 21  1  0  0  0  0
 21 22  1  6  0  0  0
 21 23  1  0  0  0  0
 23 24  1  1  0  0  0
 23 33  1  0  0  0  0
 24 25  1  0  0  0  0
 24 32  1  0  0  0  0
 25 26  2  0  0  0  0
 26 27  1  0  0  0  0
 26 30  1  0  0  0  0
 27 28  2  0  0  0  0
 27 29  1  0  0  0  0
 30 31  1  0  0  0  0
 31 32  2  0  0  0  0
M  END
>  <name>
[P@](=O)(O[P@](=O)(OC[C@@H]1[C@@H](O)[C@H](O)[C;NaroC]O1)O)(OC[C@@H]1[C@@H](O)[C@@H](O)[C@H](N2C=C(C(=O)N)CC=C2)O1)O

>  <apo>
1

>  <freq>
1

>  <freq0>
0

>  <freq1>
1

>  <freqA>
0.99887151

>  <a_count>
60

$$$$

  MOE2015           2D

 29 32  0  0  1  0  0  0  0  0999 V2000
    4.8410   -7.2440    0.0000 O   0  0  0  0  0  0  0  0  0  0  0  0
    5.4150   -5.8580    0.0000 C   0  0  0  0  0  0  0  0  0  0  0  0
    6.9020   -5.6620    0.0000 O   0  0  0  0  0  0  0  0  0  0  0  0
    7.8160   -6.8520    0.0000 C   0  0  0  0  0  0  0  0  0  0  0  0
    9.3030   -6.6560    0.0000 C   0  0  0  0  0  0  0  0  0  0  0  0
    4.5020   -4.6680    0.0000 O   0  0  0  0  0  0  0  0  0  0  0  0
    3.0150   -4.8640    0.0000 C   0  0  1  0  0  0  0  0  0  0  0  0
    3.5400   -3.4590    0.0000 C   0  0  0  0  0  0  0  0  0  0  0  0
    5.0190   -3.2110    0.0000 O   0  0  0  0  0  0  0  0  0  0  0  0
    1.5560   -4.5140    0.0000 C   0  0  2  0  0  0  0  0  0  0  0  0
    2.4480   -3.3090    0.0000 C   0  0  0  0  0  0  0  0  0  0  0  0
    0.7720   -5.7940    0.0000 C   0  0  2  0  0  0  0  0  0  0  0  0
   -0.7270   -5.7550    0.0000 C   0  0  1  0  0  0  0  0  0  0  0  0
   -1.4430   -4.4360    0.0000 C   0  0  2  0  0  0  0  0  0  0  0  0
   -0.6600   -3.1570    0.0000 C   0  0  1  0  0  0  0  0  0  0  0  0
   -1.3750   -1.8390    0.0000 O   0  0  0  0  0  0  0  0  0  0  0  0
    0.8400   -3.1960    0.0000 C   0  0  0  0  0  0  0  0  0  0  0  0
   -2.9430   -4.3970    0.0000 C   0  0  2  0  0  0  0  0  0  0  0  0
   -2.1590   -3.1180    0.0000 C   0  0  0  0  0  0  0  0  0  0  0  0
   -3.7260   -5.6770    0.0000 C   0  0  0  0  0  0  0  0  0  0  0  0
   -5.2260   -5.6380    0.0000 C   0  0  0  0  0  0  0  0  0  0  0  0
   -5.9420   -4.3190    0.0000 C   0  0  0  0  0  0  0  0  0  0  0  0
   -7.4410   -4.2800    0.0000 O   0  0  0  0  0  0  0  0  0  0  0  0
   -5.1580   -3.0400    0.0000 C   0  0  0  0  0  0  0  0  0  0  0  0
   -3.6580   -3.0790    0.0000 C   0  0  0  0  0  0  0  0  0  0  0  0
   -3.0100   -6.9950    0.0000 C   0  0  0  0  0  0  0  0  0  0  0  0
   -1.5110   -7.0340    0.0000 C   0  0  0  0  0  0  0  0  0  0  0  0
    1.7470   -6.9340    0.0000 C   0  0  0  0  0  0  0  0  0  0  0  0
    3.1330   -6.3600    0.0000 C   0  0  0  0  0  0  0  0  0  0  0  0
  1  2  2  0  0  0  0
  2  3  1  0  0  0  0
  2  6  1  0  0  0  0
  3  4  1  0  0  0  0
  4  5  1  0  0  0  0
  7  6  1  6  0  0  0
  7  8  1  1  0  0  0
  7 10  1  0  0  0  0
  7 29  1  0  0  0  0
  8  9  2  0  0  0  0
 10 11  1  1  0  0  0
 10 12  1  0  0  0  0
 10 17  1  0  0  0  0
 12 13  1  0  0  0  0
 12 28  1  1  0  0  0
 13 14  1  0  0  0  0
 13 27  1  6  0  0  0
 14 15  1  1  0  0  0
 14 18  1  0  0  0  0
 15 16  1  1  0  0  0
 15 17  1  0  0  0  0
 18 19  1  1  0  0  0
 18 20  1  0  0  0  0
 18 25  1  0  0  0  0
 20 21  2  0  0  0  0
 20 26  1  0  0  0  0
 21 22  1  0  0  0  0
 22 23  2  0  0  0  0
 22 24  1  0  0  0  0
 24 25  2  0  0  0  0
 26 27  1  0  0  0  0
 28 29  1  0  0  0  0
M  END
>  <name>
O=C(OCC)O[C@@]1([C;ester]=O)[C@]2(C)[C@H]([C@H]3[C@H]([C@@H](O)C2)[C@]2(C)C(=CC(=O)C=C2)CC3)CC1

>  <apo>
1

>  <freq>
1

>  <freq0>
0

>  <freq1>
1

>  <freqA>
0.99887151

>  <a_count>
59

$$$$

  MOE2015           2D

 29 33  0  0  1  0  0  0  0  0999 V2000
   -2.1480    0.8900    0.0000 O   0  0  0  0  0  0  0  0  0  0  0  0
   -3.2080    1.9500    0.0000 C   0  0  0  0  0  0  0  0  0  0  0  0
   -4.6570    1.5620    0.0000 C   0  0  0  0  0  0  0  0  0  0  0  0
   -5.0450    0.1130    0.0000 O   0  0  0  0  0  0  0  0  0  0  0  0
   -2.8200    3.3990    0.0000 C   0  0  2  0  0  0  0  0  0  0  0  0
   -1.3530    3.0870    0.0000 C   0  0  2  0  0  0  0  0  0  0  0  0
   -1.7410    1.6380    0.0000 C   0  0  0  0  0  0  0  0  0  0  0  0
   -0.6030    4.3860    0.0000 C   0  0  2  0  0  0  0  0  0  0  0  0
    0.8970    4.3860    0.0000 C   0  0  1  0  0  0  0  0  0  0  0  0
    1.6470    3.0870    0.0000 C   0  0  2  0  0  0  0  0  0  0  0  0
    0.8970    1.7880    0.0000 C   0  0  1  0  0  0  0  0  0  0  0  0
    1.6470    0.4890    0.0000 O   0  0  0  0  0  0  0  0  0  0  0  0
   -0.6030    1.7880    0.0000 C   0  0  0  0  0  0  0  0  0  0  0  0
    3.1470    3.0870    0.0000 C   0  0  2  0  0  0  0  0  0  0  0  0
    2.3970    1.7880    0.0000 C   0  0  0  0  0  0  0  0  0  0  0  0
    3.8970    4.3860    0.0000 C   0  0  0  0  0  0  0  0  0  0  0  0
    5.3970    4.3860    0.0000 C   0  0  0  0  0  0  0  0  0  0  0  0
    6.1470    3.0870    0.0000 C   0  0  0  0  0  0  0  0  0  0  0  0
    7.6470    3.0870    0.0000 O   0  0  0  0  0  0  0  0  0  0  0  0
    5.3970    1.7880    0.0000 C   0  0  0  0  0  0  0  0  0  0  0  0
    3.8970    1.7880    0.0000 C   0  0  0  0  0  0  0  0  0  0  0  0
    3.1470    5.6850    0.0000 C   0  0  0  0  0  0  0  0  0  0  0  0
    1.6470    5.6850    0.0000 C   0  0  0  0  0  0  0  0  0  0  0  0
   -1.6070    5.5010    0.0000 C   0  0  0  0  0  0  0  0  0  0  0  0
   -2.9770    4.8910    0.0000 C   0  0  1  0  0  0  0  0  0  0  0  0
   -4.4440    5.2030    0.0000 O   0  0  0  0  0  0  0  0  0  0  0  0
   -5.1940    3.9040    0.0000 C   0  0  0  0  0  0  0  0  0  0  0  0
   -6.6860    3.7470    0.0000 C   0  0  0  0  0  0  0  0  0  0  0  0
   -4.1900    2.7890    0.0000 N   0  0  0  0  0  0  0  0  0  0  0  0
  1  2  2  0  0  0  0
  2  3  1  0  0  0  0
  5  2  1  1  0  0  0
  3  4  1  0  0  0  0
  5  6  1  0  0  0  0
  5 25  1  0  0  0  0
  5 29  1  0  0  0  0
  6  7  1  1  0  0  0
  6  8  1  0  0  0  0
  6 13  1  0  0  0  0
  8  9  1  0  0  0  0
  8 24  1  1  0  0  0
  9 10  1  0  0  0  0
  9 23  1  6  0  0  0
 10 11  1  1  0  0  0
 10 14  1  0  0  0  0
 11 12  1  1  0  0  0
 11 13  1  0  0  0  0
 14 15  1  1  0  0  0
 14 16  1  0  0  0  0
 14 21  1  0  0  0  0
 16 17  2  0  0  0  0
 16 22  1  0  0  0  0
 17 18  1  0  0  0  0
 18 19  2  0  0  0  0
 18 20  1  0  0  0  0
 20 21  2  0  0  0  0
 22 23  1  0  0  0  0
 24 25  1  0  0  0  0
 25 26  1  6  0  0  0
 26 27  1  0  0  0  0
 27 28  1  0  0  0  0
 27 29  2  0  0  0  0
M  END
>  <name>
O=C(C[O;ester])[C@]12[C@]3(C)[C@H]([C@H]4[C@H]([C@@H](O)C3)[C@]3(C)C(=CC(=O)C=C3)CC4)C[C@H]1OC(C)=N2

>  <apo>
1

>  <freq>
1

>  <freq0>
0

>  <freq1>
1

>  <freqA>
0.99887151

>  <a_count>
58

$$$$

  MOE2015           2D

 31 34  0  0  0  0  0  0  0  0999 V2000
    7.6910   -3.8190    0.0000 O   0  0  0  0  0  0  0  0  0  0  0  0
    7.3940   -5.2890    0.0000 C   0  0  0  0  0  0  0  0  0  0  0  0
    8.5190   -6.2820    0.0000 O   0  0  0  0  0  0  0  0  0  0  0  0
    9.9410   -5.8040    0.0000 C   0  0  0  0  0  0  0  0  0  0  0  0
   10.3900   -4.3730    0.0000 C   0  0  0  0  0  0  0  0  0  0  0  0
   11.8900   -4.3580    0.0000 C   0  0  0  0  0  0  0  0  0  0  0  0
   12.3680   -5.7790    0.0000 C   0  0  0  0  0  0  0  0  0  0  0  0
   11.1630   -6.6730    0.0000 C   0  0  0  0  0  0  0  0  0  0  0  0
    5.9720   -5.7670    0.0000 N   0  0  0  0  0  0  0  0  0  0  0  0
    4.8480   -4.7750    0.0000 C   0  0  0  0  0  0  0  0  0  0  0  0
    3.4260   -5.2530    0.0000 C   0  0  0  0  0  0  0  0  0  0  0  0
    2.3010   -4.2610    0.0000 C   0  0  0  0  0  0  0  0  0  0  0  0
    0.8110   -4.4320    0.0000 C   0  0  0  0  0  0  0  0  0  0  0  0
    0.0740   -5.7390    0.0000 C   0  0  0  0  0  0  0  0  0  0  0  0
   -1.4260   -5.7540    0.0000 C   0  0  0  0  0  0  0  0  0  0  0  0
   -2.1630   -7.0610    0.0000 C   0  0  0  0  0  0  0  0  0  0  0  0
   -1.4000   -8.3520    0.0000 O   0  0  0  0  0  0  0  0  0  0  0  0
   -2.1360   -9.6590    0.0000 C   0  0  0  0  0  0  0  0  0  0  0  0
   -3.6630   -7.0760    0.0000 C   0  0  0  0  0  0  0  0  0  0  0  0
   -4.4260   -5.7840    0.0000 C   0  0  0  0  0  0  0  0  0  0  0  0
   -5.9260   -5.8000    0.0000 C   0  0  0  0  0  0  0  0  0  0  0  0
   -6.6890   -4.5080    0.0000 O   0  0  0  0  0  0  0  0  0  0  0  0
   -6.6630   -7.1060    0.0000 N   0  0  0  0  0  0  0  0  0  0  0  0
   -3.6890   -4.4780    0.0000 C   0  0  0  0  0  0  0  0  0  0  0  0
   -2.1890   -4.4630    0.0000 C   0  0  0  0  0  0  0  0  0  0  0  0
    0.1870   -3.0680    0.0000 C   0  0  0  0  0  0  0  0  0  0  0  0
    1.2910   -2.0530    0.0000 N   0  0  0  0  0  0  0  0  0  0  0  0
    1.1200   -0.5630    0.0000 C   0  0  0  0  0  0  0  0  0  0  0  0
    2.5980   -2.7900    0.0000 C   0  0  0  0  0  0  0  0  0  0  0  0
    4.0200   -2.3120    0.0000 C   0  0  0  0  0  0  0  0  0  0  0  0
    5.1450   -3.3050    0.0000 C   0  0  0  0  0  0  0  0  0  0  0  0
  1  2  2  0  0  0  0
  2  3  1  0  0  0  0
  2  9  1  0  0  0  0
  3  4  1  0  0  0  0
  4  5  1  0  0  0  0
  4  8  1  0  0  0  0
  5  6  1  0  0  0  0
  6  7  1  0  0  0  0
  7  8  1  0  0  0  0
  9 10  1  0  0  0  0
 10 11  1  0  0  0  0
 10 31  2  0  0  0  0
 11 12  2  0  0  0  0
 12 13  1  0  0  0  0
 12 29  1  0  0  0  0
 13 14  1  0  0  0  0
 13 26  2  0  0  0  0
 14 15  1  0  0  0  0
 15 16  1  0  0  0  0
 15 25  2  0  0  0  0
 16 17  1  0  0  0  0
 16 19  2  0  0  0  0
 17 18  1  0  0  0  0
 19 20  1  0  0  0  0
 20 21  1  0  0  0  0
 20 24  2  0  0  0  0
 21 22  2  0  0  0  0
 21 23  1  0  0  0  0
 24 25  1  0  0  0  0
 26 27  1  0  0  0  0
 27 28  1  0  0  0  0
 27 29  1  0  0  0  0
 29 30  2  0  0  0  0
 30 31  1  0  0  0  0
M  END
>  <name>
O=C(OC1CCCC1)Nc1cc2c(Cc3c(OC)cc(C(=O)[N;so2amide])cc3)cn(C)c2cc1

>  <apo>
1

>  <freq>
1

>  <freq0>
0

>  <freq1>
1

>  <freqA>
0.99887151

>  <a_count>
58

$$$$

  MOE2015           2D

 24 25  0  0  1  0  0  0  0  0999 V2000
   -2.2280    1.6870    0.0000 O   0  0  0  0  0  0  0  0  0  0  0  0
   -2.6340    3.1310    0.0000 C   0  0  0  0  0  0  0  0  0  0  0  0
   -4.0880    3.5010    0.0000 C   0  0  0  0  0  0  0  0  0  0  0  0
   -5.1350    2.4280    0.0000 C   0  0  0  0  0  0  0  0  0  0  0  0
   -1.5870    4.2050    0.0000 C   0  0  2  0  0  0  0  0  0  0  0  0
   -1.1300    2.7760    0.0000 O   0  0  0  0  0  0  0  0  0  0  0  0
   -0.2240    4.8320    0.0000 C   0  0  1  0  0  0  0  0  0  0  0  0
    1.0840    4.0990    0.0000 C   0  0  1  0  0  0  0  0  0  0  0  0
    1.1030    2.5990    0.0000 O   0  0  0  0  0  0  0  0  0  0  0  0
    2.3740    4.8650    0.0000 C   0  0  0  0  0  0  0  0  0  0  0  0
    2.3550    6.3650    0.0000 C   0  0  0  0  0  0  0  0  0  0  0  0
    3.6820    4.1310    0.0000 C   0  0  0  0  0  0  0  0  0  0  0  0
    4.9720    4.8970    0.0000 C   0  0  0  0  0  0  0  0  0  0  0  0
    6.2800    4.1630    0.0000 C   0  0  1  0  0  0  0  0  0  0  0  0
    7.0460    2.8740    0.0000 C   0  0  1  0  0  0  0  0  0  0  0  0
    7.0650    1.3740    0.0000 C   0  0  0  0  0  0  0  0  0  0  0  0
    7.7800    4.1820    0.0000 C   0  0  0  0  0  0  0  0  0  0  0  0
    9.2690    4.0050    0.0000 C   0  0  0  0  0  0  0  0  0  0  0  0
    8.3370    5.5750    0.0000 C   0  0  0  0  0  0  0  0  0  0  0  0
   -0.3990    6.3220    0.0000 C   0  0  1  0  0  0  0  0  0  0  0  0
    0.7030    7.3390    0.0000 O   0  0  0  0  0  0  0  0  0  0  0  0
   -1.8700    6.6150    0.0000 C   0  0  1  0  0  0  0  0  0  0  0  0
   -2.4980    7.9780    0.0000 C   0  0  0  0  0  0  0  0  0  0  0  0
   -2.6040    5.3070    0.0000 C   0  0  0  0  0  0  0  0  0  0  0  0
  1  2  2  0  0  0  0
  2  3  1  0  0  0  0
  5  2  1  1  0  0  0
  3  4  1  0  0  0  0
  5  6  1  6  0  0  0
  5  7  1  0  0  0  0
  5 24  1  0  0  0  0
  7  8  1  6  0  0  0
  7 20  1  0  0  0  0
  8  9  1  6  0  0  0
  8 10  1  0  0  0  0
 10 11  2  0  0  0  0
 10 12  1  0  0  0  0
 12 13  1  0  0  0  0
 14 13  1  6  0  0  0
 14 15  1  0  0  0  0
 14 17  1  0  0  0  0
 15 16  1  6  0  0  0
 15 17  1  0  0  0  0
 17 18  1  0  0  0  0
 17 19  1  0  0  0  0
 20 21  1  6  0  0  0
 20 22  1  0  0  0  0
 22 23  1  6  0  0  0
 22 24  1  0  0  0  0
M  END
>  <name>
O=C([C;olefin]C)[C@]1([O;ester])[C@@H]([C@@H]([O;ester])C(=C)CC[C@H]2[C@@H]([C;olefin])C2(C)C)[C@@H]([O;ester])[C@@H](C)C1

>  <apo>
5

>  <freq>
1

>  <freq0>
0

>  <freq1>
1

>  <freqA>
0.99887151

>  <a_count>
58

$$$$

  MOE2015           2D

 28 31  0  0  1  0  0  0  0  0999 V2000
    3.2730    3.8810    0.0000 O   0  0  0  0  0  0  0  0  0  0  0  0
    3.5260    2.4020    0.0000 C   0  0  0  0  0  0  0  0  0  0  0  0
    5.0970    2.5150    0.0000 C   0  0  2  0  0  0  0  0  0  0  0  0
    5.9180    3.7700    0.0000 O   0  0  0  0  0  0  0  0  0  0  0  0
    5.6420    0.9770    0.0000 C   0  0  0  0  0  0  0  0  0  0  0  0
    4.3700    0.2460    0.0000 C   0  0  0  0  0  0  0  0  0  0  0  0
    5.8030   -0.1960    0.0000 C   0  0  0  0  0  0  0  0  0  0  0  0
    5.3910   -0.8520    0.0000 C   0  0  0  0  0  0  0  0  0  0  0  0
    4.3170   -1.2200    0.0000 C   0  0  2  0  0  0  0  0  0  0  0  0
    4.0020   -2.6870    0.0000 O   0  0  0  0  0  0  0  0  0  0  0  0
    2.7030   -1.4580    0.0000 C   0  0  1  0  0  0  0  0  0  0  0  0
    1.9770   -2.7710    0.0000 O   0  0  0  0  0  0  0  0  0  0  0  0
    2.0700   -0.0170    0.0000 C   0  0  1  0  0  0  0  0  0  0  0  0
    2.7210    1.2400    0.0000 C   0  0  2  0  0  0  0  0  0  0  0  0
    1.2230    1.1640    0.0000 C   0  0  0  0  0  0  0  0  0  0  0  0
    1.9650    2.5230    0.0000 C   0  0  1  0  0  0  0  0  0  0  0  0
    2.2040    4.0040    0.0000 O   0  0  0  0  0  0  0  0  0  0  0  0
    0.4650    2.4920    0.0000 C   0  0  0  0  0  0  0  0  0  0  0  0
   -0.2580    1.1760    0.0000 C   0  0  2  0  0  0  0  0  0  0  0  0
    0.5200   -0.1070    0.0000 C   0  0  2  0  0  0  0  0  0  0  0  0
    0.9810   -1.5340    0.0000 O   0  0  0  0  0  0  0  0  0  0  0  0
   -0.7630   -0.8840    0.0000 C   0  0  0  0  0  0  0  0  0  0  0  0
   -1.5410    0.3990    0.0000 O   0  0  0  0  0  0  0  0  0  0  0  0
    5.5800   -1.9520    0.0000 C   0  0  0  0  0  0  0  0  0  0  0  0
    6.8530   -1.2520    0.0000 C   0  0  2  0  0  0  0  0  0  0  0  0
    8.1380   -2.0270    0.0000 O   0  0  0  0  0  0  0  0  0  0  0  0
    6.8790    0.2020    0.0000 C   0  0  0  0  0  0  0  0  0  0  0  0
    8.1970    0.9160    0.0000 C   0  0  0  0  0  0  0  0  0  0  0  0
  1  2  2  0  0  0  0
  2  3  1  0  0  0  0
  2 14  1  0  0  0  0
  3  4  1  6  0  0  0
  3  5  1  0  0  0  0
  5  6  1  0  0  0  0
  5 27  2  0  0  0  0
  6  7  1  0  0  0  0
  6  8  1  0  0  0  0
  6  9  1  0  0  0  0
  9 10  1  6  0  0  0
  9 11  1  0  0  0  0
  9 24  1  0  0  0  0
 11 12  1  1  0  0  0
 13 11  1  6  0  0  0
 13 14  1  0  0  0  0
 13 20  1  0  0  0  0
 14 15  1  6  0  0  0
 14 16  1  0  0  0  0
 16 17  1  6  0  0  0
 16 18  1  0  0  0  0
 18 19  1  0  0  0  0
 19 20  1  0  0  0  0
 19 23  1  6  0  0  0
 20 21  1  1  0  0  0
 20 22  1  0  0  0  0
 22 23  1  0  0  0  0
 24 25  1  0  0  0  0
 25 26  1  1  0  0  0
 25 27  1  0  0  0  0
 27 28  1  0  0  0  0
M  END
>  <name>
O=C1[C@H](O)C=2C(C)(C)[C@](O)([C@@H]([O;ester])[C@H]3[C@@]1(C)[C@@H](O)C[C@@H]1[C@@]3([O;ester])CO1)C[C@H]([O;ester])C=2C

>  <apo>
3

>  <freq>
1

>  <freq0>
0

>  <freq1>
1

>  <freqA>
0.99887151

>  <a_count>
58

$$$$

  MOE2015           2D

 28 31  0  0  1  0  0  0  0  0999 V2000
    3.2730    3.8810    0.0000 O   0  0  0  0  0  0  0  0  0  0  0  0
    3.5260    2.4020    0.0000 C   0  0  0  0  0  0  0  0  0  0  0  0
    5.0970    2.5150    0.0000 C   0  0  2  0  0  0  0  0  0  0  0  0
    5.9180    3.7700    0.0000 O   0  0  0  0  0  0  0  0  0  0  0  0
    5.6420    0.9770    0.0000 C   0  0  0  0  0  0  0  0  0  0  0  0
    4.3700    0.2460    0.0000 C   0  0  0  0  0  0  0  0  0  0  0  0
    5.8030   -0.1960    0.0000 C   0  0  0  0  0  0  0  0  0  0  0  0
    5.3910   -0.8520    0.0000 C   0  0  0  0  0  0  0  0  0  0  0  0
    4.3170   -1.2200    0.0000 C   0  0  2  0  0  0  0  0  0  0  0  0
    4.0020   -2.6870    0.0000 O   0  0  0  0  0  0  0  0  0  0  0  0
    2.7030   -1.4580    0.0000 C   0  0  1  0  0  0  0  0  0  0  0  0
    1.9770   -2.7710    0.0000 O   0  0  0  0  0  0  0  0  0  0  0  0
    2.0700   -0.0170    0.0000 C   0  0  1  0  0  0  0  0  0  0  0  0
    2.7210    1.2400    0.0000 C   0  0  2  0  0  0  0  0  0  0  0  0
    1.2230    1.1640    0.0000 C   0  0  0  0  0  0  0  0  0  0  0  0
    1.9650    2.5230    0.0000 C   0  0  1  0  0  0  0  0  0  0  0  0
    2.2040    4.0040    0.0000 O   0  0  0  0  0  0  0  0  0  0  0  0
    0.4650    2.4920    0.0000 C   0  0  0  0  0  0  0  0  0  0  0  0
   -0.2580    1.1760    0.0000 C   0  0  2  0  0  0  0  0  0  0  0  0
    0.5200   -0.1070    0.0000 C   0  0  2  0  0  0  0  0  0  0  0  0
    0.9810   -1.5340    0.0000 O   0  0  0  0  0  0  0  0  0  0  0  0
   -0.7630   -0.8840    0.0000 C   0  0  0  0  0  0  0  0  0  0  0  0
   -1.5410    0.3990    0.0000 O   0  0  0  0  0  0  0  0  0  0  0  0
    5.5800   -1.9520    0.0000 C   0  0  0  0  0  0  0  0  0  0  0  0
    6.8530   -1.2520    0.0000 C   0  0  2  0  0  0  0  0  0  0  0  0
    8.1380   -2.0270    0.0000 O   0  0  0  0  0  0  0  0  0  0  0  0
    6.8790    0.2020    0.0000 C   0  0  0  0  0  0  0  0  0  0  0  0
    8.1970    0.9160    0.0000 C   0  0  0  0  0  0  0  0  0  0  0  0
  1  2  2  0  0  0  0
  2  3  1  0  0  0  0
  2 14  1  0  0  0  0
  3  4  1  6  0  0  0
  3  5  1  0  0  0  0
  5  6  1  0  0  0  0
  5 27  2  0  0  0  0
  6  7  1  0  0  0  0
  6  8  1  0  0  0  0
  6  9  1  0  0  0  0
  9 10  1  6  0  0  0
  9 11  1  0  0  0  0
  9 24  1  0  0  0  0
 11 12  1  1  0  0  0
 13 11  1  6  0  0  0
 13 14  1  0  0  0  0
 13 20  1  0  0  0  0
 14 15  1  6  0  0  0
 14 16  1  0  0  0  0
 16 17  1  6  0  0  0
 16 18  1  0  0  0  0
 18 19  1  0  0  0  0
 19 20  1  0  0  0  0
 19 23  1  6  0  0  0
 20 21  1  1  0  0  0
 20 22  1  0  0  0  0
 22 23  1  0  0  0  0
 24 25  1  0  0  0  0
 25 26  1  1  0  0  0
 25 27  1  0  0  0  0
 27 28  1  0  0  0  0
M  END
>  <name>
O=C1[C@H]([O;ester])C=2C(C)(C)[C@](O)([C@@H]([O;ester])[C@H]3[C@@]1(C)[C@@H](O)C[C@@H]1[C@@]3([O;ester])CO1)C[C@H]([O;ester])C=2C

>  <apo>
4

>  <freq>
1

>  <freq0>
0

>  <freq1>
1

>  <freqA>
0.99887151

>  <a_count>
58

$$$$

  MOE2015           2D

 35 38  0  0  1  0  0  0  0  0999 V2000
    1.3220   -2.9170    0.0000 P   0  0  1  0  0  0  0  0  0  0  0  0
    2.0670   -4.2190    0.0000 O   0  0  0  0  0  0  0  0  0  0  0  0
    0.0200   -3.6620    0.0000 O   0  0  0  0  0  0  0  0  0  0  0  0
   -1.2760   -2.9070    0.0000 C   0  0  0  0  0  0  0  0  0  0  0  0
   -2.5780   -3.6520    0.0000 C   0  0  2  0  0  0  0  0  0  0  0  0
   -2.7400   -5.1430    0.0000 C   0  0  1  0  0  0  0  0  0  0  0  0
   -1.6290   -6.1510    0.0000 O   0  0  0  0  0  0  0  0  0  0  0  0
   -4.2090   -5.4490    0.0000 C   0  0  1  0  0  0  0  0  0  0  0  0
   -4.8240   -6.8170    0.0000 O   0  0  0  0  0  0  0  0  0  0  0  0
   -4.9540   -4.1470    0.0000 C   0  0  2  0  0  0  0  0  0  0  0  0
   -6.3370   -4.7280    0.0000 C   0  0  0  0  0  0  0  0  0  0  0  0
   -7.7200   -5.3090    0.0000 N   0  0  0  0  0  0  0  0  0  0  0  0
   -6.1160   -3.1990    0.0000 C   0  0  0  0  0  0  0  0  0  0  0  0
   -6.0310   -1.7010    0.0000 N   0  0  0  0  0  0  0  0  0  0  0  0
   -4.8620   -0.7620    0.0000 N   0  0  0  0  0  0  0  0  0  0  0  0
   -5.0910    0.7210    0.0000 C   0  0  0  0  0  0  0  0  0  0  0  0
   -6.4890    1.2630    0.0000 N   0  0  0  0  0  0  0  0  0  0  0  0
   -7.6590    0.3240    0.0000 C   0  0  0  0  0  0  0  0  0  0  0  0
   -9.0570    0.8670    0.0000 N   0  0  0  0  0  0  0  0  0  0  0  0
   -7.4300   -1.1580    0.0000 C   0  0  0  0  0  0  0  0  0  0  0  0
   -8.3780   -2.3210    0.0000 C   0  0  0  0  0  0  0  0  0  0  0  0
   -7.5660   -3.5820    0.0000 C   0  0  0  0  0  0  0  0  0  0  0  0
   -3.9460   -3.0370    0.0000 O   0  0  0  0  0  0  0  0  0  0  0  0
    2.6240   -2.1720    0.0000 O   0  0  0  0  0  0  0  0  0  0  0  0
    3.9200   -2.9270    0.0000 C   0  0  0  0  0  0  0  0  0  0  0  0
    5.2220   -2.1820    0.0000 C   0  0  0  0  0  0  0  0  0  0  0  0
    6.5180   -2.9370    0.0000 C   0  0  0  0  0  0  0  0  0  0  0  0
    6.5130   -4.4370    0.0000 C   0  0  0  0  0  0  0  0  0  0  0  0
    5.2110   -5.1820    0.0000 C   0  0  0  0  0  0  0  0  0  0  0  0
    3.9150   -4.4270    0.0000 C   0  0  0  0  0  0  0  0  0  0  0  0
    0.5770   -1.6150    0.0000 N   0  0  0  0  0  0  0  0  0  0  0  0
    1.3320   -0.3190    0.0000 C   0  0  2  0  0  0  0  0  0  0  0  0
    0.5870    0.9830    0.0000 C   0  0  0  0  0  0  0  0  0  0  0  0
    1.3420    2.2790    0.0000 O   0  0  0  0  0  0  0  0  0  0  0  0
    2.8320   -0.3250    0.0000 C   0  0  0  0  0  0  0  0  0  0  0  0
  1  2  2  0  0  0  0
  1  3  1  0  0  0  0
  1 24  1  1  0  0  0
  1 31  1  6  0  0  0
  3  4  1  0  0  0  0
  5  4  1  6  0  0  0
  5  6  1  0  0  0  0
  5 23  1  0  0  0  0
  6  7  1  1  0  0  0
  6  8  1  0  0  0  0
  8  9  1  1  0  0  0
  8 10  1  0  0  0  0
 10 11  1  1  0  0  0
 10 13  1  6  0  0  0
 10 23  1  0  0  0  0
 11 12  3  0  0  0  0
 13 14  1  0  0  0  0
 13 22  2  0  0  0  0
 14 15  1  0  0  0  0
 14 20  1  0  0  0  0
 15 16  2  0  0  0  0
 16 17  1  0  0  0  0
 17 18  2  0  0  0  0
 18 19  1  0  0  0  0
 18 20  1  0  0  0  0
 20 21  2  0  0  0  0
 21 22  1  0  0  0  0
 24 25  1  0  0  0  0
 25 26  1  0  0  0  0
 25 30  2  0  0  0  0
 26 27  2  0  0  0  0
 27 28  1  0  0  0  0
 28 29  2  0  0  0  0
 29 30  1  0  0  0  0
 31 32  1  0  0  0  0
 32 33  1  0  0  0  0
 32 35  1  6  0  0  0
 33 34  2  0  0  0  0
M  END
>  <name>
[P@@](=O)(OC[C@@H]1[C@@H](O)[C@@H](O)[C@](C#N)(c2n3N=CN=C(N)c3cc2)O1)(Oc1ccccc1)N[C@H]([C;ester]=O)C

>  <apo>
1

>  <freq>
1

>  <freq0>
0

>  <freq1>
1

>  <freqA>
0.99887151

>  <a_count>
58

$$$$

  MOE2015           2D

 28 31  0  0  1  0  0  0  0  0999 V2000
    4.2220   -0.4770    0.0000 Cl  0  0  0  0  0  0  0  0  0  0  0  0
    3.4680    0.8190    0.0000 C   0  0  2  0  0  0  0  0  0  0  0  0
    2.7220   -0.4820    0.0000 C   0  0  1  0  0  0  0  0  0  0  0  0
    3.4760   -1.7790    0.0000 O   0  0  0  0  0  0  0  0  0  0  0  0
    1.2220   -0.4870    0.0000 C   0  0  0  0  0  0  0  0  0  0  0  0
    0.4680    0.8090    0.0000 C   0  0  2  0  0  0  0  0  0  0  0  0
   -0.3890   -0.4220    0.0000 C   0  0  0  0  0  0  0  0  0  0  0  0
   -1.0010    1.1170    0.0000 C   0  0  1  0  0  0  0  0  0  0  0  0
   -1.4840   -0.3030    0.0000 O   0  0  0  0  0  0  0  0  0  0  0  0
   -2.4810    0.8770    0.0000 C   0  0  0  0  0  0  0  0  0  0  0  0
   -3.4290    2.0400    0.0000 O   0  0  0  0  0  0  0  0  0  0  0  0
   -3.0140   -0.5250    0.0000 C   0  0  0  0  0  0  0  0  0  0  0  0
   -4.4950   -0.7650    0.0000 O   0  0  0  0  0  0  0  0  0  0  0  0
   -1.1620    2.6080    0.0000 C   0  0  1  0  0  0  0  0  0  0  0  0
   -2.4640    3.3540    0.0000 C   0  0  0  0  0  0  0  0  0  0  0  0
    0.2060    3.2220    0.0000 C   0  0  0  0  0  0  0  0  0  0  0  0
    1.2130    2.1110    0.0000 C   0  0  1  0  0  0  0  0  0  0  0  0
    2.7130    2.1160    0.0000 C   0  0  2  0  0  0  0  0  0  0  0  0
    3.4590    3.4170    0.0000 C   0  0  0  0  0  0  0  0  0  0  0  0
    4.9590    3.4220    0.0000 C   0  0  0  0  0  0  0  0  0  0  0  0
    5.7130    2.1260    0.0000 C   0  0  0  0  0  0  0  0  0  0  0  0
    4.9680    0.8240    0.0000 C   0  0  1  0  0  0  0  0  0  0  0  0
    6.4680    0.8290    0.0000 C   0  0  0  0  0  0  0  0  0  0  0  0
    5.7220   -0.4720    0.0000 C   0  0  0  0  0  0  0  0  0  0  0  0
    7.2220   -0.4680    0.0000 C   0  0  0  0  0  0  0  0  0  0  0  0
    7.9680    0.8340    0.0000 C   0  0  0  0  0  0  0  0  0  0  0  0
    9.4680    0.8390    0.0000 O   0  0  0  0  0  0  0  0  0  0  0  0
    7.2130    2.1310    0.0000 C   0  0  0  0  0  0  0  0  0  0  0  0
  2  1  1  6  0  0  0
  2  3  1  0  0  0  0
  2 18  1  0  0  0  0
  2 22  1  0  0  0  0
  3  4  1  1  0  0  0
  3  5  1  0  0  0  0
  5  6  1  0  0  0  0
  6  7  1  1  0  0  0
  6  8  1  0  0  0  0
  6 17  1  0  0  0  0
  8  9  1  6  0  0  0
  8 10  1  1  0  0  0
  8 14  1  0  0  0  0
 10 11  2  0  0  0  0
 10 12  1  0  0  0  0
 12 13  1  0  0  0  0
 14 15  1  1  0  0  0
 14 16  1  0  0  0  0
 17 16  1  1  0  0  0
 17 18  1  0  0  0  0
 18 19  1  6  0  0  0
 19 20  1  0  0  0  0
 20 21  1  0  0  0  0
 21 22  1  0  0  0  0
 21 28  2  0  0  0  0
 22 23  1  1  0  0  0
 22 24  1  0  0  0  0
 24 25  2  0  0  0  0
 25 26  1  0  0  0  0
 26 27  2  0  0  0  0
 26 28  1  0  0  0  0
M  END
>  <name>
Cl[C@]12[C@@H](O)C[C@]3(C)[C@@]([O;ester])(C(=O)C[O;ester])[C@@H](C)C[C@H]3[C@@H]1CCC=1[C@]2(C)C=CC(=O)C=1

>  <apo>
2

>  <freq>
1

>  <freq0>
0

>  <freq1>
1

>  <freqA>
0.99887151

>  <a_count>
57

$$$$

  MOE2015           2D

 28 31  0  0  1  0  0  0  0  0999 V2000
    8.3510    4.8330    0.0000 F   0  0  0  0  0  0  0  0  0  0  0  0
    7.6040    3.5320    0.0000 C   0  0  2  0  0  0  0  0  0  0  0  0
    8.3560    2.2350    0.0000 C   0  0  0  0  0  0  0  0  0  0  0  0
    7.6090    0.9340    0.0000 C   0  0  1  0  0  0  0  0  0  0  0  0
    6.8840   -0.3790    0.0000 C   0  0  0  0  0  0  0  0  0  0  0  0
    6.1090    0.9310    0.0000 C   0  0  1  0  0  0  0  0  0  0  0  0
    5.3610   -0.3700    0.0000 C   0  0  1  0  0  0  0  0  0  0  0  0
    6.1140   -1.6670    0.0000 O   0  0  0  0  0  0  0  0  0  0  0  0
    3.8610   -0.3730    0.0000 C   0  0  0  0  0  0  0  0  0  0  0  0
    3.1090    0.9250    0.0000 C   0  0  2  0  0  0  0  0  0  0  0  0
    2.2720   -0.3200    0.0000 C   0  0  0  0  0  0  0  0  0  0  0  0
    1.6410    1.2340    0.0000 C   0  0  1  0  0  0  0  0  0  0  0  0
    1.1870   -0.1960    0.0000 O   0  0  0  0  0  0  0  0  0  0  0  0
    0.1630    0.9770    0.0000 C   0  0  0  0  0  0  0  0  0  0  0  0
   -0.7980    2.1280    0.0000 O   0  0  0  0  0  0  0  0  0  0  0  0
   -0.3530   -0.4310    0.0000 C   0  0  0  0  0  0  0  0  0  0  0  0
   -1.8310   -0.6880    0.0000 O   0  0  0  0  0  0  0  0  0  0  0  0
    1.4810    2.7250    0.0000 C   0  0  2  0  0  0  0  0  0  0  0  0
    0.1810    3.4730    0.0000 C   0  0  0  0  0  0  0  0  0  0  0  0
    2.8500    3.3380    0.0000 C   0  0  0  0  0  0  0  0  0  0  0  0
    3.8560    2.2260    0.0000 C   0  0  1  0  0  0  0  0  0  0  0  0
    5.3560    2.2290    0.0000 C   0  0  2  0  0  0  0  0  0  0  0  0
    6.1040    3.5290    0.0000 C   0  0  0  0  0  0  0  0  0  0  0  0
    8.3610   -0.3640    0.0000 C   0  0  0  0  0  0  0  0  0  0  0  0
    9.8610   -0.3610    0.0000 C   0  0  0  0  0  0  0  0  0  0  0  0
   10.6090    0.9400    0.0000 C   0  0  0  0  0  0  0  0  0  0  0  0
   12.1090    0.9430    0.0000 O   0  0  0  0  0  0  0  0  0  0  0  0
    9.8560    2.2380    0.0000 C   0  0  0  0  0  0  0  0  0  0  0  0
  2  1  1  6  0  0  0
  2  3  1  0  0  0  0
  2 23  1  0  0  0  0
  3  4  1  0  0  0  0
  3 28  2  0  0  0  0
  4  5  1  1  0  0  0
  6  4  1  1  0  0  0
  4 24  1  0  0  0  0
  6  7  1  0  0  0  0
  6 22  1  0  0  0  0
  7  8  1  1  0  0  0
  7  9  1  0  0  0  0
  9 10  1  0  0  0  0
 10 11  1  1  0  0  0
 10 12  1  0  0  0  0
 10 21  1  0  0  0  0
 12 13  1  6  0  0  0
 12 14  1  1  0  0  0
 12 18  1  0  0  0  0
 14 15  2  0  0  0  0
 14 16  1  0  0  0  0
 16 17  1  0  0  0  0
 18 19  1  6  0  0  0
 18 20  1  0  0  0  0
 21 20  1  1  0  0  0
 21 22  1  0  0  0  0
 22 23  1  6  0  0  0
 24 25  2  0  0  0  0
 25 26  1  0  0  0  0
 26 27  2  0  0  0  0
 26 28  1  0  0  0  0
M  END
>  <name>
F[C@@H]1C=2[C@@](C)([C@H]3[C@@H](O)C[C@]4(C)[C@@](O)(C(=O)C[O;ester])[C@H](C)C[C@H]4[C@@H]3C1)C=CC(=O)C=2

>  <apo>
1

>  <freq>
1

>  <freq0>
0

>  <freq1>
1

>  <freqA>
0.99887151

>  <a_count>
57

$$$$

  MOE2015           2D

 25 28  0  0  1  0  0  0  0  0999 V2000
   -1.5910    4.9950    0.0000 O   0  0  0  0  0  0  0  0  0  0  0  0
   -0.6430    3.8330    0.0000 C   0  0  0  0  0  0  0  0  0  0  0  0
   -1.1760    2.4310    0.0000 C   0  0  0  0  0  0  0  0  0  0  0  0
    0.8380    4.0730    0.0000 C   0  0  2  0  0  0  0  0  0  0  0  0
    0.3540    2.6530    0.0000 O   0  0  0  0  0  0  0  0  0  0  0  0
    2.3060    3.7660    0.0000 C   0  0  2  0  0  0  0  0  0  0  0  0
    1.4500    2.5340    0.0000 C   0  0  0  0  0  0  0  0  0  0  0  0
    3.0510    5.0680    0.0000 C   0  0  2  0  0  0  0  0  0  0  0  0
    4.5510    5.0730    0.0000 C   0  0  1  0  0  0  0  0  0  0  0  0
    5.3060    3.7770    0.0000 C   0  0  1  0  0  0  0  0  0  0  0  0
    6.8060    3.7820    0.0000 C   0  0  2  0  0  0  0  0  0  0  0  0
    6.0610    2.4810    0.0000 C   0  0  0  0  0  0  0  0  0  0  0  0
    7.5510    5.0840    0.0000 C   0  0  0  0  0  0  0  0  0  0  0  0
    6.7970    6.3800    0.0000 C   0  0  1  0  0  0  0  0  0  0  0  0
    7.5420    7.6820    0.0000 C   0  0  0  0  0  0  0  0  0  0  0  0
    5.2970    6.3750    0.0000 C   0  0  0  0  0  0  0  0  0  0  0  0
    9.0510    5.0890    0.0000 C   0  0  0  0  0  0  0  0  0  0  0  0
    9.8060    3.7930    0.0000 C   0  0  0  0  0  0  0  0  0  0  0  0
   11.3060    3.7980    0.0000 O   0  0  0  0  0  0  0  0  0  0  0  0
    9.0610    2.4910    0.0000 C   0  0  0  0  0  0  0  0  0  0  0  0
    7.5610    2.4860    0.0000 C   0  0  0  0  0  0  0  0  0  0  0  0
    4.5610    2.4750    0.0000 C   0  0  0  0  0  0  0  0  0  0  0  0
    3.0610    2.4700    0.0000 C   0  0  0  0  0  0  0  0  0  0  0  0
    2.0440    6.1790    0.0000 C   0  0  0  0  0  0  0  0  0  0  0  0
    0.6750    5.5640    0.0000 C   0  0  0  0  0  0  0  0  0  0  0  0
  1  2  2  0  0  0  0
  2  3  1  0  0  0  0
  4  2  1  1  0  0  0
  4  5  1  6  0  0  0
  4  6  1  0  0  0  0
  4 25  1  0  0  0  0
  6  7  1  1  0  0  0
  6  8  1  0  0  0  0
  6 23  1  0  0  0  0
  8  9  1  0  0  0  0
  8 24  1  1  0  0  0
  9 10  1  0  0  0  0
  9 16  1  6  0  0  0
 10 11  1  0  0  0  0
 10 22  1  1  0  0  0
 11 12  1  1  0  0  0
 11 13  1  0  0  0  0
 11 21  1  0  0  0  0
 13 14  1  0  0  0  0
 13 17  2  0  0  0  0
 14 15  1  6  0  0  0
 14 16  1  0  0  0  0
 17 18  1  0  0  0  0
 18 19  2  0  0  0  0
 18 20  1  0  0  0  0
 20 21  1  0  0  0  0
 22 23  1  0  0  0  0
 24 25  1  0  0  0  0
M  END
>  <name>
O=C(C)[C@]1([O;ester])[C@]2(C)[C@H]([C@H]3[C@@H]([C@]4(C)C([C@@H](C)C3)=CC(=O)CC4)CC2)CC1

>  <apo>
1

>  <freq>
1

>  <freq0>
0

>  <freq1>
1

>  <freqA>
0.99887151

>  <a_count>
57

$$$$

  MOE2015           2D

 27 30  0  0  1  0  0  0  0  0999 V2000
    8.8530   -6.1070    0.0000 O   0  0  0  0  0  0  0  0  0  0  0  0
    8.3210   -4.7050    0.0000 C   0  0  0  0  0  0  0  0  0  0  0  0
    9.2690   -3.5420    0.0000 C   0  0  0  0  0  0  0  0  0  0  0  0
   10.7490   -3.7820    0.0000 O   0  0  0  0  0  0  0  0  0  0  0  0
    6.8400   -4.4650    0.0000 C   0  0  2  0  0  0  0  0  0  0  0  0
    7.3240   -5.8850    0.0000 O   0  0  0  0  0  0  0  0  0  0  0  0
    5.3720   -4.7720    0.0000 C   0  0  2  0  0  0  0  0  0  0  0  0
    6.2280   -6.0040    0.0000 C   0  0  0  0  0  0  0  0  0  0  0  0
    4.6260   -3.4700    0.0000 C   0  0  2  0  0  0  0  0  0  0  0  0
    3.1260   -3.4650    0.0000 C   0  0  1  0  0  0  0  0  0  0  0  0
    2.3720   -4.7620    0.0000 C   0  0  2  0  0  0  0  0  0  0  0  0
    3.1170   -6.0630    0.0000 C   0  0  1  0  0  0  0  0  0  0  0  0
    2.3630   -7.3600    0.0000 O   0  0  0  0  0  0  0  0  0  0  0  0
    4.6170   -6.0690    0.0000 C   0  0  0  0  0  0  0  0  0  0  0  0
    0.8720   -4.7570    0.0000 C   0  0  2  0  0  0  0  0  0  0  0  0
    1.6170   -6.0580    0.0000 C   0  0  0  0  0  0  0  0  0  0  0  0
    0.1260   -3.4550    0.0000 C   0  0  0  0  0  0  0  0  0  0  0  0
    0.8810   -2.1590    0.0000 C   0  0  1  0  0  0  0  0  0  0  0  0
    0.1350   -0.8570    0.0000 C   0  0  0  0  0  0  0  0  0  0  0  0
    2.3810   -2.1640    0.0000 C   0  0  0  0  0  0  0  0  0  0  0  0
   -1.3740   -3.4500    0.0000 C   0  0  0  0  0  0  0  0  0  0  0  0
   -2.1280   -4.7460    0.0000 C   0  0  0  0  0  0  0  0  0  0  0  0
   -3.6280   -4.7410    0.0000 O   0  0  0  0  0  0  0  0  0  0  0  0
   -1.3830   -6.0480    0.0000 C   0  0  0  0  0  0  0  0  0  0  0  0
    0.1170   -6.0530    0.0000 C   0  0  0  0  0  0  0  0  0  0  0  0
    5.6340   -2.3590    0.0000 C   0  0  0  0  0  0  0  0  0  0  0  0
    7.0020   -2.9740    0.0000 C   0  0  0  0  0  0  0  0  0  0  0  0
  1  2  2  0  0  0  0
  2  3  1  0  0  0  0
  5  2  1  6  0  0  0
  3  4  1  0  0  0  0
  5  6  1  1  0  0  0
  5  7  1  0  0  0  0
  5 27  1  0  0  0  0
  7  8  1  6  0  0  0
  7  9  1  0  0  0  0
  7 14  1  0  0  0  0
  9 10  1  0  0  0  0
  9 26  1  6  0  0  0
 10 11  1  0  0  0  0
 10 20  1  1  0  0  0
 11 12  1  0  0  0  0
 11 15  1  6  0  0  0
 12 13  1  6  0  0  0
 12 14  1  0  0  0  0
 15 16  1  6  0  0  0
 15 17  1  0  0  0  0
 15 25  1  0  0  0  0
 17 18  1  0  0  0  0
 17 21  2  0  0  0  0
 18 19  1  1  0  0  0
 18 20  1  0  0  0  0
 21 22  1  0  0  0  0
 22 23  2  0  0  0  0
 22 24  1  0  0  0  0
 24 25  2  0  0  0  0
 26 27  1  0  0  0  0
M  END
>  <name>
O=C(C[O;ester])[C@]1(O)[C@]2(C)[C@H]([C@H]3[C@H]([C@@H](O)C2)[C@]2(C)C([C@@H](C)C3)=CC(=O)C=C2)CC1

>  <apo>
1

>  <freq>
1

>  <freq0>
0

>  <freq1>
1

>  <freqA>
0.99887151

>  <a_count>
57

$$$$

  MOE2015           2D

 27 30  0  0  1  0  0  0  0  0999 V2000
    8.8530   -6.1070    0.0000 O   0  0  0  0  0  0  0  0  0  0  0  0
    8.3210   -4.7050    0.0000 C   0  0  0  0  0  0  0  0  0  0  0  0
    9.2690   -3.5420    0.0000 C   0  0  0  0  0  0  0  0  0  0  0  0
   10.7490   -3.7820    0.0000 O   0  0  0  0  0  0  0  0  0  0  0  0
    6.8400   -4.4650    0.0000 C   0  0  2  0  0  0  0  0  0  0  0  0
    7.3240   -5.8850    0.0000 O   0  0  0  0  0  0  0  0  0  0  0  0
    5.3720   -4.7720    0.0000 C   0  0  2  0  0  0  0  0  0  0  0  0
    6.2280   -6.0040    0.0000 C   0  0  0  0  0  0  0  0  0  0  0  0
    4.6260   -3.4700    0.0000 C   0  0  2  0  0  0  0  0  0  0  0  0
    3.1260   -3.4650    0.0000 C   0  0  1  0  0  0  0  0  0  0  0  0
    2.3720   -4.7620    0.0000 C   0  0  2  0  0  0  0  0  0  0  0  0
    3.1170   -6.0630    0.0000 C   0  0  1  0  0  0  0  0  0  0  0  0
    2.3630   -7.3600    0.0000 O   0  0  0  0  0  0  0  0  0  0  0  0
    4.6170   -6.0690    0.0000 C   0  0  0  0  0  0  0  0  0  0  0  0
    0.8720   -4.7570    0.0000 C   0  0  2  0  0  0  0  0  0  0  0  0
    1.6170   -6.0580    0.0000 C   0  0  0  0  0  0  0  0  0  0  0  0
    0.1260   -3.4550    0.0000 C   0  0  0  0  0  0  0  0  0  0  0  0
    0.8810   -2.1590    0.0000 C   0  0  1  0  0  0  0  0  0  0  0  0
    0.1350   -0.8570    0.0000 C   0  0  0  0  0  0  0  0  0  0  0  0
    2.3810   -2.1640    0.0000 C   0  0  0  0  0  0  0  0  0  0  0  0
   -1.3740   -3.4500    0.0000 C   0  0  0  0  0  0  0  0  0  0  0  0
   -2.1280   -4.7460    0.0000 C   0  0  0  0  0  0  0  0  0  0  0  0
   -3.6280   -4.7410    0.0000 O   0  0  0  0  0  0  0  0  0  0  0  0
   -1.3830   -6.0480    0.0000 C   0  0  0  0  0  0  0  0  0  0  0  0
    0.1170   -6.0530    0.0000 C   0  0  0  0  0  0  0  0  0  0  0  0
    5.6340   -2.3590    0.0000 C   0  0  0  0  0  0  0  0  0  0  0  0
    7.0020   -2.9740    0.0000 C   0  0  0  0  0  0  0  0  0  0  0  0
  1  2  2  0  0  0  0
  2  3  1  0  0  0  0
  5  2  1  6  0  0  0
  3  4  1  0  0  0  0
  5  6  1  1  0  0  0
  5  7  1  0  0  0  0
  5 27  1  0  0  0  0
  7  8  1  6  0  0  0
  7  9  1  0  0  0  0
  7 14  1  0  0  0  0
  9 10  1  0  0  0  0
  9 26  1  6  0  0  0
 10 11  1  0  0  0  0
 10 20  1  1  0  0  0
 11 12  1  0  0  0  0
 11 15  1  6  0  0  0
 12 13  1  6  0  0  0
 12 14  1  0  0  0  0
 15 16  1  6  0  0  0
 15 17  1  0  0  0  0
 15 25  1  0  0  0  0
 17 18  1  0  0  0  0
 17 21  2  0  0  0  0
 18 19  1  1  0  0  0
 18 20  1  0  0  0  0
 21 22  1  0  0  0  0
 22 23  2  0  0  0  0
 22 24  1  0  0  0  0
 24 25  2  0  0  0  0
 26 27  1  0  0  0  0
M  END
>  <name>
O=C(C[O;ester])[C@]1([O;ester])[C@]2(C)[C@H]([C@H]3[C@H]([C@@H](O)C2)[C@]2(C)C([C@@H](C)C3)=CC(=O)C=C2)CC1

>  <apo>
2

>  <freq>
1

>  <freq0>
0

>  <freq1>
1

>  <freqA>
0.99887151

>  <a_count>
57

$$$$

  MOE2015           2D

 30 32  0  0  1  0  0  0  0  0999 V2000
   -0.1710    0.0460    0.0000 O   0  0  0  0  0  0  0  0  0  0  0  0
   -1.4700    0.7960    0.0000 C   0  0  0  0  0  0  0  0  0  0  0  0
   -2.7690    0.0460    0.0000 O   0  0  0  0  0  0  0  0  0  0  0  0
   -2.7690   -1.4540    0.0000 C   0  0  0  0  0  0  0  0  0  0  0  0
   -4.0680   -2.2040    0.0000 C   0  0  0  0  0  0  0  0  0  0  0  0
   -5.4380   -1.5940    0.0000 S   0  0  0  0  0  0  0  0  0  0  0  0
   -6.4420   -2.7090    0.0000 C   0  0  0  0  0  0  0  0  0  0  0  0
   -5.6920   -4.0080    0.0000 N   0  0  0  0  0  0  0  0  0  0  0  0
   -4.2250   -3.6960    0.0000 C   0  0  0  0  0  0  0  0  0  0  0  0
   -1.4700    2.2960    0.0000 N   0  0  0  0  0  0  0  0  0  0  0  0
   -0.1710    3.0460    0.0000 C   0  0  2  0  0  0  0  0  0  0  0  0
    1.1280    2.2960    0.0000 C   0  0  1  0  0  0  0  0  0  0  0  0
    1.1280    0.7960    0.0000 O   0  0  0  0  0  0  0  0  0  0  0  0
    2.4270    3.0460    0.0000 C   0  0  0  0  0  0  0  0  0  0  0  0
    3.7260    2.2960    0.0000 C   0  0  1  0  0  0  0  0  0  0  0  0
    3.7260    0.7960    0.0000 N   0  0  0  0  0  0  0  0  0  0  0  0
    5.0260    3.0460    0.0000 C   0  0  0  0  0  0  0  0  0  0  0  0
    6.3250    2.2960    0.0000 C   0  0  0  0  0  0  0  0  0  0  0  0
    6.3250    0.7960    0.0000 C   0  0  0  0  0  0  0  0  0  0  0  0
    7.6240    0.0460    0.0000 C   0  0  0  0  0  0  0  0  0  0  0  0
    8.9230    0.7960    0.0000 C   0  0  0  0  0  0  0  0  0  0  0  0
    8.9230    2.2960    0.0000 C   0  0  0  0  0  0  0  0  0  0  0  0
    7.6240    3.0460    0.0000 C   0  0  0  0  0  0  0  0  0  0  0  0
   -0.1710    4.5460    0.0000 C   0  0  0  0  0  0  0  0  0  0  0  0
   -1.4700    5.2960    0.0000 C   0  0  0  0  0  0  0  0  0  0  0  0
   -1.4700    6.7960    0.0000 C   0  0  0  0  0  0  0  0  0  0  0  0
   -2.7690    7.5460    0.0000 C   0  0  0  0  0  0  0  0  0  0  0  0
   -4.0680    6.7960    0.0000 C   0  0  0  0  0  0  0  0  0  0  0  0
   -4.0680    5.2960    0.0000 C   0  0  0  0  0  0  0  0  0  0  0  0
   -2.7690    4.5460    0.0000 C   0  0  0  0  0  0  0  0  0  0  0  0
  1  2  2  0  0  0  0
  2  3  1  0  0  0  0
  2 10  1  0  0  0  0
  3  4  1  0  0  0  0
  4  5  1  0  0  0  0
  5  6  1  0  0  0  0
  5  9  2  0  0  0  0
  6  7  1  0  0  0  0
  7  8  2  0  0  0  0
  8  9  1  0  0  0  0
 11 10  1  1  0  0  0
 11 12  1  0  0  0  0
 11 24  1  0  0  0  0
 12 13  1  6  0  0  0
 12 14  1  0  0  0  0
 14 15  1  0  0  0  0
 15 16  1  6  0  0  0
 15 17  1  0  0  0  0
 17 18  1  0  0  0  0
 18 19  1  0  0  0  0
 18 23  2  0  0  0  0
 19 20  2  0  0  0  0
 20 21  1  0  0  0  0
 21 22  2  0  0  0  0
 22 23  1  0  0  0  0
 24 25  1  0  0  0  0
 25 26  1  0  0  0  0
 25 30  2  0  0  0  0
 26 27  2  0  0  0  0
 27 28  1  0  0  0  0
 28 29  2  0  0  0  0
 29 30  1  0  0  0  0
M  END
>  <name>
O=C(OCc1scnc1)N[C@H]([C@@H](O)C[C@@H]([N;amide])Cc1ccccc1)Cc1ccccc1

>  <apo>
1

>  <freq>
1

>  <freq0>
0

>  <freq1>
1

>  <freqA>
0.99887151

>  <a_count>
57

$$$$

  MOE2015           2D

 33 40  0  0  1  0  0  0  0  0999 V2000
    9.2800    3.7370    0.0000 O   0  0  0  0  0  0  0  0  0  0  0  0
    8.1660    4.7420    0.0000 C   0  0  0  0  0  0  0  0  0  0  0  0
    8.3250    6.2330    0.0000 N   0  0  0  0  0  0  0  0  0  0  0  0
    6.9550    6.8450    0.0000 C   0  0  0  0  0  0  0  0  0  0  0  0
    5.9520    5.7290    0.0000 C   0  0  0  0  0  0  0  0  0  0  0  0
    4.4630    5.7280    0.0000 C   0  0  0  0  0  0  0  0  0  0  0  0
    3.6900    4.4330    0.0000 C   0  0  0  0  0  0  0  0  0  0  0  0
    2.2110    4.8980    0.0000 N   0  0  0  0  0  0  0  0  0  0  0  0
    1.1600    3.6130    0.0000 C   0  0  1  0  0  0  0  0  0  0  0  0
    0.1690    4.7390    0.0000 C   0  0  0  0  0  0  0  0  0  0  0  0
    2.4280    2.8310    0.0000 O   0  0  0  0  0  0  0  0  0  0  0  0
    2.4730    1.3440    0.0000 C   0  0  1  0  0  0  0  0  0  0  0  0
    4.1120    1.6100    0.0000 N   0  0  0  0  0  0  0  0  0  0  0  0
    4.4470    3.1230    0.0000 C   0  0  0  0  0  0  0  0  0  0  0  0
    5.9530    3.1430    0.0000 C   0  0  0  0  0  0  0  0  0  0  0  0
    6.5130    1.7730    0.0000 C   0  0  0  0  0  0  0  0  0  0  0  0
    5.3590    0.8200    0.0000 C   0  0  0  0  0  0  0  0  0  0  0  0
    5.6040   -0.6600    0.0000 C   0  0  0  0  0  0  0  0  0  0  0  0
    7.0120   -1.1860    0.0000 C   0  0  0  0  0  0  0  0  0  0  0  0
    8.1690   -0.2320    0.0000 C   0  0  0  0  0  0  0  0  0  0  0  0
    7.9200    1.2480    0.0000 C   0  0  0  0  0  0  0  0  0  0  0  0
    6.6990    4.4320    0.0000 C   0  0  0  0  0  0  0  0  0  0  0  0
    1.1550    0.6000    0.0000 C   0  0  0  0  0  0  0  0  0  0  0  0
   -0.1470    1.3440    0.0000 C   0  0  1  0  0  0  0  0  0  0  0  0
   -1.4470    0.5940    0.0000 N   0  0  0  0  0  0  0  0  0  0  0  0
   -1.4470   -0.9060    0.0000 C   0  0  0  0  0  0  0  0  0  0  0  0
   -0.1430    2.8440    0.0000 C   0  0  0  0  0  0  0  0  0  0  0  0
    2.1480    6.3730    0.0000 C   0  0  0  0  0  0  0  0  0  0  0  0
    3.5550    6.8970    0.0000 C   0  0  0  0  0  0  0  0  0  0  0  0
    3.8040    8.3760    0.0000 C   0  0  0  0  0  0  0  0  0  0  0  0
    2.6470    9.3310    0.0000 C   0  0  0  0  0  0  0  0  0  0  0  0
    1.2380    8.8070    0.0000 C   0  0  0  0  0  0  0  0  0  0  0  0
    0.9890    7.3280    0.0000 C   0  0  0  0  0  0  0  0  0  0  0  0
  1  2  2  0  0  0  0
  2  3  1  0  0  0  0
  2 22  1  0  0  0  0
  3  4  1  0  0  0  0
  4  5  1  0  0  0  0
  5  6  1  0  0  0  0
  5 22  2  0  0  0  0
  6  7  2  0  0  0  0
  6 29  1  0  0  0  0
  7  8  1  0  0  0  0
  7 14  1  0  0  0  0
  8  9  1  0  0  0  0
  8 28  1  0  0  0  0
  9 10  1  6  0  0  0
  9 11  1  0  0  0  0
  9 27  1  0  0  0  0
 11 12  1  0  0  0  0
 12 13  1  1  0  0  0
 12 23  1  0  0  0  0
 13 14  1  0  0  0  0
 13 17  1  0  0  0  0
 14 15  2  0  0  0  0
 15 16  1  0  0  0  0
 15 22  1  0  0  0  0
 16 17  1  0  0  0  0
 16 21  2  0  0  0  0
 17 18  2  0  0  0  0
 18 19  1  0  0  0  0
 19 20  2  0  0  0  0
 20 21  1  0  0  0  0
 23 24  1  0  0  0  0
 24 25  1  1  0  0  0
 24 27  1  0  0  0  0
 25 26  1  0  0  0  0
 28 29  2  0  0  0  0
 28 33  1  0  0  0  0
 29 30  1  0  0  0  0
 30 31  2  0  0  0  0
 31 32  1  0  0  0  0
 32 33  2  0  0  0  0
M  END
>  <name>
O=C1NCc2c3c4n([C@@]5(C)O[C@@H](n6c4c(c4c6cccc4)c12)C[C@@H]([N;amide]C)[C;ether]5)c1c3cccc1

>  <apo>
2

>  <freq>
1

>  <freq0>
0

>  <freq1>
1

>  <freqA>
0.99887151

>  <a_count>
57

$$$$

  MOE2015           2D

 30 34  0  0  0  0  0  0  0  0999 V2000
    3.7140    3.6360    0.0000 O   0  0  0  0  0  0  0  0  0  0  0  0
    3.6820    2.1370    0.0000 C   0  0  0  0  0  0  0  0  0  0  0  0
    4.9650    1.3590    0.0000 C   0  0  0  0  0  0  0  0  0  0  0  0
    6.4010    1.7930    0.0000 C   0  0  0  0  0  0  0  0  0  0  0  0
    7.2570    0.5610    0.0000 C   0  0  0  0  0  0  0  0  0  0  0  0
    6.3500   -0.6340    0.0000 N   0  0  0  0  0  0  0  0  0  0  0  0
    4.9330   -0.1400    0.0000 C   0  0  0  0  0  0  0  0  0  0  0  0
    3.6190   -0.8630    0.0000 C   0  0  0  0  0  0  0  0  0  0  0  0
    2.8420   -2.1460    0.0000 C   0  0  0  0  0  0  0  0  0  0  0  0
    4.3410   -2.1770    0.0000 C   0  0  0  0  0  0  0  0  0  0  0  0
    2.3360   -0.0860    0.0000 C   0  0  0  0  0  0  0  0  0  0  0  0
    2.3670    1.4140    0.0000 C   0  0  0  0  0  0  0  0  0  0  0  0
    1.0850    2.1910    0.0000 C   0  0  0  0  0  0  0  0  0  0  0  0
   -0.2300    1.4690    0.0000 C   0  0  0  0  0  0  0  0  0  0  0  0
   -1.5130    2.2460    0.0000 C   0  0  0  0  0  0  0  0  0  0  0  0
   -1.4810    3.7460    0.0000 C   0  0  0  0  0  0  0  0  0  0  0  0
   -0.2620   -0.0310    0.0000 C   0  0  0  0  0  0  0  0  0  0  0  0
   -1.5760   -0.7530    0.0000 N   0  0  0  0  0  0  0  0  0  0  0  0
   -1.6080   -2.2530    0.0000 C   0  0  0  0  0  0  0  0  0  0  0  0
   -2.9220   -2.9760    0.0000 C   0  0  0  0  0  0  0  0  0  0  0  0
   -4.2050   -2.1980    0.0000 C   0  0  0  0  0  0  0  0  0  0  0  0
   -4.1740   -0.6990    0.0000 C   0  0  0  0  0  0  0  0  0  0  0  0
   -2.8590    0.0240    0.0000 C   0  0  0  0  0  0  0  0  0  0  0  0
    1.0210   -0.8080    0.0000 C   0  0  0  0  0  0  0  0  0  0  0  0
    8.7520    0.6860    0.0000 C   0  0  0  0  0  0  0  0  0  0  0  0
    9.3910    2.0430    0.0000 C   0  0  0  0  0  0  0  0  0  0  0  0
   10.8850    2.1690    0.0000 C   0  0  0  0  0  0  0  0  0  0  0  0
   12.3800    2.2940    0.0000 N   0  0  0  0  0  0  0  0  0  0  0  0
    8.5350    3.2750    0.0000 C   0  0  0  0  0  0  0  0  0  0  0  0
    7.0400    3.1500    0.0000 C   0  0  0  0  0  0  0  0  0  0  0  0
  1  2  2  0  0  0  0
  2  3  1  0  0  0  0
  2 12  1  0  0  0  0
  3  4  1  0  0  0  0
  3  7  2  0  0  0  0
  4  5  1  0  0  0  0
  4 30  2  0  0  0  0
  5  6  1  0  0  0  0
  5 25  2  0  0  0  0
  6  7  1  0  0  0  0
  7  8  1  0  0  0  0
  8  9  1  0  0  0  0
  8 10  1  0  0  0  0
  8 11  1  0  0  0  0
 11 12  1  0  0  0  0
 11 24  2  0  0  0  0
 12 13  2  0  0  0  0
 13 14  1  0  0  0  0
 14 15  1  0  0  0  0
 14 17  2  0  0  0  0
 15 16  1  0  0  0  0
 17 18  1  0  0  0  0
 17 24  1  0  0  0  0
 18 19  1  0  0  0  0
 18 23  1  0  0  0  0
 19 20  1  0  0  0  0
 20 21  1  0  0  0  0
 21 22  1  0  0  0  0
 22 23  1  0  0  0  0
 25 26  1  0  0  0  0
 26 27  1  0  0  0  0
 26 29  2  0  0  0  0
 27 28  3  0  0  0  0
 29 30  1  0  0  0  0
M  END
>  <name>
O=C1c2c3c([nH]c2C(C)(C)c2c1cc(CC)c(N1CC[C;amine]CC1)c2)cc(C#N)cc3

>  <apo>
1

>  <freq>
1

>  <freq0>
0

>  <freq1>
1

>  <freqA>
0.99887151

>  <a_count>
57

$$$$

  MOE2015           2D

 23 26  0  0  1  0  0  0  0  0999 V2000
   13.4710    0.0420    0.0000 O   0  0  0  0  0  0  0  0  0  0  0  0
   11.9710    0.0330    0.0000 C   0  0  2  0  0  0  0  0  0  0  0  0
   11.2130    1.3270    0.0000 C   0  0  0  0  0  0  0  0  0  0  0  0
    9.7130    1.3180    0.0000 C   0  0  0  0  0  0  0  0  0  0  0  0
    8.9710    0.0140    0.0000 C   0  0  1  0  0  0  0  0  0  0  0  0
    8.1840   -1.2630    0.0000 C   0  0  0  0  0  0  0  0  0  0  0  0
    7.4710    0.0050    0.0000 C   0  0  2  0  0  0  0  0  0  0  0  0
    6.7130    1.2990    0.0000 C   0  0  0  0  0  0  0  0  0  0  0  0
    5.2130    1.2900    0.0000 C   0  0  1  0  0  0  0  0  0  0  0  0
    4.4710   -0.0140    0.0000 C   0  0  1  0  0  0  0  0  0  0  0  0
    3.5760   -1.2180    0.0000 C   0  0  0  0  0  0  0  0  0  0  0  0
    3.0020    0.2890    0.0000 C   0  0  1  0  0  0  0  0  0  0  0  0
    1.8930   -0.7220    0.0000 C   0  0  0  0  0  0  0  0  0  0  0  0
    2.2140   -2.1870    0.0000 C   0  0  0  0  0  0  0  0  0  0  0  0
    0.4640   -0.2680    0.0000 C   0  0  0  0  0  0  0  0  0  0  0  0
    2.8360    1.7790    0.0000 C   0  0  0  0  0  0  0  0  0  0  0  0
    4.2020    2.3980    0.0000 C   0  0  0  0  0  0  0  0  0  0  0  0
    5.2290   -1.3080    0.0000 C   0  0  0  0  0  0  0  0  0  0  0  0
    6.7290   -1.2990    0.0000 C   0  0  0  0  0  0  0  0  0  0  0  0
    7.4550    2.6030    0.0000 C   0  0  0  0  0  0  0  0  0  0  0  0
    8.9550    2.6120    0.0000 C   0  0  0  0  0  0  0  0  0  0  0  0
    9.7290   -1.2800    0.0000 C   0  0  0  0  0  0  0  0  0  0  0  0
   11.2290   -1.2710    0.0000 C   0  0  0  0  0  0  0  0  0  0  0  0
  2  1  1  1  0  0  0
  2  3  1  0  0  0  0
  2 23  1  0  0  0  0
  3  4  1  0  0  0  0
  4  5  1  0  0  0  0
  4 21  2  0  0  0  0
  5  6  1  1  0  0  0
  5  7  1  0  0  0  0
  5 22  1  0  0  0  0
  7  8  1  0  0  0  0
  7 19  1  1  0  0  0
  8  9  1  0  0  0  0
  8 20  2  0  0  0  0
  9 10  1  0  0  0  0
  9 17  1  1  0  0  0
 10 11  1  1  0  0  0
 10 12  1  0  0  0  0
 10 18  1  0  0  0  0
 12 13  1  1  0  0  0
 12 16  1  0  0  0  0
 13 14  1  0  0  0  0
 13 15  1  0  0  0  0
 16 17  1  0  0  0  0
 18 19  1  0  0  0  0
 20 21  1  0  0  0  0
 22 23  1  0  0  0  0
M  END
>  <name>
O[C@@H]1CC=2[C@@](C)([C@@H]3C([C@H]4[C@@](C)([C@@H](C(C)[C;olefin])CC4)CC3)=CC=2)CC1

>  <apo>
1

>  <freq>
1

>  <freq0>
0

>  <freq1>
1

>  <freqA>
0.99887151

>  <a_count>
57

$$$$

  MOE2015           2D

 28 31  0  0  1  0  0  0  0  0999 V2000
    0.1830   -1.0880    0.0000 Cl  0  0  0  0  0  0  0  0  0  0  0  0
    1.6640   -0.8480    0.0000 C   0  0  0  0  0  0  0  0  0  0  0  0
    2.1970    0.5550    0.0000 C   0  0  0  0  0  0  0  0  0  0  0  0
    1.2480    1.7170    0.0000 O   0  0  0  0  0  0  0  0  0  0  0  0
    3.6770    0.7950    0.0000 C   0  0  1  0  0  0  0  0  0  0  0  0
    3.1940   -0.6250    0.0000 O   0  0  0  0  0  0  0  0  0  0  0  0
    3.5150    2.2860    0.0000 C   0  0  1  0  0  0  0  0  0  0  0  0
    2.2130    3.0310    0.0000 C   0  0  0  0  0  0  0  0  0  0  0  0
    4.8830    2.9010    0.0000 C   0  0  0  0  0  0  0  0  0  0  0  0
    5.8910    1.7900    0.0000 C   0  0  2  0  0  0  0  0  0  0  0  0
    5.1460    0.4880    0.0000 C   0  0  1  0  0  0  0  0  0  0  0  0
    4.2900   -0.7440    0.0000 C   0  0  0  0  0  0  0  0  0  0  0  0
    5.9000   -0.8080    0.0000 C   0  0  0  0  0  0  0  0  0  0  0  0
    7.4000   -0.8030    0.0000 C   0  0  2  0  0  0  0  0  0  0  0  0
    8.1550   -2.0990    0.0000 O   0  0  0  0  0  0  0  0  0  0  0  0
    8.1460    0.4990    0.0000 C   0  0  2  0  0  0  0  0  0  0  0  0
    8.4110   -0.9770    0.0000 F   0  0  0  0  0  0  0  0  0  0  0  0
    9.6460    0.5040    0.0000 C   0  0  2  0  0  0  0  0  0  0  0  0
    9.3900   -0.9740    0.0000 C   0  0  0  0  0  0  0  0  0  0  0  0
   10.3910    1.8060    0.0000 C   0  0  0  0  0  0  0  0  0  0  0  0
   11.8910    1.8110    0.0000 C   0  0  0  0  0  0  0  0  0  0  0  0
   12.6460    0.5150    0.0000 C   0  0  0  0  0  0  0  0  0  0  0  0
   14.1460    0.5200    0.0000 O   0  0  0  0  0  0  0  0  0  0  0  0
   11.9000   -0.7870    0.0000 C   0  0  0  0  0  0  0  0  0  0  0  0
   10.4000   -0.7920    0.0000 C   0  0  0  0  0  0  0  0  0  0  0  0
    9.6360    3.1020    0.0000 C   0  0  0  0  0  0  0  0  0  0  0  0
    8.1360    3.0970    0.0000 C   0  0  0  0  0  0  0  0  0  0  0  0
    7.3910    1.7950    0.0000 C   0  0  1  0  0  0  0  0  0  0  0  0
  1  2  1  0  0  0  0
  2  3  1  0  0  0  0
  3  4  2  0  0  0  0
  5  3  1  1  0  0  0
  5  6  1  6  0  0  0
  5  7  1  0  0  0  0
  5 11  1  0  0  0  0
  7  8  1  1  0  0  0
  7  9  1  0  0  0  0
 10  9  1  1  0  0  0
 10 11  1  0  0  0  0
 10 28  1  0  0  0  0
 11 12  1  1  0  0  0
 11 13  1  0  0  0  0
 13 14  1  0  0  0  0
 14 15  1  1  0  0  0
 14 16  1  0  0  0  0
 16 17  1  6  0  0  0
 16 18  1  0  0  0  0
 16 28  1  0  0  0  0
 18 19  1  1  0  0  0
 18 20  1  0  0  0  0
 18 25  1  0  0  0  0
 20 21  2  0  0  0  0
 20 26  1  0  0  0  0
 21 22  1  0  0  0  0
 22 23  2  0  0  0  0
 22 24  1  0  0  0  0
 24 25  2  0  0  0  0
 26 27  1  0  0  0  0
 28 27  1  6  0  0  0
M  END
>  <name>
ClCC(=O)[C@@]1([O;ester])[C@@H](C)C[C@@H]2[C@]1(C)C[C@H](O)[C@]1(F)[C@]3(C)C(=CC(=O)C=C3)CC[C@@H]21

>  <apo>
1

>  <freq>
1

>  <freq0>
0

>  <freq1>
1

>  <freqA>
0.99887151

>  <a_count>
56

$$$$

  MOE2015           2D

 28 31  0  0  1  0  0  0  0  0999 V2000
    0.1830   -1.0880    0.0000 Cl  0  0  0  0  0  0  0  0  0  0  0  0
    1.6640   -0.8480    0.0000 C   0  0  0  0  0  0  0  0  0  0  0  0
    2.1970    0.5550    0.0000 C   0  0  0  0  0  0  0  0  0  0  0  0
    1.2480    1.7170    0.0000 O   0  0  0  0  0  0  0  0  0  0  0  0
    3.6770    0.7950    0.0000 C   0  0  1  0  0  0  0  0  0  0  0  0
    3.1940   -0.6250    0.0000 O   0  0  0  0  0  0  0  0  0  0  0  0
    3.5150    2.2860    0.0000 C   0  0  2  0  0  0  0  0  0  0  0  0
    2.2130    3.0310    0.0000 C   0  0  0  0  0  0  0  0  0  0  0  0
    4.8830    2.9010    0.0000 C   0  0  0  0  0  0  0  0  0  0  0  0
    5.8910    1.7900    0.0000 C   0  0  2  0  0  0  0  0  0  0  0  0
    5.1460    0.4880    0.0000 C   0  0  1  0  0  0  0  0  0  0  0  0
    4.2900   -0.7440    0.0000 C   0  0  0  0  0  0  0  0  0  0  0  0
    5.9000   -0.8080    0.0000 C   0  0  0  0  0  0  0  0  0  0  0  0
    7.4000   -0.8030    0.0000 C   0  0  2  0  0  0  0  0  0  0  0  0
    8.1550   -2.0990    0.0000 O   0  0  0  0  0  0  0  0  0  0  0  0
    8.1460    0.4990    0.0000 C   0  0  2  0  0  0  0  0  0  0  0  0
    8.4110   -0.9770    0.0000 Cl  0  0  0  0  0  0  0  0  0  0  0  0
    9.6460    0.5040    0.0000 C   0  0  2  0  0  0  0  0  0  0  0  0
    9.3900   -0.9740    0.0000 C   0  0  0  0  0  0  0  0  0  0  0  0
   10.3910    1.8060    0.0000 C   0  0  0  0  0  0  0  0  0  0  0  0
   11.8910    1.8110    0.0000 C   0  0  0  0  0  0  0  0  0  0  0  0
   12.6460    0.5150    0.0000 C   0  0  0  0  0  0  0  0  0  0  0  0
   14.1460    0.5200    0.0000 O   0  0  0  0  0  0  0  0  0  0  0  0
   11.9000   -0.7870    0.0000 C   0  0  0  0  0  0  0  0  0  0  0  0
   10.4000   -0.7920    0.0000 C   0  0  0  0  0  0  0  0  0  0  0  0
    9.6360    3.1020    0.0000 C   0  0  0  0  0  0  0  0  0  0  0  0
    8.1360    3.0970    0.0000 C   0  0  0  0  0  0  0  0  0  0  0  0
    7.3910    1.7950    0.0000 C   0  0  1  0  0  0  0  0  0  0  0  0
  1  2  1  0  0  0  0
  2  3  1  0  0  0  0
  3  4  2  0  0  0  0
  5  3  1  1  0  0  0
  5  6  1  6  0  0  0
  5  7  1  0  0  0  0
  5 11  1  0  0  0  0
  7  8  1  6  0  0  0
  7  9  1  0  0  0  0
 10  9  1  1  0  0  0
 10 11  1  0  0  0  0
 10 28  1  0  0  0  0
 11 12  1  1  0  0  0
 11 13  1  0  0  0  0
 13 14  1  0  0  0  0
 14 15  1  1  0  0  0
 14 16  1  0  0  0  0
 16 17  1  6  0  0  0
 16 18  1  0  0  0  0
 16 28  1  0  0  0  0
 18 19  1  1  0  0  0
 18 20  1  0  0  0  0
 18 25  1  0  0  0  0
 20 21  2  0  0  0  0
 20 26  1  0  0  0  0
 21 22  1  0  0  0  0
 22 23  2  0  0  0  0
 22 24  1  0  0  0  0
 24 25  2  0  0  0  0
 26 27  1  0  0  0  0
 28 27  1  6  0  0  0
M  END
>  <name>
ClCC(=O)[C@@]1([O;ester])[C@H](C)C[C@@H]2[C@]1(C)C[C@H](O)[C@]1(Cl)[C@]3(C)C(=CC(=O)C=C3)CC[C@@H]21

>  <apo>
1

>  <freq>
1

>  <freq0>
0

>  <freq1>
1

>  <freqA>
0.99887151

>  <a_count>
56

$$$$

  MOE2015           2D

 26 29  0  0  1  0  0  0  0  0999 V2000
    8.5510   -5.8990    0.0000 O   0  0  0  0  0  0  0  0  0  0  0  0
    8.0180   -4.4970    0.0000 C   0  0  0  0  0  0  0  0  0  0  0  0
    8.9660   -3.3350    0.0000 C   0  0  0  0  0  0  0  0  0  0  0  0
   10.4470   -3.5750    0.0000 O   0  0  0  0  0  0  0  0  0  0  0  0
    6.5370   -4.2570    0.0000 C   0  0  2  0  0  0  0  0  0  0  0  0
    7.0210   -5.6770    0.0000 O   0  0  0  0  0  0  0  0  0  0  0  0
    5.0690   -4.5640    0.0000 C   0  0  2  0  0  0  0  0  0  0  0  0
    5.9250   -5.7950    0.0000 C   0  0  0  0  0  0  0  0  0  0  0  0
    4.3240   -3.2620    0.0000 C   0  0  2  0  0  0  0  0  0  0  0  0
    2.8240   -3.2570    0.0000 C   0  0  1  0  0  0  0  0  0  0  0  0
    2.0690   -4.5530    0.0000 C   0  0  2  0  0  0  0  0  0  0  0  0
    2.8140   -5.8550    0.0000 C   0  0  1  0  0  0  0  0  0  0  0  0
    2.0600   -7.1510    0.0000 O   0  0  0  0  0  0  0  0  0  0  0  0
    4.3140   -5.8600    0.0000 C   0  0  0  0  0  0  0  0  0  0  0  0
    0.5690   -4.5470    0.0000 C   0  0  2  0  0  0  0  0  0  0  0  0
    1.3140   -5.8490    0.0000 C   0  0  0  0  0  0  0  0  0  0  0  0
   -0.1760   -3.2460    0.0000 C   0  0  0  0  0  0  0  0  0  0  0  0
   -1.6760   -3.2400    0.0000 C   0  0  0  0  0  0  0  0  0  0  0  0
   -2.4310   -4.5370    0.0000 C   0  0  0  0  0  0  0  0  0  0  0  0
   -3.9310   -4.5310    0.0000 O   0  0  0  0  0  0  0  0  0  0  0  0
   -1.6860   -5.8380    0.0000 C   0  0  0  0  0  0  0  0  0  0  0  0
   -0.1860   -5.8440    0.0000 C   0  0  0  0  0  0  0  0  0  0  0  0
    0.5780   -1.9490    0.0000 C   0  0  0  0  0  0  0  0  0  0  0  0
    2.0780   -1.9550    0.0000 C   0  0  0  0  0  0  0  0  0  0  0  0
    5.3310   -2.1510    0.0000 C   0  0  0  0  0  0  0  0  0  0  0  0
    6.7000   -2.7660    0.0000 C   0  0  0  0  0  0  0  0  0  0  0  0
  1  2  2  0  0  0  0
  2  3  1  0  0  0  0
  5  2  1  6  0  0  0
  3  4  1  0  0  0  0
  5  6  1  1  0  0  0
  5  7  1  0  0  0  0
  5 26  1  0  0  0  0
  7  8  1  6  0  0  0
  7  9  1  0  0  0  0
  7 14  1  0  0  0  0
  9 10  1  0  0  0  0
  9 25  1  6  0  0  0
 10 11  1  0  0  0  0
 10 24  1  1  0  0  0
 11 12  1  0  0  0  0
 11 15  1  6  0  0  0
 12 13  1  6  0  0  0
 12 14  1  0  0  0  0
 15 16  1  6  0  0  0
 15 17  1  0  0  0  0
 15 22  1  0  0  0  0
 17 18  2  0  0  0  0
 17 23  1  0  0  0  0
 18 19  1  0  0  0  0
 19 20  2  0  0  0  0
 19 21  1  0  0  0  0
 21 22  1  0  0  0  0
 23 24  1  0  0  0  0
 25 26  1  0  0  0  0
M  END
>  <name>
O=C(C[O;ester])[C@]1([O;ester])[C@]2(C)[C@H]([C@H]3[C@H]([C@@H](O)C2)[C@]2(C)C(=CC(=O)CC2)CC3)CC1

>  <apo>
2

>  <freq>
1

>  <freq0>
0

>  <freq1>
1

>  <freqA>
0.99887151

>  <a_count>
56

$$$$

  MOE2015           2D

 32 35  0  0  1  0  0  0  0  0999 V2000
   -0.8440   -7.7130    0.0000 O   0  0  0  0  0  0  0  0  0  0  0  0
   -0.0940   -6.4140    0.0000 C   0  0  0  0  0  0  0  0  0  0  0  0
   -0.8440   -5.1150    0.0000 N   0  0  0  0  0  0  0  0  0  0  0  0
    1.4060   -6.4140    0.0000 C   0  0  0  0  0  0  0  0  0  0  0  0
    2.1560   -5.1150    0.0000 C   0  0  0  0  0  0  0  0  0  0  0  0
    1.4060   -3.8160    0.0000 O   0  0  0  0  0  0  0  0  0  0  0  0
    3.6560   -5.1150    0.0000 C   0  0  1  0  0  0  0  0  0  0  0  0
    2.9060   -3.8160    0.0000 O   0  0  0  0  0  0  0  0  0  0  0  0
    4.4060   -3.8160    0.0000 C   0  0  0  0  0  0  0  0  0  0  0  0
    3.6560   -2.5170    0.0000 O   0  0  0  0  0  0  0  0  0  0  0  0
    5.9060   -3.8160    0.0000 C   0  0  0  0  0  0  0  0  0  0  0  0
    6.6560   -2.5170    0.0000 C   0  0  0  0  0  0  0  0  0  0  0  0
    5.9060   -1.2180    0.0000 O   0  0  0  0  0  0  0  0  0  0  0  0
    8.1560   -2.5170    0.0000 C   0  0  0  0  0  0  0  0  0  0  0  0
    8.9060   -1.2180    0.0000 C   0  0  0  0  0  0  0  0  0  0  0  0
    8.1560    0.0810    0.0000 O   0  0  0  0  0  0  0  0  0  0  0  0
   10.4060   -1.2180    0.0000 C   0  0  0  0  0  0  0  0  0  0  0  0
   11.1560   -2.5170    0.0000 C   0  0  0  0  0  0  0  0  0  0  0  0
   10.4060   -3.8160    0.0000 C   0  0  0  0  0  0  0  0  0  0  0  0
   11.1560   -5.1150    0.0000 C   0  0  0  0  0  0  0  0  0  0  0  0
   12.6560   -5.1150    0.0000 N   0  0  0  0  0  0  0  0  0  0  0  0
   13.4060   -6.4140    0.0000 O   0  0  0  0  0  0  0  0  0  0  0  0
   14.9060   -6.4140    0.0000 C   0  0  0  0  0  0  0  0  0  0  0  0
   13.4060   -3.8160    0.0000 C   0  0  0  0  0  0  0  0  0  0  0  0
    8.9060   -3.8160    0.0000 C   0  0  0  0  0  0  0  0  0  0  0  0
    8.1560   -5.1150    0.0000 C   0  0  0  0  0  0  0  0  0  0  0  0
    6.6560   -5.1150    0.0000 C   0  0  1  0  0  0  0  0  0  0  0  0
    5.9060   -6.4140    0.0000 C   0  0  0  0  0  0  0  0  0  0  0  0
    4.4060   -6.4140    0.0000 C   0  0  1  0  0  0  0  0  0  0  0  0
    3.6560   -7.7130    0.0000 C   0  0  0  0  0  0  0  0  0  0  0  0
    2.1560   -7.7130    0.0000 C   0  0  0  0  0  0  0  0  0  0  0  0
    1.4060   -9.0120    0.0000 O   0  0  0  0  0  0  0  0  0  0  0  0
  1  2  2  0  0  0  0
  2  3  1  0  0  0  0
  2  4  1  0  0  0  0
  4  5  1  0  0  0  0
  4 31  2  0  0  0  0
  5  6  2  0  0  0  0
  5  7  1  0  0  0  0
  7  8  1  6  0  0  0
  7  9  1  0  0  0  0
  7 29  1  0  0  0  0
  9 10  1  0  0  0  0
  9 11  2  0  0  0  0
 11 12  1  0  0  0  0
 27 11  1  1  0  0  0
 12 13  2  0  0  0  0
 12 14  1  0  0  0  0
 14 15  1  0  0  0  0
 14 25  2  0  0  0  0
 15 16  1  0  0  0  0
 15 17  2  0  0  0  0
 17 18  1  0  0  0  0
 18 19  2  0  0  0  0
 19 20  1  0  0  0  0
 19 25  1  0  0  0  0
 20 21  1  0  0  0  0
 21 22  1  0  0  0  0
 21 24  1  0  0  0  0
 22 23  1  0  0  0  0
 25 26  1  0  0  0  0
 26 27  1  0  0  0  0
 27 28  1  0  0  0  0
 28 29  1  0  0  0  0
 29 30  1  1  0  0  0
 30 31  1  0  0  0  0
 31 32  1  0  0  0  0
M  END
>  <name>
O=C(N)C=1C(=O)[C@@]2(O)C(O)=C3C(=O)c4c(O)ccc(CN(OC)C)c4C[C@H]3C[C@H]2[C;amine]C=1O

>  <apo>
1

>  <freq>
1

>  <freq0>
0

>  <freq1>
1

>  <freqA>
0.99887151

>  <a_count>
56

$$$$

  MOE2015           2D

 29 31  0  0  1  0  0  0  0  0999 V2000
   -0.1060    0.0280    0.0000 O   0  0  0  0  0  0  0  0  0  0  0  0
   -1.4050    0.7780    0.0000 C   0  0  0  0  0  0  0  0  0  0  0  0
   -2.7040    0.0280    0.0000 O   0  0  0  0  0  0  0  0  0  0  0  0
   -2.7040   -1.4720    0.0000 C   0  0  0  0  0  0  0  0  0  0  0  0
   -4.0030   -2.2220    0.0000 C   0  0  0  0  0  0  0  0  0  0  0  0
   -5.3730   -1.6120    0.0000 S   0  0  0  0  0  0  0  0  0  0  0  0
   -6.3770   -2.7260    0.0000 C   0  0  0  0  0  0  0  0  0  0  0  0
   -5.6270   -4.0250    0.0000 N   0  0  0  0  0  0  0  0  0  0  0  0
   -4.1600   -3.7130    0.0000 C   0  0  0  0  0  0  0  0  0  0  0  0
   -1.4050    2.2780    0.0000 N   0  0  0  0  0  0  0  0  0  0  0  0
   -0.1060    3.0280    0.0000 C   0  0  2  0  0  0  0  0  0  0  0  0
    1.1930    2.2780    0.0000 C   0  0  0  0  0  0  0  0  0  0  0  0
    2.4920    3.0280    0.0000 C   0  0  0  0  0  0  0  0  0  0  0  0
    3.7910    2.2780    0.0000 C   0  0  1  0  0  0  0  0  0  0  0  0
    3.7910    0.7780    0.0000 N   0  0  0  0  0  0  0  0  0  0  0  0
    5.0900    3.0280    0.0000 C   0  0  0  0  0  0  0  0  0  0  0  0
    6.3890    2.2780    0.0000 C   0  0  0  0  0  0  0  0  0  0  0  0
    7.6880    3.0280    0.0000 C   0  0  0  0  0  0  0  0  0  0  0  0
    8.9870    2.2780    0.0000 C   0  0  0  0  0  0  0  0  0  0  0  0
    8.9870    0.7780    0.0000 C   0  0  0  0  0  0  0  0  0  0  0  0
    7.6880    0.0280    0.0000 C   0  0  0  0  0  0  0  0  0  0  0  0
    6.3890    0.7780    0.0000 C   0  0  0  0  0  0  0  0  0  0  0  0
   -0.1060    4.5280    0.0000 C   0  0  0  0  0  0  0  0  0  0  0  0
   -1.4050    5.2780    0.0000 C   0  0  0  0  0  0  0  0  0  0  0  0
   -1.4050    6.7780    0.0000 C   0  0  0  0  0  0  0  0  0  0  0  0
   -2.7040    7.5280    0.0000 C   0  0  0  0  0  0  0  0  0  0  0  0
   -4.0030    6.7780    0.0000 C   0  0  0  0  0  0  0  0  0  0  0  0
   -4.0030    5.2780    0.0000 C   0  0  0  0  0  0  0  0  0  0  0  0
   -2.7040    4.5280    0.0000 C   0  0  0  0  0  0  0  0  0  0  0  0
  1  2  2  0  0  0  0
  2  3  1  0  0  0  0
  2 10  1  0  0  0  0
  3  4  1  0  0  0  0
  4  5  1  0  0  0  0
  5  6  1  0  0  0  0
  5  9  2  0  0  0  0
  6  7  1  0  0  0  0
  7  8  2  0  0  0  0
  8  9  1  0  0  0  0
 11 10  1  1  0  0  0
 11 12  1  0  0  0  0
 11 23  1  0  0  0  0
 12 13  1  0  0  0  0
 13 14  1  0  0  0  0
 14 15  1  6  0  0  0
 14 16  1  0  0  0  0
 16 17  1  0  0  0  0
 17 18  1  0  0  0  0
 17 22  2  0  0  0  0
 18 19  2  0  0  0  0
 19 20  1  0  0  0  0
 20 21  2  0  0  0  0
 21 22  1  0  0  0  0
 23 24  1  0  0  0  0
 24 25  1  0  0  0  0
 24 29  2  0  0  0  0
 25 26  2  0  0  0  0
 26 27  1  0  0  0  0
 27 28  2  0  0  0  0
 28 29  1  0  0  0  0
M  END
>  <name>
O=C(OCc1scnc1)N[C@H](CC[C@@H]([N;amide])Cc1ccccc1)Cc1ccccc1

>  <apo>
1

>  <freq>
1

>  <freq0>
0

>  <freq1>
1

>  <freqA>
0.99887151

>  <a_count>
56

$$$$

  MOE2015           2D

 29 32  0  0  1  0  0  0  0  0999 V2000
   -4.0600   -7.4370    0.0000 O   0  0  0  0  0  0  0  0  0  0  0  0
   -4.5060   -6.0050    0.0000 C   0  0  0  0  0  0  0  0  0  0  0  0
   -5.9260   -5.5240    0.0000 N   0  0  0  0  0  0  0  0  0  0  0  0
   -7.1510   -6.3900    0.0000 C   0  0  3  0  0  0  0  0  0  0  0  0
   -8.5130   -5.7620    0.0000 C   0  0  0  0  0  0  0  0  0  0  0  0
   -9.7380   -6.6290    0.0000 C   0  0  0  0  0  0  0  0  0  0  0  0
   -7.0130   -7.8830    0.0000 C   0  0  0  0  0  0  0  0  0  0  0  0
   -5.9070   -4.0240    0.0000 N   0  0  0  0  0  0  0  0  0  0  0  0
   -4.4750   -3.5780    0.0000 C   0  0  0  0  0  0  0  0  0  0  0  0
   -3.6090   -4.8030    0.0000 N   0  0  0  0  0  0  0  0  0  0  0  0
   -2.1090   -4.8220    0.0000 C   0  0  0  0  0  0  0  0  0  0  0  0
   -1.3420   -3.5320    0.0000 C   0  0  0  0  0  0  0  0  0  0  0  0
    0.1580   -3.5510    0.0000 C   0  0  0  0  0  0  0  0  0  0  0  0
    0.8910   -4.8600    0.0000 C   0  0  0  0  0  0  0  0  0  0  0  0
    2.3910   -4.8790    0.0000 N   0  0  0  0  0  0  0  0  0  0  0  0
    3.1240   -6.1870    0.0000 C   0  0  0  0  0  0  0  0  0  0  0  0
    4.6240   -6.2060    0.0000 C   0  0  0  0  0  0  0  0  0  0  0  0
    5.3910   -4.9170    0.0000 N   0  0  0  0  0  0  0  0  0  0  0  0
    6.8910   -4.9360    0.0000 C   0  0  0  0  0  0  0  0  0  0  0  0
    7.6240   -6.2440    0.0000 C   0  0  0  0  0  0  0  0  0  0  0  0
    9.1240   -6.2630    0.0000 C   0  0  0  0  0  0  0  0  0  0  0  0
    9.8900   -4.9740    0.0000 C   0  0  0  0  0  0  0  0  0  0  0  0
   11.3900   -4.9930    0.0000 O   0  0  0  0  0  0  0  0  0  0  0  0
    9.1570   -3.6650    0.0000 C   0  0  0  0  0  0  0  0  0  0  0  0
    7.6570   -3.6460    0.0000 C   0  0  0  0  0  0  0  0  0  0  0  0
    4.6570   -3.6080    0.0000 C   0  0  0  0  0  0  0  0  0  0  0  0
    3.1570   -3.5890    0.0000 C   0  0  0  0  0  0  0  0  0  0  0  0
    0.1250   -6.1490    0.0000 C   0  0  0  0  0  0  0  0  0  0  0  0
   -1.3750   -6.1300    0.0000 C   0  0  0  0  0  0  0  0  0  0  0  0
  1  2  2  0  0  0  0
  2  3  1  0  0  0  0
  2 10  1  0  0  0  0
  3  4  1  0  0  0  0
  3  8  1  0  0  0  0
  4  5  1  0  0  0  0
  4  7  1  0  0  0  0
  5  6  1  0  0  0  0
  8  9  2  0  0  0  0
  9 10  1  0  0  0  0
 10 11  1  0  0  0  0
 11 12  1  0  0  0  0
 11 29  2  0  0  0  0
 12 13  2  0  0  0  0
 13 14  1  0  0  0  0
 14 15  1  0  0  0  0
 14 28  2  0  0  0  0
 15 16  1  0  0  0  0
 15 27  1  0  0  0  0
 16 17  1  0  0  0  0
 17 18  1  0  0  0  0
 18 19  1  0  0  0  0
 18 26  1  0  0  0  0
 19 20  1  0  0  0  0
 19 25  2  0  0  0  0
 20 21  2  0  0  0  0
 21 22  1  0  0  0  0
 22 23  1  0  0  0  0
 22 24  2  0  0  0  0
 24 25  1  0  0  0  0
 26 27  1  0  0  0  0
 28 29  1  0  0  0  0
M  END
>  <name>
O=C1N(C(CC)C)N=CN1c1ccc(N2CCN(c3ccc([O;ether])cc3)CC2)cc1

>  <apo>
1

>  <freq>
1

>  <freq0>
0

>  <freq1>
1

>  <freqA>
0.99887151

>  <a_count>
56

$$$$

  MOE2015           2D

 26 29  0  0  1  0  0  0  0  0999 V2000
    2.9090    2.3830    0.0000 O   0  0  0  0  0  0  0  0  0  0  0  0
    3.6170    1.0610    0.0000 C   0  0  0  0  0  0  0  0  0  0  0  0
    2.7810   -0.0800    0.0000 C   0  0  2  0  0  0  0  0  0  0  0  0
    1.2810   -0.1150    0.0000 C   0  0  0  0  0  0  0  0  0  0  0  0
    2.0960   -1.3190    0.0000 C   0  0  2  0  0  0  0  0  0  0  0  0
    2.6890   -2.7760    0.0000 C   0  0  2  0  0  0  0  0  0  0  0  0
    1.9280   -4.0690    0.0000 O   0  0  0  0  0  0  0  0  0  0  0  0
    4.3110   -2.5820    0.0000 C   0  0  1  0  0  0  0  0  0  0  0  0
    3.9570   -4.0390    0.0000 O   0  0  0  0  0  0  0  0  0  0  0  0
    4.4020   -1.1170    0.0000 C   0  0  0  0  0  0  0  0  0  0  0  0
    5.8230   -1.5980    0.0000 C   0  0  0  0  0  0  0  0  0  0  0  0
    5.3930   -2.2430    0.0000 C   0  0  0  0  0  0  0  0  0  0  0  0
    5.6930   -0.4210    0.0000 C   0  0  0  0  0  0  0  0  0  0  0  0
    6.9080   -1.2300    0.0000 C   0  0  0  0  0  0  0  0  0  0  0  0
    8.2460   -0.5510    0.0000 C   0  0  0  0  0  0  0  0  0  0  0  0
    6.8440   -2.6820    0.0000 C   0  0  1  0  0  0  0  0  0  0  0  0
    8.1070   -3.4910    0.0000 O   0  0  0  0  0  0  0  0  0  0  0  0
    5.5520   -3.3470    0.0000 C   0  0  0  0  0  0  0  0  0  0  0  0
    5.1900    1.1310    0.0000 C   0  0  0  0  0  0  0  0  0  0  0  0
    0.6080   -1.4010    0.0000 C   0  0  1  0  0  0  0  0  0  0  0  0
    1.0310   -2.8400    0.0000 O   0  0  0  0  0  0  0  0  0  0  0  0
   -0.1990   -0.1350    0.0000 C   0  0  2  0  0  0  0  0  0  0  0  0
   -1.4620   -0.9400    0.0000 O   0  0  0  0  0  0  0  0  0  0  0  0
   -0.6580   -2.2050    0.0000 C   0  0  0  0  0  0  0  0  0  0  0  0
    0.4950    1.1950    0.0000 C   0  0  0  0  0  0  0  0  0  0  0  0
    1.9940    1.2590    0.0000 C   0  0  0  0  0  0  0  0  0  0  0  0
  1  2  2  0  0  0  0
  2  3  1  0  0  0  0
  2 19  1  0  0  0  0
  3  4  1  1  0  0  0
  5  3  1  6  0  0  0
  3 26  1  0  0  0  0
  5  6  1  0  0  0  0
  5 20  1  0  0  0  0
  6  7  1  1  0  0  0
  6  8  1  0  0  0  0
  8  9  1  6  0  0  0
  8 10  1  0  0  0  0
  8 18  1  0  0  0  0
 10 11  1  0  0  0  0
 10 12  1  0  0  0  0
 10 13  1  0  0  0  0
 13 14  2  0  0  0  0
 13 19  1  0  0  0  0
 14 15  1  0  0  0  0
 14 16  1  0  0  0  0
 16 17  1  1  0  0  0
 16 18  1  0  0  0  0
 20 21  1  1  0  0  0
 20 22  1  0  0  0  0
 20 24  1  0  0  0  0
 22 23  1  6  0  0  0
 22 25  1  0  0  0  0
 23 24  1  0  0  0  0
 25 26  1  0  0  0  0
M  END
>  <name>
O=C1[C@]2(C)[C@H]([C@H]([O;ester])[C@@]3(O)C(C)(C)C(=C(C)[C@@H]([O;ester])C3)[C;ether]1)[C@@]1([O;ester])[C@H](OC1)C[C;ether]2

>  <apo>
5

>  <freq>
1

>  <freq0>
0

>  <freq1>
1

>  <freqA>
0.99887151

>  <a_count>
56

$$$$

  MOE2015           2D

 24 26  0  0  1  0  0  0  0  0999 V2000
    4.8150   -5.9100    0.0000 O   0  0  0  0  0  0  0  0  0  0  0  0
    5.1180   -4.4410    0.0000 C   0  0  1  0  0  0  0  0  0  0  0  0
    6.5420   -3.9690    0.0000 C   0  0  0  0  0  0  0  0  0  0  0  0
    7.6620   -4.9660    0.0000 C   0  0  0  0  0  0  0  0  0  0  0  0
    9.0860   -4.4940    0.0000 C   0  0  0  0  0  0  0  0  0  0  0  0
   10.2070   -5.4910    0.0000 C   0  0  0  0  0  0  0  0  0  0  0  0
   11.6310   -5.0190    0.0000 C   0  0  0  0  0  0  0  0  0  0  0  0
    3.9970   -3.4440    0.0000 C   0  0  0  0  0  0  0  0  0  0  0  0
    2.5730   -3.9160    0.0000 C   0  0  0  0  0  0  0  0  0  0  0  0
    1.4530   -2.9180    0.0000 C   0  0  1  0  0  0  0  0  0  0  0  0
    1.6010   -1.4260    0.0000 C   0  0  2  0  0  0  0  0  0  0  0  0
    2.8950   -0.6680    0.0000 O   0  0  0  0  0  0  0  0  0  0  0  0
    0.2270   -0.8240    0.0000 C   0  0  0  0  0  0  0  0  0  0  0  0
   -0.7700   -1.9450    0.0000 C   0  0  1  0  0  0  0  0  0  0  0  0
   -0.0130   -3.2390    0.0000 C   0  0  2  0  0  0  0  0  0  0  0  0
   -0.7550   -4.5430    0.0000 C   0  0  0  0  0  0  0  0  0  0  0  0
   -2.2550   -4.5510    0.0000 C   0  0  0  0  0  0  0  0  0  0  0  0
   -3.0130   -3.2570    0.0000 C   0  0  0  0  0  0  0  0  0  0  0  0
   -4.5130   -3.2660    0.0000 C   0  0  0  0  0  0  0  0  0  0  0  0
   -5.2700   -1.9710    0.0000 O   0  0  0  0  0  0  0  0  0  0  0  0
   -5.2550   -4.5690    0.0000 C   0  0  0  0  0  0  0  0  0  0  0  0
   -4.4970   -5.8640    0.0000 C   0  0  0  0  0  0  0  0  0  0  0  0
   -2.9970   -5.8550    0.0000 C   0  0  0  0  0  0  0  0  0  0  0  0
   -2.2700   -1.9530    0.0000 C   0  0  0  0  0  0  0  0  0  0  0  0
  2  1  1  6  0  0  0
  2  3  1  0  0  0  0
  2  8  1  0  0  0  0
  3  4  1  0  0  0  0
  4  5  1  0  0  0  0
  5  6  1  0  0  0  0
  6  7  1  0  0  0  0
  8  9  1  0  0  0  0
 10  9  1  6  0  0  0
 10 11  1  0  0  0  0
 10 15  1  0  0  0  0
 11 12  1  1  0  0  0
 11 13  1  0  0  0  0
 13 14  1  0  0  0  0
 14 15  1  0  0  0  0
 14 24  1  1  0  0  0
 15 16  1  1  0  0  0
 16 17  1  0  0  0  0
 17 18  2  0  0  0  0
 17 23  1  0  0  0  0
 18 19  1  0  0  0  0
 18 24  1  0  0  0  0
 19 20  1  0  0  0  0
 19 21  2  0  0  0  0
 21 22  1  0  0  0  0
 22 23  2  0  0  0  0
M  END
>  <name>
O[C@@H](CCCCC)CC[C@H]1[C@H](O)C[C@H]2[C@@H]1Cc1c(c([O;ether])ccc1)C2

>  <apo>
1

>  <freq>
1

>  <freq0>
0

>  <freq1>
1

>  <freqA>
0.99887151

>  <a_count>
56

$$$$

  MOE2015           2D

 18 17  0  0  1  0  0  0  0  0999 V2000
   -0.2480   -0.9270    0.0000 C   0  0  1  0  0  0  0  0  0  0  0  0
    1.0510   -1.6770    0.0000 C   0  0  0  0  0  0  0  0  0  0  0  0
    2.3500   -0.9270    0.0000 C   0  0  0  0  0  0  0  0  0  0  0  0
    3.6490   -1.6770    0.0000 C   0  0  0  0  0  0  0  0  0  0  0  0
    4.9480   -0.9270    0.0000 C   0  0  1  0  0  0  0  0  0  0  0  0
    6.2470   -1.6770    0.0000 C   0  0  0  0  0  0  0  0  0  0  0  0
    7.5460   -0.9270    0.0000 C   0  0  0  0  0  0  0  0  0  0  0  0
    8.8450   -1.6770    0.0000 C   0  0  0  0  0  0  0  0  0  0  0  0
   10.1440   -0.9270    0.0000 C   0  0  0  0  0  0  0  0  0  0  0  0
   11.4430   -1.6770    0.0000 C   0  0  0  0  0  0  0  0  0  0  0  0
    4.9480    0.5730    0.0000 C   0  0  0  0  0  0  0  0  0  0  0  0
   -1.5470   -1.6770    0.0000 C   0  0  0  0  0  0  0  0  0  0  0  0
   -2.8460   -0.9270    0.0000 C   0  0  0  0  0  0  0  0  0  0  0  0
   -4.1460   -1.6770    0.0000 C   0  0  0  0  0  0  0  0  0  0  0  0
   -5.4450   -0.9270    0.0000 C   0  0  0  0  0  0  0  0  0  0  0  0
   -6.7440   -1.6770    0.0000 C   0  0  0  0  0  0  0  0  0  0  0  0
   -5.4450    0.5730    0.0000 C   0  0  0  0  0  0  0  0  0  0  0  0
   -0.2480    0.5730    0.0000 C   0  0  0  0  0  0  0  0  0  0  0  0
  1  2  1  0  0  0  0
  1 12  1  0  0  0  0
  1 18  1  1  0  0  0
  2  3  1  0  0  0  0
  3  4  1  0  0  0  0
  4  5  1  0  0  0  0
  5  6  1  0  0  0  0
  5 11  1  6  0  0  0
  6  7  1  0  0  0  0
  7  8  1  0  0  0  0
  8  9  1  0  0  0  0
  9 10  1  0  0  0  0
 12 13  1  0  0  0  0
 13 14  1  0  0  0  0
 14 15  1  0  0  0  0
 15 16  1  0  0  0  0
 15 17  1  0  0  0  0
M  END
>  <name>
[C@H](CCC[C@@H](CCC[C;olefin]C)C)(CCCC(C)C)C

>  <apo>
1

>  <freq>
1

>  <freq0>
0

>  <freq1>
1

>  <freqA>
0.99887151

>  <a_count>
56

$$$$

  MOE2015           2D

 26 30  0  0  1  0  0  0  0  0999 V2000
    3.2770    5.6850    0.0000 S   0  0  0  0  0  0  0  0  0  0  0  0
    4.0290    4.3860    0.0000 C   0  0  1  0  0  0  0  0  0  0  0  0
    3.2800    3.0870    0.0000 C   0  0  1  0  0  0  0  0  0  0  0  0
    1.7800    3.0850    0.0000 C   0  0  1  0  0  0  0  0  0  0  0  0
    1.0320    1.7850    0.0000 C   0  0  1  0  0  0  0  0  0  0  0  0
    2.5320    1.7870    0.0000 C   0  0  0  0  0  0  0  0  0  0  0  0
   -0.4350    2.0950    0.0000 C   0  0  2  0  0  0  0  0  0  0  0  0
   -0.5380    0.5980    0.0000 O   0  0  0  0  0  0  0  0  0  0  0  0
   -1.9930    0.2330    0.0000 C   0  0  0  0  0  0  0  0  0  0  0  0
   -2.5530   -1.1580    0.0000 O   0  0  0  0  0  0  0  0  0  0  0  0
   -2.7900    1.5050    0.0000 C   0  0  0  0  0  0  0  0  0  0  0  0
   -1.8270    2.6550    0.0000 C   0  0  0  0  0  0  0  0  0  0  0  0
   -0.5940    3.5860    0.0000 C   0  0  0  0  0  0  0  0  0  0  0  0
    0.7750    4.1980    0.0000 C   0  0  0  0  0  0  0  0  0  0  0  0
    1.7840    0.4870    0.0000 C   0  0  0  0  0  0  0  0  0  0  0  0
    3.2840    0.4880    0.0000 C   0  0  0  0  0  0  0  0  0  0  0  0
    4.0320    1.7880    0.0000 C   0  0  2  0  0  0  0  0  0  0  0  0
    5.5320    1.7900    0.0000 C   0  0  2  0  0  0  0  0  0  0  0  0
    4.7840    0.4900    0.0000 C   0  0  0  0  0  0  0  0  0  0  0  0
    6.2800    3.0900    0.0000 C   0  0  0  0  0  0  0  0  0  0  0  0
    7.7800    3.0920    0.0000 C   0  0  0  0  0  0  0  0  0  0  0  0
    8.5320    1.7940    0.0000 C   0  0  0  0  0  0  0  0  0  0  0  0
   10.0320    1.7960    0.0000 O   0  0  0  0  0  0  0  0  0  0  0  0
    7.7840    0.4940    0.0000 C   0  0  0  0  0  0  0  0  0  0  0  0
    6.2840    0.4920    0.0000 C   0  0  0  0  0  0  0  0  0  0  0  0
    5.5290    4.3880    0.0000 C   0  0  0  0  0  0  0  0  0  0  0  0
  2  1  1  6  0  0  0
  3  2  1  6  0  0  0
  2 26  1  0  0  0  0
  3  4  1  0  0  0  0
  3 17  1  0  0  0  0
  4  5  1  0  0  0  0
  4 14  1  1  0  0  0
  5  6  1  1  0  0  0
  7  5  1  6  0  0  0
  5 15  1  0  0  0  0
  7  8  1  0  0  0  0
  7 12  1  0  0  0  0
  7 13  1  1  0  0  0
  8  9  1  0  0  0  0
  9 10  2  0  0  0  0
  9 11  1  0  0  0  0
 11 12  1  0  0  0  0
 13 14  1  0  0  0  0
 15 16  1  0  0  0  0
 17 16  1  1  0  0  0
 17 18  1  0  0  0  0
 18 19  1  1  0  0  0
 18 20  1  0  0  0  0
 18 25  1  0  0  0  0
 20 21  2  0  0  0  0
 20 26  1  0  0  0  0
 21 22  1  0  0  0  0
 22 23  2  0  0  0  0
 22 24  1  0  0  0  0
 24 25  1  0  0  0  0
M  END
>  <name>
[S;thioester][C@H]1[C@H]2[C@H]3[C@@](C)([C@@]4(OC(=O)CC4)CC3)CC[C@@H]2[C@]2(C)C(=CC(=O)CC2)C1

>  <apo>
1

>  <freq>
1

>  <freq0>
0

>  <freq1>
1

>  <freqA>
0.99887151

>  <a_count>
56

$$$$

  MOE2015           2D

 34 38  0  0  0  0  0  0  0  0999 V2000
   16.1030   -4.3150    0.0000 I   0  0  0  0  0  0  0  0  0  0  0  0
   14.8040   -3.5650    0.0000 C   0  0  0  0  0  0  0  0  0  0  0  0
   14.8040   -2.0650    0.0000 C   0  0  0  0  0  0  0  0  0  0  0  0
   13.5050   -1.3150    0.0000 C   0  0  0  0  0  0  0  0  0  0  0  0
   13.5050    0.1850    0.0000 F   0  0  0  0  0  0  0  0  0  0  0  0
   12.2060   -2.0650    0.0000 C   0  0  0  0  0  0  0  0  0  0  0  0
   10.9070   -1.3150    0.0000 N   0  0  0  0  0  0  0  0  0  0  0  0
    9.6080   -2.0650    0.0000 C   0  0  0  0  0  0  0  0  0  0  0  0
    9.6080   -3.5650    0.0000 N   0  0  0  0  0  0  0  0  0  0  0  0
   10.9070   -4.3150    0.0000 C   0  0  0  0  0  0  0  0  0  0  0  0
    8.3090   -4.3150    0.0000 C   0  0  0  0  0  0  0  0  0  0  0  0
    8.3090   -5.8150    0.0000 O   0  0  0  0  0  0  0  0  0  0  0  0
    7.0100   -3.5650    0.0000 C   0  0  0  0  0  0  0  0  0  0  0  0
    5.7110   -4.3150    0.0000 C   0  0  0  0  0  0  0  0  0  0  0  0
    7.0100   -2.0650    0.0000 C   0  0  0  0  0  0  0  0  0  0  0  0
    5.7110   -1.3150    0.0000 N   0  0  0  0  0  0  0  0  0  0  0  0
    4.4120   -2.0650    0.0000 C   0  0  0  0  0  0  0  0  0  0  0  0
    3.1130   -1.3150    0.0000 C   0  0  0  0  0  0  0  0  0  0  0  0
    1.8130   -2.0650    0.0000 C   0  0  0  0  0  0  0  0  0  0  0  0
    0.5140   -1.3150    0.0000 N   0  0  0  0  0  0  0  0  0  0  0  0
    1.8130   -3.5650    0.0000 C   0  0  0  0  0  0  0  0  0  0  0  0
    3.1130   -4.3150    0.0000 C   0  0  0  0  0  0  0  0  0  0  0  0
    4.4120   -3.5650    0.0000 C   0  0  0  0  0  0  0  0  0  0  0  0
    5.7110    0.1850    0.0000 C   0  0  0  0  0  0  0  0  0  0  0  0
    4.4120    0.9350    0.0000 O   0  0  0  0  0  0  0  0  0  0  0  0
    7.0100    0.9350    0.0000 N   0  0  0  0  0  0  0  0  0  0  0  0
    8.3090    0.1850    0.0000 C   0  0  0  0  0  0  0  0  0  0  0  0
    9.6080    0.9350    0.0000 O   0  0  0  0  0  0  0  0  0  0  0  0
    8.3090   -1.3150    0.0000 C   0  0  0  0  0  0  0  0  0  0  0  0
    7.0100    2.4350    0.0000 C   0  0  0  0  0  0  0  0  0  0  0  0
    6.2600    3.7340    0.0000 C   0  0  0  0  0  0  0  0  0  0  0  0
    7.7600    3.7340    0.0000 C   0  0  0  0  0  0  0  0  0  0  0  0
   12.2060   -3.5650    0.0000 C   0  0  0  0  0  0  0  0  0  0  0  0
   13.5050   -4.3150    0.0000 C   0  0  0  0  0  0  0  0  0  0  0  0
  1  2  1  0  0  0  0
  2  3  1  0  0  0  0
  2 34  2  0  0  0  0
  3  4  2  0  0  0  0
  4  5  1  0  0  0  0
  4  6  1  0  0  0  0
  6  7  1  0  0  0  0
  6 33  2  0  0  0  0
  7  8  1  0  0  0  0
  8  9  1  0  0  0  0
  8 29  2  0  0  0  0
  9 10  1  0  0  0  0
  9 11  1  0  0  0  0
 11 12  2  0  0  0  0
 11 13  1  0  0  0  0
 13 14  1  0  0  0  0
 13 15  2  0  0  0  0
 15 16  1  0  0  0  0
 15 29  1  0  0  0  0
 16 17  1  0  0  0  0
 16 24  1  0  0  0  0
 17 18  1  0  0  0  0
 17 23  2  0  0  0  0
 18 19  2  0  0  0  0
 19 20  1  0  0  0  0
 19 21  1  0  0  0  0
 21 22  2  0  0  0  0
 22 23  1  0  0  0  0
 24 25  2  0  0  0  0
 24 26  1  0  0  0  0
 26 27  1  0  0  0  0
 26 30  1  0  0  0  0
 27 28  2  0  0  0  0
 27 29  1  0  0  0  0
 30 31  1  0  0  0  0
 30 32  1  0  0  0  0
 31 32  1  0  0  0  0
 33 34  1  0  0  0  0
M  END
>  <name>
Ic1cc(F)c(NC=2N(C)C(=O)C(C)=C3N(c4cc([N;amide])ccc4)C(=O)N(C(=O)C=23)C2CC2)cc1

>  <apo>
1

>  <freq>
1

>  <freq0>
0

>  <freq1>
1

>  <freqA>
0.99887151

>  <a_count>
55

$$$$

  MOE2015           2D

 25 28  0  0  1  0  0  0  0  0999 V2000
   -1.5910    4.9950    0.0000 O   0  0  0  0  0  0  0  0  0  0  0  0
   -0.6430    3.8330    0.0000 C   0  0  0  0  0  0  0  0  0  0  0  0
   -1.1760    2.4310    0.0000 C   0  0  0  0  0  0  0  0  0  0  0  0
    0.8380    4.0730    0.0000 C   0  0  2  0  0  0  0  0  0  0  0  0
    0.3540    2.6530    0.0000 O   0  0  0  0  0  0  0  0  0  0  0  0
    2.3060    3.7660    0.0000 C   0  0  2  0  0  0  0  0  0  0  0  0
    1.4500    2.5340    0.0000 C   0  0  0  0  0  0  0  0  0  0  0  0
    3.0510    5.0680    0.0000 C   0  0  2  0  0  0  0  0  0  0  0  0
    4.5510    5.0730    0.0000 C   0  0  1  0  0  0  0  0  0  0  0  0
    5.3060    3.7770    0.0000 C   0  0  1  0  0  0  0  0  0  0  0  0
    6.8060    3.7820    0.0000 C   0  0  2  0  0  0  0  0  0  0  0  0
    6.0610    2.4810    0.0000 C   0  0  0  0  0  0  0  0  0  0  0  0
    7.5510    5.0840    0.0000 C   0  0  0  0  0  0  0  0  0  0  0  0
    6.7970    6.3800    0.0000 C   0  0  0  0  0  0  0  0  0  0  0  0
    7.5420    7.6820    0.0000 C   0  0  0  0  0  0  0  0  0  0  0  0
    5.2970    6.3750    0.0000 C   0  0  0  0  0  0  0  0  0  0  0  0
    9.0510    5.0890    0.0000 C   0  0  0  0  0  0  0  0  0  0  0  0
    9.8060    3.7930    0.0000 C   0  0  0  0  0  0  0  0  0  0  0  0
   11.3060    3.7980    0.0000 O   0  0  0  0  0  0  0  0  0  0  0  0
    9.0610    2.4910    0.0000 C   0  0  0  0  0  0  0  0  0  0  0  0
    7.5610    2.4860    0.0000 C   0  0  0  0  0  0  0  0  0  0  0  0
    4.5610    2.4750    0.0000 C   0  0  0  0  0  0  0  0  0  0  0  0
    3.0610    2.4700    0.0000 C   0  0  0  0  0  0  0  0  0  0  0  0
    2.0440    6.1790    0.0000 C   0  0  0  0  0  0  0  0  0  0  0  0
    0.6750    5.5640    0.0000 C   0  0  0  0  0  0  0  0  0  0  0  0
  1  2  2  0  0  0  0
  2  3  1  0  0  0  0
  4  2  1  1  0  0  0
  4  5  1  6  0  0  0
  4  6  1  0  0  0  0
  4 25  1  0  0  0  0
  6  7  1  1  0  0  0
  6  8  1  0  0  0  0
  6 23  1  0  0  0  0
  8  9  1  0  0  0  0
  8 24  1  1  0  0  0
  9 10  1  0  0  0  0
  9 16  1  6  0  0  0
 10 11  1  0  0  0  0
 10 22  1  1  0  0  0
 11 12  1  1  0  0  0
 11 13  1  0  0  0  0
 11 21  1  0  0  0  0
 13 14  1  0  0  0  0
 13 17  2  0  0  0  0
 14 15  1  0  0  0  0
 14 16  2  0  0  0  0
 17 18  1  0  0  0  0
 18 19  2  0  0  0  0
 18 20  1  0  0  0  0
 20 21  1  0  0  0  0
 22 23  1  0  0  0  0
 24 25  1  0  0  0  0
M  END
>  <name>
O=C(C)[C@]1([O;ester])[C@]2(C)[C@H]([C@H]3[C@@H]([C@]4(C)C(C(C)=C3)=CC(=O)CC4)CC2)CC1

>  <apo>
1

>  <freq>
1

>  <freq0>
0

>  <freq1>
1

>  <freqA>
0.99887151

>  <a_count>
55

$$$$

  MOE2015           2D

 25 28  0  0  1  0  0  0  0  0999 V2000
   -1.8440   -5.9260    0.0000 O   0  0  0  0  0  0  0  0  0  0  0  0
   -1.3120   -4.5230    0.0000 C   0  0  0  0  0  0  0  0  0  0  0  0
   -2.2600   -3.3610    0.0000 C   0  0  0  0  0  0  0  0  0  0  0  0
   -3.7410   -3.6010    0.0000 O   0  0  0  0  0  0  0  0  0  0  0  0
    0.1690   -4.2830    0.0000 C   0  0  2  0  0  0  0  0  0  0  0  0
   -0.3140   -5.7030    0.0000 O   0  0  0  0  0  0  0  0  0  0  0  0
    1.6370   -4.5890    0.0000 C   0  0  2  0  0  0  0  0  0  0  0  0
    0.7810   -5.8210    0.0000 C   0  0  0  0  0  0  0  0  0  0  0  0
    2.3820   -3.2880    0.0000 C   0  0  2  0  0  0  0  0  0  0  0  0
    3.8820   -3.2820    0.0000 C   0  0  1  0  0  0  0  0  0  0  0  0
    4.6370   -4.5780    0.0000 C   0  0  1  0  0  0  0  0  0  0  0  0
    6.1370   -4.5720    0.0000 C   0  0  2  0  0  0  0  0  0  0  0  0
    5.3920   -5.8740    0.0000 C   0  0  0  0  0  0  0  0  0  0  0  0
    6.8820   -3.2710    0.0000 C   0  0  0  0  0  0  0  0  0  0  0  0
    8.3820   -3.2650    0.0000 C   0  0  0  0  0  0  0  0  0  0  0  0
    9.1370   -4.5610    0.0000 C   0  0  0  0  0  0  0  0  0  0  0  0
   10.6370   -4.5560    0.0000 O   0  0  0  0  0  0  0  0  0  0  0  0
    8.3920   -5.8630    0.0000 C   0  0  0  0  0  0  0  0  0  0  0  0
    6.8920   -5.8690    0.0000 C   0  0  0  0  0  0  0  0  0  0  0  0
    6.1270   -1.9740    0.0000 C   0  0  0  0  0  0  0  0  0  0  0  0
    4.6270   -1.9800    0.0000 C   0  0  0  0  0  0  0  0  0  0  0  0
    3.8920   -5.8800    0.0000 C   0  0  0  0  0  0  0  0  0  0  0  0
    2.3920   -5.8860    0.0000 C   0  0  0  0  0  0  0  0  0  0  0  0
    1.3740   -2.1770    0.0000 C   0  0  0  0  0  0  0  0  0  0  0  0
    0.0060   -2.7920    0.0000 C   0  0  0  0  0  0  0  0  0  0  0  0
  1  2  2  0  0  0  0
  2  3  1  0  0  0  0
  5  2  1  1  0  0  0
  3  4  1  0  0  0  0
  5  6  1  6  0  0  0
  5  7  1  0  0  0  0
  5 25  1  0  0  0  0
  7  8  1  1  0  0  0
  7  9  1  0  0  0  0
  7 23  1  0  0  0  0
  9 10  1  0  0  0  0
  9 24  1  1  0  0  0
 10 11  1  0  0  0  0
 10 21  1  6  0  0  0
 11 12  1  0  0  0  0
 11 22  1  1  0  0  0
 12 13  1  1  0  0  0
 12 14  1  0  0  0  0
 12 19  1  0  0  0  0
 14 15  2  0  0  0  0
 14 20  1  0  0  0  0
 15 16  1  0  0  0  0
 16 17  2  0  0  0  0
 16 18  1  0  0  0  0
 18 19  1  0  0  0  0
 20 21  1  0  0  0  0
 22 23  1  0  0  0  0
 24 25  1  0  0  0  0
M  END
>  <name>
O=C(CO)[C@]1([O;ester])[C@]2(C)[C@H]([C@H]3[C@@H]([C@]4(C)C(=CC(=O)CC4)CC3)CC2)CC1

>  <apo>
1

>  <freq>
1

>  <freq0>
0

>  <freq1>
1

>  <freqA>
0.99887151

>  <a_count>
55

$$$$

  MOE2015           2D

 31 34  0  0  1  0  0  0  0  0999 V2000
   13.6110   -4.5660    0.0000 O   0  0  0  0  0  0  0  0  0  0  0  0
   12.3120   -5.3160    0.0000 C   0  0  0  0  0  0  0  0  0  0  0  0
   12.3120   -6.8160    0.0000 N   0  0  0  0  0  0  0  0  0  0  0  0
   11.0130   -4.5660    0.0000 C   0  0  0  0  0  0  0  0  0  0  0  0
    9.7140   -5.3160    0.0000 C   0  0  0  0  0  0  0  0  0  0  0  0
    9.7140   -6.8160    0.0000 O   0  0  0  0  0  0  0  0  0  0  0  0
    8.4140   -4.5660    0.0000 C   0  0  1  0  0  0  0  0  0  0  0  0
    8.4140   -6.0660    0.0000 O   0  0  0  0  0  0  0  0  0  0  0  0
    7.1150   -5.3160    0.0000 C   0  0  0  0  0  0  0  0  0  0  0  0
    7.1150   -6.8160    0.0000 O   0  0  0  0  0  0  0  0  0  0  0  0
    5.8160   -4.5660    0.0000 C   0  0  0  0  0  0  0  0  0  0  0  0
    4.5170   -5.3160    0.0000 C   0  0  0  0  0  0  0  0  0  0  0  0
    4.5170   -6.8160    0.0000 O   0  0  0  0  0  0  0  0  0  0  0  0
    3.2180   -4.5660    0.0000 C   0  0  0  0  0  0  0  0  0  0  0  0
    1.9190   -5.3160    0.0000 C   0  0  0  0  0  0  0  0  0  0  0  0
    1.9190   -6.8160    0.0000 O   0  0  0  0  0  0  0  0  0  0  0  0
    0.6200   -4.5660    0.0000 C   0  0  0  0  0  0  0  0  0  0  0  0
   -0.6790   -5.3160    0.0000 C   0  0  0  0  0  0  0  0  0  0  0  0
    0.6200   -3.0660    0.0000 C   0  0  0  0  0  0  0  0  0  0  0  0
    1.9190   -2.3160    0.0000 C   0  0  0  0  0  0  0  0  0  0  0  0
    1.9190   -0.8160    0.0000 N   0  0  0  0  0  0  0  0  0  0  0  0
    3.2180   -0.0660    0.0000 C   0  0  0  0  0  0  0  0  0  0  0  0
    0.6200   -0.0660    0.0000 C   0  0  0  0  0  0  0  0  0  0  0  0
    3.2180   -3.0660    0.0000 C   0  0  0  0  0  0  0  0  0  0  0  0
    4.5170   -2.3160    0.0000 C   0  0  0  0  0  0  0  0  0  0  0  0
    5.8160   -3.0660    0.0000 C   0  0  1  0  0  0  0  0  0  0  0  0
    7.1150   -2.3160    0.0000 C   0  0  0  0  0  0  0  0  0  0  0  0
    8.4140   -3.0660    0.0000 C   0  0  1  0  0  0  0  0  0  0  0  0
    9.7140   -2.3160    0.0000 C   0  0  0  0  0  0  0  0  0  0  0  0
   11.0130   -3.0660    0.0000 C   0  0  0  0  0  0  0  0  0  0  0  0
   12.3120   -2.3160    0.0000 O   0  0  0  0  0  0  0  0  0  0  0  0
  1  2  2  0  0  0  0
  2  3  1  0  0  0  0
  2  4  1  0  0  0  0
  4  5  1  0  0  0  0
  4 30  2  0  0  0  0
  5  6  2  0  0  0  0
  5  7  1  0  0  0  0
  7  8  1  6  0  0  0
  7  9  1  0  0  0  0
  7 28  1  0  0  0  0
  9 10  1  0  0  0  0
  9 11  2  0  0  0  0
 11 12  1  0  0  0  0
 26 11  1  1  0  0  0
 12 13  2  0  0  0  0
 12 14  1  0  0  0  0
 14 15  2  0  0  0  0
 14 24  1  0  0  0  0
 15 16  1  0  0  0  0
 15 17  1  0  0  0  0
 17 18  1  0  0  0  0
 17 19  2  0  0  0  0
 19 20  1  0  0  0  0
 20 21  1  0  0  0  0
 20 24  2  0  0  0  0
 21 22  1  0  0  0  0
 21 23  1  0  0  0  0
 24 25  1  0  0  0  0
 25 26  1  0  0  0  0
 26 27  1  0  0  0  0
 27 28  1  0  0  0  0
 28 29  1  1  0  0  0
 29 30  1  0  0  0  0
 30 31  1  0  0  0  0
M  END
>  <name>
O=C(N)C=1C(=O)[C@@]2(O)C(O)=C3C(=O)c4c(O)c([C;amine])cc(N(C)C)c4C[C@H]3C[C@H]2[C;amine]C=1O

>  <apo>
2

>  <freq>
1

>  <freq0>
0

>  <freq1>
1

>  <freqA>
0.99887151

>  <a_count>
55

$$$$

  MOE2015           2D

 21 20  0  0  0  0  0  0  0  0999 V2000
   -8.7300   12.3020    0.0000 O   0  0  0  0  0  0  0  0  0  0  0  0
   -8.7300   10.8020    0.0000 C   0  0  0  0  0  0  0  0  0  0  0  0
  -10.0290   10.0520    0.0000 O   0  0  0  0  0  0  0  0  0  0  0  0
   -7.4310   10.0520    0.0000 C   0  0  0  0  0  0  0  0  0  0  0  0
   -6.1320   10.8020    0.0000 C   0  0  0  0  0  0  0  0  0  0  0  0
   -4.8330   10.0520    0.0000 C   0  0  0  0  0  0  0  0  0  0  0  0
   -3.5340   10.8020    0.0000 C   0  0  0  0  0  0  0  0  0  0  0  0
   -2.2350   10.0520    0.0000 C   0  0  0  0  0  0  0  0  0  0  0  0
   -0.9360   10.8020    0.0000 C   0  0  0  0  0  0  0  0  0  0  0  0
    0.3630   10.0520    0.0000 C   0  0  0  0  0  0  0  0  0  0  0  0
    1.6620   10.8020    0.0000 C   0  0  0  0  0  0  0  0  0  0  0  0
    2.9610   10.0520    0.0000 C   0  0  0  0  0  0  0  0  0  0  0  0
    4.2600   10.8020    0.0000 C   0  0  0  0  0  0  0  0  0  0  0  0
    5.5590   10.0520    0.0000 C   0  0  0  0  0  0  0  0  0  0  0  0
    6.8580   10.8020    0.0000 C   0  0  0  0  0  0  0  0  0  0  0  0
    8.1570   10.0520    0.0000 C   0  0  0  0  0  0  0  0  0  0  0  0
    9.4560   10.8020    0.0000 C   0  0  0  0  0  0  0  0  0  0  0  0
   10.7550   10.0520    0.0000 C   0  0  0  0  0  0  0  0  0  0  0  0
   12.0540   10.8020    0.0000 C   0  0  0  0  0  0  0  0  0  0  0  0
   13.3530   10.0520    0.0000 C   0  0  0  0  0  0  0  0  0  0  0  0
   14.6520   10.8020    0.0000 O   0  0  0  0  0  0  0  0  0  0  0  0
  1  2  2  0  0  0  0
  2  3  1  0  0  0  0
  2  4  1  0  0  0  0
  4  5  1  0  0  0  0
  5  6  1  0  0  0  0
  6  7  1  0  0  0  0
  7  8  1  0  0  0  0
  8  9  1  0  0  0  0
  9 10  1  0  0  0  0
 10 11  1  0  0  0  0
 11 12  1  0  0  0  0
 12 13  1  0  0  0  0
 13 14  1  0  0  0  0
 14 15  1  0  0  0  0
 15 16  1  0  0  0  0
 16 17  1  0  0  0  0
 17 18  1  0  0  0  0
 18 19  1  0  0  0  0
 19 20  1  0  0  0  0
 20 21  2  0  0  0  0
M  END
>  <name>
O=C(O)CCCCCCCCCCCCCCCC[C;amide]=O

>  <apo>
1

>  <freq>
1

>  <freq0>
0

>  <freq1>
1

>  <freqA>
0.99887151

>  <a_count>
55

$$$$

  MOE2015           2D

 25 26  0  0  1  0  0  0  0  0999 V2000
   -0.0900    0.0520    0.0000 O   0  0  0  0  0  0  0  0  0  0  0  0
   -0.8400    1.3510    0.0000 C   0  0  0  0  0  0  0  0  0  0  0  0
   -2.3400    1.3510    0.0000 O   0  0  0  0  0  0  0  0  0  0  0  0
   -3.0900    0.0520    0.0000 C   0  0  2  0  0  0  0  0  0  0  0  0
   -2.4800   -1.3180    0.0000 C   0  0  0  0  0  0  0  0  0  0  0  0
   -3.5950   -2.3220    0.0000 O   0  0  0  0  0  0  0  0  0  0  0  0
   -4.8940   -1.5720    0.0000 C   0  0  0  0  0  0  0  0  0  0  0  0
   -4.5820   -0.1050    0.0000 C   0  0  0  0  0  0  0  0  0  0  0  0
   -0.0900    2.6500    0.0000 N   0  0  0  0  0  0  0  0  0  0  0  0
    1.4100    2.6500    0.0000 C   0  0  2  0  0  0  0  0  0  0  0  0
    2.1600    1.3510    0.0000 C   0  0  2  0  0  0  0  0  0  0  0  0
    1.4100    0.0520    0.0000 O   0  0  0  0  0  0  0  0  0  0  0  0
    3.6600    1.3510    0.0000 C   0  0  0  0  0  0  0  0  0  0  0  0
    4.4100    0.0520    0.0000 N   0  0  0  0  0  0  0  0  0  0  0  0
    5.9100    0.0520    0.0000 C   0  0  0  0  0  0  0  0  0  0  0  0
    6.6600   -1.2470    0.0000 C   0  0  0  0  0  0  0  0  0  0  0  0
    5.9100   -2.5460    0.0000 C   0  0  0  0  0  0  0  0  0  0  0  0
    8.1600   -1.2470    0.0000 C   0  0  0  0  0  0  0  0  0  0  0  0
    2.1600    3.9490    0.0000 C   0  0  0  0  0  0  0  0  0  0  0  0
    1.4100    5.2480    0.0000 C   0  0  0  0  0  0  0  0  0  0  0  0
   -0.0900    5.2480    0.0000 C   0  0  0  0  0  0  0  0  0  0  0  0
   -0.8400    6.5470    0.0000 C   0  0  0  0  0  0  0  0  0  0  0  0
   -0.0900    7.8460    0.0000 C   0  0  0  0  0  0  0  0  0  0  0  0
    1.4100    7.8460    0.0000 C   0  0  0  0  0  0  0  0  0  0  0  0
    2.1600    6.5470    0.0000 C   0  0  0  0  0  0  0  0  0  0  0  0
  1  2  2  0  0  0  0
  2  3  1  0  0  0  0
  2  9  1  0  0  0  0
  4  3  1  6  0  0  0
  4  5  1  0  0  0  0
  4  8  1  0  0  0  0
  5  6  1  0  0  0  0
  6  7  1  0  0  0  0
  7  8  1  0  0  0  0
 10  9  1  1  0  0  0
 10 11  1  0  0  0  0
 10 19  1  0  0  0  0
 11 12  1  1  0  0  0
 11 13  1  0  0  0  0
 13 14  1  0  0  0  0
 14 15  1  0  0  0  0
 15 16  1  0  0  0  0
 16 17  1  0  0  0  0
 16 18  1  0  0  0  0
 19 20  1  0  0  0  0
 20 21  1  0  0  0  0
 20 25  2  0  0  0  0
 21 22  2  0  0  0  0
 22 23  1  0  0  0  0
 23 24  2  0  0  0  0
 24 25  1  0  0  0  0
M  END
>  <name>
O=C(O[C@@H]1COCC1)N[C@H]([C@H](O)C[N;so2amide]CC(C)C)Cc1ccccc1

>  <apo>
1

>  <freq>
1

>  <freq0>
0

>  <freq1>
1

>  <freqA>
0.99887151

>  <a_count>
55

$$$$

  MOE2015           2D

 31 35  0  0  1  0  0  0  0  0999 V2000
    0.4760    1.7750    0.0000 O   0  0  0  0  0  0  0  0  0  0  0  0
    1.7750    1.0250    0.0000 C   0  0  0  0  0  0  0  0  0  0  0  0
    1.7750   -0.4750    0.0000 N   0  0  0  0  0  0  0  0  0  0  0  0
    0.4760   -1.2250    0.0000 C   0  0  0  0  0  0  0  0  0  0  0  0
   -0.8230   -0.4750    0.0000 C   0  0  0  0  0  0  0  0  0  0  0  0
   -0.8230    1.0250    0.0000 N   0  0  0  0  0  0  0  0  0  0  0  0
   -2.1230    1.7750    0.0000 C   0  0  0  0  0  0  0  0  0  0  0  0
   -2.1230    3.2750    0.0000 C   0  0  0  0  0  0  0  0  0  0  0  0
   -3.4220    1.0250    0.0000 C   0  0  0  0  0  0  0  0  0  0  0  0
   -3.4220   -0.4750    0.0000 C   0  0  0  0  0  0  0  0  0  0  0  0
   -2.1230   -1.2250    0.0000 N   0  0  0  0  0  0  0  0  0  0  0  0
   -4.7210   -1.2250    0.0000 C   0  0  0  0  0  0  0  0  0  0  0  0
   -6.0200   -0.4750    0.0000 C   0  0  0  0  0  0  0  0  0  0  0  0
   -6.0200    1.0250    0.0000 C   0  0  0  0  0  0  0  0  0  0  0  0
   -4.7210    1.7750    0.0000 C   0  0  0  0  0  0  0  0  0  0  0  0
    3.0740   -1.2250    0.0000 C   0  0  0  0  0  0  0  0  0  0  0  0
    3.0740   -2.7250    0.0000 O   0  0  0  0  0  0  0  0  0  0  0  0
    4.3730   -0.4750    0.0000 C   0  0  0  0  0  0  0  0  0  0  0  0
    5.7990   -0.9390    0.0000 N   0  0  0  0  0  0  0  0  0  0  0  0
    6.6810    0.2750    0.0000 C   0  0  0  0  0  0  0  0  0  0  0  0
    8.1810    0.2750    0.0000 N   0  0  0  0  0  0  0  0  0  0  0  0
    8.9310   -1.0240    0.0000 C   0  0  0  0  0  0  0  0  0  0  0  0
   10.4310   -1.0240    0.0000 C   0  0  2  0  0  0  0  0  0  0  0  0
   11.1810   -2.3230    0.0000 N   0  0  0  0  0  0  0  0  0  0  0  0
   11.1810    0.2750    0.0000 C   0  0  0  0  0  0  0  0  0  0  0  0
   10.4310    1.5740    0.0000 C   0  0  0  0  0  0  0  0  0  0  0  0
    8.9310    1.5740    0.0000 C   0  0  0  0  0  0  0  0  0  0  0  0
    5.7990    1.4880    0.0000 N   0  0  0  0  0  0  0  0  0  0  0  0
    4.3730    1.0250    0.0000 C   0  0  0  0  0  0  0  0  0  0  0  0
    3.0740    1.7750    0.0000 N   0  0  0  0  0  0  0  0  0  0  0  0
    3.0740    3.2750    0.0000 C   0  0  0  0  0  0  0  0  0  0  0  0
  1  2  2  0  0  0  0
  2  3  1  0  0  0  0
  2 30  1  0  0  0  0
  3  4  1  0  0  0  0
  3 16  1  0  0  0  0
  4  5  1  0  0  0  0
  5  6  1  0  0  0  0
  5 11  2  0  0  0  0
  6  7  2  0  0  0  0
  7  8  1  0  0  0  0
  7  9  1  0  0  0  0
  9 10  1  0  0  0  0
  9 15  2  0  0  0  0
 10 11  1  0  0  0  0
 10 12  2  0  0  0  0
 12 13  1  0  0  0  0
 13 14  2  0  0  0  0
 14 15  1  0  0  0  0
 16 17  2  0  0  0  0
 16 18  1  0  0  0  0
 18 19  1  0  0  0  0
 18 29  2  0  0  0  0
 19 20  1  0  0  0  0
 20 21  1  0  0  0  0
 20 28  2  0  0  0  0
 21 22  1  0  0  0  0
 21 27  1  0  0  0  0
 22 23  1  0  0  0  0
 23 24  1  1  0  0  0
 23 25  1  0  0  0  0
 25 26  1  0  0  0  0
 26 27  1  0  0  0  0
 28 29  1  0  0  0  0
 29 30  1  0  0  0  0
 30 31  1  0  0  0  0
M  END
>  <name>
O=C1N(Cc2nc(C)c3c(n2)cccc3)C(=O)c2[nH;NaroC]c(N3C[C@H](N)CCC3)nc2N1C

>  <apo>
1

>  <freq>
1

>  <freq0>
0

>  <freq1>
1

>  <freqA>
0.99887151

>  <a_count>
55

$$$$

  MOE2015           2D

 23 25  0  0  1  0  0  0  0  0999 V2000
    8.4490   -1.7400    0.0000 O   0  0  0  0  0  0  0  0  0  0  0  0
    7.3580   -2.7690    0.0000 C   0  0  0  0  0  0  0  0  0  0  0  0
    5.8840   -2.4900    0.0000 C   0  0  1  0  0  0  0  0  0  0  0  0
    5.1410   -1.1860    0.0000 C   0  0  2  0  0  0  0  0  0  0  0  0
    6.2310   -0.1550    0.0000 C   0  0  0  0  0  0  0  0  0  0  0  0
    3.8370   -0.4890    0.0000 C   0  0  2  0  0  0  0  0  0  0  0  0
    3.8920    1.0100    0.0000 O   0  0  0  0  0  0  0  0  0  0  0  0
    2.4190   -1.1170    0.0000 C   0  0  0  0  0  0  0  0  0  0  0  0
    1.9210   -2.5230    0.0000 C   0  0  2  0  0  0  0  0  0  0  0  0
    0.5650   -3.1660    0.0000 C   0  0  0  0  0  0  0  0  0  0  0  0
   -0.6690   -2.3130    0.0000 C   0  0  0  0  0  0  0  0  0  0  0  0
    0.6040   -1.8060    0.0000 C   0  0  0  0  0  0  0  0  0  0  0  0
    2.4440   -3.9230    0.0000 C   0  0  1  0  0  0  0  0  0  0  0  0
    1.3610   -4.9610    0.0000 O   0  0  0  0  0  0  0  0  0  0  0  0
    3.8720   -4.5270    0.0000 C   0  0  2  0  0  0  0  0  0  0  0  0
    3.9540   -6.0250    0.0000 C   0  0  0  0  0  0  0  0  0  0  0  0
    5.1630   -3.8060    0.0000 C   0  0  2  0  0  0  0  0  0  0  0  0
    6.1930   -4.8970    0.0000 C   0  0  0  0  0  0  0  0  0  0  0  0
    7.5500   -4.2560    0.0000 C   0  0  0  0  0  0  0  0  0  0  0  0
    3.6540   -3.7980    0.0000 C   0  0  0  0  0  0  0  0  0  0  0  0
    2.8960   -2.5150    0.0000 C   0  0  0  0  0  0  0  0  0  0  0  0
    3.6330   -1.2190    0.0000 C   0  0  3  0  0  0  0  0  0  0  0  0
    2.8640    0.0690    0.0000 C   0  0  0  0  0  0  0  0  0  0  0  0
  1  2  2  0  0  0  0
  3  2  1  6  0  0  0
  2 19  1  0  0  0  0
  3  4  1  0  0  0  0
 17  3  1  1  0  0  0
  4  5  1  6  0  0  0
  4  6  1  0  0  0  0
  4 22  1  0  0  0  0
  6  7  1  1  0  0  0
  6  8  1  0  0  0  0
  8  9  1  0  0  0  0
  9 10  1  6  0  0  0
  9 12  1  1  0  0  0
  9 13  1  0  0  0  0
 10 11  2  0  0  0  0
 13 14  1  6  0  0  0
 13 15  1  0  0  0  0
 15 16  1  1  0  0  0
 15 17  1  0  0  0  0
 17 18  1  0  0  0  0
 17 20  1  6  0  0  0
 18 19  1  0  0  0  0
 20 21  1  0  0  0  0
 21 22  1  0  0  0  0
 22 23  1  0  0  0  0
M  END
>  <name>
O=C1[C@H]2[C@]3(C)[C@H]([O;ester])C[C@](C=C)(C)[C@@H](O)[C@H](C)[C@@]2(CC1)CCC3C

>  <apo>
1

>  <freq>
1

>  <freq0>
0

>  <freq1>
1

>  <freqA>
0.99887151

>  <a_count>
55

$$$$

  MOE2015           2D

 23 25  0  0  1  0  0  0  0  0999 V2000
    8.3190    1.9070    0.0000 O   0  0  0  0  0  0  0  0  0  0  0  0
    7.2140    2.9210    0.0000 C   0  0  0  0  0  0  0  0  0  0  0  0
    5.7440    2.6220    0.0000 C   0  0  1  0  0  0  0  0  0  0  0  0
    5.0170    1.3090    0.0000 C   0  0  2  0  0  0  0  0  0  0  0  0
    6.0790    0.2490    0.0000 C   0  0  0  0  0  0  0  0  0  0  0  0
    3.7240    0.5930    0.0000 C   0  0  2  0  0  0  0  0  0  0  0  0
    3.8010   -0.9050    0.0000 O   0  0  0  0  0  0  0  0  0  0  0  0
    2.2980    1.2020    0.0000 C   0  0  0  0  0  0  0  0  0  0  0  0
    1.7800    2.6040    0.0000 C   0  0  2  0  0  0  0  0  0  0  0  0
    0.4500    1.9110    0.0000 C   0  0  0  0  0  0  0  0  0  0  0  0
    0.3850    0.4130    0.0000 C   0  0  0  0  0  0  0  0  0  0  0  0
    0.4480    3.2940    0.0000 C   0  0  0  0  0  0  0  0  0  0  0  0
    2.2850    4.0110    0.0000 C   0  0  1  0  0  0  0  0  0  0  0  0
    1.1880    5.0340    0.0000 O   0  0  0  0  0  0  0  0  0  0  0  0
    3.7050    4.6330    0.0000 C   0  0  2  0  0  0  0  0  0  0  0  0
    3.7670    6.1320    0.0000 C   0  0  0  0  0  0  0  0  0  0  0  0
    5.0050    3.9290    0.0000 C   0  0  1  0  0  0  0  0  0  0  0  0
    3.4970    3.9010    0.0000 C   0  0  0  0  0  0  0  0  0  0  0  0
    2.7560    2.6080    0.0000 C   0  0  0  0  0  0  0  0  0  0  0  0
    3.5090    1.3230    0.0000 C   0  0  1  0  0  0  0  0  0  0  0  0
    2.7580    0.0250    0.0000 C   0  0  0  0  0  0  0  0  0  0  0  0
    6.0190    5.0350    0.0000 C   0  0  0  0  0  0  0  0  0  0  0  0
    7.3840    4.4110    0.0000 C   0  0  0  0  0  0  0  0  0  0  0  0
  1  2  2  0  0  0  0
  3  2  1  1  0  0  0
  2 23  1  0  0  0  0
  3  4  1  0  0  0  0
 17  3  1  6  0  0  0
  4  5  1  1  0  0  0
  4  6  1  0  0  0  0
  4 20  1  0  0  0  0
  6  7  1  6  0  0  0
  6  8  1  0  0  0  0
  8  9  1  0  0  0  0
  9 10  1  1  0  0  0
  9 12  1  6  0  0  0
  9 13  1  0  0  0  0
 10 11  2  0  0  0  0
 13 14  1  1  0  0  0
 13 15  1  0  0  0  0
 15 16  1  6  0  0  0
 15 17  1  0  0  0  0
 17 18  1  0  0  0  0
 17 22  1  1  0  0  0
 18 19  1  0  0  0  0
 19 20  1  0  0  0  0
 20 21  1  6  0  0  0
 22 23  1  0  0  0  0
M  END
>  <name>
O=C1[C@H]2[C@]3(C)[C@H]([O;ester])C[C@](C=C)(C)[C@@H](O)[C@H](C)[C@]2(CC[C@H]3C)CC1

>  <apo>
1

>  <freq>
1

>  <freq0>
0

>  <freq1>
1

>  <freqA>
0.99887151

>  <a_count>
55

$$$$

  MOE2015           2D

 39 39  0  0  1  0  0  0  0  0999 V2000
    4.4410   -6.9360    0.0000 S   0  0  0  0  0  0  0  0  0  0  0  0
    4.3620   -8.4340    0.0000 O   0  0  0  0  0  0  0  0  0  0  0  0
    4.5190   -5.4380    0.0000 O   0  0  0  0  0  0  0  0  0  0  0  0
    5.9390   -7.0140    0.0000 O   0  0  0  0  0  0  0  0  0  0  0  0
    6.6200   -8.3510    0.0000 Al  0  0  0  0  0  0  0  0  0  0  0  0
    8.1180   -8.4290    0.0000 O   0  0  0  0  0  0  0  0  0  0  0  0
    5.8030   -9.6090    0.0000 O   0  0  0  0  0  0  0  0  0  0  0  0
    2.9430   -6.8570    0.0000 O   0  0  0  0  0  0  0  0  0  0  0  0
    2.2620   -5.5210    0.0000 C   0  0  0  0  0  0  0  0  0  0  0  0
    0.7640   -5.4420    0.0000 C   0  0  2  0  0  0  0  0  0  0  0  0
   -0.0530   -4.1840    0.0000 C   0  0  1  0  0  0  0  0  0  0  0  0
    0.4850   -2.7840    0.0000 O   0  0  0  0  0  0  0  0  0  0  0  0
   -0.4590   -1.6180    0.0000 S   0  0  0  0  0  0  0  0  0  0  0  0
   -1.6250   -2.5620    0.0000 O   0  0  0  0  0  0  0  0  0  0  0  0
    0.7060   -0.6740    0.0000 O   0  0  0  0  0  0  0  0  0  0  0  0
   -1.4030   -0.4520    0.0000 O   0  0  0  0  0  0  0  0  0  0  0  0
   -0.8660    0.9480    0.0000 Al  0  0  0  0  0  0  0  0  0  0  0  0
    0.6160    1.1830    0.0000 O   0  0  0  0  0  0  0  0  0  0  0  0
   -1.8100    2.1140    0.0000 O   0  0  0  0  0  0  0  0  0  0  0  0
   -1.5020   -4.5730    0.0000 C   0  0  1  0  0  0  0  0  0  0  0  0
   -2.6670   -3.6290    0.0000 O   0  0  0  0  0  0  0  0  0  0  0  0
   -4.0680   -4.1660    0.0000 S   0  0  0  0  0  0  0  0  0  0  0  0
   -4.6050   -2.7660    0.0000 O   0  0  0  0  0  0  0  0  0  0  0  0
   -3.5300   -5.5660    0.0000 O   0  0  0  0  0  0  0  0  0  0  0  0
   -5.4680   -4.7040    0.0000 O   0  0  0  0  0  0  0  0  0  0  0  0
   -6.6340   -3.7600    0.0000 Al  0  0  0  0  0  0  0  0  0  0  0  0
   -6.3990   -2.2780    0.0000 O   0  0  0  0  0  0  0  0  0  0  0  0
   -8.0340   -4.2970    0.0000 O   0  0  0  0  0  0  0  0  0  0  0  0
   -1.5800   -6.0700    0.0000 C   0  0  2  0  0  0  0  0  0  0  0  0
   -2.8380   -6.8870    0.0000 C   0  0  0  0  0  0  0  0  0  0  0  0
   -2.7600   -8.3850    0.0000 O   0  0  0  0  0  0  0  0  0  0  0  0
   -4.0180   -9.2020    0.0000 S   0  0  0  0  0  0  0  0  0  0  0  0
   -3.2010  -10.4600    0.0000 O   0  0  0  0  0  0  0  0  0  0  0  0
   -4.8350   -7.9440    0.0000 O   0  0  0  0  0  0  0  0  0  0  0  0
   -5.2760  -10.0190    0.0000 O   0  0  0  0  0  0  0  0  0  0  0  0
   -5.1970  -11.5170    0.0000 Al  0  0  0  0  0  0  0  0  0  0  0  0
   -6.4550  -12.3340    0.0000 O   0  0  0  0  0  0  0  0  0  0  0  0
   -3.8610  -12.1980    0.0000 O   0  0  0  0  0  0  0  0  0  0  0  0
   -0.1800   -6.6080    0.0000 O   0  0  0  0  0  0  0  0  0  0  0  0
  1  2  2  0  0  0  0
  1  3  2  0  0  0  0
  1  4  1  0  0  0  0
  1  8  1  0  0  0  0
  4  5  1  0  0  0  0
  5  6  1  0  0  0  0
  5  7  1  0  0  0  0
  8  9  1  0  0  0  0
 10  9  1  1  0  0  0
 10 11  1  0  0  0  0
 10 39  1  0  0  0  0
 11 12  1  6  0  0  0
 11 20  1  0  0  0  0
 12 13  1  0  0  0  0
 13 14  2  0  0  0  0
 13 15  2  0  0  0  0
 13 16  1  0  0  0  0
 16 17  1  0  0  0  0
 17 18  1  0  0  0  0
 17 19  1  0  0  0  0
 20 21  1  6  0  0  0
 20 29  1  0  0  0  0
 21 22  1  0  0  0  0
 22 23  2  0  0  0  0
 22 24  2  0  0  0  0
 22 25  1  0  0  0  0
 25 26  1  0  0  0  0
 26 27  1  0  0  0  0
 26 28  1  0  0  0  0
 29 30  1  1  0  0  0
 29 39  1  0  0  0  0
 30 31  1  0  0  0  0
 31 32  1  0  0  0  0
 32 33  2  0  0  0  0
 32 34  2  0  0  0  0
 32 35  1  0  0  0  0
 35 36  1  0  0  0  0
 36 37  1  0  0  0  0
 36 38  1  0  0  0  0
M  END
>  <name>
S(=O)(=O)(O[Al](O)O)OC[C@@H]1[C@@H](OS(=O)(=O)O[Al](O)O)[C@@H](OS(=O)(=O)O[Al](O)O)[C@H;ether](COS(=O)(=O)O[Al](O)O)O1

>  <apo>
1

>  <freq>
1

>  <freq0>
0

>  <freq1>
1

>  <freqA>
0.99887151

>  <a_count>
55

$$$$

  MOE2015           2D

 39 39  0  0  1  0  0  0  0  0999 V2000
    3.0190   -6.7500    0.0000 S   0  0  0  0  0  0  0  0  0  0  0  0
    3.0190   -8.2500    0.0000 O   0  0  0  0  0  0  0  0  0  0  0  0
    3.0190   -5.2500    0.0000 O   0  0  0  0  0  0  0  0  0  0  0  0
    4.5190   -6.7500    0.0000 O   0  0  0  0  0  0  0  0  0  0  0  0
    5.2690   -8.0490    0.0000 Al  0  0  0  0  0  0  0  0  0  0  0  0
    4.5190   -9.3480    0.0000 O   0  0  0  0  0  0  0  0  0  0  0  0
    6.7690   -8.0490    0.0000 O   0  0  0  0  0  0  0  0  0  0  0  0
    1.5190   -6.7500    0.0000 O   0  0  0  0  0  0  0  0  0  0  0  0
    0.7690   -5.4510    0.0000 C   0  0  0  0  0  0  0  0  0  0  0  0
   -0.7310   -5.4510    0.0000 C   0  0  2  0  0  0  0  0  0  0  0  0
   -1.4810   -4.1520    0.0000 C   0  0  1  0  0  0  0  0  0  0  0  0
   -0.7310   -2.8530    0.0000 O   0  0  0  0  0  0  0  0  0  0  0  0
    0.7690   -2.8530    0.0000 S   0  0  0  0  0  0  0  0  0  0  0  0
    0.7690   -4.3530    0.0000 O   0  0  0  0  0  0  0  0  0  0  0  0
    0.7690   -1.3530    0.0000 O   0  0  0  0  0  0  0  0  0  0  0  0
    2.2690   -2.8530    0.0000 O   0  0  0  0  0  0  0  0  0  0  0  0
    3.0190   -1.5540    0.0000 Al  0  0  0  0  0  0  0  0  0  0  0  0
    2.2690   -0.2550    0.0000 O   0  0  0  0  0  0  0  0  0  0  0  0
    4.5190   -1.5540    0.0000 O   0  0  0  0  0  0  0  0  0  0  0  0
   -2.9810   -4.1520    0.0000 C   0  0  1  0  0  0  0  0  0  0  0  0
   -3.7310   -2.8530    0.0000 O   0  0  0  0  0  0  0  0  0  0  0  0
   -5.2310   -2.8530    0.0000 S   0  0  0  0  0  0  0  0  0  0  0  0
   -5.2310   -1.3530    0.0000 O   0  0  0  0  0  0  0  0  0  0  0  0
   -5.2310   -4.3530    0.0000 O   0  0  0  0  0  0  0  0  0  0  0  0
   -6.7310   -2.8530    0.0000 O   0  0  0  0  0  0  0  0  0  0  0  0
   -7.4810   -1.5540    0.0000 Al  0  0  0  0  0  0  0  0  0  0  0  0
   -8.9810   -1.5540    0.0000 O   0  0  0  0  0  0  0  0  0  0  0  0
   -6.7310   -0.2550    0.0000 O   0  0  0  0  0  0  0  0  0  0  0  0
   -3.7310   -5.4510    0.0000 C   0  0  2  0  0  0  0  0  0  0  0  0
   -5.2310   -5.4510    0.0000 O   0  0  0  0  0  0  0  0  0  0  0  0
   -5.9810   -6.7500    0.0000 S   0  0  0  0  0  0  0  0  0  0  0  0
   -4.6820   -7.5000    0.0000 O   0  0  0  0  0  0  0  0  0  0  0  0
   -7.2800   -6.0000    0.0000 O   0  0  0  0  0  0  0  0  0  0  0  0
   -6.7310   -8.0490    0.0000 O   0  0  0  0  0  0  0  0  0  0  0  0
   -8.2310   -8.0490    0.0000 Al  0  0  0  0  0  0  0  0  0  0  0  0
   -8.9810   -6.7500    0.0000 O   0  0  0  0  0  0  0  0  0  0  0  0
   -8.9810   -9.3480    0.0000 O   0  0  0  0  0  0  0  0  0  0  0  0
   -2.9810   -6.7500    0.0000 C   0  0  0  0  0  0  0  0  0  0  0  0
   -1.4810   -6.7500    0.0000 O   0  0  0  0  0  0  0  0  0  0  0  0
  1  2  2  0  0  0  0
  1  3  2  0  0  0  0
  1  4  1  0  0  0  0
  1  8  1  0  0  0  0
  4  5  1  0  0  0  0
  5  6  1  0  0  0  0
  5  7  1  0  0  0  0
  8  9  1  0  0  0  0
 10  9  1  1  0  0  0
 10 11  1  0  0  0  0
 10 39  1  0  0  0  0
 11 12  1  6  0  0  0
 11 20  1  0  0  0  0
 12 13  1  0  0  0  0
 13 14  2  0  0  0  0
 13 15  2  0  0  0  0
 13 16  1  0  0  0  0
 16 17  1  0  0  0  0
 17 18  1  0  0  0  0
 17 19  1  0  0  0  0
 20 21  1  6  0  0  0
 20 29  1  0  0  0  0
 21 22  1  0  0  0  0
 22 23  2  0  0  0  0
 22 24  2  0  0  0  0
 22 25  1  0  0  0  0
 25 26  1  0  0  0  0
 26 27  1  0  0  0  0
 26 28  1  0  0  0  0
 29 30  1  1  0  0  0
 29 38  1  0  0  0  0
 30 31  1  0  0  0  0
 31 32  2  0  0  0  0
 31 33  2  0  0  0  0
 31 34  1  0  0  0  0
 34 35  1  0  0  0  0
 35 36  1  0  0  0  0
 35 37  1  0  0  0  0
 38 39  1  0  0  0  0
M  END
>  <name>
S(=O)(=O)(O[Al](O)O)OC[C@@H]1[C@@H](OS(=O)(=O)O[Al](O)O)[C@@H](OS(=O)(=O)O[Al](O)O)[C@H](OS(=O)(=O)O[Al](O)O)[C;ether]O1

>  <apo>
1

>  <freq>
1

>  <freq0>
0

>  <freq1>
1

>  <freqA>
0.99887151

>  <a_count>
55

$$$$

  MOE2015           2D

 32 34  0  0  1  0  0  0  0  0999 V2000
   -5.7480    1.6380    0.0000 P   0  0  1  0  0  0  0  0  0  0  0  0
   -7.0230    2.4290    0.0000 O   0  0  0  0  0  0  0  0  0  0  0  0
   -4.4740    0.8480    0.0000 O   0  0  0  0  0  0  0  0  0  0  0  0
   -3.1520    1.5560    0.0000 C   0  0  0  0  0  0  0  0  0  0  0  0
   -1.8770    0.7650    0.0000 C   0  0  2  0  0  0  0  0  0  0  0  0
   -1.7680   -0.7310    0.0000 C   0  0  1  0  0  0  0  0  0  0  0  0
   -2.9130   -1.6990    0.0000 O   0  0  0  0  0  0  0  0  0  0  0  0
   -0.3110   -1.0890    0.0000 C   0  0  2  0  0  0  0  0  0  0  0  0
    0.8780   -2.0040    0.0000 F   0  0  0  0  0  0  0  0  0  0  0  0
   -0.5730   -2.5660    0.0000 C   0  0  0  0  0  0  0  0  0  0  0  0
    0.4800    0.1860    0.0000 C   0  0  2  0  0  0  0  0  0  0  0  0
    1.9760    0.2950    0.0000 N   0  0  0  0  0  0  0  0  0  0  0  0
    2.6290    1.6450    0.0000 C   0  0  0  0  0  0  0  0  0  0  0  0
    1.7860    2.8860    0.0000 O   0  0  0  0  0  0  0  0  0  0  0  0
    4.1250    1.7550    0.0000 N   0  0  0  0  0  0  0  0  0  0  0  0
    4.9680    0.5140    0.0000 C   0  0  0  0  0  0  0  0  0  0  0  0
    6.4640    0.6230    0.0000 O   0  0  0  0  0  0  0  0  0  0  0  0
    4.3150   -0.8360    0.0000 C   0  0  0  0  0  0  0  0  0  0  0  0
    2.8190   -0.9460    0.0000 C   0  0  0  0  0  0  0  0  0  0  0  0
   -0.4880    1.3320    0.0000 O   0  0  0  0  0  0  0  0  0  0  0  0
   -6.5390    0.3640    0.0000 O   0  0  0  0  0  0  0  0  0  0  0  0
   -8.0380    0.4110    0.0000 C   0  0  0  0  0  0  0  0  0  0  0  0
   -8.7470    1.7330    0.0000 C   0  0  0  0  0  0  0  0  0  0  0  0
  -10.2460    1.7810    0.0000 C   0  0  0  0  0  0  0  0  0  0  0  0
  -11.0370    0.5060    0.0000 C   0  0  0  0  0  0  0  0  0  0  0  0
  -10.3280   -0.8160    0.0000 C   0  0  0  0  0  0  0  0  0  0  0  0
   -8.8290   -0.8630    0.0000 C   0  0  0  0  0  0  0  0  0  0  0  0
   -4.9580    2.9130    0.0000 N   0  0  0  0  0  0  0  0  0  0  0  0
   -5.6660    4.2350    0.0000 C   0  0  2  0  0  0  0  0  0  0  0  0
   -4.8750    5.5100    0.0000 C   0  0  0  0  0  0  0  0  0  0  0  0
   -5.5840    6.8320    0.0000 O   0  0  0  0  0  0  0  0  0  0  0  0
   -7.1650    4.2830    0.0000 C   0  0  0  0  0  0  0  0  0  0  0  0
  1  2  2  0  0  0  0
  1  3  1  1  0  0  0
  1 21  1  6  0  0  0
  1 28  1  0  0  0  0
  3  4  1  0  0  0  0
  5  4  1  1  0  0  0
  5  6  1  0  0  0  0
  5 20  1  0  0  0  0
  6  7  1  6  0  0  0
  6  8  1  0  0  0  0
  8  9  1  6  0  0  0
  8 10  1  1  0  0  0
  8 11  1  0  0  0  0
 11 12  1  1  0  0  0
 11 20  1  0  0  0  0
 12 13  1  0  0  0  0
 12 19  1  0  0  0  0
 13 14  2  0  0  0  0
 13 15  1  0  0  0  0
 15 16  1  0  0  0  0
 16 17  2  0  0  0  0
 16 18  1  0  0  0  0
 18 19  2  0  0  0  0
 21 22  1  0  0  0  0
 22 23  1  0  0  0  0
 22 27  2  0  0  0  0
 23 24  2  0  0  0  0
 24 25  1  0  0  0  0
 25 26  2  0  0  0  0
 26 27  1  0  0  0  0
 28 29  1  0  0  0  0
 29 30  1  0  0  0  0
 29 32  1  1  0  0  0
 30 31  2  0  0  0  0
M  END
>  <name>
[P@@](=O)(OC[C@@H]1[C@@H](O)[C@](F)(C)[C@H](N2C(=O)NC(=O)C=C2)O1)(Oc1ccccc1)N[C@H]([C;ester]=O)C

>  <apo>
1

>  <freq>
1

>  <freq0>
0

>  <freq1>
1

>  <freqA>
0.99887151

>  <a_count>
55

$$$$

  MOE2015           2D

 31 35  0  0  1  0  0  0  0  0999 V2000
   -4.3060   -3.1010    0.0000 Cl  0  0  0  0  0  0  0  0  0  0  0  0
   -5.8060   -3.1010    0.0000 C   0  0  0  0  0  0  0  0  0  0  0  0
   -6.5560   -1.8020    0.0000 C   0  0  0  0  0  0  0  0  0  0  0  0
   -5.8060   -0.5030    0.0000 C   0  0  0  0  0  0  0  0  0  0  0  0
   -4.3060   -0.5030    0.0000 N   0  0  0  0  0  0  0  0  0  0  0  0
   -3.5560    0.7960    0.0000 C   0  0  0  0  0  0  0  0  0  0  0  0
   -2.0560    0.7960    0.0000 C   0  0  0  0  0  0  0  0  0  0  0  0
   -1.3060    2.0950    0.0000 N   0  0  0  0  0  0  0  0  0  0  0  0
    0.1940    2.0950    0.0000 C   0  0  0  0  0  0  0  0  0  0  0  0
    0.9440    3.3940    0.0000 O   0  0  0  0  0  0  0  0  0  0  0  0
    0.9440    0.7960    0.0000 N   0  0  0  0  0  0  0  0  0  0  0  0
    0.1940   -0.5030    0.0000 C   0  0  0  0  0  0  0  0  0  0  0  0
    0.9440   -1.8020    0.0000 N   0  0  0  0  0  0  0  0  0  0  0  0
    2.4440   -1.8020    0.0000 C   0  0  0  0  0  0  0  0  0  0  0  0
    3.1940   -3.1010    0.0000 C   0  0  2  0  0  0  0  0  0  0  0  0
    4.6940   -3.1010    0.0000 C   0  0  0  0  0  0  0  0  0  0  0  0
    5.4440   -4.4000    0.0000 C   0  0  0  0  0  0  0  0  0  0  0  0
    6.1940   -5.6990    0.0000 N   0  0  0  0  0  0  0  0  0  0  0  0
    2.4440   -4.4000    0.0000 N   0  0  0  0  0  0  0  0  0  0  0  0
    0.9440   -4.4000    0.0000 C   0  0  0  0  0  0  0  0  0  0  0  0
    0.1940   -3.1010    0.0000 C   0  0  0  0  0  0  0  0  0  0  0  0
   -1.3060   -0.5030    0.0000 C   0  0  0  0  0  0  0  0  0  0  0  0
   -2.0560   -1.8020    0.0000 C   0  0  0  0  0  0  0  0  0  0  0  0
   -3.5560   -1.8020    0.0000 C   0  0  0  0  0  0  0  0  0  0  0  0
   -6.5560    0.7960    0.0000 C   0  0  0  0  0  0  0  0  0  0  0  0
   -8.0560    0.7960    0.0000 C   0  0  0  0  0  0  0  0  0  0  0  0
   -8.8060   -0.5030    0.0000 C   0  0  0  0  0  0  0  0  0  0  0  0
   -8.0560   -1.8020    0.0000 C   0  0  0  0  0  0  0  0  0  0  0  0
   -8.8060   -3.1010    0.0000 C   0  0  0  0  0  0  0  0  0  0  0  0
   -8.0560   -4.4000    0.0000 C   0  0  0  0  0  0  0  0  0  0  0  0
   -6.5560   -4.4000    0.0000 C   0  0  0  0  0  0  0  0  0  0  0  0
  1  2  1  0  0  0  0
  2  3  1  0  0  0  0
  2 31  2  0  0  0  0
  3  4  2  0  0  0  0
  3 28  1  0  0  0  0
  4  5  1  0  0  0  0
  4 25  1  0  0  0  0
  5  6  1  0  0  0  0
  5 24  1  0  0  0  0
  6  7  1  0  0  0  0
  7  8  1  0  0  0  0
  7 22  2  0  0  0  0
  8  9  2  0  0  0  0
  9 10  1  0  0  0  0
  9 11  1  0  0  0  0
 11 12  2  0  0  0  0
 12 13  1  0  0  0  0
 12 22  1  0  0  0  0
 13 14  1  0  0  0  0
 13 21  1  0  0  0  0
 14 15  1  0  0  0  0
 15 16  1  6  0  0  0
 15 19  1  0  0  0  0
 16 17  1  0  0  0  0
 17 18  3  0  0  0  0
 19 20  1  0  0  0  0
 20 21  1  0  0  0  0
 22 23  1  0  0  0  0
 23 24  1  0  0  0  0
 25 26  2  0  0  0  0
 26 27  1  0  0  0  0
 27 28  2  0  0  0  0
 28 29  1  0  0  0  0
 29 30  2  0  0  0  0
 30 31  1  0  0  0  0
M  END
>  <name>
Clc1c2c(N3Cc4nc([O;ether])nc(N5C[C@H](CC#N)[N;amide]CC5)c4CC3)cccc2ccc1

>  <apo>
2

>  <freq>
1

>  <freq0>
0

>  <freq1>
1

>  <freqA>
0.99887151

>  <a_count>
54

$$$$

  MOE2015           2D

 28 31  0  0  1  0  0  0  0  0999 V2000
    1.4510    4.7070    0.0000 F   0  0  0  0  0  0  0  0  0  0  0  0
    2.1990    3.4070    0.0000 C   0  0  2  0  0  0  0  0  0  0  0  0
    1.4480    2.1090    0.0000 C   0  0  0  0  0  0  0  0  0  0  0  0
    2.1960    0.8090    0.0000 C   0  0  1  0  0  0  0  0  0  0  0  0
    2.9220   -0.5040    0.0000 C   0  0  0  0  0  0  0  0  0  0  0  0
    3.6960    0.8070    0.0000 C   0  0  1  0  0  0  0  0  0  0  0  0
    5.1960    0.7790    0.0000 F   0  0  0  0  0  0  0  0  0  0  0  0
    4.4450   -0.4930    0.0000 C   0  0  1  0  0  0  0  0  0  0  0  0
    3.6930   -1.7910    0.0000 O   0  0  0  0  0  0  0  0  0  0  0  0
    5.9450   -0.4950    0.0000 C   0  0  0  0  0  0  0  0  0  0  0  0
    6.6960    0.8030    0.0000 C   0  0  2  0  0  0  0  0  0  0  0  0
    7.5330   -0.4410    0.0000 C   0  0  0  0  0  0  0  0  0  0  0  0
    8.1640    1.1130    0.0000 C   0  0  1  0  0  0  0  0  0  0  0  0
    8.6190   -0.3160    0.0000 O   0  0  0  0  0  0  0  0  0  0  0  0
    9.6420    0.8580    0.0000 C   0  0  0  0  0  0  0  0  0  0  0  0
   10.1590   -0.5500    0.0000 O   0  0  0  0  0  0  0  0  0  0  0  0
   10.6020    2.0100    0.0000 C   0  0  0  0  0  0  0  0  0  0  0  0
   12.0800    1.7540    0.0000 O   0  0  0  0  0  0  0  0  0  0  0  0
    8.3220    2.6050    0.0000 C   0  0  0  0  0  0  0  0  0  0  0  0
    6.9530    3.2170    0.0000 C   0  0  0  0  0  0  0  0  0  0  0  0
    5.9480    2.1030    0.0000 C   0  0  1  0  0  0  0  0  0  0  0  0
    4.4480    2.1050    0.0000 C   0  0  2  0  0  0  0  0  0  0  0  0
    3.6990    3.4050    0.0000 C   0  0  0  0  0  0  0  0  0  0  0  0
    1.4450   -0.4890    0.0000 C   0  0  0  0  0  0  0  0  0  0  0  0
   -0.0550   -0.4870    0.0000 C   0  0  0  0  0  0  0  0  0  0  0  0
   -0.8040    0.8130    0.0000 C   0  0  0  0  0  0  0  0  0  0  0  0
   -2.3040    0.8140    0.0000 O   0  0  0  0  0  0  0  0  0  0  0  0
   -0.0520    2.1110    0.0000 C   0  0  0  0  0  0  0  0  0  0  0  0
  2  1  1  1  0  0  0
  2  3  1  0  0  0  0
  2 23  1  0  0  0  0
  3  4  1  0  0  0  0
  3 28  2  0  0  0  0
  4  5  1  6  0  0  0
  4  6  1  0  0  0  0
  4 24  1  0  0  0  0
  6  7  1  1  0  0  0
  6  8  1  0  0  0  0
  6 22  1  0  0  0  0
  8  9  1  6  0  0  0
  8 10  1  0  0  0  0
 10 11  1  0  0  0  0
 11 12  1  6  0  0  0
 11 13  1  0  0  0  0
 11 21  1  0  0  0  0
 13 14  1  1  0  0  0
 13 15  1  6  0  0  0
 13 19  1  0  0  0  0
 15 16  2  0  0  0  0
 15 17  1  0  0  0  0
 17 18  1  0  0  0  0
 19 20  1  0  0  0  0
 21 20  1  6  0  0  0
 21 22  1  0  0  0  0
 22 23  1  1  0  0  0
 24 25  2  0  0  0  0
 25 26  1  0  0  0  0
 26 27  2  0  0  0  0
 26 28  1  0  0  0  0
M  END
>  <name>
F[C@@H]1C=2[C@@](C)([C@@]3(F)[C@@H](O)C[C@]4(C)[C@@]([O;ester])(C(=O)C[O;ester])CC[C@H]4[C@@H]3C1)C=CC(=O)C=2

>  <apo>
2

>  <freq>
1

>  <freq0>
0

>  <freq1>
1

>  <freqA>
0.99887151

>  <a_count>
54

$$$$

  MOE2015           2D

 29 32  0  0  1  0  0  0  0  0999 V2000
    7.0230    5.6190    0.0000 F   0  0  0  0  0  0  0  0  0  0  0  0
    6.2730    4.3200    0.0000 C   0  0  0  0  0  0  0  0  0  0  0  0
    4.7730    4.3200    0.0000 C   0  0  0  0  0  0  0  0  0  0  0  0
    4.0230    3.0210    0.0000 N   0  0  0  0  0  0  0  0  0  0  0  0
    4.7730    1.7220    0.0000 C   0  0  0  0  0  0  0  0  0  0  0  0
    4.0230    0.4230    0.0000 N   0  0  0  0  0  0  0  0  0  0  0  0
    2.5460    0.6830    0.0000 C   0  0  0  0  0  0  0  0  0  0  0  0
    1.5810   -0.4660    0.0000 C   0  0  0  0  0  0  0  0  0  0  0  0
    1.5810   -1.9660    0.0000 C   0  0  0  0  0  0  0  0  0  0  0  0
    2.8810   -2.7160    0.0000 C   0  0  0  0  0  0  0  0  0  0  0  0
    0.2820   -2.7160    0.0000 C   0  0  0  0  0  0  0  0  0  0  0  0
    0.1040   -0.2050    0.0000 N   0  0  0  0  0  0  0  0  0  0  0  0
   -0.4090    1.2040    0.0000 C   0  0  0  0  0  0  0  0  0  0  0  0
    0.5550    2.3530    0.0000 C   0  0  0  0  0  0  0  0  0  0  0  0
    2.0330    2.0930    0.0000 C   0  0  0  0  0  0  0  0  0  0  0  0
    2.9970    3.2420    0.0000 C   0  0  0  0  0  0  0  0  0  0  0  0
    4.7730   -0.8760    0.0000 C   0  0  0  0  0  0  0  0  0  0  0  0
    3.8090   -2.0250    0.0000 O   0  0  0  0  0  0  0  0  0  0  0  0
    6.2730   -0.8760    0.0000 N   0  0  0  0  0  0  0  0  0  0  0  0
    7.0230    0.4230    0.0000 C   0  0  0  0  0  0  0  0  0  0  0  0
    8.5230    0.4230    0.0000 N   0  0  0  0  0  0  0  0  0  0  0  0
    9.2730   -0.8760    0.0000 C   0  0  1  0  0  0  0  0  0  0  0  0
    8.5230   -2.1750    0.0000 C   0  0  0  0  0  0  0  0  0  0  0  0
   10.7730   -0.8760    0.0000 C   0  0  0  0  0  0  0  0  0  0  0  0
   11.5230    0.4230    0.0000 N   0  0  0  0  0  0  0  0  0  0  0  0
   10.7730    1.7220    0.0000 C   0  0  0  0  0  0  0  0  0  0  0  0
    9.2730    1.7220    0.0000 C   0  0  0  0  0  0  0  0  0  0  0  0
    6.2730    1.7220    0.0000 C   0  0  0  0  0  0  0  0  0  0  0  0
    7.0230    3.0210    0.0000 C   0  0  0  0  0  0  0  0  0  0  0  0
  1  2  1  0  0  0  0
  2  3  1  0  0  0  0
  2 29  2  0  0  0  0
  3  4  2  0  0  0  0
  4  5  1  0  0  0  0
  5  6  1  0  0  0  0
  5 28  2  0  0  0  0
  6  7  1  0  0  0  0
  6 17  1  0  0  0  0
  7  8  2  0  0  0  0
  7 15  1  0  0  0  0
  8  9  1  0  0  0  0
  8 12  1  0  0  0  0
  9 10  1  0  0  0  0
  9 11  1  0  0  0  0
 12 13  2  0  0  0  0
 13 14  1  0  0  0  0
 14 15  2  0  0  0  0
 15 16  1  0  0  0  0
 17 18  2  0  0  0  0
 17 19  1  0  0  0  0
 19 20  2  0  0  0  0
 20 21  1  0  0  0  0
 20 28  1  0  0  0  0
 21 22  1  0  0  0  0
 21 27  1  0  0  0  0
 22 23  1  6  0  0  0
 22 24  1  0  0  0  0
 24 25  1  0  0  0  0
 25 26  1  0  0  0  0
 26 27  1  0  0  0  0
 28 29  1  0  0  0  0
M  END
>  <name>
Fc1[c;biphenyl]nc2N(c3c(C(C)C)nccc3C)C(=O)N=C(N3[C@@H](C)C[N;amide]CC3)c2c1

>  <apo>
2

>  <freq>
1

>  <freq0>
0

>  <freq1>
1

>  <freqA>
0.99887151

>  <a_count>
54

$$$$

  MOE2015           2D

 31 35  0  0  1  0  0  0  0  0999 V2000
   21.4840   -0.5840    0.0000 F   0  0  0  0  0  0  0  0  0  0  0  0
   19.9840   -0.5840    0.0000 C   0  0  0  0  0  0  0  0  0  0  0  0
   19.2340   -1.8830    0.0000 C   0  0  0  0  0  0  0  0  0  0  0  0
   17.7340   -1.8830    0.0000 C   0  0  0  0  0  0  0  0  0  0  0  0
   16.9840   -0.5840    0.0000 C   0  0  0  0  0  0  0  0  0  0  0  0
   15.4840   -0.5840    0.0000 C   0  0  1  0  0  0  0  0  0  0  0  0
   15.4840   -2.0840    0.0000 N   0  0  0  0  0  0  0  0  0  0  0  0
   15.4840    0.9160    0.0000 C   0  0  0  0  0  0  0  0  0  0  0  0
   13.9840   -0.5840    0.0000 C   0  0  0  0  0  0  0  0  0  0  0  0
   13.2340   -1.8830    0.0000 C   0  0  0  0  0  0  0  0  0  0  0  0
   11.7340   -1.8830    0.0000 N   0  0  0  0  0  0  0  0  0  0  0  0
   10.9840   -0.5840    0.0000 C   0  0  0  0  0  0  0  0  0  0  0  0
    9.4840   -0.5840    0.0000 N   0  0  0  0  0  0  0  0  0  0  0  0
    8.7340    0.7150    0.0000 C   0  0  0  0  0  0  0  0  0  0  0  0
    7.2340    0.7150    0.0000 C   0  0  0  0  0  0  0  0  0  0  0  0
    6.4840   -0.5840    0.0000 N   0  0  0  0  0  0  0  0  0  0  0  0
    4.9840   -0.5840    0.0000 C   0  0  0  0  0  0  0  0  0  0  0  0
    4.2340   -1.8830    0.0000 N   0  0  0  0  0  0  0  0  0  0  0  0
    2.7340   -1.8830    0.0000 C   0  0  0  0  0  0  0  0  0  0  0  0
    1.9840   -0.5840    0.0000 N   0  0  0  0  0  0  0  0  0  0  0  0
    2.7340    0.7150    0.0000 N   0  0  0  0  0  0  0  0  0  0  0  0
    4.2340    0.7150    0.0000 C   0  0  0  0  0  0  0  0  0  0  0  0
    4.6970    2.1410    0.0000 C   0  0  0  0  0  0  0  0  0  0  0  0
    3.4840    3.0230    0.0000 C   0  0  0  0  0  0  0  0  0  0  0  0
    2.2700    2.1410    0.0000 C   0  0  0  0  0  0  0  0  0  0  0  0
    7.2340   -1.8830    0.0000 C   0  0  0  0  0  0  0  0  0  0  0  0
    8.7340   -1.8830    0.0000 C   0  0  0  0  0  0  0  0  0  0  0  0
   11.7340    0.7150    0.0000 N   0  0  0  0  0  0  0  0  0  0  0  0
   13.2340    0.7150    0.0000 C   0  0  0  0  0  0  0  0  0  0  0  0
   17.7340    0.7150    0.0000 C   0  0  0  0  0  0  0  0  0  0  0  0
   19.2340    0.7150    0.0000 C   0  0  0  0  0  0  0  0  0  0  0  0
  1  2  1  0  0  0  0
  2  3  1  0  0  0  0
  2 31  2  0  0  0  0
  3  4  2  0  0  0  0
  4  5  1  0  0  0  0
  6  5  1  6  0  0  0
  5 30  2  0  0  0  0
  6  7  1  0  0  0  0
  6  8  1  1  0  0  0
  6  9  1  0  0  0  0
  9 10  2  0  0  0  0
  9 29  1  0  0  0  0
 10 11  1  0  0  0  0
 11 12  2  0  0  0  0
 12 13  1  0  0  0  0
 12 28  1  0  0  0  0
 13 14  1  0  0  0  0
 13 27  1  0  0  0  0
 14 15  1  0  0  0  0
 15 16  1  0  0  0  0
 16 17  1  0  0  0  0
 16 26  1  0  0  0  0
 17 18  2  0  0  0  0
 17 22  1  0  0  0  0
 18 19  1  0  0  0  0
 19 20  2  0  0  0  0
 20 21  1  0  0  0  0
 21 22  1  0  0  0  0
 21 25  1  0  0  0  0
 22 23  2  0  0  0  0
 23 24  1  0  0  0  0
 24 25  2  0  0  0  0
 26 27  1  0  0  0  0
 28 29  2  0  0  0  0
 30 31  1  0  0  0  0
M  END
>  <name>
Fc1ccc([C@@](N)(C)c2cnc(N3CCN(C4=NC=Nn5c4c[c;biphenyl]c5)CC3)nc2)cc1

>  <apo>
1

>  <freq>
1

>  <freq0>
0

>  <freq1>
1

>  <freqA>
0.99887151

>  <a_count>
54

$$$$

  MOE2015           2D

 30 34  0  0  1  0  0  0  0  0999 V2000
   -0.0040   -4.7890    0.0000 O   0  0  0  0  0  0  0  0  0  0  0  0
    1.4960   -4.7910    0.0000 C   0  0  0  0  0  0  0  0  0  0  0  0
    2.2430   -6.0920    0.0000 C   0  0  0  0  0  0  0  0  0  0  0  0
    0.9430   -6.8390    0.0000 O   0  0  0  0  0  0  0  0  0  0  0  0
    3.5440   -5.3440    0.0000 C   0  0  0  0  0  0  0  0  0  0  0  0
    2.9910   -7.3920    0.0000 C   0  0  0  0  0  0  0  0  0  0  0  0
   -0.7520   -3.4880    0.0000 C   0  0  0  0  0  0  0  0  0  0  0  0
   -2.2520   -3.4860    0.0000 C   0  0  0  0  0  0  0  0  0  0  0  0
   -3.0000   -2.1850    0.0000 C   0  0  0  0  0  0  0  0  0  0  0  0
   -4.5000   -2.1820    0.0000 C   0  0  0  0  0  0  0  0  0  0  0  0
   -5.2470   -0.8820    0.0000 C   0  0  0  0  0  0  0  0  0  0  0  0
   -6.7470   -0.8790    0.0000 N   0  0  0  0  0  0  0  0  0  0  0  0
   -7.5000   -2.1770    0.0000 C   0  0  0  0  0  0  0  0  0  0  0  0
   -9.0000   -2.1740    0.0000 N   0  0  0  0  0  0  0  0  0  0  0  0
   -9.7430   -0.8630    0.0000 C   0  0  0  0  0  0  0  0  0  0  0  0
  -11.2680   -0.8930    0.0000 C   0  0  3  0  0  0  0  0  0  0  0  0
  -12.0050   -2.1740    0.0000 N   0  0  0  0  0  0  0  0  0  0  0  0
  -11.2410   -3.4730    0.0000 C   0  0  3  0  0  0  0  0  0  0  0  0
   -9.7450   -3.4770    0.0000 C   0  0  0  0  0  0  0  0  0  0  0  0
  -10.5050   -2.1850    0.0000 C   0  0  0  0  0  0  0  0  0  0  0  0
   -6.7520   -3.4770    0.0000 C   0  0  0  0  0  0  0  0  0  0  0  0
   -5.2520   -3.4800    0.0000 C   0  0  0  0  0  0  0  0  0  0  0  0
   -2.2470   -0.8870    0.0000 C   0  0  0  0  0  0  0  0  0  0  0  0
   -2.7080    0.5400    0.0000 C   0  0  0  0  0  0  0  0  0  0  0  0
   -4.1340    1.0060    0.0000 C   0  0  0  0  0  0  0  0  0  0  0  0
   -5.5600    1.4720    0.0000 N   0  0  0  0  0  0  0  0  0  0  0  0
   -1.4930    1.4190    0.0000 C   0  0  0  0  0  0  0  0  0  0  0  0
   -0.2810    0.5360    0.0000 N   0  0  0  0  0  0  0  0  0  0  0  0
   -0.7470   -0.8900    0.0000 N   0  0  0  0  0  0  0  0  0  0  0  0
    0.0000   -2.1910    0.0000 C   0  0  0  0  0  0  0  0  0  0  0  0
  1  2  1  0  0  0  0
  1  7  1  0  0  0  0
  2  3  1  0  0  0  0
  3  4  1  0  0  0  0
  3  5  1  0  0  0  0
  3  6  1  0  0  0  0
  7  8  1  0  0  0  0
  7 30  2  0  0  0  0
  8  9  2  0  0  0  0
  9 10  1  0  0  0  0
  9 23  1  0  0  0  0
 10 11  1  0  0  0  0
 10 22  2  0  0  0  0
 11 12  2  0  0  0  0
 12 13  1  0  0  0  0
 13 14  1  0  0  0  0
 13 21  2  0  0  0  0
 14 15  1  0  0  0  0
 14 19  1  0  0  0  0
 15 16  1  0  0  0  0
 16 17  1  0  0  0  0
 16 20  1  0  0  0  0
 17 18  1  0  0  0  0
 18 19  1  0  0  0  0
 18 20  1  0  0  0  0
 21 22  1  0  0  0  0
 23 24  2  0  0  0  0
 23 29  1  0  0  0  0
 24 25  1  0  0  0  0
 24 27  1  0  0  0  0
 25 26  3  0  0  0  0
 27 28  2  0  0  0  0
 28 29  1  0  0  0  0
 29 30  1  0  0  0  0
M  END
>  <name>
O(CC(O)(C)C)C=1C=C(c2cnc(N3CC4[N;amine]C(C3)C4)cc2)c2c(C#N)cnn2C=1

>  <apo>
1

>  <freq>
1

>  <freq0>
0

>  <freq1>
1

>  <freqA>
0.99887151

>  <a_count>
54

$$$$

  MOE2015           2D

 24 27  0  0  1  0  0  0  0  0999 V2000
   -1.4310    4.9490    0.0000 O   0  0  0  0  0  0  0  0  0  0  0  0
   -0.4830    3.7860    0.0000 C   0  0  0  0  0  0  0  0  0  0  0  0
   -1.0150    2.3840    0.0000 C   0  0  0  0  0  0  0  0  0  0  0  0
    0.9980    4.0270    0.0000 C   0  0  2  0  0  0  0  0  0  0  0  0
    0.5150    2.6060    0.0000 O   0  0  0  0  0  0  0  0  0  0  0  0
    2.4660    3.7200    0.0000 C   0  0  2  0  0  0  0  0  0  0  0  0
    1.6110    2.4880    0.0000 C   0  0  0  0  0  0  0  0  0  0  0  0
    3.2120    5.0220    0.0000 C   0  0  2  0  0  0  0  0  0  0  0  0
    4.7120    5.0280    0.0000 C   0  0  1  0  0  0  0  0  0  0  0  0
    5.4660    3.7320    0.0000 C   0  0  1  0  0  0  0  0  0  0  0  0
    6.9660    3.7370    0.0000 C   0  0  2  0  0  0  0  0  0  0  0  0
    6.2210    2.4350    0.0000 C   0  0  0  0  0  0  0  0  0  0  0  0
    7.7110    5.0390    0.0000 C   0  0  0  0  0  0  0  0  0  0  0  0
    9.2110    5.0450    0.0000 C   0  0  0  0  0  0  0  0  0  0  0  0
    9.9660    3.7490    0.0000 C   0  0  0  0  0  0  0  0  0  0  0  0
   11.4660    3.7540    0.0000 O   0  0  0  0  0  0  0  0  0  0  0  0
    9.2210    2.4470    0.0000 C   0  0  0  0  0  0  0  0  0  0  0  0
    7.7210    2.4410    0.0000 C   0  0  0  0  0  0  0  0  0  0  0  0
    6.9570    6.3350    0.0000 C   0  0  0  0  0  0  0  0  0  0  0  0
    5.4570    6.3300    0.0000 C   0  0  0  0  0  0  0  0  0  0  0  0
    4.7210    2.4300    0.0000 C   0  0  0  0  0  0  0  0  0  0  0  0
    3.2210    2.4240    0.0000 C   0  0  0  0  0  0  0  0  0  0  0  0
    2.2040    6.1330    0.0000 C   0  0  0  0  0  0  0  0  0  0  0  0
    0.8360    5.5180    0.0000 C   0  0  0  0  0  0  0  0  0  0  0  0
  1  2  2  0  0  0  0
  2  3  1  0  0  0  0
  4  2  1  1  0  0  0
  4  5  1  6  0  0  0
  4  6  1  0  0  0  0
  4 24  1  0  0  0  0
  6  7  1  1  0  0  0
  6  8  1  0  0  0  0
  6 22  1  0  0  0  0
  8  9  1  0  0  0  0
  8 23  1  1  0  0  0
  9 10  1  0  0  0  0
  9 20  1  6  0  0  0
 10 11  1  0  0  0  0
 10 21  1  1  0  0  0
 11 12  1  1  0  0  0
 11 13  1  0  0  0  0
 11 18  1  0  0  0  0
 13 14  2  0  0  0  0
 13 19  1  0  0  0  0
 14 15  1  0  0  0  0
 15 16  2  0  0  0  0
 15 17  1  0  0  0  0
 17 18  1  0  0  0  0
 19 20  1  0  0  0  0
 21 22  1  0  0  0  0
 23 24  1  0  0  0  0
M  END
>  <name>
O=C(C)[C@]1([O;ester])[C@]2(C)[C@H]([C@H]3[C@@H]([C@]4(C)C(=CC(=O)CC4)CC3)CC2)CC1

>  <apo>
1

>  <freq>
1

>  <freq0>
0

>  <freq1>
1

>  <freqA>
0.99887151

>  <a_count>
54

$$$$

  MOE2015           2D

 24 27  0  0  1  0  0  0  0  0999 V2000
    5.5720   -6.9080    0.0000 O   0  0  0  0  0  0  0  0  0  0  0  0
    5.8900   -5.4420    0.0000 C   0  0  0  0  0  0  0  0  0  0  0  0
    7.3180   -4.9830    0.0000 C   0  0  0  0  0  0  0  0  0  0  0  0
    8.4290   -5.9910    0.0000 O   0  0  0  0  0  0  0  0  0  0  0  0
    4.7790   -4.4340    0.0000 C   0  0  2  0  0  0  0  0  0  0  0  0
    3.3100   -4.7400    0.0000 C   0  0  2  0  0  0  0  0  0  0  0  0
    4.1660   -5.9720    0.0000 C   0  0  0  0  0  0  0  0  0  0  0  0
    2.5650   -3.4380    0.0000 C   0  0  2  0  0  0  0  0  0  0  0  0
    1.0650   -3.4330    0.0000 C   0  0  1  0  0  0  0  0  0  0  0  0
    0.3100   -4.7290    0.0000 C   0  0  1  0  0  0  0  0  0  0  0  0
   -1.1900   -4.7230    0.0000 C   0  0  2  0  0  0  0  0  0  0  0  0
   -0.4450   -6.0250    0.0000 C   0  0  0  0  0  0  0  0  0  0  0  0
   -1.9350   -3.4210    0.0000 C   0  0  0  0  0  0  0  0  0  0  0  0
   -3.4350   -3.4160    0.0000 C   0  0  0  0  0  0  0  0  0  0  0  0
   -4.1900   -4.7120    0.0000 C   0  0  0  0  0  0  0  0  0  0  0  0
   -5.6900   -4.7060    0.0000 O   0  0  0  0  0  0  0  0  0  0  0  0
   -3.4450   -6.0140    0.0000 C   0  0  0  0  0  0  0  0  0  0  0  0
   -1.9450   -6.0190    0.0000 C   0  0  0  0  0  0  0  0  0  0  0  0
   -1.1800   -2.1250    0.0000 C   0  0  0  0  0  0  0  0  0  0  0  0
    0.3200   -2.1310    0.0000 C   0  0  0  0  0  0  0  0  0  0  0  0
    1.0550   -6.0310    0.0000 C   0  0  0  0  0  0  0  0  0  0  0  0
    2.5550   -6.0360    0.0000 C   0  0  0  0  0  0  0  0  0  0  0  0
    3.5730   -2.3270    0.0000 C   0  0  0  0  0  0  0  0  0  0  0  0
    4.9410   -2.9430    0.0000 C   0  0  0  0  0  0  0  0  0  0  0  0
  1  2  2  0  0  0  0
  2  3  1  0  0  0  0
  5  2  1  6  0  0  0
  3  4  1  0  0  0  0
  5  6  1  0  0  0  0
  5 24  1  0  0  0  0
  6  7  1  6  0  0  0
  6  8  1  0  0  0  0
  6 22  1  0  0  0  0
  8  9  1  0  0  0  0
  8 23  1  6  0  0  0
  9 10  1  0  0  0  0
  9 20  1  1  0  0  0
 10 11  1  0  0  0  0
 10 21  1  6  0  0  0
 11 12  1  6  0  0  0
 11 13  1  0  0  0  0
 11 18  1  0  0  0  0
 13 14  2  0  0  0  0
 13 19  1  0  0  0  0
 14 15  1  0  0  0  0
 15 16  2  0  0  0  0
 15 17  1  0  0  0  0
 17 18  1  0  0  0  0
 19 20  1  0  0  0  0
 21 22  1  0  0  0  0
 23 24  1  0  0  0  0
M  END
>  <name>
O=C(C[O;ester])[C@@H]1[C@]2(C)[C@H]([C@H]3[C@@H]([C@]4(C)C(=CC(=O)CC4)CC3)CC2)CC1

>  <apo>
1

>  <freq>
1

>  <freq0>
0

>  <freq1>
1

>  <freqA>
0.99887151

>  <a_count>
54

$$$$

  MOE2015           2D

 26 29  0  0  1  0  0  0  0  0999 V2000
    8.5510   -5.8990    0.0000 O   0  0  0  0  0  0  0  0  0  0  0  0
    8.0180   -4.4970    0.0000 C   0  0  0  0  0  0  0  0  0  0  0  0
    8.9660   -3.3350    0.0000 C   0  0  0  0  0  0  0  0  0  0  0  0
   10.4470   -3.5750    0.0000 O   0  0  0  0  0  0  0  0  0  0  0  0
    6.5370   -4.2570    0.0000 C   0  0  2  0  0  0  0  0  0  0  0  0
    7.0210   -5.6770    0.0000 O   0  0  0  0  0  0  0  0  0  0  0  0
    5.0690   -4.5640    0.0000 C   0  0  2  0  0  0  0  0  0  0  0  0
    5.9250   -5.7950    0.0000 C   0  0  0  0  0  0  0  0  0  0  0  0
    4.3240   -3.2620    0.0000 C   0  0  2  0  0  0  0  0  0  0  0  0
    2.8240   -3.2570    0.0000 C   0  0  1  0  0  0  0  0  0  0  0  0
    2.0690   -4.5530    0.0000 C   0  0  2  0  0  0  0  0  0  0  0  0
    2.8140   -5.8550    0.0000 C   0  0  0  0  0  0  0  0  0  0  0  0
    2.0600   -7.1510    0.0000 O   0  0  0  0  0  0  0  0  0  0  0  0
    4.3140   -5.8600    0.0000 C   0  0  0  0  0  0  0  0  0  0  0  0
    0.5690   -4.5470    0.0000 C   0  0  2  0  0  0  0  0  0  0  0  0
    1.3140   -5.8490    0.0000 C   0  0  0  0  0  0  0  0  0  0  0  0
   -0.1760   -3.2460    0.0000 C   0  0  0  0  0  0  0  0  0  0  0  0
   -1.6760   -3.2400    0.0000 C   0  0  0  0  0  0  0  0  0  0  0  0
   -2.4310   -4.5370    0.0000 C   0  0  0  0  0  0  0  0  0  0  0  0
   -3.9310   -4.5310    0.0000 O   0  0  0  0  0  0  0  0  0  0  0  0
   -1.6860   -5.8380    0.0000 C   0  0  0  0  0  0  0  0  0  0  0  0
   -0.1860   -5.8440    0.0000 C   0  0  0  0  0  0  0  0  0  0  0  0
    0.5780   -1.9490    0.0000 C   0  0  0  0  0  0  0  0  0  0  0  0
    2.0780   -1.9550    0.0000 C   0  0  0  0  0  0  0  0  0  0  0  0
    5.3310   -2.1510    0.0000 C   0  0  0  0  0  0  0  0  0  0  0  0
    6.7000   -2.7660    0.0000 C   0  0  0  0  0  0  0  0  0  0  0  0
  1  2  2  0  0  0  0
  2  3  1  0  0  0  0
  5  2  1  6  0  0  0
  3  4  1  0  0  0  0
  5  6  1  1  0  0  0
  5  7  1  0  0  0  0
  5 26  1  0  0  0  0
  7  8  1  6  0  0  0
  7  9  1  0  0  0  0
  7 14  1  0  0  0  0
  9 10  1  0  0  0  0
  9 25  1  6  0  0  0
 10 11  1  0  0  0  0
 10 24  1  1  0  0  0
 11 12  1  6  0  0  0
 11 15  1  0  0  0  0
 12 13  2  0  0  0  0
 12 14  1  0  0  0  0
 15 16  1  6  0  0  0
 15 17  1  0  0  0  0
 15 22  1  0  0  0  0
 17 18  2  0  0  0  0
 17 23  1  0  0  0  0
 18 19  1  0  0  0  0
 19 20  2  0  0  0  0
 19 21  1  0  0  0  0
 21 22  1  0  0  0  0
 23 24  1  0  0  0  0
 25 26  1  0  0  0  0
M  END
>  <name>
O=C(C[O;ester])[C@]1(O)[C@]2(C)[C@H]([C@H]3[C@H](C(=O)C2)[C@]2(C)C(=CC(=O)CC2)CC3)CC1

>  <apo>
1

>  <freq>
1

>  <freq0>
0

>  <freq1>
1

>  <freqA>
0.99887151

>  <a_count>
54

$$$$

  MOE2015           2D

 31 34  0  0  1  0  0  0  0  0999 V2000
   13.6110   -4.5660    0.0000 O   0  0  0  0  0  0  0  0  0  0  0  0
   12.3120   -5.3160    0.0000 C   0  0  0  0  0  0  0  0  0  0  0  0
   12.3120   -6.8160    0.0000 N   0  0  0  0  0  0  0  0  0  0  0  0
   11.0130   -4.5660    0.0000 C   0  0  0  0  0  0  0  0  0  0  0  0
    9.7140   -5.3160    0.0000 C   0  0  0  0  0  0  0  0  0  0  0  0
    9.7140   -6.8160    0.0000 O   0  0  0  0  0  0  0  0  0  0  0  0
    8.4140   -4.5660    0.0000 C   0  0  1  0  0  0  0  0  0  0  0  0
    8.4140   -6.0660    0.0000 O   0  0  0  0  0  0  0  0  0  0  0  0
    7.1150   -5.3160    0.0000 C   0  0  0  0  0  0  0  0  0  0  0  0
    7.1150   -6.8160    0.0000 O   0  0  0  0  0  0  0  0  0  0  0  0
    5.8160   -4.5660    0.0000 C   0  0  0  0  0  0  0  0  0  0  0  0
    4.5170   -5.3160    0.0000 C   0  0  0  0  0  0  0  0  0  0  0  0
    4.5170   -6.8160    0.0000 O   0  0  0  0  0  0  0  0  0  0  0  0
    3.2180   -4.5660    0.0000 C   0  0  0  0  0  0  0  0  0  0  0  0
    1.9190   -5.3160    0.0000 C   0  0  0  0  0  0  0  0  0  0  0  0
    1.9190   -6.8160    0.0000 O   0  0  0  0  0  0  0  0  0  0  0  0
    0.6200   -4.5660    0.0000 C   0  0  0  0  0  0  0  0  0  0  0  0
   -0.6790   -5.3160    0.0000 N   0  0  0  0  0  0  0  0  0  0  0  0
    0.6200   -3.0660    0.0000 C   0  0  0  0  0  0  0  0  0  0  0  0
    1.9190   -2.3160    0.0000 C   0  0  0  0  0  0  0  0  0  0  0  0
    1.9190   -0.8160    0.0000 N   0  0  0  0  0  0  0  0  0  0  0  0
    3.2180   -0.0660    0.0000 C   0  0  0  0  0  0  0  0  0  0  0  0
    0.6200   -0.0660    0.0000 C   0  0  0  0  0  0  0  0  0  0  0  0
    3.2180   -3.0660    0.0000 C   0  0  0  0  0  0  0  0  0  0  0  0
    4.5170   -2.3160    0.0000 C   0  0  0  0  0  0  0  0  0  0  0  0
    5.8160   -3.0660    0.0000 C   0  0  1  0  0  0  0  0  0  0  0  0
    7.1150   -2.3160    0.0000 C   0  0  0  0  0  0  0  0  0  0  0  0
    8.4140   -3.0660    0.0000 C   0  0  1  0  0  0  0  0  0  0  0  0
    9.7140   -2.3160    0.0000 C   0  0  0  0  0  0  0  0  0  0  0  0
   11.0130   -3.0660    0.0000 C   0  0  0  0  0  0  0  0  0  0  0  0
   12.3120   -2.3160    0.0000 O   0  0  0  0  0  0  0  0  0  0  0  0
  1  2  2  0  0  0  0
  2  3  1  0  0  0  0
  2  4  1  0  0  0  0
  4  5  1  0  0  0  0
  4 30  2  0  0  0  0
  5  6  2  0  0  0  0
  5  7  1  0  0  0  0
  7  8  1  6  0  0  0
  7  9  1  0  0  0  0
  7 28  1  0  0  0  0
  9 10  1  0  0  0  0
  9 11  2  0  0  0  0
 11 12  1  0  0  0  0
 26 11  1  1  0  0  0
 12 13  2  0  0  0  0
 12 14  1  0  0  0  0
 14 15  2  0  0  0  0
 14 24  1  0  0  0  0
 15 16  1  0  0  0  0
 15 17  1  0  0  0  0
 17 18  1  0  0  0  0
 17 19  2  0  0  0  0
 19 20  1  0  0  0  0
 20 21  1  0  0  0  0
 20 24  2  0  0  0  0
 21 22  1  0  0  0  0
 21 23  1  0  0  0  0
 24 25  1  0  0  0  0
 25 26  1  0  0  0  0
 26 27  1  0  0  0  0
 27 28  1  0  0  0  0
 28 29  1  1  0  0  0
 29 30  1  0  0  0  0
 30 31  1  0  0  0  0
M  END
>  <name>
O=C(N)C=1C(=O)[C@@]2(O)C(O)=C3C(=O)c4c(O)c([N;amide])cc(N(C)C)c4C[C@H]3C[C@H]2[C;amine]C=1O

>  <apo>
2

>  <freq>
1

>  <freq0>
0

>  <freq1>
1

>  <freqA>
0.99887151

>  <a_count>
54

$$$$

  MOE2015           2D

 29 31  0  0  1  0  0  0  0  0999 V2000
   -1.3810    4.6190    0.0000 O   0  0  0  0  0  0  0  0  0  0  0  0
   -2.8810    4.6190    0.0000 C   0  0  0  0  0  0  0  0  0  0  0  0
   -3.6310    5.9180    0.0000 O   0  0  0  0  0  0  0  0  0  0  0  0
   -2.8810    7.2170    0.0000 C   0  0  0  0  0  0  0  0  0  0  0  0
   -3.6310    3.3200    0.0000 C   0  0  1  0  0  0  0  0  0  0  0  0
   -2.8810    2.0210    0.0000 C   0  0  2  0  0  0  0  0  0  0  0  0
   -1.4720    1.5080    0.0000 N   0  0  0  0  0  0  0  0  0  0  0  0
   -0.1730    2.2580    0.0000 C   0  0  0  0  0  0  0  0  0  0  0  0
   -0.1730    3.7580    0.0000 O   0  0  0  0  0  0  0  0  0  0  0  0
    1.1260    1.5080    0.0000 O   0  0  0  0  0  0  0  0  0  0  0  0
    2.4250    2.2580    0.0000 C   0  0  0  0  0  0  0  0  0  0  0  0
    3.7240    1.5080    0.0000 N   0  3  0  0  0  0  0  0  0  0  0  0
    5.0240    2.2580    0.0000 C   0  0  0  0  0  0  0  0  0  0  0  0
    6.3230    1.5080    0.0000 C   0  0  0  0  0  0  0  0  0  0  0  0
    7.6220    2.2580    0.0000 C   0  0  0  0  0  0  0  0  0  0  0  0
    8.9210    1.5080    0.0000 O   0  0  0  0  0  0  0  0  0  0  0  0
    6.3230    0.0080    0.0000 C   0  0  0  0  0  0  0  0  0  0  0  0
    5.0240   -0.7420    0.0000 C   0  0  0  0  0  0  0  0  0  0  0  0
    3.7240    0.0080    0.0000 C   0  0  0  0  0  0  0  0  0  0  0  0
   -1.2110    0.0310    0.0000 C   0  0  0  0  0  0  0  0  0  0  0  0
   -2.3600   -0.9330    0.0000 C   0  0  0  0  0  0  0  0  0  0  0  0
   -3.7700   -0.4200    0.0000 C   0  0  0  0  0  0  0  0  0  0  0  0
   -4.0300    1.0570    0.0000 C   0  0  0  0  0  0  0  0  0  0  0  0
   -5.1310    3.3200    0.0000 C   0  0  0  0  0  0  0  0  0  0  0  0
   -5.8810    4.6190    0.0000 C   0  0  0  0  0  0  0  0  0  0  0  0
   -7.3810    4.6190    0.0000 C   0  0  0  0  0  0  0  0  0  0  0  0
   -8.1310    3.3200    0.0000 C   0  0  0  0  0  0  0  0  0  0  0  0
   -7.3810    2.0210    0.0000 C   0  0  0  0  0  0  0  0  0  0  0  0
   -5.8810    2.0210    0.0000 C   0  0  0  0  0  0  0  0  0  0  0  0
  1  2  2  0  0  0  0
  2  3  1  0  0  0  0
  5  2  1  1  0  0  0
  3  4  1  0  0  0  0
  5  6  1  0  0  0  0
  5 24  1  0  0  0  0
  6  7  1  0  0  0  0
  6 23  1  6  0  0  0
  7  8  1  0  0  0  0
  7 20  1  0  0  0  0
  8  9  2  0  0  0  0
  8 10  1  0  0  0  0
 10 11  1  0  0  0  0
 11 12  1  0  0  0  0
 12 13  2  0  0  0  0
 12 19  1  0  0  0  0
 13 14  1  0  0  0  0
 14 15  1  0  0  0  0
 14 17  2  0  0  0  0
 15 16  2  0  0  0  0
 17 18  1  0  0  0  0
 18 19  2  0  0  0  0
 20 21  1  0  0  0  0
 21 22  1  0  0  0  0
 22 23  1  0  0  0  0
 24 25  1  0  0  0  0
 24 29  2  0  0  0  0
 25 26  2  0  0  0  0
 26 27  1  0  0  0  0
 27 28  2  0  0  0  0
 28 29  1  0  0  0  0
M  CHG  1  12   1
M  END
>  <name>
O=C(OC)[C@@H]([C@@H]1N(C(=O)OC[n+]2cc([C;amide]=O)ccc2)CCCC1)c1ccccc1

>  <apo>
1

>  <freq>
1

>  <freq0>
0

>  <freq1>
1

>  <freqA>
0.99887151

>  <a_count>
54

$$$$

  MOE2015           2D

 22 25  0  0  1  0  0  0  0  0999 V2000
   12.0120   -0.3250    0.0000 O   0  0  0  0  0  0  0  0  0  0  0  0
   10.5120   -0.3340    0.0000 C   0  0  0  0  0  0  0  0  0  0  0  0
    9.7700   -1.6370    0.0000 C   0  0  2  0  0  0  0  0  0  0  0  0
   10.5280   -2.9320    0.0000 C   0  0  0  0  0  0  0  0  0  0  0  0
    8.2700   -1.6460    0.0000 C   0  0  0  0  0  0  0  0  0  0  0  0
    7.5120   -0.3520    0.0000 C   0  0  2  0  0  0  0  0  0  0  0  0
    6.7250   -1.6280    0.0000 C   0  0  0  0  0  0  0  0  0  0  0  0
    6.0120   -0.3600    0.0000 C   0  0  2  0  0  0  0  0  0  0  0  0
    5.2550    0.9340    0.0000 C   0  0  2  0  0  0  0  0  0  0  0  0
    3.7550    0.9250    0.0000 C   0  0  1  0  0  0  0  0  0  0  0  0
    3.0120   -0.3780    0.0000 C   0  0  1  0  0  0  0  0  0  0  0  0
    2.1170   -1.5820    0.0000 C   0  0  0  0  0  0  0  0  0  0  0  0
    1.5430   -0.0750    0.0000 C   0  0  1  0  0  0  0  0  0  0  0  0
    0.4350   -1.0850    0.0000 O   0  0  0  0  0  0  0  0  0  0  0  0
    1.3780    1.4160    0.0000 C   0  0  0  0  0  0  0  0  0  0  0  0
    2.7440    2.0340    0.0000 C   0  0  0  0  0  0  0  0  0  0  0  0
    3.7700   -1.6730    0.0000 C   0  0  0  0  0  0  0  0  0  0  0  0
    5.2700   -1.6640    0.0000 C   0  0  0  0  0  0  0  0  0  0  0  0
    5.9970    2.2380    0.0000 C   0  0  0  0  0  0  0  0  0  0  0  0
    7.4970    2.2460    0.0000 C   0  0  0  0  0  0  0  0  0  0  0  0
    8.2550    0.9520    0.0000 C   0  0  1  0  0  0  0  0  0  0  0  0
    9.7550    0.9610    0.0000 C   0  0  0  0  0  0  0  0  0  0  0  0
  1  2  2  0  0  0  0
  2  3  1  0  0  0  0
  2 22  1  0  0  0  0
  3  4  1  6  0  0  0
  3  5  1  0  0  0  0
  5  6  1  0  0  0  0
  6  7  1  1  0  0  0
  6  8  1  0  0  0  0
  6 21  1  0  0  0  0
  8  9  1  0  0  0  0
  8 18  1  1  0  0  0
  9 10  1  0  0  0  0
  9 19  1  6  0  0  0
 10 11  1  0  0  0  0
 10 16  1  1  0  0  0
 11 12  1  1  0  0  0
 11 13  1  0  0  0  0
 11 17  1  0  0  0  0
 13 14  1  1  0  0  0
 13 15  1  0  0  0  0
 15 16  1  0  0  0  0
 17 18  1  0  0  0  0
 19 20  1  0  0  0  0
 20 21  1  0  0  0  0
 21 22  1  1  0  0  0
M  END
>  <name>
O=C1[C@H](C)C[C@]2(C)[C@@H]3[C@H]([C@H]4[C@@](C)([C@@H]([O;ester])CC4)CC3)CC[C@H]2C1

>  <apo>
1

>  <freq>
1

>  <freq0>
0

>  <freq1>
1

>  <freqA>
0.99887151

>  <a_count>
54

$$$$

  MOE2015           2D

 26 30  0  0  1  0  0  0  0  0999 V2000
    1.6720    2.7980    0.0000 Cl  0  0  0  0  0  0  0  0  0  0  0  0
    2.3820    1.4770    0.0000 C   0  0  0  0  0  0  0  0  0  0  0  0
    1.5850    0.2060    0.0000 C   0  0  0  0  0  0  0  0  0  0  0  0
    2.3590   -1.0800    0.0000 C   0  0  2  0  0  0  0  0  0  0  0  0
    3.0860   -2.3920    0.0000 C   0  0  0  0  0  0  0  0  0  0  0  0
    1.5000   -2.3100    0.0000 C   0  0  2  0  0  0  0  0  0  0  0  0
    0.0040   -2.4110    0.0000 C   0  0  2  0  0  0  0  0  0  0  0  0
   -0.7600   -1.1190    0.0000 C   0  0  0  0  0  0  0  0  0  0  0  0
   -2.2590   -1.0700    0.0000 O   0  0  0  0  0  0  0  0  0  0  0  0
    0.0860    0.1200    0.0000 C   0  0  0  0  0  0  0  0  0  0  0  0
    0.8400   -3.6560    0.0000 C   0  0  0  0  0  0  0  0  0  0  0  0
    3.8620   -1.0680    0.0000 C   0  0  2  0  0  0  0  0  0  0  0  0
    4.6950    0.1800    0.0000 C   0  0  2  0  0  0  0  0  0  0  0  0
    6.1960    0.1590    0.0000 C   0  0  1  0  0  0  0  0  0  0  0  0
    6.9430   -1.1420    0.0000 C   0  0  1  0  0  0  0  0  0  0  0  0
    7.7810   -2.3860    0.0000 C   0  0  0  0  0  0  0  0  0  0  0  0
    8.4110   -0.8330    0.0000 C   0  0  1  0  0  0  0  0  0  0  0  0
    8.8690   -2.2620    0.0000 O   0  0  0  0  0  0  0  0  0  0  0  0
    9.8890   -1.0880    0.0000 C   0  0  0  0  0  0  0  0  0  0  0  0
   10.8490    0.0640    0.0000 O   0  0  0  0  0  0  0  0  0  0  0  0
   10.4070   -2.4960    0.0000 C   0  0  0  0  0  0  0  0  0  0  0  0
    8.5710    0.6580    0.0000 C   0  0  0  0  0  0  0  0  0  0  0  0
    7.2020    1.2720    0.0000 C   0  0  0  0  0  0  0  0  0  0  0  0
    6.1740   -2.4310    0.0000 C   0  0  0  0  0  0  0  0  0  0  0  0
    4.6780   -2.3270    0.0000 C   0  0  0  0  0  0  0  0  0  0  0  0
    3.8820    1.4420    0.0000 C   0  0  0  0  0  0  0  0  0  0  0  0
  1  2  1  0  0  0  0
  2  3  1  0  0  0  0
  2 26  2  0  0  0  0
  3  4  1  0  0  0  0
  3 10  2  0  0  0  0
  4  5  1  6  0  0  0
  4  6  1  0  0  0  0
  4 12  1  0  0  0  0
  6  7  1  0  0  0  0
  6 11  1  1  0  0  0
  7  8  1  1  0  0  0
  7 11  1  0  0  0  0
  8  9  2  0  0  0  0
  8 10  1  0  0  0  0
 12 13  1  0  0  0  0
 12 25  1  6  0  0  0
 13 14  1  0  0  0  0
 13 26  1  1  0  0  0
 14 15  1  0  0  0  0
 14 23  1  6  0  0  0
 15 16  1  6  0  0  0
 15 17  1  0  0  0  0
 15 24  1  0  0  0  0
 17 18  1  1  0  0  0
 17 19  1  6  0  0  0
 17 22  1  0  0  0  0
 19 20  2  0  0  0  0
 19 21  1  0  0  0  0
 22 23  1  0  0  0  0
 24 25  1  0  0  0  0
M  END
>  <name>
ClC=1C=2[C@](C)([C@@H]3[C@H](C(=O)C=2)C3)[C@@H]2[C@H]([C@H]3[C@@](C)([C@@]([O;ester])(C(=O)C)CC3)CC2)C=1

>  <apo>
1

>  <freq>
1

>  <freq0>
0

>  <freq1>
1

>  <freqA>
0.99887151

>  <a_count>
53

$$$$

  MOE2015           2D

 27 30  0  0  1  0  0  0  0  0999 V2000
    7.6030    4.3950    0.0000 F   0  0  0  0  0  0  0  0  0  0  0  0
    6.8540    3.0950    0.0000 C   0  0  2  0  0  0  0  0  0  0  0  0
    7.6060    1.7970    0.0000 C   0  0  0  0  0  0  0  0  0  0  0  0
    6.8570    0.4970    0.0000 C   0  0  1  0  0  0  0  0  0  0  0  0
    6.1320   -0.8150    0.0000 C   0  0  0  0  0  0  0  0  0  0  0  0
    5.3570    0.4960    0.0000 C   0  0  1  0  0  0  0  0  0  0  0  0
    3.8580    0.4680    0.0000 F   0  0  0  0  0  0  0  0  0  0  0  0
    4.6090   -0.8040    0.0000 C   0  0  1  0  0  0  0  0  0  0  0  0
    5.3600   -2.1020    0.0000 O   0  0  0  0  0  0  0  0  0  0  0  0
    3.1090   -0.8060    0.0000 C   0  0  0  0  0  0  0  0  0  0  0  0
    2.3570    0.4920    0.0000 C   0  0  2  0  0  0  0  0  0  0  0  0
    1.5200   -0.7520    0.0000 C   0  0  0  0  0  0  0  0  0  0  0  0
    0.8900    0.8020    0.0000 C   0  0  1  0  0  0  0  0  0  0  0  0
    0.4340   -0.6270    0.0000 O   0  0  0  0  0  0  0  0  0  0  0  0
   -0.5880    0.5460    0.0000 C   0  0  0  0  0  0  0  0  0  0  0  0
   -1.5490    1.6990    0.0000 O   0  0  0  0  0  0  0  0  0  0  0  0
    0.7310    2.2940    0.0000 C   0  0  2  0  0  0  0  0  0  0  0  0
   -0.5690    3.0420    0.0000 C   0  0  0  0  0  0  0  0  0  0  0  0
    2.1010    2.9060    0.0000 C   0  0  0  0  0  0  0  0  0  0  0  0
    3.1060    1.7920    0.0000 C   0  0  1  0  0  0  0  0  0  0  0  0
    4.6060    1.7940    0.0000 C   0  0  2  0  0  0  0  0  0  0  0  0
    5.3540    3.0940    0.0000 C   0  0  0  0  0  0  0  0  0  0  0  0
    7.6090   -0.8010    0.0000 C   0  0  0  0  0  0  0  0  0  0  0  0
    9.1090   -0.7990    0.0000 C   0  0  0  0  0  0  0  0  0  0  0  0
    9.8570    0.5010    0.0000 C   0  0  0  0  0  0  0  0  0  0  0  0
   11.3570    0.5030    0.0000 O   0  0  0  0  0  0  0  0  0  0  0  0
    9.1060    1.7990    0.0000 C   0  0  0  0  0  0  0  0  0  0  0  0
  2  1  1  6  0  0  0
  2  3  1  0  0  0  0
  2 22  1  0  0  0  0
  3  4  1  0  0  0  0
  3 27  2  0  0  0  0
  4  5  1  1  0  0  0
  4  6  1  0  0  0  0
  4 23  1  0  0  0  0
  6  7  1  6  0  0  0
  6  8  1  0  0  0  0
  6 21  1  0  0  0  0
  8  9  1  1  0  0  0
  8 10  1  0  0  0  0
 10 11  1  0  0  0  0
 11 12  1  1  0  0  0
 11 13  1  0  0  0  0
 11 20  1  0  0  0  0
 13 14  1  6  0  0  0
 13 15  1  1  0  0  0
 13 17  1  0  0  0  0
 15 16  2  0  0  0  0
 17 18  1  6  0  0  0
 17 19  1  0  0  0  0
 20 19  1  1  0  0  0
 20 21  1  0  0  0  0
 21 22  1  6  0  0  0
 23 24  2  0  0  0  0
 24 25  1  0  0  0  0
 25 26  2  0  0  0  0
 25 27  1  0  0  0  0
M  END
>  <name>
F[C@@H]1C=2[C@@](C)([C@@]3(F)[C@@H](O)C[C@]4(C)[C@@](O)([C;thioester]=O)[C@H](C)C[C@H]4[C@@H]3C1)C=CC(=O)C=2

>  <apo>
1

>  <freq>
1

>  <freq0>
0

>  <freq1>
1

>  <freqA>
0.99887151

>  <a_count>
53

$$$$

  MOE2015           2D

 24 27  0  0  1  0  0  0  0  0999 V2000
   11.9380   -4.7210    0.0000 O   0  0  0  0  0  0  0  0  0  0  0  0
   11.2000   -6.0260    0.0000 N   0  0  0  0  0  0  0  0  0  0  0  0
    9.7000   -6.0400    0.0000 C   0  0  0  0  0  0  0  0  0  0  0  0
    8.9380   -4.7470    0.0000 C   0  0  0  0  0  0  0  0  0  0  0  0
    7.4390   -4.7600    0.0000 C   0  0  0  0  0  0  0  0  0  0  0  0
    6.7000   -6.0660    0.0000 C   0  0  1  0  0  0  0  0  0  0  0  0
    5.2000   -6.0790    0.0000 C   0  0  2  0  0  0  0  0  0  0  0  0
    4.4390   -4.7870    0.0000 C   0  0  2  0  0  0  0  0  0  0  0  0
    2.9390   -4.8000    0.0000 C   0  0  1  0  0  0  0  0  0  0  0  0
    2.2000   -6.1050    0.0000 C   0  0  1  0  0  0  0  0  0  0  0  0
    1.3080   -7.3110    0.0000 C   0  0  0  0  0  0  0  0  0  0  0  0
    1.9060   -8.6870    0.0000 C   0  0  0  0  0  0  0  0  0  0  0  0
    0.7300   -5.8060    0.0000 C   0  0  2  0  0  0  0  0  0  0  0  0
    0.3360   -7.2540    0.0000 O   0  0  0  0  0  0  0  0  0  0  0  0
   -0.7360   -6.1250    0.0000 C   0  0  0  0  0  0  0  0  0  0  0  0
   -2.2010   -6.4430    0.0000 C   0  0  0  0  0  0  0  0  0  0  0  0
    0.5600   -4.3160    0.0000 C   0  0  0  0  0  0  0  0  0  0  0  0
    1.9250   -3.6940    0.0000 C   0  0  0  0  0  0  0  0  0  0  0  0
    2.9620   -7.3980    0.0000 C   0  0  0  0  0  0  0  0  0  0  0  0
    4.4610   -7.3850    0.0000 C   0  0  0  0  0  0  0  0  0  0  0  0
    5.1770   -3.4810    0.0000 C   0  0  0  0  0  0  0  0  0  0  0  0
    6.6770   -3.4680    0.0000 C   0  0  0  0  0  0  0  0  0  0  0  0
    7.4610   -7.3580    0.0000 C   0  0  0  0  0  0  0  0  0  0  0  0
    8.9610   -7.3450    0.0000 C   0  0  0  0  0  0  0  0  0  0  0  0
  1  2  1  0  0  0  0
  2  3  2  0  0  0  0
  3  4  1  0  0  0  0
  3 24  1  0  0  0  0
  4  5  2  0  0  0  0
  6  5  1  6  0  0  0
  5 22  1  0  0  0  0
  6  7  1  0  0  0  0
  6 23  1  0  0  0  0
  7  8  1  0  0  0  0
  7 20  1  1  0  0  0
  8  9  1  0  0  0  0
  8 21  1  6  0  0  0
  9 10  1  0  0  0  0
  9 18  1  1  0  0  0
 10 11  1  1  0  0  0
 10 13  1  0  0  0  0
 10 19  1  0  0  0  0
 11 12  1  0  0  0  0
 13 14  1  1  0  0  0
 13 15  1  6  0  0  0
 13 17  1  0  0  0  0
 15 16  3  0  0  0  0
 17 18  1  0  0  0  0
 19 20  1  0  0  0  0
 21 22  1  0  0  0  0
 23 24  1  0  0  0  0
M  END
>  <name>
O/N=C/1\C=C2[C@@H]([C@@H]3[C@H]([C@H]4[C@@](CC)([C@]([O;ester])(C#C)CC4)CC3)CC2)CC\1

>  <apo>
1

>  <freq>
1

>  <freq0>
0

>  <freq1>
1

>  <freqA>
0.99887151

>  <a_count>
53

$$$$

  MOE2015           2D

 27 29  0  0  0  0  0  0  0  0999 V2000
    1.2590    4.6990    0.0000 O   0  0  0  0  0  0  0  0  0  0  0  0
    2.5580    3.9490    0.0000 C   0  0  0  0  0  0  0  0  0  0  0  0
    3.8570    4.6990    0.0000 N   0  0  0  0  0  0  0  0  0  0  0  0
    2.5580    2.4490    0.0000 C   0  0  0  0  0  0  0  0  0  0  0  0
    3.8570    1.6990    0.0000 C   0  0  0  0  0  0  0  0  0  0  0  0
    5.1560    2.4490    0.0000 N   0  0  0  0  0  0  0  0  0  0  0  0
    6.4550    1.6990    0.0000 C   0  0  0  0  0  0  0  0  0  0  0  0
    7.7540    2.4490    0.0000 C   0  0  0  0  0  0  0  0  0  0  0  0
    9.0530    1.6990    0.0000 C   0  0  0  0  0  0  0  0  0  0  0  0
   10.3520    2.4490    0.0000 O   0  0  0  0  0  0  0  0  0  0  0  0
   10.3520    3.9490    0.0000 C   0  0  0  0  0  0  0  0  0  0  0  0
    9.0530    0.1990    0.0000 C   0  0  0  0  0  0  0  0  0  0  0  0
   10.3520   -0.5510    0.0000 N   0  0  0  0  0  0  0  0  0  0  0  0
   10.3520   -2.0510    0.0000 C   0  0  0  0  0  0  0  0  0  0  0  0
   11.6510   -2.8010    0.0000 C   0  0  0  0  0  0  0  0  0  0  0  0
   12.9510   -2.0510    0.0000 C   0  0  0  0  0  0  0  0  0  0  0  0
   12.9510   -0.5510    0.0000 C   0  0  0  0  0  0  0  0  0  0  0  0
   11.6510    0.1990    0.0000 C   0  0  0  0  0  0  0  0  0  0  0  0
    7.7540   -0.5510    0.0000 C   0  0  0  0  0  0  0  0  0  0  0  0
    6.4550    0.1990    0.0000 C   0  0  0  0  0  0  0  0  0  0  0  0
    3.8570    0.1990    0.0000 N   0  0  0  0  0  0  0  0  0  0  0  0
    2.5580   -0.5510    0.0000 C   0  0  0  0  0  0  0  0  0  0  0  0
    2.5580   -2.0510    0.0000 N   0  0  0  0  0  0  0  0  0  0  0  0
    1.2590    0.1990    0.0000 C   0  0  0  0  0  0  0  0  0  0  0  0
   -0.0400   -0.5510    0.0000 C   0  0  0  0  0  0  0  0  0  0  0  0
   -1.3390    0.1990    0.0000 C   0  0  0  0  0  0  0  0  0  0  0  0
    1.2590    1.6990    0.0000 N   0  0  0  0  0  0  0  0  0  0  0  0
  1  2  2  0  0  0  0
  2  3  1  0  0  0  0
  2  4  1  0  0  0  0
  4  5  1  0  0  0  0
  4 27  2  0  0  0  0
  5  6  1  0  0  0  0
  5 21  2  0  0  0  0
  6  7  1  0  0  0  0
  7  8  1  0  0  0  0
  7 20  2  0  0  0  0
  8  9  2  0  0  0  0
  9 10  1  0  0  0  0
  9 12  1  0  0  0  0
 10 11  1  0  0  0  0
 12 13  1  0  0  0  0
 12 19  2  0  0  0  0
 13 14  1  0  0  0  0
 13 18  1  0  0  0  0
 14 15  1  0  0  0  0
 15 16  1  0  0  0  0
 16 17  1  0  0  0  0
 17 18  1  0  0  0  0
 19 20  1  0  0  0  0
 21 22  1  0  0  0  0
 22 23  1  0  0  0  0
 22 24  2  0  0  0  0
 24 25  1  0  0  0  0
 24 27  1  0  0  0  0
 25 26  1  0  0  0  0
M  END
>  <name>
O=C(N)c1c(Nc2cc(OC)c(N3CC[C;amine]CC3)cc2)nc([N;amine])c(CC)n1

>  <apo>
2

>  <freq>
1

>  <freq0>
0

>  <freq1>
1

>  <freqA>
0.99887151

>  <a_count>
53

$$$$

  MOE2015           2D

 25 28  0  0  1  0  0  0  0  0999 V2000
    3.3090   -0.1440    0.0000 O   0  0  0  0  0  0  0  0  0  0  0  0
    2.2270    0.8940    0.0000 C   0  0  0  0  0  0  0  0  0  0  0  0
    3.1610    1.9430    0.0000 C   0  0  1  0  0  0  0  0  0  0  0  0
    4.6380    1.2100    0.0000 C   0  0  2  0  0  0  0  0  0  0  0  0
    5.8770    0.3430    0.0000 C   0  0  0  0  0  0  0  0  0  0  0  0
    7.1180    1.1850    0.0000 C   0  0  0  0  0  0  0  0  0  0  0  0
    7.0300   -0.6170    0.0000 C   0  0  0  0  0  0  0  0  0  0  0  0
    4.5260   -0.3190    0.0000 C   0  0  2  0  0  0  0  0  0  0  0  0
    3.5300   -1.3540    0.0000 C   0  0  0  0  0  0  0  0  0  0  0  0
    2.0120   -1.5310    0.0000 C   0  0  1  0  0  0  0  0  0  0  0  0
    1.3300   -2.8670    0.0000 C   0  0  0  0  0  0  0  0  0  0  0  0
    1.2080   -0.0930    0.0000 C   0  0  2  0  0  0  0  0  0  0  0  0
   -0.1960    0.6010    0.0000 C   0  0  1  0  0  0  0  0  0  0  0  0
   -1.5790    1.1830    0.0000 O   0  0  0  0  0  0  0  0  0  0  0  0
   -0.1810    2.1420    0.0000 C   0  0  2  0  0  0  0  0  0  0  0  0
   -1.5710    2.7070    0.0000 O   0  0  0  0  0  0  0  0  0  0  0  0
    0.8170    3.1870    0.0000 C   0  0  0  0  0  0  0  0  0  0  0  0
    0.1530    4.5320    0.0000 C   0  0  0  0  0  0  0  0  0  0  0  0
    0.9850    5.7800    0.0000 O   0  0  0  0  0  0  0  0  0  0  0  0
    2.3290    3.3540    0.0000 C   0  0  0  0  0  0  0  0  0  0  0  0
   -1.2090   -0.4880    0.0000 C   0  0  1  0  0  0  0  0  0  0  0  0
   -2.6960   -0.2910    0.0000 O   0  0  0  0  0  0  0  0  0  0  0  0
   -0.5120   -1.8100    0.0000 C   0  0  0  0  0  0  0  0  0  0  0  0
   -1.1750   -3.1560    0.0000 C   0  0  0  0  0  0  0  0  0  0  0  0
    0.9600   -1.5590    0.0000 C   0  0  0  0  0  0  0  0  0  0  0  0
  1  2  2  0  0  0  0
  2  3  1  0  0  0  0
  2 12  1  0  0  0  0
  3  4  1  0  0  0  0
  3 20  1  6  0  0  0
  4  5  1  6  0  0  0
  4  8  1  0  0  0  0
  5  6  1  0  0  0  0
  5  7  1  0  0  0  0
  5  8  1  0  0  0  0
  8  9  1  6  0  0  0
  9 10  1  0  0  0  0
 10 11  1  1  0  0  0
 10 12  1  0  0  0  0
 12 13  1  0  0  0  0
 12 25  1  1  0  0  0
 13 14  1  1  0  0  0
 13 15  1  0  0  0  0
 13 21  1  0  0  0  0
 15 16  1  6  0  0  0
 15 17  1  0  0  0  0
 17 18  1  0  0  0  0
 17 20  2  0  0  0  0
 18 19  1  0  0  0  0
 21 22  1  6  0  0  0
 21 23  1  0  0  0  0
 23 24  1  0  0  0  0
 23 25  2  0  0  0  0
M  END
>  <name>
O=C1[C@H]2[C@@H]3C(C)(C)[C@@H]3C[C@@H](C)[C@@]31[C@@](O)([C@H](O)C(CO)=C2)[C@@H]([O;ester])C(C)=C3

>  <apo>
1

>  <freq>
1

>  <freq0>
0

>  <freq1>
1

>  <freqA>
0.99887151

>  <a_count>
53

$$$$

  MOE2015           2D

 21 24  0  0  1  0  0  0  0  0999 V2000
   -0.7040   -3.8680    0.0000 O   0  0  0  0  0  0  0  0  0  0  0  0
    0.4070   -2.8600    0.0000 C   0  0  1  0  0  0  0  0  0  0  0  0
    1.8750   -3.1660    0.0000 C   0  0  2  0  0  0  0  0  0  0  0  0
    1.0190   -4.3980    0.0000 C   0  0  0  0  0  0  0  0  0  0  0  0
    2.6200   -1.8650    0.0000 C   0  0  2  0  0  0  0  0  0  0  0  0
    4.1200   -1.8590    0.0000 C   0  0  1  0  0  0  0  0  0  0  0  0
    4.8750   -3.1550    0.0000 C   0  0  1  0  0  0  0  0  0  0  0  0
    6.3750   -3.1490    0.0000 C   0  0  2  0  0  0  0  0  0  0  0  0
    5.6300   -4.4510    0.0000 C   0  0  0  0  0  0  0  0  0  0  0  0
    7.1200   -1.8480    0.0000 C   0  0  2  0  0  0  0  0  0  0  0  0
    8.6200   -1.8420    0.0000 C   0  0  0  0  0  0  0  0  0  0  0  0
    9.3750   -3.1380    0.0000 C   0  0  1  0  0  0  0  0  0  0  0  0
   10.8750   -3.1320    0.0000 O   0  0  0  0  0  0  0  0  0  0  0  0
    8.6300   -4.4400    0.0000 C   0  0  0  0  0  0  0  0  0  0  0  0
    7.1300   -4.4460    0.0000 C   0  0  0  0  0  0  0  0  0  0  0  0
    6.3650   -0.5510    0.0000 C   0  0  0  0  0  0  0  0  0  0  0  0
    4.8650   -0.5570    0.0000 C   0  0  0  0  0  0  0  0  0  0  0  0
    4.1300   -4.4570    0.0000 C   0  0  0  0  0  0  0  0  0  0  0  0
    2.6300   -4.4630    0.0000 C   0  0  0  0  0  0  0  0  0  0  0  0
    1.6120   -0.7540    0.0000 C   0  0  0  0  0  0  0  0  0  0  0  0
    0.2440   -1.3690    0.0000 C   0  0  0  0  0  0  0  0  0  0  0  0
  2  1  1  6  0  0  0
  2  3  1  0  0  0  0
  2 21  1  0  0  0  0
  3  4  1  1  0  0  0
  3  5  1  0  0  0  0
  3 19  1  0  0  0  0
  5  6  1  0  0  0  0
  5 20  1  1  0  0  0
  6  7  1  0  0  0  0
  6 17  1  6  0  0  0
  7  8  1  0  0  0  0
  7 18  1  1  0  0  0
  8  9  1  1  0  0  0
  8 10  1  0  0  0  0
  8 15  1  0  0  0  0
 10 11  1  0  0  0  0
 10 16  1  1  0  0  0
 11 12  1  0  0  0  0
 12 13  1  1  0  0  0
 12 14  1  0  0  0  0
 14 15  1  0  0  0  0
 16 17  1  0  0  0  0
 18 19  1  0  0  0  0
 20 21  1  0  0  0  0
M  END
>  <name>
[O;ester][C@H]1[C@]2(C)[C@H]([C@H]3[C@@H]([C@]4(C)[C@H](C[C@@H](O)[C;amine]C4)CC3)CC2)C[C;quatN]1

>  <apo>
3

>  <freq>
1

>  <freq0>
0

>  <freq1>
1

>  <freqA>
0.99887151

>  <a_count>
53

$$$$

  MOE2015           2D

 21 24  0  0  1  0  0  0  0  0999 V2000
   -0.7040   -3.8680    0.0000 O   0  0  0  0  0  0  0  0  0  0  0  0
    0.4070   -2.8600    0.0000 C   0  0  1  0  0  0  0  0  0  0  0  0
    1.8750   -3.1660    0.0000 C   0  0  2  0  0  0  0  0  0  0  0  0
    1.0190   -4.3980    0.0000 C   0  0  0  0  0  0  0  0  0  0  0  0
    2.6200   -1.8650    0.0000 C   0  0  2  0  0  0  0  0  0  0  0  0
    4.1200   -1.8590    0.0000 C   0  0  1  0  0  0  0  0  0  0  0  0
    4.8750   -3.1550    0.0000 C   0  0  1  0  0  0  0  0  0  0  0  0
    6.3750   -3.1490    0.0000 C   0  0  2  0  0  0  0  0  0  0  0  0
    5.6300   -4.4510    0.0000 C   0  0  0  0  0  0  0  0  0  0  0  0
    7.1200   -1.8480    0.0000 C   0  0  2  0  0  0  0  0  0  0  0  0
    8.6200   -1.8420    0.0000 C   0  0  0  0  0  0  0  0  0  0  0  0
    9.3750   -3.1380    0.0000 C   0  0  1  0  0  0  0  0  0  0  0  0
   10.8750   -3.1320    0.0000 O   0  0  0  0  0  0  0  0  0  0  0  0
    8.6300   -4.4400    0.0000 C   0  0  0  0  0  0  0  0  0  0  0  0
    7.1300   -4.4460    0.0000 C   0  0  0  0  0  0  0  0  0  0  0  0
    6.3650   -0.5510    0.0000 C   0  0  0  0  0  0  0  0  0  0  0  0
    4.8650   -0.5570    0.0000 C   0  0  0  0  0  0  0  0  0  0  0  0
    4.1300   -4.4570    0.0000 C   0  0  0  0  0  0  0  0  0  0  0  0
    2.6300   -4.4630    0.0000 C   0  0  0  0  0  0  0  0  0  0  0  0
    1.6120   -0.7540    0.0000 C   0  0  0  0  0  0  0  0  0  0  0  0
    0.2440   -1.3690    0.0000 C   0  0  0  0  0  0  0  0  0  0  0  0
  2  1  1  6  0  0  0
  2  3  1  0  0  0  0
  2 21  1  0  0  0  0
  3  4  1  1  0  0  0
  3  5  1  0  0  0  0
  3 19  1  0  0  0  0
  5  6  1  0  0  0  0
  5 20  1  1  0  0  0
  6  7  1  0  0  0  0
  6 17  1  6  0  0  0
  7  8  1  0  0  0  0
  7 18  1  1  0  0  0
  8  9  1  1  0  0  0
  8 10  1  0  0  0  0
  8 15  1  0  0  0  0
 10 11  1  0  0  0  0
 10 16  1  1  0  0  0
 11 12  1  0  0  0  0
 12 13  1  1  0  0  0
 12 14  1  0  0  0  0
 14 15  1  0  0  0  0
 16 17  1  0  0  0  0
 18 19  1  0  0  0  0
 20 21  1  0  0  0  0
M  END
>  <name>
[O;ester][C@H]1[C@]2(C)[C@H]([C@H]3[C@@H]([C@]4(C)[C@H](C[C@@H]([O;ester])[C;amine]C4)CC3)CC2)C[C;amine]1

>  <apo>
4

>  <freq>
1

>  <freq0>
0

>  <freq1>
1

>  <freqA>
0.99887151

>  <a_count>
53

$$$$

  MOE2015           2D

 21 24  0  0  1  0  0  0  0  0999 V2000
   -0.7040   -3.8680    0.0000 O   0  0  0  0  0  0  0  0  0  0  0  0
    0.4070   -2.8600    0.0000 C   0  0  1  0  0  0  0  0  0  0  0  0
    1.8750   -3.1660    0.0000 C   0  0  2  0  0  0  0  0  0  0  0  0
    1.0190   -4.3980    0.0000 C   0  0  0  0  0  0  0  0  0  0  0  0
    2.6200   -1.8650    0.0000 C   0  0  2  0  0  0  0  0  0  0  0  0
    4.1200   -1.8590    0.0000 C   0  0  1  0  0  0  0  0  0  0  0  0
    4.8750   -3.1550    0.0000 C   0  0  1  0  0  0  0  0  0  0  0  0
    6.3750   -3.1490    0.0000 C   0  0  2  0  0  0  0  0  0  0  0  0
    5.6300   -4.4510    0.0000 C   0  0  0  0  0  0  0  0  0  0  0  0
    7.1200   -1.8480    0.0000 C   0  0  2  0  0  0  0  0  0  0  0  0
    8.6200   -1.8420    0.0000 C   0  0  0  0  0  0  0  0  0  0  0  0
    9.3750   -3.1380    0.0000 C   0  0  1  0  0  0  0  0  0  0  0  0
   10.8750   -3.1320    0.0000 O   0  0  0  0  0  0  0  0  0  0  0  0
    8.6300   -4.4400    0.0000 C   0  0  0  0  0  0  0  0  0  0  0  0
    7.1300   -4.4460    0.0000 C   0  0  0  0  0  0  0  0  0  0  0  0
    6.3650   -0.5510    0.0000 C   0  0  0  0  0  0  0  0  0  0  0  0
    4.8650   -0.5570    0.0000 C   0  0  0  0  0  0  0  0  0  0  0  0
    4.1300   -4.4570    0.0000 C   0  0  0  0  0  0  0  0  0  0  0  0
    2.6300   -4.4630    0.0000 C   0  0  0  0  0  0  0  0  0  0  0  0
    1.6120   -0.7540    0.0000 C   0  0  0  0  0  0  0  0  0  0  0  0
    0.2440   -1.3690    0.0000 C   0  0  0  0  0  0  0  0  0  0  0  0
  2  1  1  6  0  0  0
  2  3  1  0  0  0  0
  2 21  1  0  0  0  0
  3  4  1  1  0  0  0
  3  5  1  0  0  0  0
  3 19  1  0  0  0  0
  5  6  1  0  0  0  0
  5 20  1  1  0  0  0
  6  7  1  0  0  0  0
  6 17  1  6  0  0  0
  7  8  1  0  0  0  0
  7 18  1  1  0  0  0
  8  9  1  1  0  0  0
  8 10  1  0  0  0  0
  8 15  1  0  0  0  0
 10 11  1  0  0  0  0
 10 16  1  1  0  0  0
 11 12  1  0  0  0  0
 12 13  1  1  0  0  0
 12 14  1  0  0  0  0
 14 15  1  0  0  0  0
 16 17  1  0  0  0  0
 18 19  1  0  0  0  0
 20 21  1  0  0  0  0
M  END
>  <name>
[O;ester][C@H]1[C@]2(C)[C@H]([C@H]3[C@@H]([C@]4(C)[C@H](C[C@@H]([O;ester])[C;quatN]C4)CC3)CC2)C[C;quatN]1

>  <apo>
4

>  <freq>
1

>  <freq0>
0

>  <freq1>
1

>  <freqA>
0.99887151

>  <a_count>
53

$$$$

  MOE2015           2D

 23 25  0  0  1  0  0  0  0  0999 V2000
   -4.4350    7.6810    0.0000 O   0  0  0  0  0  0  0  0  0  0  0  0
   -3.6850    8.9800    0.0000 C   0  0  0  0  0  0  0  0  0  0  0  0
   -3.6850    6.3820    0.0000 C   0  0  0  0  0  0  0  0  0  0  0  0
   -4.4350    5.0830    0.0000 C   0  0  0  0  0  0  0  0  0  0  0  0
   -5.9350    5.0830    0.0000 O   0  0  0  0  0  0  0  0  0  0  0  0
   -6.6850    3.7840    0.0000 C   0  0  0  0  0  0  0  0  0  0  0  0
   -3.6850    3.7840    0.0000 C   0  0  0  0  0  0  0  0  0  0  0  0
   -2.1850    3.7840    0.0000 C   0  0  0  0  0  0  0  0  0  0  0  0
   -1.4350    5.0830    0.0000 C   0  0  0  0  0  0  0  0  0  0  0  0
    0.0650    5.0830    0.0000 C   0  0  2  0  0  0  0  0  0  0  0  0
    0.8150    3.7840    0.0000 N   0  0  0  0  0  0  0  0  0  0  0  0
    2.3150    3.7840    0.0000 C   0  0  0  0  0  0  0  0  0  0  0  0
    3.0650    5.0830    0.0000 C   0  0  1  0  0  0  0  0  0  0  0  0
    4.5650    5.0830    0.0000 C   0  0  0  0  0  0  0  0  0  0  0  0
    5.3150    3.7840    0.0000 C   0  0  0  0  0  0  0  0  0  0  0  0
    4.5650    2.4850    0.0000 C   0  0  0  0  0  0  0  0  0  0  0  0
    6.8150    3.7840    0.0000 C   0  0  0  0  0  0  0  0  0  0  0  0
    2.3150    6.3820    0.0000 C   0  0  2  0  0  0  0  0  0  0  0  0
    3.0650    7.6810    0.0000 O   0  0  0  0  0  0  0  0  0  0  0  0
    0.8150    6.3820    0.0000 C   0  0  0  0  0  0  0  0  0  0  0  0
    0.0650    2.4850    0.0000 C   0  0  0  0  0  0  0  0  0  0  0  0
   -1.4350    2.4850    0.0000 C   0  0  0  0  0  0  0  0  0  0  0  0
   -2.1850    6.3820    0.0000 C   0  0  0  0  0  0  0  0  0  0  0  0
  1  2  1  0  0  0  0
  1  3  1  0  0  0  0
  3  4  1  0  0  0  0
  3 23  2  0  0  0  0
  4  5  1  0  0  0  0
  4  7  2  0  0  0  0
  5  6  1  0  0  0  0
  7  8  1  0  0  0  0
  8  9  2  0  0  0  0
  8 22  1  0  0  0  0
 10  9  1  1  0  0  0
  9 23  1  0  0  0  0
 10 11  1  0  0  0  0
 10 20  1  0  0  0  0
 11 12  1  0  0  0  0
 11 21  1  0  0  0  0
 12 13  1  0  0  0  0
 13 14  1  6  0  0  0
 13 18  1  0  0  0  0
 14 15  1  0  0  0  0
 15 16  1  0  0  0  0
 15 17  1  0  0  0  0
 18 19  1  1  0  0  0
 18 20  1  0  0  0  0
 21 22  1  0  0  0  0
M  END
>  <name>
O(C)c1c(OC)cc2c([C@@H]3N(C[C@@H](CC(C)C)[C@H]([O;ester])C3)CC2)c1

>  <apo>
1

>  <freq>
1

>  <freq0>
0

>  <freq1>
1

>  <freqA>
0.99887151

>  <a_count>
52

$$$$

  MOE2015           2D

 24 27  0  0  1  0  0  0  0  0999 V2000
   -1.4520   -3.0590    0.0000 O   0  0  0  0  0  0  0  0  0  0  0  0
   -0.5040   -4.2210    0.0000 C   0  0  0  0  0  0  0  0  0  0  0  0
   -1.0360   -5.6240    0.0000 C   0  0  0  0  0  0  0  0  0  0  0  0
    0.9770   -3.9810    0.0000 C   0  0  1  0  0  0  0  0  0  0  0  0
    0.4940   -5.4010    0.0000 O   0  0  0  0  0  0  0  0  0  0  0  0
    0.8150   -2.4900    0.0000 C   0  0  0  0  0  0  0  0  0  0  0  0
   -0.4870   -1.7450    0.0000 C   0  0  0  0  0  0  0  0  0  0  0  0
    2.1830   -1.8750    0.0000 C   0  0  0  0  0  0  0  0  0  0  0  0
    3.1900   -2.9860    0.0000 C   0  0  2  0  0  0  0  0  0  0  0  0
    2.4450   -4.2870    0.0000 C   0  0  1  0  0  0  0  0  0  0  0  0
    1.5900   -5.5190    0.0000 C   0  0  0  0  0  0  0  0  0  0  0  0
    3.2000   -5.5840    0.0000 C   0  0  0  0  0  0  0  0  0  0  0  0
    4.7000   -5.5780    0.0000 C   0  0  0  0  0  0  0  0  0  0  0  0
    5.4450   -4.2760    0.0000 C   0  0  1  0  0  0  0  0  0  0  0  0
    4.6900   -2.9800    0.0000 C   0  0  1  0  0  0  0  0  0  0  0  0
    5.4360   -1.6780    0.0000 C   0  0  0  0  0  0  0  0  0  0  0  0
    6.9360   -1.6720    0.0000 C   0  0  0  0  0  0  0  0  0  0  0  0
    7.6900   -2.9690    0.0000 C   0  0  0  0  0  0  0  0  0  0  0  0
    6.9450   -4.2700    0.0000 C   0  0  2  0  0  0  0  0  0  0  0  0
    7.7000   -5.5670    0.0000 C   0  0  0  0  0  0  0  0  0  0  0  0
    9.2000   -5.5610    0.0000 C   0  0  0  0  0  0  0  0  0  0  0  0
    9.9450   -4.2590    0.0000 C   0  0  0  0  0  0  0  0  0  0  0  0
   11.4450   -4.2530    0.0000 O   0  0  0  0  0  0  0  0  0  0  0  0
    9.1900   -2.9630    0.0000 C   0  0  0  0  0  0  0  0  0  0  0  0
  1  2  2  0  0  0  0
  2  3  1  0  0  0  0
  4  2  1  1  0  0  0
  4  5  1  6  0  0  0
  4  6  1  0  0  0  0
  4 10  1  0  0  0  0
  6  7  2  0  0  0  0
  6  8  1  0  0  0  0
  9  8  1  1  0  0  0
  9 10  1  0  0  0  0
  9 15  1  0  0  0  0
 10 11  1  1  0  0  0
 10 12  1  0  0  0  0
 12 13  1  0  0  0  0
 14 13  1  1  0  0  0
 14 15  1  0  0  0  0
 14 19  1  0  0  0  0
 15 16  1  6  0  0  0
 16 17  1  0  0  0  0
 17 18  1  0  0  0  0
 18 19  1  0  0  0  0
 18 24  2  0  0  0  0
 19 20  1  6  0  0  0
 20 21  1  0  0  0  0
 21 22  1  0  0  0  0
 22 23  2  0  0  0  0
 22 24  1  0  0  0  0
M  END
>  <name>
O=C(C)[C@@]1([O;ester])C(=C)C[C@@H]2[C@]1(C)CC[C@H]1[C@H]2CCC=2[C@@H]1CCC(=O)C=2

>  <apo>
1

>  <freq>
1

>  <freq0>
0

>  <freq1>
1

>  <freqA>
0.99887151

>  <a_count>
52

$$$$

  MOE2015           2D

 24 27  0  0  1  0  0  0  0  0999 V2000
   -1.6220    4.9170    0.0000 O   0  0  0  0  0  0  0  0  0  0  0  0
   -0.6730    3.7540    0.0000 C   0  0  0  0  0  0  0  0  0  0  0  0
   -1.2050    2.3520    0.0000 C   0  0  0  0  0  0  0  0  0  0  0  0
    0.8070    3.9950    0.0000 C   0  0  2  0  0  0  0  0  0  0  0  0
    0.3240    2.5750    0.0000 O   0  0  0  0  0  0  0  0  0  0  0  0
    2.2760    3.6880    0.0000 C   0  0  2  0  0  0  0  0  0  0  0  0
    1.4200    2.4560    0.0000 C   0  0  0  0  0  0  0  0  0  0  0  0
    3.0210    4.9900    0.0000 C   0  0  2  0  0  0  0  0  0  0  0  0
    4.5210    4.9960    0.0000 C   0  0  1  0  0  0  0  0  0  0  0  0
    5.2760    3.7000    0.0000 C   0  0  1  0  0  0  0  0  0  0  0  0
    6.7760    3.7050    0.0000 C   0  0  2  0  0  0  0  0  0  0  0  0
    7.5210    5.0070    0.0000 C   0  0  0  0  0  0  0  0  0  0  0  0
    6.7660    6.3030    0.0000 C   0  0  0  0  0  0  0  0  0  0  0  0
    7.5110    7.6050    0.0000 C   0  0  0  0  0  0  0  0  0  0  0  0
    5.2660    6.2980    0.0000 C   0  0  0  0  0  0  0  0  0  0  0  0
    9.0210    5.0130    0.0000 C   0  0  0  0  0  0  0  0  0  0  0  0
    9.7760    3.7170    0.0000 C   0  0  0  0  0  0  0  0  0  0  0  0
   11.2760    3.7220    0.0000 O   0  0  0  0  0  0  0  0  0  0  0  0
    9.0310    2.4150    0.0000 C   0  0  0  0  0  0  0  0  0  0  0  0
    7.5310    2.4090    0.0000 C   0  0  0  0  0  0  0  0  0  0  0  0
    4.5310    2.3980    0.0000 C   0  0  0  0  0  0  0  0  0  0  0  0
    3.0310    2.3920    0.0000 C   0  0  0  0  0  0  0  0  0  0  0  0
    2.0130    6.1010    0.0000 C   0  0  0  0  0  0  0  0  0  0  0  0
    0.6450    5.4860    0.0000 C   0  0  0  0  0  0  0  0  0  0  0  0
  1  2  2  0  0  0  0
  2  3  1  0  0  0  0
  4  2  1  1  0  0  0
  4  5  1  6  0  0  0
  4  6  1  0  0  0  0
  4 24  1  0  0  0  0
  6  7  1  1  0  0  0
  6  8  1  0  0  0  0
  6 22  1  0  0  0  0
  8  9  1  0  0  0  0
  8 23  1  1  0  0  0
  9 10  1  0  0  0  0
  9 15  1  6  0  0  0
 10 11  1  0  0  0  0
 10 21  1  1  0  0  0
 11 12  1  0  0  0  0
 11 20  1  6  0  0  0
 12 13  1  0  0  0  0
 12 16  2  0  0  0  0
 13 14  1  0  0  0  0
 13 15  2  0  0  0  0
 16 17  1  0  0  0  0
 17 18  2  0  0  0  0
 17 19  1  0  0  0  0
 19 20  1  0  0  0  0
 21 22  1  0  0  0  0
 23 24  1  0  0  0  0
M  END
>  <name>
O=C(C)[C@]1([O;ester])[C@]2(C)[C@H]([C@H]3[C@@H]([C@@H]4C(C(C)=C3)=CC(=O)CC4)CC2)CC1

>  <apo>
1

>  <freq>
1

>  <freq0>
0

>  <freq1>
1

>  <freqA>
0.99887151

>  <a_count>
52

$$$$

  MOE2015           2D

 20 20  0  0  1  0  0  0  0  0999 V2000
    2.7990   -1.2340    0.0000 O   0  0  0  0  0  0  0  0  0  0  0  0
    2.8090    0.2660    0.0000 C   0  0  0  0  0  0  0  0  0  0  0  0
    4.1120    1.0080    0.0000 C   0  0  0  0  0  0  0  0  0  0  0  0
    5.4070    0.2500    0.0000 C   0  0  0  0  0  0  0  0  0  0  0  0
    6.7100    0.9920    0.0000 C   0  0  0  0  0  0  0  0  0  0  0  0
    8.0050    0.2340    0.0000 C   0  0  0  0  0  0  0  0  0  0  0  0
    9.3080    0.9760    0.0000 C   0  0  0  0  0  0  0  0  0  0  0  0
   10.6030    0.2180    0.0000 C   0  0  0  0  0  0  0  0  0  0  0  0
   11.9060    0.9600    0.0000 C   0  0  0  0  0  0  0  0  0  0  0  0
    1.5140    1.0230    0.0000 C   0  0  0  0  0  0  0  0  0  0  0  0
    0.2110    0.2810    0.0000 C   0  0  0  0  0  0  0  0  0  0  0  0
   -1.0840    1.0390    0.0000 C   0  0  2  0  0  0  0  0  0  0  0  0
   -2.4580    0.4380    0.0000 C   0  0  1  0  0  0  0  0  0  0  0  0
   -2.7790   -1.0280    0.0000 C   0  0  0  0  0  0  0  0  0  0  0  0
   -4.2080   -1.4820    0.0000 C   0  0  0  0  0  0  0  0  0  0  0  0
   -3.4550    1.5580    0.0000 C   0  0  1  0  0  0  0  0  0  0  0  0
   -4.9470    1.4110    0.0000 O   0  0  0  0  0  0  0  0  0  0  0  0
   -2.6970    2.8530    0.0000 C   0  0  0  0  0  0  0  0  0  0  0  0
   -1.2310    2.5320    0.0000 C   0  0  1  0  0  0  0  0  0  0  0  0
   -0.1110    3.5290    0.0000 O   0  0  0  0  0  0  0  0  0  0  0  0
  1  2  2  0  0  0  0
  2  3  1  0  0  0  0
  2 10  1  0  0  0  0
  3  4  1  0  0  0  0
  4  5  1  0  0  0  0
  5  6  1  0  0  0  0
  6  7  1  0  0  0  0
  7  8  1  0  0  0  0
  8  9  1  0  0  0  0
 10 11  1  0  0  0  0
 12 11  1  6  0  0  0
 12 13  1  0  0  0  0
 12 19  1  0  0  0  0
 13 14  1  1  0  0  0
 13 16  1  0  0  0  0
 14 15  1  0  0  0  0
 16 17  1  1  0  0  0
 16 18  1  0  0  0  0
 18 19  1  0  0  0  0
 19 20  1  1  0  0  0
M  END
>  <name>
O=C(CCCCCCC)CC[C@@H]1[C@@H](C[C;olefin])[C@@H](O)C[C@H]1O

>  <apo>
1

>  <freq>
1

>  <freq0>
0

>  <freq1>
1

>  <freqA>
0.99887151

>  <a_count>
52

$$$$

  MOE2015           2D

 26 29  0  0  1  0  0  0  0  0999 V2000
    8.5510   -5.8990    0.0000 O   0  0  0  0  0  0  0  0  0  0  0  0
    8.0180   -4.4970    0.0000 C   0  0  0  0  0  0  0  0  0  0  0  0
    8.9660   -3.3350    0.0000 C   0  0  0  0  0  0  0  0  0  0  0  0
   10.4470   -3.5750    0.0000 O   0  0  0  0  0  0  0  0  0  0  0  0
    6.5370   -4.2570    0.0000 C   0  0  2  0  0  0  0  0  0  0  0  0
    7.0210   -5.6770    0.0000 O   0  0  0  0  0  0  0  0  0  0  0  0
    5.0690   -4.5640    0.0000 C   0  0  2  0  0  0  0  0  0  0  0  0
    5.9250   -5.7950    0.0000 C   0  0  0  0  0  0  0  0  0  0  0  0
    4.3240   -3.2620    0.0000 C   0  0  2  0  0  0  0  0  0  0  0  0
    2.8240   -3.2570    0.0000 C   0  0  1  0  0  0  0  0  0  0  0  0
    2.0690   -4.5530    0.0000 C   0  0  1  0  0  0  0  0  0  0  0  0
    0.5690   -4.5470    0.0000 C   0  0  2  0  0  0  0  0  0  0  0  0
    1.3140   -5.8490    0.0000 C   0  0  0  0  0  0  0  0  0  0  0  0
   -0.1760   -3.2460    0.0000 C   0  0  0  0  0  0  0  0  0  0  0  0
   -1.6760   -3.2400    0.0000 C   0  0  0  0  0  0  0  0  0  0  0  0
   -2.4310   -4.5370    0.0000 C   0  0  0  0  0  0  0  0  0  0  0  0
   -3.9310   -4.5310    0.0000 O   0  0  0  0  0  0  0  0  0  0  0  0
   -1.6860   -5.8380    0.0000 C   0  0  0  0  0  0  0  0  0  0  0  0
   -0.1860   -5.8440    0.0000 C   0  0  0  0  0  0  0  0  0  0  0  0
    0.5780   -1.9490    0.0000 C   0  0  0  0  0  0  0  0  0  0  0  0
    2.0780   -1.9550    0.0000 C   0  0  0  0  0  0  0  0  0  0  0  0
    2.8140   -5.8550    0.0000 C   0  0  0  0  0  0  0  0  0  0  0  0
    2.0600   -7.1510    0.0000 O   0  0  0  0  0  0  0  0  0  0  0  0
    4.3140   -5.8600    0.0000 C   0  0  0  0  0  0  0  0  0  0  0  0
    5.3310   -2.1510    0.0000 C   0  0  0  0  0  0  0  0  0  0  0  0
    6.7000   -2.7660    0.0000 C   0  0  0  0  0  0  0  0  0  0  0  0
  1  2  2  0  0  0  0
  2  3  1  0  0  0  0
  5  2  1  6  0  0  0
  3  4  1  0  0  0  0
  5  6  1  1  0  0  0
  5  7  1  0  0  0  0
  5 26  1  0  0  0  0
  7  8  1  6  0  0  0
  7  9  1  0  0  0  0
  7 24  1  0  0  0  0
  9 10  1  0  0  0  0
  9 25  1  6  0  0  0
 10 11  1  0  0  0  0
 10 21  1  1  0  0  0
 11 12  1  0  0  0  0
 11 22  1  6  0  0  0
 12 13  1  6  0  0  0
 12 14  1  0  0  0  0
 12 19  1  0  0  0  0
 14 15  2  0  0  0  0
 14 20  1  0  0  0  0
 15 16  1  0  0  0  0
 16 17  2  0  0  0  0
 16 18  1  0  0  0  0
 18 19  2  0  0  0  0
 20 21  1  0  0  0  0
 22 23  2  0  0  0  0
 22 24  1  0  0  0  0
 25 26  1  0  0  0  0
M  END
>  <name>
O=C(C[O;ester])[C@]1(O)[C@]2(C)[C@H]([C@H]3[C@@H]([C@]4(C)C(=CC(=O)C=C4)CC3)C(=O)C2)CC1

>  <apo>
1

>  <freq>
1

>  <freq0>
0

>  <freq1>
1

>  <freqA>
0.99887151

>  <a_count>
52

$$$$

  MOE2015           2D

 30 33  0  0  1  0  0  0  0  0999 V2000
   13.1630   -4.5270    0.0000 O   0  0  0  0  0  0  0  0  0  0  0  0
   11.8640   -5.2770    0.0000 C   0  0  0  0  0  0  0  0  0  0  0  0
   11.8640   -6.7770    0.0000 N   0  0  0  0  0  0  0  0  0  0  0  0
   10.5650   -4.5270    0.0000 C   0  0  0  0  0  0  0  0  0  0  0  0
    9.2660   -5.2770    0.0000 C   0  0  0  0  0  0  0  0  0  0  0  0
    9.2660   -6.7770    0.0000 O   0  0  0  0  0  0  0  0  0  0  0  0
    7.9670   -4.5270    0.0000 C   0  0  1  0  0  0  0  0  0  0  0  0
    7.9670   -6.0270    0.0000 O   0  0  0  0  0  0  0  0  0  0  0  0
    6.6680   -5.2770    0.0000 C   0  0  0  0  0  0  0  0  0  0  0  0
    6.6680   -6.7770    0.0000 O   0  0  0  0  0  0  0  0  0  0  0  0
    5.3690   -4.5270    0.0000 C   0  0  0  0  0  0  0  0  0  0  0  0
    4.0700   -5.2770    0.0000 C   0  0  0  0  0  0  0  0  0  0  0  0
    4.0700   -6.7770    0.0000 O   0  0  0  0  0  0  0  0  0  0  0  0
    2.7710   -4.5270    0.0000 C   0  0  0  0  0  0  0  0  0  0  0  0
    1.4720   -5.2770    0.0000 C   0  0  0  0  0  0  0  0  0  0  0  0
    1.4720   -6.7770    0.0000 O   0  0  0  0  0  0  0  0  0  0  0  0
    0.1730   -4.5270    0.0000 C   0  0  0  0  0  0  0  0  0  0  0  0
    0.1730   -3.0270    0.0000 C   0  0  0  0  0  0  0  0  0  0  0  0
    1.4720   -2.2770    0.0000 C   0  0  0  0  0  0  0  0  0  0  0  0
    1.4720   -0.7770    0.0000 N   0  0  0  0  0  0  0  0  0  0  0  0
    2.7710   -0.0270    0.0000 C   0  0  0  0  0  0  0  0  0  0  0  0
    0.1730   -0.0270    0.0000 C   0  0  0  0  0  0  0  0  0  0  0  0
    2.7710   -3.0270    0.0000 C   0  0  0  0  0  0  0  0  0  0  0  0
    4.0700   -2.2770    0.0000 C   0  0  0  0  0  0  0  0  0  0  0  0
    5.3690   -3.0270    0.0000 C   0  0  1  0  0  0  0  0  0  0  0  0
    6.6680   -2.2770    0.0000 C   0  0  0  0  0  0  0  0  0  0  0  0
    7.9670   -3.0270    0.0000 C   0  0  1  0  0  0  0  0  0  0  0  0
    9.2660   -2.2770    0.0000 C   0  0  0  0  0  0  0  0  0  0  0  0
   10.5650   -3.0270    0.0000 C   0  0  0  0  0  0  0  0  0  0  0  0
   11.8640   -2.2770    0.0000 O   0  0  0  0  0  0  0  0  0  0  0  0
  1  2  2  0  0  0  0
  2  3  1  0  0  0  0
  2  4  1  0  0  0  0
  4  5  1  0  0  0  0
  4 29  2  0  0  0  0
  5  6  2  0  0  0  0
  5  7  1  0  0  0  0
  7  8  1  6  0  0  0
  7  9  1  0  0  0  0
  7 27  1  0  0  0  0
  9 10  1  0  0  0  0
  9 11  2  0  0  0  0
 11 12  1  0  0  0  0
 25 11  1  1  0  0  0
 12 13  2  0  0  0  0
 12 14  1  0  0  0  0
 14 15  2  0  0  0  0
 14 23  1  0  0  0  0
 15 16  1  0  0  0  0
 15 17  1  0  0  0  0
 17 18  2  0  0  0  0
 18 19  1  0  0  0  0
 19 20  1  0  0  0  0
 19 23  2  0  0  0  0
 20 21  1  0  0  0  0
 20 22  1  0  0  0  0
 23 24  1  0  0  0  0
 24 25  1  0  0  0  0
 25 26  1  0  0  0  0
 26 27  1  0  0  0  0
 27 28  1  1  0  0  0
 28 29  1  0  0  0  0
 29 30  1  0  0  0  0
M  END
>  <name>
O=C(N)C=1C(=O)[C@@]2(O)C(O)=C3C(=O)c4c(O)ccc(N(C)C)c4C[C@H]3C[C@H]2[C;amine]C=1O

>  <apo>
1

>  <freq>
1

>  <freq0>
0

>  <freq1>
1

>  <freqA>
0.99887151

>  <a_count>
52

$$$$

  MOE2015           2D

 24 25  0  0  1  0  0  0  0  0999 V2000
   16.4190    4.3990    0.0000 O   0  0  0  0  0  0  0  0  0  0  0  0
   15.1200    3.6490    0.0000 C   0  0  0  0  0  0  0  0  0  0  0  0
   15.1200    2.1490    0.0000 O   0  0  0  0  0  0  0  0  0  0  0  0
   13.8210    4.3990    0.0000 C   0  0  0  0  0  0  0  0  0  0  0  0
   12.5220    3.6490    0.0000 C   0  0  2  0  0  0  0  0  0  0  0  0
   12.5220    2.1490    0.0000 O   0  0  0  0  0  0  0  0  0  0  0  0
   11.2220    4.3990    0.0000 C   0  0  0  0  0  0  0  0  0  0  0  0
    9.9230    3.6490    0.0000 C   0  0  2  0  0  0  0  0  0  0  0  0
    9.9230    2.1490    0.0000 O   0  0  0  0  0  0  0  0  0  0  0  0
    8.6240    4.3990    0.0000 C   0  0  0  0  0  0  0  0  0  0  0  0
    7.3250    3.6490    0.0000 C   0  0  0  0  0  0  0  0  0  0  0  0
    6.0260    4.3990    0.0000 C   0  0  1  0  0  0  0  0  0  0  0  0
    6.0260    5.8990    0.0000 C   0  0  1  0  0  0  0  0  0  0  0  0
    7.3250    6.6490    0.0000 C   0  0  0  0  0  0  0  0  0  0  0  0
    4.7270    6.6490    0.0000 C   0  0  0  0  0  0  0  0  0  0  0  0
    3.4280    5.8990    0.0000 C   0  0  0  0  0  0  0  0  0  0  0  0
    3.4280    4.3990    0.0000 C   0  0  0  0  0  0  0  0  0  0  0  0
    4.7270    3.6490    0.0000 C   0  0  2  0  0  0  0  0  0  0  0  0
    4.7270    2.1490    0.0000 C   0  0  1  0  0  0  0  0  0  0  0  0
    6.0260    1.3990    0.0000 O   0  0  0  0  0  0  0  0  0  0  0  0
    3.4280    1.3990    0.0000 C   0  0  0  0  0  0  0  0  0  0  0  0
    2.1290    2.1490    0.0000 C   0  0  2  0  0  0  0  0  0  0  0  0
    0.8300    1.3990    0.0000 O   0  0  0  0  0  0  0  0  0  0  0  0
    2.1290    3.6490    0.0000 C   0  0  0  0  0  0  0  0  0  0  0  0
  1  2  2  0  0  0  0
  2  3  1  0  0  0  0
  2  4  1  0  0  0  0
  4  5  1  0  0  0  0
  5  6  1  6  0  0  0
  5  7  1  0  0  0  0
  7  8  1  0  0  0  0
  8  9  1  6  0  0  0
  8 10  1  0  0  0  0
 10 11  1  0  0  0  0
 12 11  1  6  0  0  0
 12 13  1  0  0  0  0
 12 18  1  0  0  0  0
 13 14  1  6  0  0  0
 13 15  1  0  0  0  0
 15 16  2  0  0  0  0
 16 17  1  0  0  0  0
 18 17  1  1  0  0  0
 17 24  2  0  0  0  0
 18 19  1  0  0  0  0
 19 20  1  1  0  0  0
 19 21  1  0  0  0  0
 21 22  1  0  0  0  0
 22 23  1  6  0  0  0
 22 24  1  0  0  0  0
M  END
>  <name>
O=C(O)C[C@H](O)C[C@H](O)CC[C@H]1[C@@H](C)C=CC=2[C@@H]1[C@@H]([O;ester])C[C@H](O)C=2

>  <apo>
1

>  <freq>
1

>  <freq0>
0

>  <freq1>
1

>  <freqA>
0.99887151

>  <a_count>
52

$$$$

  MOE2015           2D

 22 25  0  0  1  0  0  0  0  0999 V2000
   -0.8760   -3.2650    0.0000 O   0  0  0  0  0  0  0  0  0  0  0  0
    0.4230   -4.0160    0.0000 C   0  0  0  0  0  0  0  0  0  0  0  0
    0.4220   -5.5160    0.0000 O   0  0  0  0  0  0  0  0  0  0  0  0
    1.7220   -3.2670    0.0000 C   0  0  1  0  0  0  0  0  0  0  0  0
    1.7140   -4.7670    0.0000 C   0  0  0  0  0  0  0  0  0  0  0  0
    3.2230   -3.2530    0.0000 C   0  0  2  0  0  0  0  0  0  0  0  0
    3.9610   -1.9490    0.0000 C   0  0  2  0  0  0  0  0  0  0  0  0
    2.4610   -1.9440    0.0000 C   0  0  0  0  0  0  0  0  0  0  0  0
    5.4460   -1.9170    0.0000 C   0  0  1  0  0  0  0  0  0  0  0  0
    6.2280   -3.2500    0.0000 C   0  0  1  0  0  0  0  0  0  0  0  0
    7.3740   -4.4240    0.0000 C   0  0  0  0  0  0  0  0  0  0  0  0
    8.7990   -3.6530    0.0000 C   0  0  0  0  0  0  0  0  0  0  0  0
   10.1640   -4.2760    0.0000 C   0  0  0  0  0  0  0  0  0  0  0  0
    8.4440   -2.0500    0.0000 C   0  0  2  0  0  0  0  0  0  0  0  0
    7.6240   -3.1740    0.0000 C   0  0  0  0  0  0  0  0  0  0  0  0
    7.7390   -0.6560    0.0000 C   0  0  0  0  0  0  0  0  0  0  0  0
    6.2240   -0.6120    0.0000 C   0  0  0  0  0  0  0  0  0  0  0  0
    5.4790   -4.5330    0.0000 C   0  0  0  0  0  0  0  0  0  0  0  0
    3.9810   -4.5440    0.0000 C   0  0  0  0  0  0  0  0  0  0  0  0
    3.2030   -0.6580    0.0000 C   0  0  0  0  0  0  0  0  0  0  0  0
    1.7030   -0.6690    0.0000 C   0  0  0  0  0  0  0  0  0  0  0  0
    0.9630   -1.9730    0.0000 C   0  0  0  0  0  0  0  0  0  0  0  0
  1  2  2  0  0  0  0
  2  3  1  0  0  0  0
  4  2  1  6  0  0  0
  4  5  1  1  0  0  0
  4  6  1  0  0  0  0
  4 22  1  0  0  0  0
  6  7  1  0  0  0  0
  6 19  1  6  0  0  0
  7  8  1  6  0  0  0
  7  9  1  0  0  0  0
  7 20  1  0  0  0  0
  9 10  1  0  0  0  0
  9 17  1  6  0  0  0
 10 11  1  6  0  0  0
 10 15  1  1  0  0  0
 10 18  1  0  0  0  0
 11 12  1  0  0  0  0
 12 13  2  0  0  0  0
 14 12  1  6  0  0  0
 14 15  1  0  0  0  0
 14 16  1  0  0  0  0
 16 17  1  0  0  0  0
 18 19  1  0  0  0  0
 20 21  1  0  0  0  0
 21 22  1  0  0  0  0
M  END
>  <name>
O=C(O)[C@@]1(C)[C@@H]2[C@](C)([C@H]3[C@]4(CC(=C)[C@H;ether](C4)CC3)CC2)CCC1

>  <apo>
1

>  <freq>
1

>  <freq0>
0

>  <freq1>
1

>  <freqA>
0.99887151

>  <a_count>
52

$$$$

  MOE2015           2D

 26 30  0  0  1  0  0  0  0  0999 V2000
   -2.7970    5.5090    0.0000 O   0  0  0  0  0  0  0  0  0  0  0  0
   -4.0840    4.7370    0.0000 C   0  0  0  0  0  0  0  0  0  0  0  0
   -5.3950    5.4650    0.0000 O   0  0  0  0  0  0  0  0  0  0  0  0
   -5.4200    6.9650    0.0000 C   0  0  0  0  0  0  0  0  0  0  0  0
   -4.0580    3.2370    0.0000 C   0  0  2  0  0  0  0  0  0  0  0  0
   -2.7470    2.5090    0.0000 C   0  0  2  0  0  0  0  0  0  0  0  0
   -2.7220    1.0090    0.0000 C   0  0  2  0  0  0  0  0  0  0  0  0
   -4.0080    0.2380    0.0000 C   0  0  0  0  0  0  0  0  0  0  0  0
   -5.3190    0.9660    0.0000 C   0  0  1  0  0  0  0  0  0  0  0  0
   -6.6050    0.1940    0.0000 O   0  0  0  0  0  0  0  0  0  0  0  0
   -5.3450    2.4650    0.0000 C   0  0  0  0  0  0  0  0  0  0  0  0
   -1.4100    0.2810    0.0000 C   0  0  0  0  0  0  0  0  0  0  0  0
   -0.1240    1.0530    0.0000 N   0  0  0  0  0  0  0  0  0  0  0  0
   -0.1490    2.5530    0.0000 C   0  0  1  0  0  0  0  0  0  0  0  0
    1.1370    3.3250    0.0000 C   0  0  0  0  0  0  0  0  0  0  0  0
    1.4240    4.7970    0.0000 N   0  0  0  0  0  0  0  0  0  0  0  0
    2.9130    4.9790    0.0000 C   0  0  0  0  0  0  0  0  0  0  0  0
    3.5460    3.6190    0.0000 C   0  0  0  0  0  0  0  0  0  0  0  0
    2.4490    2.5970    0.0000 C   0  0  0  0  0  0  0  0  0  0  0  0
    2.4740    1.0970    0.0000 C   0  0  0  0  0  0  0  0  0  0  0  0
    1.1880    0.3250    0.0000 C   0  0  0  0  0  0  0  0  0  0  0  0
    5.0400    3.4880    0.0000 C   0  0  0  0  0  0  0  0  0  0  0  0
    5.9010    4.7160    0.0000 C   0  0  0  0  0  0  0  0  0  0  0  0
    5.2680    6.0760    0.0000 C   0  0  0  0  0  0  0  0  0  0  0  0
    3.7740    6.2070    0.0000 C   0  0  0  0  0  0  0  0  0  0  0  0
   -1.4610    3.2810    0.0000 C   0  0  0  0  0  0  0  0  0  0  0  0
  1  2  2  0  0  0  0
  2  3  1  0  0  0  0
  5  2  1  6  0  0  0
  3  4  1  0  0  0  0
  5  6  1  0  0  0  0
  5 11  1  0  0  0  0
  6  7  1  0  0  0  0
  6 26  1  1  0  0  0
  7  8  1  0  0  0  0
  7 12  1  1  0  0  0
  8  9  1  0  0  0  0
  9 10  1  1  0  0  0
  9 11  1  0  0  0  0
 12 13  1  0  0  0  0
 14 13  1  6  0  0  0
 13 21  1  0  0  0  0
 14 15  1  0  0  0  0
 14 26  1  0  0  0  0
 15 16  1  0  0  0  0
 15 19  2  0  0  0  0
 16 17  1  0  0  0  0
 17 18  2  0  0  0  0
 17 25  1  0  0  0  0
 18 19  1  0  0  0  0
 18 22  1  0  0  0  0
 19 20  1  0  0  0  0
 20 21  1  0  0  0  0
 22 23  2  0  0  0  0
 23 24  1  0  0  0  0
 24 25  2  0  0  0  0
M  END
>  <name>
O=C(OC)[C@@H]1[C@@H]2[C@H](C[C@@H]([O;ester])[C;ether]1)CN1[C@@H](c3[nH]c4c(c3CC1)cccc4)C2

>  <apo>
2

>  <freq>
1

>  <freq0>
0

>  <freq1>
1

>  <freqA>
0.99887151

>  <a_count>
52

$$$$

  MOE2015           2D

 23 26  0  0  1  0  0  0  0  0999 V2000
   -1.4560    4.8640    0.0000 O   0  0  0  0  0  0  0  0  0  0  0  0
   -0.5070    3.7030    0.0000 C   0  0  0  0  0  0  0  0  0  0  0  0
   -1.0390    2.3000    0.0000 C   0  0  0  0  0  0  0  0  0  0  0  0
    0.9740    3.9430    0.0000 C   0  0  2  0  0  0  0  0  0  0  0  0
    0.4910    2.5230    0.0000 O   0  0  0  0  0  0  0  0  0  0  0  0
    2.4420    3.6370    0.0000 C   0  0  2  0  0  0  0  0  0  0  0  0
    1.5870    2.4050    0.0000 C   0  0  0  0  0  0  0  0  0  0  0  0
    3.1870    4.9390    0.0000 C   0  0  2  0  0  0  0  0  0  0  0  0
    4.6870    4.9450    0.0000 C   0  0  1  0  0  0  0  0  0  0  0  0
    5.4420    3.6490    0.0000 C   0  0  1  0  0  0  0  0  0  0  0  0
    6.9420    3.6550    0.0000 C   0  0  2  0  0  0  0  0  0  0  0  0
    7.6870    4.9570    0.0000 C   0  0  0  0  0  0  0  0  0  0  0  0
    9.1870    4.9630    0.0000 C   0  0  0  0  0  0  0  0  0  0  0  0
    9.9420    3.6670    0.0000 C   0  0  0  0  0  0  0  0  0  0  0  0
   11.4420    3.6730    0.0000 O   0  0  0  0  0  0  0  0  0  0  0  0
    9.1970    2.3650    0.0000 C   0  0  0  0  0  0  0  0  0  0  0  0
    7.6970    2.3590    0.0000 C   0  0  0  0  0  0  0  0  0  0  0  0
    6.9320    6.2530    0.0000 C   0  0  0  0  0  0  0  0  0  0  0  0
    5.4320    6.2470    0.0000 C   0  0  0  0  0  0  0  0  0  0  0  0
    4.6970    2.3470    0.0000 C   0  0  0  0  0  0  0  0  0  0  0  0
    3.1970    2.3410    0.0000 C   0  0  0  0  0  0  0  0  0  0  0  0
    2.1790    6.0500    0.0000 C   0  0  0  0  0  0  0  0  0  0  0  0
    0.8110    5.4340    0.0000 C   0  0  0  0  0  0  0  0  0  0  0  0
  1  2  2  0  0  0  0
  2  3  1  0  0  0  0
  4  2  1  1  0  0  0
  4  5  1  6  0  0  0
  4  6  1  0  0  0  0
  4 23  1  0  0  0  0
  6  7  1  1  0  0  0
  6  8  1  0  0  0  0
  6 21  1  0  0  0  0
  8  9  1  0  0  0  0
  8 22  1  1  0  0  0
  9 10  1  0  0  0  0
  9 19  1  6  0  0  0
 10 11  1  0  0  0  0
 10 20  1  1  0  0  0
 11 12  1  0  0  0  0
 11 17  1  6  0  0  0
 12 13  2  0  0  0  0
 12 18  1  0  0  0  0
 13 14  1  0  0  0  0
 14 15  2  0  0  0  0
 14 16  1  0  0  0  0
 16 17  1  0  0  0  0
 18 19  1  0  0  0  0
 20 21  1  0  0  0  0
 22 23  1  0  0  0  0
M  END
>  <name>
O=C(C)[C@]1([O;ester])[C@]2(C)[C@H]([C@H]3[C@@H]([C@@H]4C(=CC(=O)CC4)CC3)CC2)CC1

>  <apo>
1

>  <freq>
1

>  <freq0>
0

>  <freq1>
1

>  <freqA>
0.99887151

>  <a_count>
51

$$$$

  MOE2015           2D

 22 22  0  0  1  0  0  0  0  0999 V2000
   -0.2550   -0.2550    0.0000 O   0  0  0  0  0  0  0  0  0  0  0  0
   -0.2550   -1.7550    0.0000 C   0  0  0  0  0  0  0  0  0  0  0  0
    1.0440   -2.5050    0.0000 C   0  0  0  0  0  0  0  0  0  0  0  0
    2.3430   -1.7550    0.0000 C   0  0  3  0  0  0  0  0  0  0  0  0
    2.3430   -0.2550    0.0000 O   0  0  0  0  0  0  0  0  0  0  0  0
    3.6420   -2.5050    0.0000 C   0  0  3  0  0  0  0  0  0  0  0  0
    4.9410   -1.7550    0.0000 C   0  0  0  0  0  0  0  0  0  0  0  0
    6.2400   -2.5050    0.0000 C   0  0  3  0  0  0  0  0  0  0  0  0
    7.5390   -1.7550    0.0000 C   0  0  3  0  0  0  0  0  0  0  0  0
    7.5390   -0.2550    0.0000 O   0  0  0  0  0  0  0  0  0  0  0  0
    8.8380   -2.5050    0.0000 C   0  0  0  0  0  0  0  0  0  0  0  0
   10.1370   -1.7550    0.0000 C   0  0  0  0  0  0  0  0  0  0  0  0
    8.8380   -4.0050    0.0000 C   0  0  0  0  0  0  0  0  0  0  0  0
    6.2400   -4.0050    0.0000 C   0  0  0  0  0  0  0  0  0  0  0  0
    3.6420   -4.0050    0.0000 C   0  0  0  0  0  0  0  0  0  0  0  0
   -1.5540   -2.5050    0.0000 C   0  0  0  0  0  0  0  0  0  0  0  0
   -1.5540   -4.0050    0.0000 C   0  0  0  0  0  0  0  0  0  0  0  0
   -2.8530   -4.7550    0.0000 C   0  0  0  0  0  0  0  0  0  0  0  0
   -4.1520   -4.0050    0.0000 C   0  0  0  0  0  0  0  0  0  0  0  0
   -5.4510   -4.7550    0.0000 N   0  0  0  0  0  0  0  0  0  0  0  0
   -4.1520   -2.5050    0.0000 C   0  0  0  0  0  0  0  0  0  0  0  0
   -2.8530   -1.7550    0.0000 C   0  0  0  0  0  0  0  0  0  0  0  0
  1  2  2  0  0  0  0
  2  3  1  0  0  0  0
  2 16  1  0  0  0  0
  3  4  1  0  0  0  0
  4  5  1  0  0  0  0
  4  6  1  0  0  0  0
  6  7  1  0  0  0  0
  6 15  1  0  0  0  0
  7  8  1  0  0  0  0
  8  9  1  0  0  0  0
  8 14  1  0  0  0  0
  9 10  1  0  0  0  0
  9 11  1  0  0  0  0
 11 12  1  0  0  0  0
 11 13  1  0  0  0  0
 16 17  1  0  0  0  0
 16 22  2  0  0  0  0
 17 18  2  0  0  0  0
 18 19  1  0  0  0  0
 19 20  1  0  0  0  0
 19 21  2  0  0  0  0
 21 22  1  0  0  0  0
M  END
>  <name>
O=C(CC(O)C(CC(C([O;ester])C([C;olefin])C)C)C)c1ccc(N)cc1

>  <apo>
2

>  <freq>
1

>  <freq0>
0

>  <freq1>
1

>  <freqA>
0.99887151

>  <a_count>
51

$$$$

  MOE2015           2D

 30 33  0  0  0  0  0  0  0  0999 V2000
   10.2840    4.4120    0.0000 O   0  0  0  0  0  0  0  0  0  0  0  0
    9.8140    5.8370    0.0000 C   0  0  0  0  0  0  0  0  0  0  0  0
   10.8140    6.9560    0.0000 O   0  0  0  0  0  0  0  0  0  0  0  0
   12.2820    6.6500    0.0000 C   0  0  0  0  0  0  0  0  0  0  0  0
    8.3460    6.1430    0.0000 C   0  0  0  0  0  0  0  0  0  0  0  0
    7.8770    7.5670    0.0000 C   0  0  0  0  0  0  0  0  0  0  0  0
    6.4080    7.8730    0.0000 C   0  0  0  0  0  0  0  0  0  0  0  0
    5.6530    9.1690    0.0000 N   0  0  0  0  0  0  0  0  0  0  0  0
    4.1870    8.8510    0.0000 C   0  0  0  0  0  0  0  0  0  0  0  0
    3.0680    9.8500    0.0000 O   0  0  0  0  0  0  0  0  0  0  0  0
    4.0360    7.3590    0.0000 C   0  0  0  0  0  0  0  0  0  0  0  0
    2.7400    6.6040    0.0000 C   0  0  0  0  0  0  0  0  0  0  0  0
    1.4380    7.3480    0.0000 N   0  0  0  0  0  0  0  0  0  0  0  0
    0.1420    6.5930    0.0000 C   0  0  0  0  0  0  0  0  0  0  0  0
   -1.1600    7.3380    0.0000 C   0  0  0  0  0  0  0  0  0  0  0  0
   -2.4560    6.5820    0.0000 C   0  0  0  0  0  0  0  0  0  0  0  0
   -2.4500    5.0820    0.0000 C   0  0  0  0  0  0  0  0  0  0  0  0
   -3.7460    4.3270    0.0000 N   0  0  0  0  0  0  0  0  0  0  0  0
   -5.0480    5.0720    0.0000 C   0  0  0  0  0  0  0  0  0  0  0  0
   -1.1480    4.3380    0.0000 C   0  0  0  0  0  0  0  0  0  0  0  0
    0.1480    5.0930    0.0000 C   0  0  0  0  0  0  0  0  0  0  0  0
    2.7460    5.1040    0.0000 C   0  0  0  0  0  0  0  0  0  0  0  0
    1.4500    4.3480    0.0000 C   0  0  0  0  0  0  0  0  0  0  0  0
    1.4570    2.8480    0.0000 C   0  0  0  0  0  0  0  0  0  0  0  0
    2.7590    2.1040    0.0000 C   0  0  0  0  0  0  0  0  0  0  0  0
    4.0550    2.8590    0.0000 C   0  0  0  0  0  0  0  0  0  0  0  0
    4.0480    4.3590    0.0000 C   0  0  0  0  0  0  0  0  0  0  0  0
    5.4090    6.7540    0.0000 C   0  0  0  0  0  0  0  0  0  0  0  0
    5.8780    5.3300    0.0000 C   0  0  0  0  0  0  0  0  0  0  0  0
    7.3470    5.0240    0.0000 C   0  0  0  0  0  0  0  0  0  0  0  0
  1  2  2  0  0  0  0
  2  3  1  0  0  0  0
  2  5  1  0  0  0  0
  3  4  1  0  0  0  0
  5  6  1  0  0  0  0
  5 30  2  0  0  0  0
  6  7  2  0  0  0  0
  7  8  1  0  0  0  0
  7 28  1  0  0  0  0
  8  9  1  0  0  0  0
  9 10  2  0  0  0  0
  9 11  1  0  0  0  0
 11 12  2  0  0  0  0
 11 28  1  0  0  0  0
 12 13  1  0  0  0  0
 12 22  1  0  0  0  0
 13 14  1  0  0  0  0
 14 15  1  0  0  0  0
 14 21  2  0  0  0  0
 15 16  2  0  0  0  0
 16 17  1  0  0  0  0
 17 18  1  0  0  0  0
 17 20  2  0  0  0  0
 18 19  1  0  0  0  0
 20 21  1  0  0  0  0
 22 23  1  0  0  0  0
 22 27  2  0  0  0  0
 23 24  2  0  0  0  0
 24 25  1  0  0  0  0
 25 26  2  0  0  0  0
 26 27  1  0  0  0  0
 28 29  2  0  0  0  0
 29 30  1  0  0  0  0
M  END
>  <name>
O=C(OC)c1cc2NC(=O)/C(=C(\Nc3ccc([N;amide]C)cc3)/c3ccccc3)/c2cc1

>  <apo>
1

>  <freq>
1

>  <freq0>
0

>  <freq1>
1

>  <freqA>
0.99887151

>  <a_count>
51

$$$$

  MOE2015           2D

 26 29  0  0  1  0  0  0  0  0999 V2000
    5.9600    1.8960    0.0000 O   0  0  0  0  0  0  0  0  0  0  0  0
    4.4600    1.9090    0.0000 C   0  0  0  0  0  0  0  0  0  0  0  0
    3.6980    0.6170    0.0000 C   0  0  2  0  0  0  0  0  0  0  0  0
    4.4360   -0.6890    0.0000 C   0  0  0  0  0  0  0  0  0  0  0  0
    5.9360   -0.7020    0.0000 C   0  0  0  0  0  0  0  0  0  0  0  0
    6.6980    0.5900    0.0000 C   0  0  0  0  0  0  0  0  0  0  0  0
    8.1980    0.5760    0.0000 C   0  0  0  0  0  0  0  0  0  0  0  0
    8.9360   -0.7300    0.0000 C   0  0  0  0  0  0  0  0  0  0  0  0
    8.1740   -2.0220    0.0000 C   0  0  0  0  0  0  0  0  0  0  0  0
    6.6740   -2.0080    0.0000 C   0  0  0  0  0  0  0  0  0  0  0  0
    2.1980    0.6310    0.0000 N   0  0  0  0  0  0  0  0  0  0  0  0
    1.1840   -0.4750    0.0000 C   0  0  0  0  0  0  0  0  0  0  0  0
    1.4830   -1.9450    0.0000 O   0  0  0  0  0  0  0  0  0  0  0  0
   -0.1800    0.1480    0.0000 C   0  0  1  0  0  0  0  0  0  0  0  0
   -0.8740   -1.1820    0.0000 N   0  0  0  0  0  0  0  0  0  0  0  0
   -1.6800    0.1350    0.0000 C   0  0  0  0  0  0  0  0  0  0  0  0
   -2.4410    1.4280    0.0000 C   0  0  0  0  0  0  0  0  0  0  0  0
   -2.4190   -1.1700    0.0000 C   0  0  0  0  0  0  0  0  0  0  0  0
   -0.0100    1.6380    0.0000 O   0  0  0  0  0  0  0  0  0  0  0  0
    1.4600    1.9370    0.0000 C   0  0  2  0  0  0  0  0  0  0  0  0
    0.5680    3.1430    0.0000 O   0  0  0  0  0  0  0  0  0  0  0  0
    2.2220    3.2290    0.0000 C   0  0  1  0  0  0  0  0  0  0  0  0
    3.7220    3.2150    0.0000 N   0  0  0  0  0  0  0  0  0  0  0  0
    4.1980    4.6370    0.0000 C   0  0  0  0  0  0  0  0  0  0  0  0
    2.9930    5.5300    0.0000 C   0  0  0  0  0  0  0  0  0  0  0  0
    1.7710    4.6600    0.0000 C   0  0  0  0  0  0  0  0  0  0  0  0
  1  2  2  0  0  0  0
  2  3  1  0  0  0  0
  2 23  1  0  0  0  0
  3  4  1  6  0  0  0
  3 11  1  0  0  0  0
  4  5  1  0  0  0  0
  5  6  1  0  0  0  0
  5 10  2  0  0  0  0
  6  7  2  0  0  0  0
  7  8  1  0  0  0  0
  8  9  2  0  0  0  0
  9 10  1  0  0  0  0
 11 12  1  0  0  0  0
 11 20  1  0  0  0  0
 12 13  2  0  0  0  0
 12 14  1  0  0  0  0
 14 15  1  6  0  0  0
 14 16  1  1  0  0  0
 14 19  1  0  0  0  0
 16 17  1  0  0  0  0
 16 18  1  0  0  0  0
 19 20  1  0  0  0  0
 20 21  1  6  0  0  0
 20 22  1  0  0  0  0
 22 23  1  6  0  0  0
 22 26  1  0  0  0  0
 23 24  1  0  0  0  0
 24 25  1  0  0  0  0
 25 26  1  0  0  0  0
M  END
>  <name>
O=C1[C@H](Cc2ccccc2)N2C(=O)[C@@]([N;amide])(C(C)C)O[C@@]2(O)[C@H]2N1CCC2

>  <apo>
1

>  <freq>
1

>  <freq0>
0

>  <freq1>
1

>  <freqA>
0.99887151

>  <a_count>
51

$$$$

  MOE2015           2D

 24 26  0  0  1  0  0  0  0  0999 V2000
    1.3530    3.5310    0.0000 S   0  0  0  0  0  0  0  0  0  0  0  0
    2.1030    4.8300    0.0000 O   0  0  0  0  0  0  0  0  0  0  0  0
    0.6030    2.2320    0.0000 O   0  0  0  0  0  0  0  0  0  0  0  0
    2.6520    2.7810    0.0000 N   0  0  0  0  0  0  0  0  0  0  0  0
    3.9510    3.5310    0.0000 C   0  0  0  0  0  0  0  0  0  0  0  0
    5.2500    2.7810    0.0000 C   0  0  0  0  0  0  0  0  0  0  0  0
    2.6520    1.2810    0.0000 C   0  0  0  0  0  0  0  0  0  0  0  0
    3.9510    0.5310    0.0000 C   0  0  0  0  0  0  0  0  0  0  0  0
    0.0540    4.2810    0.0000 N   0  0  0  0  0  0  0  0  0  0  0  0
   -1.2450    3.5310    0.0000 C   0  0  2  0  0  0  0  0  0  0  0  0
   -1.2450    2.0310    0.0000 C   0  0  0  0  0  0  0  0  0  0  0  0
   -2.5440    1.2810    0.0000 N   0  0  0  0  0  0  0  0  0  0  0  0
   -3.8430    2.0310    0.0000 C   0  0  1  0  0  0  0  0  0  0  0  0
   -3.8430    3.5310    0.0000 C   0  0  2  0  0  0  0  0  0  0  0  0
   -2.5440    4.2810    0.0000 C   0  0  0  0  0  0  0  0  0  0  0  0
   -5.1420    4.2810    0.0000 C   0  0  0  0  0  0  0  0  0  0  0  0
   -6.4410    3.5310    0.0000 C   0  0  0  0  0  0  0  0  0  0  0  0
   -7.7400    4.2810    0.0000 C   0  0  0  0  0  0  0  0  0  0  0  0
   -7.7400    5.7810    0.0000 O   0  0  0  0  0  0  0  0  0  0  0  0
   -9.0390    3.5310    0.0000 C   0  0  0  0  0  0  0  0  0  0  0  0
   -9.0390    2.0310    0.0000 C   0  0  0  0  0  0  0  0  0  0  0  0
   -7.7400    1.2810    0.0000 C   0  0  0  0  0  0  0  0  0  0  0  0
   -6.4410    2.0310    0.0000 C   0  0  0  0  0  0  0  0  0  0  0  0
   -5.1420    1.2810    0.0000 C   0  0  0  0  0  0  0  0  0  0  0  0
  1  2  2  0  0  0  0
  1  3  2  0  0  0  0
  1  4  1  0  0  0  0
  1  9  1  0  0  0  0
  4  5  1  0  0  0  0
  4  7  1  0  0  0  0
  5  6  1  0  0  0  0
  7  8  1  0  0  0  0
 10  9  1  6  0  0  0
 10 11  1  0  0  0  0
 10 15  1  0  0  0  0
 11 12  1  0  0  0  0
 13 12  1  6  0  0  0
 13 14  1  0  0  0  0
 13 24  1  0  0  0  0
 14 15  1  0  0  0  0
 14 16  1  1  0  0  0
 16 17  1  0  0  0  0
 17 18  2  0  0  0  0
 17 23  1  0  0  0  0
 18 19  1  0  0  0  0
 18 20  1  0  0  0  0
 20 21  2  0  0  0  0
 21 22  1  0  0  0  0
 22 23  2  0  0  0  0
 23 24  1  0  0  0  0
M  END
>  <name>
S(=O)(=O)(N(CC)CC)N[C@@H]1C[N;amine][C@H]2[C@H](C1)Cc1c(O)cccc1C2

>  <apo>
1

>  <freq>
1

>  <freq0>
0

>  <freq1>
1

>  <freqA>
0.99887151

>  <a_count>
51

$$$$

  MOE2015           2D

 16 15  0  0  0  0  0  0  0  0999 V2000
    1.4000    0.3750    0.0000 C   0  0  0  0  0  0  0  0  0  0  0  0
    0.1000   -0.3750    0.0000 C   0  0  0  0  0  0  0  0  0  0  0  0
   -1.1990    0.3750    0.0000 C   0  0  0  0  0  0  0  0  0  0  0  0
   -2.4980   -0.3750    0.0000 C   0  0  0  0  0  0  0  0  0  0  0  0
   -3.7970    0.3750    0.0000 C   0  0  0  0  0  0  0  0  0  0  0  0
   -5.0960   -0.3750    0.0000 C   0  0  0  0  0  0  0  0  0  0  0  0
   -6.3950    0.3750    0.0000 C   0  0  0  0  0  0  0  0  0  0  0  0
   -7.6940   -0.3750    0.0000 C   0  0  0  0  0  0  0  0  0  0  0  0
   -8.9930    0.3750    0.0000 C   0  0  0  0  0  0  0  0  0  0  0  0
    2.6990   -0.3750    0.0000 C   0  0  0  0  0  0  0  0  0  0  0  0
    3.9980    0.3750    0.0000 C   0  0  0  0  0  0  0  0  0  0  0  0
    5.2970   -0.3750    0.0000 C   0  0  0  0  0  0  0  0  0  0  0  0
    6.5960    0.3750    0.0000 C   0  0  0  0  0  0  0  0  0  0  0  0
    7.8950   -0.3750    0.0000 C   0  0  0  0  0  0  0  0  0  0  0  0
    9.1940    0.3750    0.0000 C   0  0  0  0  0  0  0  0  0  0  0  0
   10.4930   -0.3750    0.0000 C   0  0  0  0  0  0  0  0  0  0  0  0
  1  2  1  0  0  0  0
  1 10  1  0  0  0  0
  2  3  1  0  0  0  0
  3  4  1  0  0  0  0
  4  5  1  0  0  0  0
  5  6  1  0  0  0  0
  6  7  1  0  0  0  0
  7  8  1  0  0  0  0
  8  9  1  0  0  0  0
 10 11  1  0  0  0  0
 11 12  1  0  0  0  0
 12 13  1  0  0  0  0
 13 14  1  0  0  0  0
 14 15  1  0  0  0  0
 15 16  1  0  0  0  0
M  END
>  <name>
C(CCCCCCCC)CCCCCC[C;ether]

>  <apo>
1

>  <freq>
1

>  <freq0>
0

>  <freq1>
1

>  <freqA>
0.99887151

>  <a_count>
50

$$$$

  MOE2015           2D

 16 15  0  0  0  0  0  0  0  0999 V2000
    1.4000    0.3750    0.0000 C   0  0  0  0  0  0  0  0  0  0  0  0
    0.1000   -0.3750    0.0000 C   0  0  0  0  0  0  0  0  0  0  0  0
   -1.1990    0.3750    0.0000 C   0  0  0  0  0  0  0  0  0  0  0  0
   -2.4980   -0.3750    0.0000 C   0  0  0  0  0  0  0  0  0  0  0  0
   -3.7970    0.3750    0.0000 C   0  0  0  0  0  0  0  0  0  0  0  0
   -5.0960   -0.3750    0.0000 C   0  0  0  0  0  0  0  0  0  0  0  0
   -6.3950    0.3750    0.0000 C   0  0  0  0  0  0  0  0  0  0  0  0
   -7.6940   -0.3750    0.0000 C   0  0  0  0  0  0  0  0  0  0  0  0
   -8.9930    0.3750    0.0000 C   0  0  0  0  0  0  0  0  0  0  0  0
    2.6990   -0.3750    0.0000 C   0  0  0  0  0  0  0  0  0  0  0  0
    3.9980    0.3750    0.0000 C   0  0  0  0  0  0  0  0  0  0  0  0
    5.2970   -0.3750    0.0000 C   0  0  0  0  0  0  0  0  0  0  0  0
    6.5960    0.3750    0.0000 C   0  0  0  0  0  0  0  0  0  0  0  0
    7.8950   -0.3750    0.0000 C   0  0  0  0  0  0  0  0  0  0  0  0
    9.1940    0.3750    0.0000 C   0  0  0  0  0  0  0  0  0  0  0  0
   10.4930   -0.3750    0.0000 C   0  0  0  0  0  0  0  0  0  0  0  0
  1  2  1  0  0  0  0
  1 10  1  0  0  0  0
  2  3  1  0  0  0  0
  3  4  1  0  0  0  0
  4  5  1  0  0  0  0
  5  6  1  0  0  0  0
  6  7  1  0  0  0  0
  7  8  1  0  0  0  0
  8  9  1  0  0  0  0
 10 11  1  0  0  0  0
 11 12  1  0  0  0  0
 12 13  1  0  0  0  0
 13 14  1  0  0  0  0
 14 15  1  0  0  0  0
 15 16  1  0  0  0  0
M  END
>  <name>
C(CCCCCCC[C;quatN])CCCCCCC

>  <apo>
1

>  <freq>
1

>  <freq0>
0

>  <freq1>
1

>  <freqA>
0.99887151

>  <a_count>
50

$$$$

  MOE2015           2D

 30 34  0  0  1  0  0  0  0  0999 V2000
   -0.3690   -0.6450    0.0000 O   0  0  0  0  0  0  0  0  0  0  0  0
    0.3940   -1.9370    0.0000 C   0  0  0  0  0  0  0  0  0  0  0  0
    0.3690    0.6610    0.0000 C   0  0  0  0  0  0  0  0  0  0  0  0
   -0.3930    1.9530    0.0000 C   0  0  0  0  0  0  0  0  0  0  0  0
   -1.8930    1.9380    0.0000 C   0  0  3  0  0  0  0  0  0  0  0  0
   -2.6550    3.2300    0.0000 N   0  0  0  0  0  0  0  0  0  0  0  0
   -4.1550    3.2160    0.0000 C   0  0  0  0  0  0  0  0  0  0  0  0
   -1.9180    4.5360    0.0000 C   0  0  0  0  0  0  0  0  0  0  0  0
   -0.4180    4.5510    0.0000 C   0  0  0  0  0  0  0  0  0  0  0  0
    0.3440    3.2590    0.0000 C   0  0  0  0  0  0  0  0  0  0  0  0
    1.8440    3.2730    0.0000 C   0  0  0  0  0  0  0  0  0  0  0  0
    2.6070    1.9810    0.0000 C   0  0  0  0  0  0  0  0  0  0  0  0
    4.0770    1.6830    0.0000 O   0  0  0  0  0  0  0  0  0  0  0  0
    4.2480    0.1930    0.0000 C   0  0  0  0  0  0  0  0  0  0  0  0
    2.8830   -0.4300    0.0000 O   0  0  0  0  0  0  0  0  0  0  0  0
    1.8690    0.6750    0.0000 C   0  0  0  0  0  0  0  0  0  0  0  0
   -2.6310    0.6320    0.0000 C   0  0  3  0  0  0  0  0  0  0  0  0
   -2.0080   -0.7320    0.0000 O   0  0  0  0  0  0  0  0  0  0  0  0
   -3.1130   -1.7460    0.0000 C   0  0  0  0  0  0  0  0  0  0  0  0
   -2.9420   -3.2370    0.0000 O   0  0  0  0  0  0  0  0  0  0  0  0
   -4.4190   -1.0090    0.0000 C   0  0  0  0  0  0  0  0  0  0  0  0
   -5.8410   -1.4860    0.0000 C   0  0  0  0  0  0  0  0  0  0  0  0
   -6.1390   -2.9560    0.0000 N   0  0  0  0  0  0  0  0  0  0  0  0
   -6.9650   -0.4930    0.0000 C   0  0  0  0  0  0  0  0  0  0  0  0
   -8.3870   -0.9700    0.0000 O   0  0  0  0  0  0  0  0  0  0  0  0
   -6.6670    0.9770    0.0000 C   0  0  0  0  0  0  0  0  0  0  0  0
   -7.7910    1.9700    0.0000 O   0  0  0  0  0  0  0  0  0  0  0  0
   -5.2450    1.4540    0.0000 C   0  0  0  0  0  0  0  0  0  0  0  0
   -4.9470    2.9250    0.0000 O   0  0  0  0  0  0  0  0  0  0  0  0
   -4.1210    0.4610    0.0000 C   0  0  0  0  0  0  0  0  0  0  0  0
  1  2  1  0  0  0  0
  1  3  1  0  0  0  0
  3  4  1  0  0  0  0
  3 16  2  0  0  0  0
  4  5  1  0  0  0  0
  4 10  2  0  0  0  0
  5  6  1  0  0  0  0
  5 17  1  0  0  0  0
  6  7  1  0  0  0  0
  6  8  1  0  0  0  0
  8  9  1  0  0  0  0
  9 10  1  0  0  0  0
 10 11  1  0  0  0  0
 11 12  2  0  0  0  0
 12 13  1  0  0  0  0
 12 16  1  0  0  0  0
 13 14  1  0  0  0  0
 14 15  1  0  0  0  0
 15 16  1  0  0  0  0
 17 18  1  0  0  0  0
 17 30  1  0  0  0  0
 18 19  1  0  0  0  0
 19 20  2  0  0  0  0
 19 21  1  0  0  0  0
 21 22  1  0  0  0  0
 21 30  2  0  0  0  0
 22 23  1  0  0  0  0
 22 24  2  0  0  0  0
 24 25  1  0  0  0  0
 24 26  1  0  0  0  0
 26 27  1  0  0  0  0
 26 28  2  0  0  0  0
 28 29  1  0  0  0  0
 28 30  1  0  0  0  0
M  END
>  <name>
O(C)c1c2C(N(C)CCc2cc2OCOc12)C1OC(=O)c2c(N)c([O;ether])c([O;ether])c([O;ether])c12

>  <apo>
3

>  <freq>
1

>  <freq0>
0

>  <freq1>
1

>  <freqA>
0.99887151

>  <a_count>
50

$$$$

  MOE2015           2D

 23 25  0  0  1  0  0  0  0  0999 V2000
   -0.0100    1.6780    0.0000 O   0  0  0  0  0  0  0  0  0  0  0  0
    1.4900    1.6950    0.0000 C   0  0  0  0  0  0  0  0  0  0  0  0
    2.2550    0.4050    0.0000 C   0  0  2  0  0  0  0  0  0  0  0  0
    1.5200   -0.9030    0.0000 C   0  0  1  0  0  0  0  0  0  0  0  0
    0.0200   -0.9200    0.0000 C   0  0  0  0  0  0  0  0  0  0  0  0
   -0.7150   -2.2270    0.0000 C   0  0  0  0  0  0  0  0  0  0  0  0
    2.2850   -2.1930    0.0000 C   0  0  0  0  0  0  0  0  0  0  0  0
    3.7550    0.4220    0.0000 N   0  0  0  0  0  0  0  0  0  0  0  0
    4.7710   -0.6810    0.0000 C   0  0  0  0  0  0  0  0  0  0  0  0
    4.4760   -2.1520    0.0000 O   0  0  0  0  0  0  0  0  0  0  0  0
    6.1350   -0.0560    0.0000 C   0  0  1  0  0  0  0  0  0  0  0  0
    6.8310   -1.3840    0.0000 N   0  0  0  0  0  0  0  0  0  0  0  0
    7.6350   -0.0650    0.0000 C   0  0  0  0  0  0  0  0  0  0  0  0
    8.3920    1.2300    0.0000 C   0  0  0  0  0  0  0  0  0  0  0  0
    8.3770   -1.3680    0.0000 C   0  0  0  0  0  0  0  0  0  0  0  0
    5.9610    1.4340    0.0000 O   0  0  0  0  0  0  0  0  0  0  0  0
    4.4900    1.7290    0.0000 C   0  0  2  0  0  0  0  0  0  0  0  0
    5.3790    2.9380    0.0000 O   0  0  0  0  0  0  0  0  0  0  0  0
    3.7250    3.0200    0.0000 C   0  0  1  0  0  0  0  0  0  0  0  0
    2.2260    3.0030    0.0000 N   0  0  0  0  0  0  0  0  0  0  0  0
    1.7460    4.4240    0.0000 C   0  0  0  0  0  0  0  0  0  0  0  0
    2.9490    5.3190    0.0000 C   0  0  0  0  0  0  0  0  0  0  0  0
    4.1730    4.4520    0.0000 C   0  0  0  0  0  0  0  0  0  0  0  0
  1  2  2  0  0  0  0
  3  2  1  1  0  0  0
  2 20  1  0  0  0  0
  3  4  1  0  0  0  0
  3  8  1  0  0  0  0
  4  5  1  0  0  0  0
  4  7  1  6  0  0  0
  5  6  1  0  0  0  0
  8  9  1  0  0  0  0
  8 17  1  0  0  0  0
  9 10  2  0  0  0  0
  9 11  1  0  0  0  0
 11 12  1  1  0  0  0
 11 13  1  6  0  0  0
 11 16  1  0  0  0  0
 13 14  1  0  0  0  0
 13 15  1  0  0  0  0
 16 17  1  0  0  0  0
 17 18  1  1  0  0  0
 17 19  1  0  0  0  0
 19 20  1  0  0  0  0
 19 23  1  1  0  0  0
 20 21  1  0  0  0  0
 21 22  1  0  0  0  0
 22 23  1  0  0  0  0
M  END
>  <name>
O=C1[C@H]([C@@H](CC)C)N2C(=O)[C@@]([N;amide])(C(C)C)O[C@@]2(O)[C@H]2N1CCC2

>  <apo>
1

>  <freq>
1

>  <freq0>
0

>  <freq1>
1

>  <freqA>
0.99887151

>  <a_count>
50

$$$$

  MOE2015           2D

 24 27  0  0  1  0  0  0  0  0999 V2000
   -1.4900    5.1780    0.0000 O   0  0  0  0  0  0  0  0  0  0  0  0
   -0.5420    4.0160    0.0000 C   0  0  0  0  0  0  0  0  0  0  0  0
    0.9390    4.2560    0.0000 C   0  0  2  0  0  0  0  0  0  0  0  0
    0.4560    2.8360    0.0000 O   0  0  0  0  0  0  0  0  0  0  0  0
    2.4070    3.9490    0.0000 C   0  0  2  0  0  0  0  0  0  0  0  0
    1.5510    2.7180    0.0000 C   0  0  0  0  0  0  0  0  0  0  0  0
    3.1530    5.2510    0.0000 C   0  0  2  0  0  0  0  0  0  0  0  0
    4.6530    5.2570    0.0000 C   0  0  1  0  0  0  0  0  0  0  0  0
    5.4070    3.9600    0.0000 C   0  0  2  0  0  0  0  0  0  0  0  0
    4.6620    2.6580    0.0000 C   0  0  1  0  0  0  0  0  0  0  0  0
    5.4170    1.3620    0.0000 O   0  0  0  0  0  0  0  0  0  0  0  0
    3.1620    2.6530    0.0000 C   0  0  0  0  0  0  0  0  0  0  0  0
    6.9070    3.9660    0.0000 C   0  0  2  0  0  0  0  0  0  0  0  0
    6.1620    2.6640    0.0000 C   0  0  0  0  0  0  0  0  0  0  0  0
    7.6530    5.2670    0.0000 C   0  0  0  0  0  0  0  0  0  0  0  0
    9.1530    5.2730    0.0000 C   0  0  0  0  0  0  0  0  0  0  0  0
    9.9070    3.9760    0.0000 C   0  0  0  0  0  0  0  0  0  0  0  0
   11.4070    3.9820    0.0000 O   0  0  0  0  0  0  0  0  0  0  0  0
    9.1620    2.6750    0.0000 C   0  0  0  0  0  0  0  0  0  0  0  0
    7.6620    2.6690    0.0000 C   0  0  0  0  0  0  0  0  0  0  0  0
    6.8980    6.5640    0.0000 C   0  0  0  0  0  0  0  0  0  0  0  0
    5.3980    6.5580    0.0000 C   0  0  0  0  0  0  0  0  0  0  0  0
    2.1450    6.3620    0.0000 C   0  0  0  0  0  0  0  0  0  0  0  0
    0.7770    5.7470    0.0000 C   0  0  0  0  0  0  0  0  0  0  0  0
  1  2  2  0  0  0  0
  3  2  1  1  0  0  0
  3  4  1  6  0  0  0
  3  5  1  0  0  0  0
  3 24  1  0  0  0  0
  5  6  1  1  0  0  0
  5  7  1  0  0  0  0
  5 12  1  0  0  0  0
  7  8  1  0  0  0  0
  7 23  1  1  0  0  0
  8  9  1  0  0  0  0
  8 22  1  6  0  0  0
  9 10  1  1  0  0  0
  9 13  1  0  0  0  0
 10 11  1  1  0  0  0
 10 12  1  0  0  0  0
 13 14  1  1  0  0  0
 13 15  1  0  0  0  0
 13 20  1  0  0  0  0
 15 16  2  0  0  0  0
 15 21  1  0  0  0  0
 16 17  1  0  0  0  0
 17 18  2  0  0  0  0
 17 19  1  0  0  0  0
 19 20  2  0  0  0  0
 21 22  1  0  0  0  0
 23 24  1  0  0  0  0
M  END
>  <name>
O=[C;ester][C@]1(O)[C@]2(C)[C@H]([C@H]3[C@H]([C@@H](O)C2)[C@]2(C)C(=CC(=O)C=C2)CC3)CC1

>  <apo>
1

>  <freq>
1

>  <freq0>
0

>  <freq1>
1

>  <freqA>
0.99887151

>  <a_count>
50

$$$$

  MOE2015           2D

 25 27  0  0  0  0  0  0  0  0999 V2000
    8.8690    3.9800    0.0000 S   0  0  0  0  0  0  0  0  0  0  0  0
    7.8720    2.8590    0.0000 O   0  0  0  0  0  0  0  0  0  0  0  0
    9.8660    5.1010    0.0000 O   0  0  0  0  0  0  0  0  0  0  0  0
    9.9890    2.9830    0.0000 O   0  0  0  0  0  0  0  0  0  0  0  0
    7.7480    4.9770    0.0000 C   0  0  0  0  0  0  0  0  0  0  0  0
    6.3240    4.5050    0.0000 C   0  0  0  0  0  0  0  0  0  0  0  0
    5.2030    5.5020    0.0000 C   0  0  0  0  0  0  0  0  0  0  0  0
    3.7800    5.0300    0.0000 C   0  0  0  0  0  0  0  0  0  0  0  0
    2.6590    6.0270    0.0000 N   0  0  0  0  0  0  0  0  0  0  0  0
    2.8070    7.5200    0.0000 C   0  0  0  0  0  0  0  0  0  0  0  0
    4.1010    8.2780    0.0000 C   0  0  0  0  0  0  0  0  0  0  0  0
    4.0930    9.7780    0.0000 C   0  0  0  0  0  0  0  0  0  0  0  0
    1.4330    8.1220    0.0000 C   0  0  0  0  0  0  0  0  0  0  0  0
    1.9620    9.5250    0.0000 C   0  0  0  0  0  0  0  0  0  0  0  0
    0.4420    9.2480    0.0000 C   0  0  0  0  0  0  0  0  0  0  0  0
    0.4360    7.0010    0.0000 C   0  0  0  0  0  0  0  0  0  0  0  0
   -1.0640    6.9920    0.0000 C   0  0  0  0  0  0  0  0  0  0  0  0
   -1.8060    5.6890    0.0000 C   0  0  0  0  0  0  0  0  0  0  0  0
   -1.0490    4.3940    0.0000 C   0  0  0  0  0  0  0  0  0  0  0  0
    0.4510    4.4030    0.0000 C   0  0  0  0  0  0  0  0  0  0  0  0
    1.1940    5.7070    0.0000 C   0  0  0  0  0  0  0  0  0  0  0  0
   -3.3060    5.6800    0.0000 C   0  0  0  0  0  0  0  0  0  0  0  0
   -4.0640    6.9750    0.0000 C   0  0  0  0  0  0  0  0  0  0  0  0
   -3.3220    8.2780    0.0000 C   0  0  0  0  0  0  0  0  0  0  0  0
   -1.8220    8.2870    0.0000 C   0  0  0  0  0  0  0  0  0  0  0  0
  1  2  2  0  0  0  0
  1  3  2  0  0  0  0
  1  4  1  0  0  0  0
  1  5  1  0  0  0  0
  5  6  1  0  0  0  0
  6  7  1  0  0  0  0
  7  8  1  0  0  0  0
  8  9  1  0  0  0  0
  9 10  1  0  0  0  0
  9 21  1  0  0  0  0
 10 11  2  0  0  0  0
 10 13  1  0  0  0  0
 11 12  1  0  0  0  0
 13 14  1  0  0  0  0
 13 15  1  0  0  0  0
 13 16  1  0  0  0  0
 16 17  1  0  0  0  0
 16 21  2  0  0  0  0
 17 18  1  0  0  0  0
 17 25  2  0  0  0  0
 18 19  1  0  0  0  0
 18 22  2  0  0  0  0
 19 20  2  0  0  0  0
 20 21  1  0  0  0  0
 22 23  1  0  0  0  0
 23 24  2  0  0  0  0
 24 25  1  0  0  0  0
M  END
>  <name>
S(=O)(=O)(O)CCCCN1/C(=C/[C;olefin])/C(C)(C)c2c3c(ccc12)cccc3

>  <apo>
1

>  <freq>
1

>  <freq0>
0

>  <freq1>
1

>  <freqA>
0.99887151

>  <a_count>
50

$$$$

  MOE2015           2D

 22 25  0  0  1  0  0  0  0  0999 V2000
   13.6340   -0.6140    0.0000 O   0  0  0  0  0  0  0  0  0  0  0  0
   12.1340   -0.6210    0.0000 C   0  0  2  0  0  0  0  0  0  0  0  0
   11.3780    0.6750    0.0000 C   0  0  0  0  0  0  0  0  0  0  0  0
    9.8780    0.6680    0.0000 C   0  0  0  0  0  0  0  0  0  0  0  0
    9.1340   -0.6350    0.0000 C   0  0  1  0  0  0  0  0  0  0  0  0
    7.6340   -0.6420    0.0000 C   0  0  2  0  0  0  0  0  0  0  0  0
    6.8780    0.6540    0.0000 C   0  0  2  0  0  0  0  0  0  0  0  0
    5.3780    0.6470    0.0000 C   0  0  1  0  0  0  0  0  0  0  0  0
    4.6340   -0.6560    0.0000 C   0  0  1  0  0  0  0  0  0  0  0  0
    3.7370   -1.8580    0.0000 C   0  0  0  0  0  0  0  0  0  0  0  0
    3.1660   -0.3510    0.0000 C   0  0  2  0  0  0  0  0  0  0  0  0
    2.7650   -1.7960    0.0000 O   0  0  0  0  0  0  0  0  0  0  0  0
    1.6990   -0.6630    0.0000 C   0  0  0  0  0  0  0  0  0  0  0  0
    0.2320   -0.9760    0.0000 C   0  0  0  0  0  0  0  0  0  0  0  0
    3.0020    1.1400    0.0000 C   0  0  0  0  0  0  0  0  0  0  0  0
    4.3690    1.7570    0.0000 C   0  0  0  0  0  0  0  0  0  0  0  0
    5.3910   -1.9510    0.0000 C   0  0  0  0  0  0  0  0  0  0  0  0
    6.8910   -1.9440    0.0000 C   0  0  0  0  0  0  0  0  0  0  0  0
    7.6220    1.9560    0.0000 C   0  0  0  0  0  0  0  0  0  0  0  0
    9.1220    1.9630    0.0000 C   0  0  0  0  0  0  0  0  0  0  0  0
    9.8900   -1.9300    0.0000 C   0  0  0  0  0  0  0  0  0  0  0  0
   11.3900   -1.9230    0.0000 C   0  0  0  0  0  0  0  0  0  0  0  0
  2  1  1  1  0  0  0
  2  3  1  0  0  0  0
  2 22  1  0  0  0  0
  3  4  2  0  0  0  0
  5  4  1  6  0  0  0
  4 20  1  0  0  0  0
  5  6  1  0  0  0  0
  5 21  1  0  0  0  0
  6  7  1  0  0  0  0
  6 18  1  1  0  0  0
  7  8  1  0  0  0  0
  7 19  1  6  0  0  0
  8  9  1  0  0  0  0
  8 16  1  1  0  0  0
  9 10  1  1  0  0  0
  9 11  1  0  0  0  0
  9 17  1  0  0  0  0
 11 12  1  1  0  0  0
 11 13  1  6  0  0  0
 11 15  1  0  0  0  0
 13 14  3  0  0  0  0
 15 16  1  0  0  0  0
 17 18  1  0  0  0  0
 19 20  1  0  0  0  0
 21 22  1  0  0  0  0
M  END
>  <name>
[O;ester][C@@H]1C=C2[C@@H]([C@@H]3[C@H]([C@H]4[C@@](C)([C@]([O;ester])(C#C)CC4)CC3)CC2)CC1

>  <apo>
2

>  <freq>
1

>  <freq0>
0

>  <freq1>
1

>  <freqA>
0.99887151

>  <a_count>
50

$$$$

  MOE2015           2D

 28 31  0  0  1  0  0  0  0  0999 V2000
    6.3900    2.6430    0.0000 Cl  0  0  0  0  0  0  0  0  0  0  0  0
    5.0860    1.9020    0.0000 C   0  0  0  0  0  0  0  0  0  0  0  0
    5.0750    0.4020    0.0000 C   0  0  0  0  0  0  0  0  0  0  0  0
    6.3690   -0.3570    0.0000 C   0  0  0  0  0  0  0  0  0  0  0  0
    7.6730    0.3840    0.0000 C   0  0  0  0  0  0  0  0  0  0  0  0
    8.9670   -0.3750    0.0000 C   0  0  0  0  0  0  0  0  0  0  0  0
   10.2710    0.3660    0.0000 C   0  0  0  0  0  0  0  0  0  0  0  0
   10.2820    1.8660    0.0000 C   0  0  0  0  0  0  0  0  0  0  0  0
   11.5860    2.6070    0.0000 O   0  0  0  0  0  0  0  0  0  0  0  0
    8.9880    2.6250    0.0000 C   0  0  0  0  0  0  0  0  0  0  0  0
    7.6840    1.8840    0.0000 C   0  0  0  0  0  0  0  0  0  0  0  0
    3.7710   -0.3390    0.0000 C   0  0  0  0  0  0  0  0  0  0  0  0
    2.4770    0.4200    0.0000 C   0  0  0  0  0  0  0  0  0  0  0  0
    1.1730   -0.3210    0.0000 C   0  0  1  0  0  0  0  0  0  0  0  0
   -0.5440   -0.8390    0.0000 C   0  0  2  0  0  0  0  0  0  0  0  0
    0.3520   -2.0430    0.0000 O   0  0  0  0  0  0  0  0  0  0  0  0
   -1.2290   -1.8740    0.0000 C   0  0  1  0  0  0  0  0  0  0  0  0
   -1.5710   -3.3340    0.0000 O   0  0  0  0  0  0  0  0  0  0  0  0
   -1.4160   -0.3590    0.0000 C   0  0  2  0  0  0  0  0  0  0  0  0
   -2.6670    0.4690    0.0000 O   0  0  0  0  0  0  0  0  0  0  0  0
    0.2260    0.1080    0.0000 C   0  0  1  0  0  0  0  0  0  0  0  0
   -0.6260    1.3430    0.0000 C   0  0  0  0  0  0  0  0  0  0  0  0
    0.0170    2.6980    0.0000 O   0  0  0  0  0  0  0  0  0  0  0  0
    0.9800    1.1860    0.0000 O   0  0  0  0  0  0  0  0  0  0  0  0
    1.1750   -0.9720    0.0000 C   0  0  0  0  0  0  0  0  0  0  0  0
    2.4660   -1.3060    0.0000 O   0  0  0  0  0  0  0  0  0  0  0  0
    2.4880    1.9200    0.0000 C   0  0  0  0  0  0  0  0  0  0  0  0
    3.7920    2.6610    0.0000 C   0  0  0  0  0  0  0  0  0  0  0  0
  1  2  1  0  0  0  0
  2  3  2  0  0  0  0
  2 28  1  0  0  0  0
  3  4  1  0  0  0  0
  3 12  1  0  0  0  0
  4  5  1  0  0  0  0
  5  6  1  0  0  0  0
  5 11  2  0  0  0  0
  6  7  2  0  0  0  0
  7  8  1  0  0  0  0
  8  9  1  0  0  0  0
  8 10  2  0  0  0  0
 10 11  1  0  0  0  0
 12 13  2  0  0  0  0
 14 13  1  1  0  0  0
 13 27  1  0  0  0  0
 14 15  1  0  0  0  0
 14 24  1  0  0  0  0
 14 26  1  0  0  0  0
 15 16  1  6  0  0  0
 15 17  1  0  0  0  0
 17 18  1  1  0  0  0
 17 19  1  0  0  0  0
 19 20  1  6  0  0  0
 19 21  1  0  0  0  0
 21 22  1  6  0  0  0
 21 24  1  0  0  0  0
 21 25  1  0  0  0  0
 22 23  1  0  0  0  0
 25 26  1  0  0  0  0
 27 28  2  0  0  0  0
M  END
>  <name>
Clc1c(Cc2ccc([O;ether])cc2)cc([C@@]23[C@H](O)[C@@H](O)[C@H](O)[C@@](CO)(O2)CO3)cc1

>  <apo>
1

>  <freq>
1

>  <freq0>
0

>  <freq1>
1

>  <freqA>
0.99887151

>  <a_count>
49

$$$$

  MOE2015           2D

 29 32  0  0  0  0  0  0  0  0999 V2000
   -1.0010   -0.5780    0.0000 F   0  0  0  0  0  0  0  0  0  0  0  0
   -1.7510   -1.8770    0.0000 C   0  0  0  0  0  0  0  0  0  0  0  0
   -1.0010   -3.1760    0.0000 C   0  0  0  0  0  0  0  0  0  0  0  0
    0.4990   -3.1760    0.0000 N   0  0  0  0  0  0  0  0  0  0  0  0
    1.2490   -1.8770    0.0000 C   0  0  0  0  0  0  0  0  0  0  0  0
    0.4990   -0.5780    0.0000 O   0  0  0  0  0  0  0  0  0  0  0  0
    2.7490   -1.8770    0.0000 N   0  0  0  0  0  0  0  0  0  0  0  0
    3.4990   -0.5780    0.0000 C   0  0  0  0  0  0  0  0  0  0  0  0
    2.7490    0.7210    0.0000 C   0  0  0  0  0  0  0  0  0  0  0  0
    3.4990   -3.1760    0.0000 C   0  0  0  0  0  0  0  0  0  0  0  0
    4.9990   -3.1760    0.0000 C   0  0  0  0  0  0  0  0  0  0  0  0
    5.7490   -4.4750    0.0000 C   0  0  0  0  0  0  0  0  0  0  0  0
    7.2160   -4.1630    0.0000 N   0  0  0  0  0  0  0  0  0  0  0  0
    7.3730   -2.6720    0.0000 C   0  0  0  0  0  0  0  0  0  0  0  0
    8.6720   -1.9220    0.0000 C   0  0  0  0  0  0  0  0  0  0  0  0
    6.0020   -2.0610    0.0000 C   0  0  0  0  0  0  0  0  0  0  0  0
    4.9990   -5.7740    0.0000 N   0  0  0  0  0  0  0  0  0  0  0  0
    3.4990   -5.7740    0.0000 C   0  0  0  0  0  0  0  0  0  0  0  0
    2.7490   -4.4750    0.0000 C   0  0  0  0  0  0  0  0  0  0  0  0
    1.2490   -4.4750    0.0000 C   0  0  0  0  0  0  0  0  0  0  0  0
   -1.7510   -4.4750    0.0000 C   0  0  0  0  0  0  0  0  0  0  0  0
   -1.0010   -5.7740    0.0000 F   0  0  0  0  0  0  0  0  0  0  0  0
   -3.2510   -4.4750    0.0000 C   0  0  0  0  0  0  0  0  0  0  0  0
   -4.0010   -5.7740    0.0000 O   0  0  0  0  0  0  0  0  0  0  0  0
   -5.5010   -5.7740    0.0000 C   0  0  0  0  0  0  0  0  0  0  0  0
   -4.0010   -3.1760    0.0000 C   0  0  0  0  0  0  0  0  0  0  0  0
   -3.2510   -1.8770    0.0000 C   0  0  0  0  0  0  0  0  0  0  0  0
   -4.0010   -0.5780    0.0000 O   0  0  0  0  0  0  0  0  0  0  0  0
   -5.5010   -0.5780    0.0000 C   0  0  0  0  0  0  0  0  0  0  0  0
  1  2  1  0  0  0  0
  2  3  1  0  0  0  0
  2 27  2  0  0  0  0
  3  4  1  0  0  0  0
  3 21  2  0  0  0  0
  4  5  1  0  0  0  0
  4 20  1  0  0  0  0
  5  6  2  0  0  0  0
  5  7  1  0  0  0  0
  7  8  1  0  0  0  0
  7 10  1  0  0  0  0
  8  9  1  0  0  0  0
 10 11  1  0  0  0  0
 10 19  2  0  0  0  0
 11 12  2  0  0  0  0
 11 16  1  0  0  0  0
 12 13  1  0  0  0  0
 12 17  1  0  0  0  0
 13 14  1  0  0  0  0
 14 15  1  0  0  0  0
 14 16  2  0  0  0  0
 17 18  2  0  0  0  0
 18 19  1  0  0  0  0
 19 20  1  0  0  0  0
 21 22  1  0  0  0  0
 21 23  1  0  0  0  0
 23 24  1  0  0  0  0
 23 26  2  0  0  0  0
 24 25  1  0  0  0  0
 26 27  1  0  0  0  0
 27 28  1  0  0  0  0
 28 29  1  0  0  0  0
M  END
>  <name>
Fc1c(N2C(=O)N(CC)c3c4c([nH]c([C;amine])c4)ncc3C2)c(F)c(OC)cc1OC

>  <apo>
1

>  <freq>
1

>  <freq0>
0

>  <freq1>
1

>  <freqA>
0.99887151

>  <a_count>
49

$$$$

  MOE2015           2D

 26 28  0  0  1  0  0  0  0  0999 V2000
    0.0080   -4.1270    0.0000 O   0  0  0  0  0  0  0  0  0  0  0  0
    1.5080   -4.1210    0.0000 C   0  0  0  0  0  0  0  0  0  0  0  0
   -0.7470   -2.8300    0.0000 C   0  0  0  0  0  0  0  0  0  0  0  0
   -2.2470   -2.8360    0.0000 C   0  0  0  0  0  0  0  0  0  0  0  0
   -2.9920   -4.1380    0.0000 O   0  0  0  0  0  0  0  0  0  0  0  0
   -2.2370   -5.4340    0.0000 C   0  0  0  0  0  0  0  0  0  0  0  0
   -3.0020   -1.5400    0.0000 C   0  0  0  0  0  0  0  0  0  0  0  0
   -2.2570   -0.2380    0.0000 C   0  0  0  0  0  0  0  0  0  0  0  0
   -0.7570   -0.2320    0.0000 C   0  0  0  0  0  0  0  0  0  0  0  0
   -0.0020   -1.5290    0.0000 C   0  0  0  0  0  0  0  0  0  0  0  0
    1.4980   -1.5230    0.0000 O   0  0  0  0  0  0  0  0  0  0  0  0
    2.2430   -0.2210    0.0000 C   0  0  0  0  0  0  0  0  0  0  0  0
   -2.8100    1.1560    0.0000 C   0  0  0  0  0  0  0  0  0  0  0  0
   -4.2450    1.5920    0.0000 C   0  0  0  0  0  0  0  0  0  0  0  0
   -5.4810    0.7420    0.0000 C   0  0  2  0  0  0  0  0  0  0  0  0
   -6.7830    1.4870    0.0000 N   0  0  0  0  0  0  0  0  0  0  0  0
   -5.5890   -0.7550    0.0000 C   0  0  0  0  0  0  0  0  0  0  0  0
   -4.4840   -1.7700    0.0000 C   0  0  0  0  0  0  0  0  0  0  0  0
   -4.5910   -3.2660    0.0000 C   0  0  0  0  0  0  0  0  0  0  0  0
   -5.8270   -4.1160    0.0000 C   0  0  0  0  0  0  0  0  0  0  0  0
   -7.2620   -3.6810    0.0000 C   0  0  0  0  0  0  0  0  0  0  0  0
   -8.2780   -4.7840    0.0000 O   0  0  0  0  0  0  0  0  0  0  0  0
   -7.8300   -6.2160    0.0000 C   0  0  0  0  0  0  0  0  0  0  0  0
   -7.8150   -2.2860    0.0000 C   0  0  0  0  0  0  0  0  0  0  0  0
   -9.3110   -2.1790    0.0000 O   0  0  0  0  0  0  0  0  0  0  0  0
   -7.0710   -0.9850    0.0000 C   0  0  0  0  0  0  0  0  0  0  0  0
  1  2  1  0  0  0  0
  1  3  1  0  0  0  0
  3  4  2  0  0  0  0
  3 10  1  0  0  0  0
  4  5  1  0  0  0  0
  4  7  1  0  0  0  0
  5  6  1  0  0  0  0
  7  8  2  0  0  0  0
  7 18  1  0  0  0  0
  8  9  1  0  0  0  0
  8 13  1  0  0  0  0
  9 10  2  0  0  0  0
 10 11  1  0  0  0  0
 11 12  1  0  0  0  0
 13 14  1  0  0  0  0
 14 15  1  0  0  0  0
 15 16  1  1  0  0  0
 15 17  1  0  0  0  0
 17 18  1  0  0  0  0
 17 26  2  0  0  0  0
 18 19  2  0  0  0  0
 19 20  1  0  0  0  0
 20 21  2  0  0  0  0
 21 22  1  0  0  0  0
 21 24  1  0  0  0  0
 22 23  1  0  0  0  0
 24 25  2  0  0  0  0
 24 26  1  0  0  0  0
M  END
>  <name>
O(C)c1c(OC)c2c(cc1OC)CC[C@H]([N;amide])C=1C2=CC=C(OC)C(=O)C=1

>  <apo>
1

>  <freq>
1

>  <freq0>
0

>  <freq1>
1

>  <freqA>
0.99887151

>  <a_count>
49

$$$$

  MOE2015           2D

 31 34  0  0  1  0  0  0  0  0999 V2000
    0.0000   -2.3470    0.0000 O   0  0  0  0  0  0  0  0  0  0  0  0
    1.5000   -2.3470    0.0000 C   0  0  1  0  0  0  0  0  0  0  0  0
    2.2500   -3.6460    0.0000 C   0  0  2  0  0  0  0  0  0  0  0  0
    1.5000   -4.9450    0.0000 O   0  0  0  0  0  0  0  0  0  0  0  0
    3.7500   -3.6460    0.0000 C   0  0  1  0  0  0  0  0  0  0  0  0
    4.5000   -4.9450    0.0000 O   0  0  0  0  0  0  0  0  0  0  0  0
    4.5000   -2.3470    0.0000 C   0  0  1  0  0  0  0  0  0  0  0  0
    6.0000   -2.3470    0.0000 O   0  0  0  0  0  0  0  0  0  0  0  0
    3.7500   -1.0480    0.0000 C   0  0  0  0  0  0  0  0  0  0  0  0
    2.2500   -1.0480    0.0000 O   0  0  0  0  0  0  0  0  0  0  0  0
   -0.7500   -1.0480    0.0000 C   0  0  0  0  0  0  0  0  0  0  0  0
   -2.2500   -1.0480    0.0000 C   0  0  0  0  0  0  0  0  0  0  0  0
   -3.0000   -2.3470    0.0000 C   0  0  0  0  0  0  0  0  0  0  0  0
   -4.5000   -2.3470    0.0000 C   0  0  0  0  0  0  0  0  0  0  0  0
   -5.2500   -3.6460    0.0000 C   0  0  0  0  0  0  0  0  0  0  0  0
   -6.7500   -3.6460    0.0000 O   0  0  0  0  0  0  0  0  0  0  0  0
   -4.5000   -4.9450    0.0000 C   0  0  0  0  0  0  0  0  0  0  0  0
   -5.2500   -6.2440    0.0000 O   0  0  0  0  0  0  0  0  0  0  0  0
   -3.0000   -4.9450    0.0000 C   0  0  0  0  0  0  0  0  0  0  0  0
   -2.2500   -3.6460    0.0000 C   0  0  0  0  0  0  0  0  0  0  0  0
   -3.0000    0.2510    0.0000 O   0  0  0  0  0  0  0  0  0  0  0  0
   -2.2500    1.5500    0.0000 C   0  0  0  0  0  0  0  0  0  0  0  0
   -0.7500    1.5500    0.0000 C   0  0  0  0  0  0  0  0  0  0  0  0
    0.0000    2.8500    0.0000 C   0  0  0  0  0  0  0  0  0  0  0  0
    1.5000    2.8500    0.0000 O   0  0  0  0  0  0  0  0  0  0  0  0
   -0.7500    4.1490    0.0000 C   0  0  0  0  0  0  0  0  0  0  0  0
   -2.2500    4.1490    0.0000 C   0  0  0  0  0  0  0  0  0  0  0  0
   -3.0000    5.4480    0.0000 O   0  0  0  0  0  0  0  0  0  0  0  0
   -3.0000    2.8500    0.0000 C   0  0  0  0  0  0  0  0  0  0  0  0
    0.0000    0.2510    0.0000 C   0  0  0  0  0  0  0  0  0  0  0  0
    1.5000    0.2510    0.0000 O   0  0  0  0  0  0  0  0  0  0  0  0
  2  1  1  6  0  0  0
  1 11  1  0  0  0  0
  2  3  1  0  0  0  0
  2 10  1  0  0  0  0
  3  4  1  1  0  0  0
  3  5  1  0  0  0  0
  5  6  1  6  0  0  0
  5  7  1  0  0  0  0
  7  8  1  6  0  0  0
  7  9  1  0  0  0  0
  9 10  1  0  0  0  0
 11 12  2  0  0  0  0
 11 30  1  0  0  0  0
 12 13  1  0  0  0  0
 12 21  1  0  0  0  0
 13 14  1  0  0  0  0
 13 20  2  0  0  0  0
 14 15  2  0  0  0  0
 15 16  1  0  0  0  0
 15 17  1  0  0  0  0
 17 18  1  0  0  0  0
 17 19  2  0  0  0  0
 19 20  1  0  0  0  0
 21 22  1  0  0  0  0
 22 23  2  0  0  0  0
 22 29  1  0  0  0  0
 23 24  1  0  0  0  0
 23 30  1  0  0  0  0
 24 25  1  0  0  0  0
 24 26  2  0  0  0  0
 26 27  1  0  0  0  0
 27 28  1  0  0  0  0
 27 29  2  0  0  0  0
 30 31  2  0  0  0  0
M  END
>  <name>
O([C@H]1[C@H](O)[C@@H](O)[C@@H](O)[C;ether]O1)C1=C(c2cc(O)c(O)cc2)Oc2c(c(O)cc(O)c2)C1=O

>  <apo>
1

>  <freq>
1

>  <freq0>
0

>  <freq1>
1

>  <freqA>
0.99887151

>  <a_count>
49

$$$$

  MOE2015           2D

 30 33  0  0  1  0  0  0  0  0999 V2000
   12.5480   -4.2360    0.0000 O   0  0  0  0  0  0  0  0  0  0  0  0
   11.2490   -4.9860    0.0000 C   0  0  0  0  0  0  0  0  0  0  0  0
   11.2490   -6.4860    0.0000 N   0  0  0  0  0  0  0  0  0  0  0  0
    9.9500   -4.2360    0.0000 C   0  0  0  0  0  0  0  0  0  0  0  0
    8.6510   -4.9860    0.0000 C   0  0  0  0  0  0  0  0  0  0  0  0
    8.6510   -6.4860    0.0000 O   0  0  0  0  0  0  0  0  0  0  0  0
    7.3520   -4.2360    0.0000 C   0  0  1  0  0  0  0  0  0  0  0  0
    7.3520   -5.7360    0.0000 O   0  0  0  0  0  0  0  0  0  0  0  0
    6.0530   -4.9860    0.0000 C   0  0  0  0  0  0  0  0  0  0  0  0
    6.0530   -6.4860    0.0000 O   0  0  0  0  0  0  0  0  0  0  0  0
    4.7540   -4.2360    0.0000 C   0  0  0  0  0  0  0  0  0  0  0  0
    3.4550   -4.9860    0.0000 C   0  0  0  0  0  0  0  0  0  0  0  0
    3.4550   -6.4860    0.0000 O   0  0  0  0  0  0  0  0  0  0  0  0
    2.1560   -4.2360    0.0000 C   0  0  0  0  0  0  0  0  0  0  0  0
    0.8570   -4.9860    0.0000 C   0  0  0  0  0  0  0  0  0  0  0  0
    0.8570   -6.4860    0.0000 O   0  0  0  0  0  0  0  0  0  0  0  0
   -0.4420   -4.2360    0.0000 C   0  0  0  0  0  0  0  0  0  0  0  0
   -0.4420   -2.7360    0.0000 C   0  0  0  0  0  0  0  0  0  0  0  0
    0.8570   -1.9860    0.0000 C   0  0  0  0  0  0  0  0  0  0  0  0
    2.1560   -2.7360    0.0000 C   0  0  0  0  0  0  0  0  0  0  0  0
    3.4550   -1.9860    0.0000 C   0  0  2  0  0  0  0  0  0  0  0  0
    4.2050   -0.6860    0.0000 O   0  0  0  0  0  0  0  0  0  0  0  0
    2.7050   -0.6860    0.0000 C   0  0  0  0  0  0  0  0  0  0  0  0
    4.7540   -2.7360    0.0000 C   0  0  1  0  0  0  0  0  0  0  0  0
    6.0530   -1.9860    0.0000 C   0  0  1  0  0  0  0  0  0  0  0  0
    6.0530   -0.4860    0.0000 O   0  0  0  0  0  0  0  0  0  0  0  0
    7.3520   -2.7360    0.0000 C   0  0  1  0  0  0  0  0  0  0  0  0
    8.6510   -1.9860    0.0000 C   0  0  0  0  0  0  0  0  0  0  0  0
    9.9500   -2.7360    0.0000 C   0  0  0  0  0  0  0  0  0  0  0  0
   11.2490   -1.9860    0.0000 O   0  0  0  0  0  0  0  0  0  0  0  0
  1  2  2  0  0  0  0
  2  3  1  0  0  0  0
  2  4  1  0  0  0  0
  4  5  1  0  0  0  0
  4 29  2  0  0  0  0
  5  6  2  0  0  0  0
  5  7  1  0  0  0  0
  7  8  1  6  0  0  0
  7  9  1  0  0  0  0
  7 27  1  0  0  0  0
  9 10  1  0  0  0  0
  9 11  2  0  0  0  0
 11 12  1  0  0  0  0
 24 11  1  1  0  0  0
 12 13  2  0  0  0  0
 12 14  1  0  0  0  0
 14 15  2  0  0  0  0
 14 20  1  0  0  0  0
 15 16  1  0  0  0  0
 15 17  1  0  0  0  0
 17 18  2  0  0  0  0
 18 19  1  0  0  0  0
 19 20  2  0  0  0  0
 20 21  1  0  0  0  0
 21 22  1  1  0  0  0
 21 23  1  6  0  0  0
 21 24  1  0  0  0  0
 24 25  1  0  0  0  0
 25 26  1  1  0  0  0
 25 27  1  0  0  0  0
 27 28  1  1  0  0  0
 28 29  1  0  0  0  0
 29 30  1  0  0  0  0
M  END
>  <name>
O=C(N)C=1C(=O)[C@@]2(O)C(O)=C3C(=O)c4c(O)cccc4[C@](O)(C)[C@H]3[C@@H](O)[C@H]2[C;amine]C=1O

>  <apo>
1

>  <freq>
1

>  <freq0>
0

>  <freq1>
1

>  <freqA>
0.99887151

>  <a_count>
49

$$$$

  MOE2015           2D

 22 24  0  0  1  0  0  0  0  0999 V2000
    5.3920    5.3920    0.0000 O   0  0  0  0  0  0  0  0  0  0  0  0
    5.3920    3.8920    0.0000 C   0  0  0  0  0  0  0  0  0  0  0  0
    6.6910    3.1420    0.0000 O   0  0  0  0  0  0  0  0  0  0  0  0
    7.9900    3.8920    0.0000 C   0  0  0  0  0  0  0  0  0  0  0  0
    9.2890    3.1420    0.0000 C   0  0  0  0  0  0  0  0  0  0  0  0
    4.0930    3.1420    0.0000 N   0  0  0  0  0  0  0  0  0  0  0  0
    2.7940    3.8920    0.0000 C   0  0  1  0  0  0  0  0  0  0  0  0
    1.4950    3.1420    0.0000 C   0  0  0  0  0  0  0  0  0  0  0  0
    0.1960    3.8920    0.0000 C   0  0  2  0  0  0  0  0  0  0  0  0
    0.1960    5.3920    0.0000 C   0  0  2  0  0  0  0  0  0  0  0  0
   -1.1030    6.1420    0.0000 C   0  0  2  0  0  0  0  0  0  0  0  0
   -1.1030    7.6420    0.0000 C   0  0  0  0  0  0  0  0  0  0  0  0
   -2.4020    5.3920    0.0000 C   0  0  2  0  0  0  0  0  0  0  0  0
   -3.8290    5.8560    0.0000 C   0  0  1  0  0  0  0  0  0  0  0  0
   -4.2920    7.2820    0.0000 C   0  0  0  0  0  0  0  0  0  0  0  0
   -4.7100    4.6420    0.0000 O   0  0  0  0  0  0  0  0  0  0  0  0
   -3.8290    3.4280    0.0000 C   0  0  0  0  0  0  0  0  0  0  0  0
   -4.2920    2.0020    0.0000 O   0  0  0  0  0  0  0  0  0  0  0  0
   -2.4020    3.8920    0.0000 C   0  0  2  0  0  0  0  0  0  0  0  0
   -1.1030    3.1420    0.0000 C   0  0  0  0  0  0  0  0  0  0  0  0
    1.4950    6.1420    0.0000 C   0  0  0  0  0  0  0  0  0  0  0  0
    2.7940    5.3920    0.0000 C   0  0  0  0  0  0  0  0  0  0  0  0
  1  2  2  0  0  0  0
  2  3  1  0  0  0  0
  2  6  1  0  0  0  0
  3  4  1  0  0  0  0
  4  5  1  0  0  0  0
  7  6  1  1  0  0  0
  7  8  1  0  0  0  0
  7 22  1  0  0  0  0
  9  8  1  1  0  0  0
  9 10  1  0  0  0  0
  9 20  1  0  0  0  0
 10 11  1  0  0  0  0
 10 21  1  6  0  0  0
 11 12  1  1  0  0  0
 11 13  1  0  0  0  0
 13 14  1  1  0  0  0
 13 19  1  0  0  0  0
 14 15  1  6  0  0  0
 14 16  1  0  0  0  0
 16 17  1  0  0  0  0
 17 18  2  0  0  0  0
 19 17  1  1  0  0  0
 19 20  1  0  0  0  0
 21 22  1  0  0  0  0
M  END
>  <name>
O=C(OCC)N[C@H]1C[C@@H]2[C@H]([C@H]([C;olefin])[C@@H]3[C@@H](C)OC(=O)[C@@H]3C2)CC1

>  <apo>
1

>  <freq>
1

>  <freq0>
0

>  <freq1>
1

>  <freqA>
0.99887151

>  <a_count>
49

$$$$

  MOE2015           2D

 27 29  0  0  1  0  0  0  0  0999 V2000
    5.2650    5.2650    0.0000 O   0  0  0  0  0  0  0  0  0  0  0  0
    5.2650    3.7650    0.0000 C   0  0  0  0  0  0  0  0  0  0  0  0
    6.5640    3.0150    0.0000 C   0  0  1  0  0  0  0  0  0  0  0  0
    6.5640    1.5150    0.0000 O   0  0  0  0  0  0  0  0  0  0  0  0
    7.8630    3.7650    0.0000 C   0  0  2  0  0  0  0  0  0  0  0  0
    9.1620    3.0150    0.0000 O   0  0  0  0  0  0  0  0  0  0  0  0
    7.8630    5.2650    0.0000 C   0  0  0  0  0  0  0  0  0  0  0  0
    3.9660    3.0150    0.0000 C   0  0  0  0  0  0  0  0  0  0  0  0
    2.6670    3.7650    0.0000 C   0  0  2  0  0  0  0  0  0  0  0  0
    2.6670    5.2650    0.0000 C   0  0  0  0  0  0  0  0  0  0  0  0
    1.3680    6.0150    0.0000 C   0  0  0  0  0  0  0  0  0  0  0  0
    1.3680    7.5150    0.0000 O   0  0  0  0  0  0  0  0  0  0  0  0
    0.0690    5.2650    0.0000 C   0  0  0  0  0  0  0  0  0  0  0  0
   -1.2300    6.0150    0.0000 C   0  0  0  0  0  0  0  0  0  0  0  0
   -1.2300    7.5150    0.0000 O   0  0  0  0  0  0  0  0  0  0  0  0
   -2.5290    5.2650    0.0000 C   0  0  0  0  0  0  0  0  0  0  0  0
   -3.8280    6.0150    0.0000 C   0  0  0  0  0  0  0  0  0  0  0  0
   -3.8280    7.5150    0.0000 O   0  0  0  0  0  0  0  0  0  0  0  0
   -5.1270    5.2650    0.0000 C   0  0  0  0  0  0  0  0  0  0  0  0
   -6.4260    6.0150    0.0000 C   0  0  0  0  0  0  0  0  0  0  0  0
   -5.1270    3.7650    0.0000 C   0  0  0  0  0  0  0  0  0  0  0  0
   -6.4260    3.0150    0.0000 O   0  0  0  0  0  0  0  0  0  0  0  0
   -3.8280    3.0150    0.0000 C   0  0  0  0  0  0  0  0  0  0  0  0
   -2.5290    3.7650    0.0000 C   0  0  0  0  0  0  0  0  0  0  0  0
   -1.2300    3.0150    0.0000 C   0  0  0  0  0  0  0  0  0  0  0  0
    0.0690    3.7650    0.0000 C   0  0  0  0  0  0  0  0  0  0  0  0
    1.3680    3.0150    0.0000 C   0  0  0  0  0  0  0  0  0  0  0  0
  1  2  2  0  0  0  0
  2  3  1  0  0  0  0
  2  8  1  0  0  0  0
  3  4  1  6  0  0  0
  3  5  1  0  0  0  0
  5  6  1  1  0  0  0
  5  7  1  0  0  0  0
  9  8  1  1  0  0  0
  9 10  1  0  0  0  0
  9 27  1  0  0  0  0
 10 11  1  0  0  0  0
 11 12  2  0  0  0  0
 11 13  1  0  0  0  0
 13 14  2  0  0  0  0
 13 26  1  0  0  0  0
 14 15  1  0  0  0  0
 14 16  1  0  0  0  0
 16 17  2  0  0  0  0
 16 24  1  0  0  0  0
 17 18  1  0  0  0  0
 17 19  1  0  0  0  0
 19 20  1  0  0  0  0
 19 21  2  0  0  0  0
 21 22  1  0  0  0  0
 21 23  1  0  0  0  0
 23 24  2  0  0  0  0
 24 25  1  0  0  0  0
 25 26  2  0  0  0  0
 26 27  1  0  0  0  0
M  END
>  <name>
O=C([C@@H](O)[C@H](O)C)[C;ether][C@@H]1[C;ether]C(=O)c2c(O)c3c(O)c(C)c([O;ether])cc3cc2C1

>  <apo>
3

>  <freq>
1

>  <freq0>
0

>  <freq1>
1

>  <freqA>
0.99887151

>  <a_count>
49

$$$$

  MOE2015           2D

 21 24  0  0  1  0  0  0  0  0999 V2000
   -0.7040   -3.8680    0.0000 O   0  0  0  0  0  0  0  0  0  0  0  0
    0.4070   -2.8600    0.0000 C   0  0  0  0  0  0  0  0  0  0  0  0
    1.8750   -3.1660    0.0000 C   0  0  2  0  0  0  0  0  0  0  0  0
    1.0190   -4.3980    0.0000 C   0  0  0  0  0  0  0  0  0  0  0  0
    2.6200   -1.8650    0.0000 C   0  0  2  0  0  0  0  0  0  0  0  0
    4.1200   -1.8590    0.0000 C   0  0  1  0  0  0  0  0  0  0  0  0
    4.8750   -3.1550    0.0000 C   0  0  1  0  0  0  0  0  0  0  0  0
    6.3750   -3.1490    0.0000 C   0  0  2  0  0  0  0  0  0  0  0  0
    5.6300   -4.4510    0.0000 C   0  0  0  0  0  0  0  0  0  0  0  0
    7.1200   -1.8480    0.0000 C   0  0  0  0  0  0  0  0  0  0  0  0
    6.3650   -0.5510    0.0000 C   0  0  0  0  0  0  0  0  0  0  0  0
    4.8650   -0.5570    0.0000 C   0  0  0  0  0  0  0  0  0  0  0  0
    8.6200   -1.8420    0.0000 C   0  0  0  0  0  0  0  0  0  0  0  0
    9.3750   -3.1380    0.0000 C   0  0  1  0  0  0  0  0  0  0  0  0
   10.8750   -3.1320    0.0000 O   0  0  0  0  0  0  0  0  0  0  0  0
    8.6300   -4.4400    0.0000 C   0  0  0  0  0  0  0  0  0  0  0  0
    7.1300   -4.4460    0.0000 C   0  0  0  0  0  0  0  0  0  0  0  0
    4.1300   -4.4570    0.0000 C   0  0  0  0  0  0  0  0  0  0  0  0
    2.6300   -4.4630    0.0000 C   0  0  0  0  0  0  0  0  0  0  0  0
    1.6120   -0.7540    0.0000 C   0  0  0  0  0  0  0  0  0  0  0  0
    0.2440   -1.3690    0.0000 C   0  0  0  0  0  0  0  0  0  0  0  0
  1  2  2  0  0  0  0
  2  3  1  0  0  0  0
  2 21  1  0  0  0  0
  3  4  1  1  0  0  0
  3  5  1  0  0  0  0
  3 19  1  0  0  0  0
  5  6  1  0  0  0  0
  5 20  1  1  0  0  0
  6  7  1  0  0  0  0
  6 12  1  6  0  0  0
  7  8  1  0  0  0  0
  7 18  1  1  0  0  0
  8  9  1  1  0  0  0
  8 10  1  0  0  0  0
  8 17  1  0  0  0  0
 10 11  2  0  0  0  0
 10 13  1  0  0  0  0
 11 12  1  0  0  0  0
 13 14  1  0  0  0  0
 14 15  1  1  0  0  0
 14 16  1  0  0  0  0
 16 17  1  0  0  0  0
 18 19  1  0  0  0  0
 20 21  1  0  0  0  0
M  END
>  <name>
O=C1[C@]2(C)[C@H]([C@H]3[C@@H]([C@]4(C)C(=CC3)C[C@@H]([O;ester])CC4)CC2)CC1

>  <apo>
1

>  <freq>
1

>  <freq0>
0

>  <freq1>
1

>  <freqA>
0.99887151

>  <a_count>
49

$$$$

  MOE2015           2D

 17 16  0  0  1  0  0  0  0  0999 V2000
   18.1750    4.8700    0.0000 O   0  0  0  0  0  0  0  0  0  0  0  0
   16.8760    4.1200    0.0000 C   0  0  0  0  0  0  0  0  0  0  0  0
   15.5770    4.8700    0.0000 C   0  0  0  0  0  0  0  0  0  0  0  0
   14.2780    4.1200    0.0000 C   0  0  0  0  0  0  0  0  0  0  0  0
   12.9790    4.8700    0.0000 C   0  0  0  0  0  0  0  0  0  0  0  0
   11.6800    4.1200    0.0000 C   0  0  0  0  0  0  0  0  0  0  0  0
   10.3810    4.8700    0.0000 C   0  0  0  0  0  0  0  0  0  0  0  0
    9.0820    4.1200    0.0000 C   0  0  0  0  0  0  0  0  0  0  0  0
    7.7830    4.8700    0.0000 C   0  0  0  0  0  0  0  0  0  0  0  0
    6.4840    4.1200    0.0000 C   0  0  0  0  0  0  0  0  0  0  0  0
    5.1850    4.8700    0.0000 C   0  0  2  0  0  0  0  0  0  0  0  0
    3.8860    4.1200    0.0000 C   0  0  0  0  0  0  0  0  0  0  0  0
    2.5870    4.8700    0.0000 C   0  0  2  0  0  0  0  0  0  0  0  0
    1.2880    4.1200    0.0000 C   0  0  0  0  0  0  0  0  0  0  0  0
   -0.0110    4.8700    0.0000 C   0  0  0  0  0  0  0  0  0  0  0  0
    2.5870    6.3700    0.0000 C   0  0  0  0  0  0  0  0  0  0  0  0
    5.1850    6.3700    0.0000 C   0  0  0  0  0  0  0  0  0  0  0  0
  1  2  2  0  0  0  0
  2  3  1  0  0  0  0
  3  4  1  0  0  0  0
  4  5  1  0  0  0  0
  5  6  1  0  0  0  0
  6  7  1  0  0  0  0
  7  8  1  0  0  0  0
  8  9  1  0  0  0  0
  9 10  1  0  0  0  0
 10 11  1  0  0  0  0
 11 12  1  0  0  0  0
 11 17  1  6  0  0  0
 12 13  1  0  0  0  0
 13 14  1  0  0  0  0
 13 16  1  6  0  0  0
 14 15  1  0  0  0  0
M  END
>  <name>
O=[C;amide]CCCCCCCC[C@H](C[C@H](CC)C)C

>  <apo>
1

>  <freq>
1

>  <freq0>
0

>  <freq1>
1

>  <freqA>
0.99887151

>  <a_count>
49

$$$$

  MOE2015           2D

 25 27  0  0  0  0  0  0  0  0999 V2000
    7.1510   -4.1290    0.0000 P   0  0  0  0  0  0  0  0  0  0  0  0
    6.4010   -2.8300    0.0000 O   0  0  0  0  0  0  0  0  0  0  0  0
    8.4500   -3.3790    0.0000 O   0  0  0  0  0  0  0  0  0  0  0  0
    9.7490   -4.1290    0.0000 C   0  0  0  0  0  0  0  0  0  0  0  0
   11.0480   -3.3790    0.0000 C   0  0  0  0  0  0  0  0  0  0  0  0
    5.8520   -4.8790    0.0000 O   0  0  0  0  0  0  0  0  0  0  0  0
    4.5530   -4.1290    0.0000 C   0  0  0  0  0  0  0  0  0  0  0  0
    4.5530   -2.6290    0.0000 C   0  0  0  0  0  0  0  0  0  0  0  0
    3.2540   -1.8790    0.0000 C   0  0  0  0  0  0  0  0  0  0  0  0
    1.9550   -2.6290    0.0000 C   0  0  0  0  0  0  0  0  0  0  0  0
    1.4420   -1.2190    0.0000 C   0  0  0  0  0  0  0  0  0  0  0  0
    0.0320   -0.7060    0.0000 C   0  0  0  0  0  0  0  0  0  0  0  0
   -0.2280    0.7710    0.0000 C   0  0  0  0  0  0  0  0  0  0  0  0
    0.9210    1.7350    0.0000 C   0  0  0  0  0  0  0  0  0  0  0  0
    2.3300    1.2220    0.0000 C   0  0  0  0  0  0  0  0  0  0  0  0
    2.5910   -0.2550    0.0000 C   0  0  0  0  0  0  0  0  0  0  0  0
    0.5450   -3.1420    0.0000 C   0  0  0  0  0  0  0  0  0  0  0  0
   -0.7540   -2.3920    0.0000 C   0  0  0  0  0  0  0  0  0  0  0  0
   -2.0530   -3.1420    0.0000 C   0  0  0  0  0  0  0  0  0  0  0  0
   -2.0530   -4.6420    0.0000 C   0  0  0  0  0  0  0  0  0  0  0  0
   -0.7540   -5.3920    0.0000 C   0  0  0  0  0  0  0  0  0  0  0  0
    0.5450   -4.6420    0.0000 C   0  0  0  0  0  0  0  0  0  0  0  0
    1.9550   -4.1290    0.0000 C   0  0  0  0  0  0  0  0  0  0  0  0
    3.2540   -4.8790    0.0000 C   0  0  0  0  0  0  0  0  0  0  0  0
    7.9010   -5.4280    0.0000 O   0  5  0  0  0  0  0  0  0  0  0  0
  1  2  2  0  0  0  0
  1  3  1  0  0  0  0
  1  6  1  0  0  0  0
  1 25  1  0  0  0  0
  3  4  1  0  0  0  0
  4  5  1  0  0  0  0
  6  7  1  0  0  0  0
  7  8  1  0  0  0  0
  7 24  1  0  0  0  0
  8  9  1  0  0  0  0
  9 10  1  0  0  0  0
 10 11  1  0  0  0  0
 10 17  1  0  0  0  0
 10 23  1  0  0  0  0
 11 12  1  0  0  0  0
 11 16  2  0  0  0  0
 12 13  2  0  0  0  0
 13 14  1  0  0  0  0
 14 15  2  0  0  0  0
 15 16  1  0  0  0  0
 17 18  1  0  0  0  0
 17 22  2  0  0  0  0
 18 19  2  0  0  0  0
 19 20  1  0  0  0  0
 20 21  2  0  0  0  0
 21 22  1  0  0  0  0
 23 24  1  0  0  0  0
M  CHG  1  25  -1
M  END
>  <name>
P(=O)(OC[C;amine])(OC1CCC(c2ccccc2)(c2ccccc2)CC1)[O-]

>  <apo>
1

>  <freq>
1

>  <freq0>
0

>  <freq1>
1

>  <freqA>
0.99887151

>  <a_count>
49

$$$$

  MOE2015           2D

 25 27  0  0  0  0  0  0  0  0999 V2000
    7.1690   -8.7990    0.0000 S   0  0  0  0  0  0  0  0  0  0  0  0
    7.4720   -7.3300    0.0000 O   0  0  0  0  0  0  0  0  0  0  0  0
    6.8660  -10.2680    0.0000 O   0  0  0  0  0  0  0  0  0  0  0  0
    8.6380   -9.1020    0.0000 O   0  5  0  0  0  0  0  0  0  0  0  0
    5.7000   -8.4960    0.0000 C   0  0  0  0  0  0  0  0  0  0  0  0
    5.2280   -7.0720    0.0000 C   0  0  0  0  0  0  0  0  0  0  0  0
    3.7590   -6.7690    0.0000 C   0  0  0  0  0  0  0  0  0  0  0  0
    3.2870   -5.3450    0.0000 C   0  0  0  0  0  0  0  0  0  0  0  0
    1.8180   -5.0420    0.0000 N   0  0  0  0  0  0  0  0  0  0  0  0
    1.1990   -3.6750    0.0000 C   0  0  0  0  0  0  0  0  0  0  0  0
    1.9420   -2.3720    0.0000 C   0  0  0  0  0  0  0  0  0  0  0  0
    3.4420   -2.3630    0.0000 C   0  0  0  0  0  0  0  0  0  0  0  0
   -0.2920   -3.8410    0.0000 C   0  0  0  0  0  0  0  0  0  0  0  0
   -1.7130   -3.3610    0.0000 C   0  0  0  0  0  0  0  0  0  0  0  0
   -0.5350   -2.3610    0.0000 C   0  0  0  0  0  0  0  0  0  0  0  0
   -0.5950   -5.3100    0.0000 C   0  0  0  0  0  0  0  0  0  0  0  0
   -1.8890   -6.0680    0.0000 C   0  0  0  0  0  0  0  0  0  0  0  0
   -1.8800   -7.5680    0.0000 C   0  0  0  0  0  0  0  0  0  0  0  0
   -0.5770   -8.3100    0.0000 C   0  0  0  0  0  0  0  0  0  0  0  0
    0.7180   -7.5520    0.0000 C   0  0  0  0  0  0  0  0  0  0  0  0
    0.7090   -6.0520    0.0000 C   0  0  0  0  0  0  0  0  0  0  0  0
   -3.1750   -8.3250    0.0000 C   0  0  0  0  0  0  0  0  0  0  0  0
   -4.4780   -7.5830    0.0000 C   0  0  0  0  0  0  0  0  0  0  0  0
   -4.4870   -6.0830    0.0000 C   0  0  0  0  0  0  0  0  0  0  0  0
   -3.1930   -5.3250    0.0000 C   0  0  0  0  0  0  0  0  0  0  0  0
  1  2  2  0  0  0  0
  1  3  2  0  0  0  0
  1  4  1  0  0  0  0
  1  5  1  0  0  0  0
  5  6  1  0  0  0  0
  6  7  1  0  0  0  0
  7  8  1  0  0  0  0
  8  9  1  0  0  0  0
  9 10  1  0  0  0  0
  9 21  1  0  0  0  0
 10 11  2  0  0  0  0
 10 13  1  0  0  0  0
 11 12  1  0  0  0  0
 13 14  1  0  0  0  0
 13 15  1  0  0  0  0
 13 16  1  0  0  0  0
 16 17  1  0  0  0  0
 16 21  2  0  0  0  0
 17 18  1  0  0  0  0
 17 25  2  0  0  0  0
 18 19  1  0  0  0  0
 18 22  2  0  0  0  0
 19 20  2  0  0  0  0
 20 21  1  0  0  0  0
 22 23  1  0  0  0  0
 23 24  2  0  0  0  0
 24 25  1  0  0  0  0
M  CHG  1   4  -1
M  END
>  <name>
S(=O)(=O)([O-])CCCCN1/C(=C\[C;olefin])/C(C)(C)c2c3c(ccc12)cccc3

>  <apo>
1

>  <freq>
1

>  <freq0>
0

>  <freq1>
1

>  <freqA>
0.99887151

>  <a_count>
49

$$$$

  MOE2015           2D

 19 20  0  0  1  0  0  0  0  0999 V2000
   -0.0200   -2.5230    0.0000 O   0  0  0  0  0  0  0  0  0  0  0  0
    1.2790   -1.7730    0.0000 C   0  0  1  0  0  0  0  0  0  0  0  0
    1.2790   -0.2730    0.0000 C   0  0  0  0  0  0  0  0  0  0  0  0
    2.5780    0.4770    0.0000 C   0  0  1  0  0  0  0  0  0  0  0  0
    2.5780    1.9770    0.0000 C   0  0  0  0  0  0  0  0  0  0  0  0
    1.2790    2.7270    0.0000 C   0  0  0  0  0  0  0  0  0  0  0  0
    3.8770   -0.2730    0.0000 O   0  0  0  0  0  0  0  0  0  0  0  0
    3.8770   -1.7730    0.0000 C   0  0  1  0  0  0  0  0  0  0  0  0
    5.1760   -1.0230    0.0000 O   0  0  0  0  0  0  0  0  0  0  0  0
    6.4750   -1.7730    0.0000 C   0  0  2  0  0  0  0  0  0  0  0  0
    7.7740   -1.0230    0.0000 C   0  0  2  0  0  0  0  0  0  0  0  0
    9.0730   -1.7730    0.0000 C   0  0  0  0  0  0  0  0  0  0  0  0
   10.3720   -1.0230    0.0000 C   0  0  0  0  0  0  0  0  0  0  0  0
    7.7740    0.4770    0.0000 C   0  0  0  0  0  0  0  0  0  0  0  0
    6.4750   -3.2730    0.0000 C   0  0  1  0  0  0  0  0  0  0  0  0
    7.7740   -4.0230    0.0000 C   0  0  0  0  0  0  0  0  0  0  0  0
    5.1760   -4.0230    0.0000 C   0  0  0  0  0  0  0  0  0  0  0  0
    3.8770   -3.2730    0.0000 C   0  0  0  0  0  0  0  0  0  0  0  0
    2.5780   -2.5230    0.0000 C   0  0  0  0  0  0  0  0  0  0  0  0
  2  1  1  1  0  0  0
  2  3  1  0  0  0  0
  2 19  1  0  0  0  0
  3  4  1  0  0  0  0
  4  5  1  1  0  0  0
  4  7  1  0  0  0  0
  5  6  1  0  0  0  0
  7  8  1  0  0  0  0
  8  9  1  6  0  0  0
  8 18  1  1  0  0  0
  8 19  1  0  0  0  0
 10  9  1  6  0  0  0
 10 11  1  0  0  0  0
 10 15  1  0  0  0  0
 11 12  1  0  0  0  0
 11 14  1  1  0  0  0
 12 13  1  0  0  0  0
 15 16  1  1  0  0  0
 15 17  1  0  0  0  0
 17 18  1  0  0  0  0
M  END
>  <name>
[O;ester][C@H]1C[C@@H](C[C;olefin])O[C@]2(O[C@H]([C@H](CC)C)[C@@H](C)CC2)C1

>  <apo>
2

>  <freq>
1

>  <freq0>
0

>  <freq1>
1

>  <freqA>
0.99887151

>  <a_count>
49

$$$$

  MOE2015           2D

 27 32  0  0  1  0  0  0  0  0999 V2000
   17.6550   -3.3890    0.0000 C   0  0  0  0  0  0  0  0  0  0  0  0
   16.1630   -3.5410    0.0000 C   0  0  2  0  0  0  0  0  0  0  0  0
   15.1630   -2.4230    0.0000 N   0  0  0  0  0  0  0  0  0  0  0  0
   13.7900   -3.0290    0.0000 C   0  0  2  0  0  0  0  0  0  0  0  0
   12.4940   -2.2740    0.0000 C   0  0  0  0  0  0  0  0  0  0  0  0
   11.1220   -2.8800    0.0000 N   0  0  0  0  0  0  0  0  0  0  0  0
   10.1210   -1.7620    0.0000 C   0  0  0  0  0  0  0  0  0  0  0  0
   10.8760   -0.4650    0.0000 C   0  0  0  0  0  0  0  0  0  0  0  0
   12.3420   -0.7820    0.0000 N   0  0  0  0  0  0  0  0  0  0  0  0
   10.1300    0.8360    0.0000 C   0  0  0  0  0  0  0  0  0  0  0  0
    8.6300    0.8410    0.0000 C   0  0  0  0  0  0  0  0  0  0  0  0
    7.8760   -0.4560    0.0000 C   0  0  0  0  0  0  0  0  0  0  0  0
    8.6210   -1.7570    0.0000 C   0  0  0  0  0  0  0  0  0  0  0  0
    7.8670   -3.0540    0.0000 C   0  0  0  0  0  0  0  0  0  0  0  0
    6.3670   -3.0490    0.0000 C   0  0  0  0  0  0  0  0  0  0  0  0
    5.6130   -4.3460    0.0000 O   0  0  0  0  0  0  0  0  0  0  0  0
    4.1130   -4.3410    0.0000 C   0  0  0  0  0  0  0  0  0  0  0  0
    3.3670   -3.0390    0.0000 C   0  0  0  0  0  0  0  0  0  0  0  0
    4.1210   -1.7430    0.0000 C   0  0  0  0  0  0  0  0  0  0  0  0
    5.6210   -1.7480    0.0000 C   0  0  0  0  0  0  0  0  0  0  0  0
    6.3760   -0.4510    0.0000 C   0  0  0  0  0  0  0  0  0  0  0  0
    3.3760   -0.4410    0.0000 C   0  0  0  0  0  0  0  0  0  0  0  0
    1.8760   -0.4360    0.0000 C   0  0  0  0  0  0  0  0  0  0  0  0
    1.1220   -1.7330    0.0000 C   0  0  0  0  0  0  0  0  0  0  0  0
    1.8670   -3.0340    0.0000 C   0  0  0  0  0  0  0  0  0  0  0  0
   13.9420   -4.5210    0.0000 C   0  0  0  0  0  0  0  0  0  0  0  0
   15.4090   -4.8370    0.0000 C   0  0  0  0  0  0  0  0  0  0  0  0
  2  1  1  1  0  0  0
  2  3  1  0  0  0  0
  2 27  1  0  0  0  0
  3  4  1  0  0  0  0
  4  5  1  1  0  0  0
  4 26  1  0  0  0  0
  5  6  1  0  0  0  0
  5  9  2  0  0  0  0
  6  7  1  0  0  0  0
  7  8  1  0  0  0  0
  7 13  2  0  0  0  0
  8  9  1  0  0  0  0
  8 10  2  0  0  0  0
 10 11  1  0  0  0  0
 11 12  2  0  0  0  0
 12 13  1  0  0  0  0
 12 21  1  0  0  0  0
 13 14  1  0  0  0  0
 14 15  2  0  0  0  0
 15 16  1  0  0  0  0
 15 20  1  0  0  0  0
 16 17  1  0  0  0  0
 17 18  1  0  0  0  0
 18 19  2  0  0  0  0
 18 25  1  0  0  0  0
 19 20  1  0  0  0  0
 19 22  1  0  0  0  0
 20 21  2  0  0  0  0
 22 23  2  0  0  0  0
 23 24  1  0  0  0  0
 24 25  2  0  0  0  0
 26 27  1  0  0  0  0
M  END
>  <name>
C[C@@H]1[N;amide][C@H](c2[nH]c3c(n2)ccc2c3cc3OCc4c(-c3c2)cc[c;biphenyl]c4)CC1

>  <apo>
2

>  <freq>
1

>  <freq0>
0

>  <freq1>
1

>  <freqA>
0.99887151

>  <a_count>
48

$$$$

  MOE2015           2D

 30 33  0  0  1  0  0  0  0  0999 V2000
   -1.3630    1.3630    0.0000 Cl  0  0  0  0  0  0  0  0  0  0  0  0
   -1.3630    2.8630    0.0000 C   0  0  0  0  0  0  0  0  0  0  0  0
   -0.0640    3.6130    0.0000 C   0  0  0  0  0  0  0  0  0  0  0  0
    1.2350    2.8630    0.0000 C   0  0  2  0  0  0  0  0  0  0  0  0
    0.4850    1.5640    0.0000 O   0  0  0  0  0  0  0  0  0  0  0  0
    1.9850    1.5640    0.0000 C   0  0  0  0  0  0  0  0  0  0  0  0
    2.5340    3.6130    0.0000 C   0  0  2  0  0  0  0  0  0  0  0  0
    2.5340    5.1130    0.0000 C   0  0  0  0  0  0  0  0  0  0  0  0
    1.2350    5.8630    0.0000 C   0  0  0  0  0  0  0  0  0  0  0  0
    1.2350    7.3630    0.0000 O   0  0  0  0  0  0  0  0  0  0  0  0
   -0.0640    5.1130    0.0000 C   0  0  0  0  0  0  0  0  0  0  0  0
   -1.3630    5.8630    0.0000 C   0  0  0  0  0  0  0  0  0  0  0  0
   -1.3630    7.3630    0.0000 O   0  0  0  0  0  0  0  0  0  0  0  0
   -2.6620    5.1130    0.0000 C   0  0  0  0  0  0  0  0  0  0  0  0
   -2.6620    3.6130    0.0000 C   0  0  0  0  0  0  0  0  0  0  0  0
    3.8330    5.8630    0.0000 C   0  0  0  0  0  0  0  0  0  0  0  0
    3.8330    7.3630    0.0000 O   0  0  0  0  0  0  0  0  0  0  0  0
    5.1320    5.1130    0.0000 C   0  0  2  0  0  0  0  0  0  0  0  0
    5.1320    6.6130    0.0000 O   0  0  0  0  0  0  0  0  0  0  0  0
    6.4310    5.8630    0.0000 C   0  0  0  0  0  0  0  0  0  0  0  0
    6.4310    7.3630    0.0000 O   0  0  0  0  0  0  0  0  0  0  0  0
    7.7300    5.1130    0.0000 C   0  0  0  0  0  0  0  0  0  0  0  0
    9.0290    5.8630    0.0000 C   0  0  0  0  0  0  0  0  0  0  0  0
    9.0290    7.3630    0.0000 O   0  0  0  0  0  0  0  0  0  0  0  0
   10.3280    5.1130    0.0000 N   0  0  0  0  0  0  0  0  0  0  0  0
    7.7300    3.6130    0.0000 C   0  0  0  0  0  0  0  0  0  0  0  0
    9.0290    2.8630    0.0000 O   0  0  0  0  0  0  0  0  0  0  0  0
    6.4310    2.8630    0.0000 C   0  0  0  0  0  0  0  0  0  0  0  0
    5.1320    3.6130    0.0000 C   0  0  2  0  0  0  0  0  0  0  0  0
    3.8330    2.8630    0.0000 C   0  0  0  0  0  0  0  0  0  0  0  0
  1  2  1  0  0  0  0
  2  3  1  0  0  0  0
  2 15  2  0  0  0  0
  3  4  1  0  0  0  0
  3 11  2  0  0  0  0
  4  5  1  6  0  0  0
  4  6  1  1  0  0  0
  4  7  1  0  0  0  0
  7  8  1  6  0  0  0
  7 30  1  0  0  0  0
  8  9  1  0  0  0  0
  8 16  2  0  0  0  0
  9 10  2  0  0  0  0
  9 11  1  0  0  0  0
 11 12  1  0  0  0  0
 12 13  1  0  0  0  0
 12 14  2  0  0  0  0
 14 15  1  0  0  0  0
 16 17  1  0  0  0  0
 16 18  1  0  0  0  0
 18 19  1  1  0  0  0
 18 20  1  0  0  0  0
 18 29  1  0  0  0  0
 20 21  2  0  0  0  0
 20 22  1  0  0  0  0
 22 23  1  0  0  0  0
 22 26  2  0  0  0  0
 23 24  2  0  0  0  0
 23 25  1  0  0  0  0
 26 27  1  0  0  0  0
 26 28  1  0  0  0  0
 29 28  1  6  0  0  0
 29 30  1  0  0  0  0
M  END
>  <name>
Clc1c2[C@](O)(C)[C@@H]3C(C(=O)c2c(O)cc1)=C(O)[C@]1(O)C(=O)C(C(=O)N)=C(O)[C;amine][C@@H]1C3

>  <apo>
1

>  <freq>
1

>  <freq0>
0

>  <freq1>
1

>  <freqA>
0.99887151

>  <a_count>
48

$$$$

  MOE2015           2D

 29 32  0  0  1  0  0  0  0  0999 V2000
   12.4540   -4.0090    0.0000 O   0  0  0  0  0  0  0  0  0  0  0  0
   11.1550   -4.7590    0.0000 C   0  0  0  0  0  0  0  0  0  0  0  0
   11.1550   -6.2590    0.0000 N   0  0  0  0  0  0  0  0  0  0  0  0
    9.8560   -4.0090    0.0000 C   0  0  0  0  0  0  0  0  0  0  0  0
    8.5560   -4.7590    0.0000 C   0  0  0  0  0  0  0  0  0  0  0  0
    8.5560   -6.2590    0.0000 O   0  0  0  0  0  0  0  0  0  0  0  0
    7.2570   -4.0090    0.0000 C   0  0  1  0  0  0  0  0  0  0  0  0
    7.2570   -5.5090    0.0000 O   0  0  0  0  0  0  0  0  0  0  0  0
    5.9580   -4.7590    0.0000 C   0  0  0  0  0  0  0  0  0  0  0  0
    5.9580   -6.2590    0.0000 O   0  0  0  0  0  0  0  0  0  0  0  0
    4.6590   -4.0090    0.0000 C   0  0  0  0  0  0  0  0  0  0  0  0
    3.3600   -4.7590    0.0000 C   0  0  0  0  0  0  0  0  0  0  0  0
    3.3600   -6.2590    0.0000 O   0  0  0  0  0  0  0  0  0  0  0  0
    2.0610   -4.0090    0.0000 C   0  0  0  0  0  0  0  0  0  0  0  0
    0.7620   -4.7590    0.0000 C   0  0  0  0  0  0  0  0  0  0  0  0
    0.7620   -6.2590    0.0000 O   0  0  0  0  0  0  0  0  0  0  0  0
   -0.5370   -4.0090    0.0000 C   0  0  0  0  0  0  0  0  0  0  0  0
   -0.5370   -2.5090    0.0000 C   0  0  0  0  0  0  0  0  0  0  0  0
    0.7620   -1.7590    0.0000 C   0  0  0  0  0  0  0  0  0  0  0  0
    2.0610   -2.5090    0.0000 C   0  0  0  0  0  0  0  0  0  0  0  0
    3.3600   -1.7590    0.0000 C   0  0  2  0  0  0  0  0  0  0  0  0
    3.3600   -0.2590    0.0000 C   0  0  0  0  0  0  0  0  0  0  0  0
    4.6590   -2.5090    0.0000 C   0  0  1  0  0  0  0  0  0  0  0  0
    5.9580   -1.7590    0.0000 C   0  0  2  0  0  0  0  0  0  0  0  0
    5.9580   -0.2590    0.0000 O   0  0  0  0  0  0  0  0  0  0  0  0
    7.2570   -2.5090    0.0000 C   0  0  1  0  0  0  0  0  0  0  0  0
    8.5560   -1.7590    0.0000 C   0  0  0  0  0  0  0  0  0  0  0  0
    9.8560   -2.5090    0.0000 C   0  0  0  0  0  0  0  0  0  0  0  0
   11.1550   -1.7590    0.0000 O   0  0  0  0  0  0  0  0  0  0  0  0
  1  2  2  0  0  0  0
  2  3  1  0  0  0  0
  2  4  1  0  0  0  0
  4  5  1  0  0  0  0
  4 28  2  0  0  0  0
  5  6  2  0  0  0  0
  5  7  1  0  0  0  0
  7  8  1  6  0  0  0
  7  9  1  0  0  0  0
  7 26  1  0  0  0  0
  9 10  1  0  0  0  0
  9 11  2  0  0  0  0
 11 12  1  0  0  0  0
 23 11  1  1  0  0  0
 12 13  2  0  0  0  0
 12 14  1  0  0  0  0
 14 15  2  0  0  0  0
 14 20  1  0  0  0  0
 15 16  1  0  0  0  0
 15 17  1  0  0  0  0
 17 18  2  0  0  0  0
 18 19  1  0  0  0  0
 19 20  2  0  0  0  0
 20 21  1  0  0  0  0
 21 22  1  6  0  0  0
 21 23  1  0  0  0  0
 23 24  1  0  0  0  0
 24 25  1  6  0  0  0
 24 26  1  0  0  0  0
 26 27  1  1  0  0  0
 27 28  1  0  0  0  0
 28 29  1  0  0  0  0
M  END
>  <name>
O=C(N)C=1C(=O)[C@@]2(O)C(O)=C3C(=O)c4c(O)cccc4[C@H](C)[C@H]3[C@H](O)[C@H]2[C;amine]C=1O

>  <apo>
1

>  <freq>
1

>  <freq0>
0

>  <freq1>
1

>  <freqA>
0.99887151

>  <a_count>
48

$$$$

  MOE2015           2D

 22 23  0  0  1  0  0  0  0  0999 V2000
    0.0000    0.0000    0.0000 O   0  0  0  0  0  0  0  0  0  0  0  0
    1.5000    0.0000    0.0000 C   0  0  0  0  0  0  0  0  0  0  0  0
    2.2500    1.2990    0.0000 O   0  0  0  0  0  0  0  0  0  0  0  0
    2.2500   -1.2990    0.0000 C   0  0  1  0  0  0  0  0  0  0  0  0
    1.5000   -2.5980    0.0000 C   0  0  2  0  0  0  0  0  0  0  0  0
    0.0000   -2.5980    0.0000 C   0  0  0  0  0  0  0  0  0  0  0  0
   -0.7500   -3.8970    0.0000 C   0  0  0  0  0  0  0  0  0  0  0  0
   -2.2500   -3.8970    0.0000 C   0  0  0  0  0  0  0  0  0  0  0  0
    2.2500   -3.8970    0.0000 O   0  0  0  0  0  0  0  0  0  0  0  0
    3.7500   -3.8970    0.0000 C   0  0  2  0  0  0  0  0  0  0  0  0
    3.7500   -5.3970    0.0000 O   0  0  0  0  0  0  0  0  0  0  0  0
    5.0490   -4.6470    0.0000 C   0  0  0  0  0  0  0  0  0  0  0  0
    6.3480   -3.8970    0.0000 C   0  0  1  0  0  0  0  0  0  0  0  0
    6.3480   -2.3970    0.0000 O   0  0  0  0  0  0  0  0  0  0  0  0
    7.6470   -4.6470    0.0000 C   0  0  0  0  0  0  0  0  0  0  0  0
    8.9460   -3.8970    0.0000 C   0  0  2  0  0  0  0  0  0  0  0  0
   10.4460   -3.8970    0.0000 C   0  0  1  0  0  0  0  0  0  0  0  0
   11.7450   -4.6470    0.0000 C   0  0  0  0  0  0  0  0  0  0  0  0
    9.6960   -2.5980    0.0000 O   0  0  0  0  0  0  0  0  0  0  0  0
    4.5000   -2.5980    0.0000 C   0  0  0  0  0  0  0  0  0  0  0  0
    3.7500   -1.2990    0.0000 C   0  0  2  0  0  0  0  0  0  0  0  0
    4.5000    0.0000    0.0000 O   0  0  0  0  0  0  0  0  0  0  0  0
  1  2  2  0  0  0  0
  2  3  1  0  0  0  0
  4  2  1  6  0  0  0
  4  5  1  0  0  0  0
  4 21  1  0  0  0  0
  5  6  1  1  0  0  0
  5  9  1  0  0  0  0
  6  7  1  0  0  0  0
  7  8  1  0  0  0  0
  9 10  1  0  0  0  0
 10 11  1  6  0  0  0
 10 12  1  1  0  0  0
 10 20  1  0  0  0  0
 12 13  1  0  0  0  0
 13 14  1  1  0  0  0
 13 15  1  0  0  0  0
 16 15  1  1  0  0  0
 16 17  1  0  0  0  0
 16 19  1  0  0  0  0
 17 18  1  6  0  0  0
 17 19  1  0  0  0  0
 20 21  1  0  0  0  0
 21 22  1  1  0  0  0
M  END
>  <name>
O=C(O)[C@H]1[C@H](C[C;ether][C;olefin])O[C@](O)(C[C@@H](O)C[C@@H]2[C@@H]([C;olefin])O2)C[C@@H]1O

>  <apo>
3

>  <freq>
1

>  <freq0>
0

>  <freq1>
1

>  <freqA>
0.99887151

>  <a_count>
48

$$$$

  MOE2015           2D

 20 21  0  0  1  0  0  0  0  0999 V2000
   13.9150   -1.1990    0.0000 O   0  0  0  0  0  0  0  0  0  0  0  0
   12.6160   -1.9490    0.0000 C   0  0  2  0  0  0  0  0  0  0  0  0
   11.3170   -1.1990    0.0000 C   0  0  2  0  0  0  0  0  0  0  0  0
   11.3170    0.3010    0.0000 C   0  0  0  0  0  0  0  0  0  0  0  0
   10.0180   -1.9490    0.0000 C   0  0  1  0  0  0  0  0  0  0  0  0
    8.5180   -1.9490    0.0000 C   0  0  2  0  0  0  0  0  0  0  0  0
    7.2190   -1.1990    0.0000 C   0  0  0  0  0  0  0  0  0  0  0  0
    5.9200   -1.9490    0.0000 C   0  0  2  0  0  0  0  0  0  0  0  0
    4.6210   -1.1990    0.0000 C   0  0  1  0  0  0  0  0  0  0  0  0
    4.6210    0.3010    0.0000 O   0  0  0  0  0  0  0  0  0  0  0  0
    3.3220   -1.9490    0.0000 C   0  0  1  0  0  0  0  0  0  0  0  0
    2.0230   -1.1990    0.0000 O   0  0  0  0  0  0  0  0  0  0  0  0
    3.3220   -3.4490    0.0000 C   0  0  2  0  0  0  0  0  0  0  0  0
    2.0230   -4.1990    0.0000 C   0  0  0  0  0  0  0  0  0  0  0  0
    2.0230   -5.6990    0.0000 C   0  0  0  0  0  0  0  0  0  0  0  0
    0.7230   -6.4490    0.0000 C   0  0  0  0  0  0  0  0  0  0  0  0
    4.6210   -4.1990    0.0000 O   0  0  0  0  0  0  0  0  0  0  0  0
    5.9200   -3.4490    0.0000 C   0  0  0  0  0  0  0  0  0  0  0  0
    9.2680   -3.2480    0.0000 O   0  0  0  0  0  0  0  0  0  0  0  0
   12.6160   -3.4490    0.0000 C   0  0  0  0  0  0  0  0  0  0  0  0
  2  1  1  1  0  0  0
  2  3  1  0  0  0  0
  2 20  1  0  0  0  0
  3  4  1  1  0  0  0
  3  5  1  0  0  0  0
  5  6  1  0  0  0  0
  5 19  1  6  0  0  0
  6  7  1  1  0  0  0
  6 19  1  0  0  0  0
  8  7  1  1  0  0  0
  8  9  1  0  0  0  0
  8 18  1  0  0  0  0
  9 10  1  6  0  0  0
  9 11  1  0  0  0  0
 11 12  1  6  0  0  0
 11 13  1  0  0  0  0
 13 14  1  1  0  0  0
 13 17  1  0  0  0  0
 14 15  1  0  0  0  0
 15 16  1  0  0  0  0
 17 18  1  0  0  0  0
M  END
>  <name>
O[C@H]([C@H](C)[C@H]1[C@H](C[C@@H]2[C@@H](O)[C@@H](O)[C@H](C[C;olefin]C)OC2)O1)C

>  <apo>
1

>  <freq>
1

>  <freq0>
0

>  <freq1>
1

>  <freqA>
0.99887151

>  <a_count>
48

$$$$

  MOE2015           2D

 25 26  0  0  0  0  0  0  0  0999 V2000
    6.8630    3.7160    0.0000 S   0  0  0  0  0  0  0  0  0  0  0  0
    7.1650    5.1850    0.0000 O   0  0  0  0  0  0  0  0  0  0  0  0
    6.5610    2.2470    0.0000 O   0  0  0  0  0  0  0  0  0  0  0  0
    8.3320    3.4140    0.0000 O   0  0  0  0  0  0  0  0  0  0  0  0
    5.3940    4.0190    0.0000 C   0  0  0  0  0  0  0  0  0  0  0  0
    4.9210    5.4420    0.0000 C   0  0  0  0  0  0  0  0  0  0  0  0
    3.4520    5.7450    0.0000 C   0  0  0  0  0  0  0  0  0  0  0  0
    2.9790    7.1680    0.0000 C   0  0  0  0  0  0  0  0  0  0  0  0
    1.5100    7.4710    0.0000 N   0  0  0  0  0  0  0  0  0  0  0  0
    0.8910    8.8370    0.0000 C   0  0  0  0  0  0  0  0  0  0  0  0
    1.6330   10.1410    0.0000 C   0  0  0  0  0  0  0  0  0  0  0  0
    3.1330   10.1510    0.0000 C   0  0  0  0  0  0  0  0  0  0  0  0
   -0.6000    8.6710    0.0000 C   0  0  0  0  0  0  0  0  0  0  0  0
   -2.0210    9.1500    0.0000 C   0  0  0  0  0  0  0  0  0  0  0  0
   -0.8440   10.1510    0.0000 C   0  0  0  0  0  0  0  0  0  0  0  0
   -0.9020    7.2020    0.0000 C   0  0  0  0  0  0  0  0  0  0  0  0
    0.4020    6.4600    0.0000 C   0  0  0  0  0  0  0  0  0  0  0  0
    0.4110    4.9600    0.0000 C   0  0  0  0  0  0  0  0  0  0  0  0
   -0.8830    4.2020    0.0000 C   0  0  0  0  0  0  0  0  0  0  0  0
   -2.1870    4.9430    0.0000 C   0  0  0  0  0  0  0  0  0  0  0  0
   -3.4810    4.1850    0.0000 S   0  0  0  0  0  0  0  0  0  0  0  0
   -4.2390    5.4790    0.0000 O   0  0  0  0  0  0  0  0  0  0  0  0
   -2.7220    2.8910    0.0000 O   0  0  0  0  0  0  0  0  0  0  0  0
   -4.7750    3.4270    0.0000 O   0  0  0  0  0  0  0  0  0  0  0  0
   -2.1960    6.4430    0.0000 C   0  0  0  0  0  0  0  0  0  0  0  0
  1  2  2  0  0  0  0
  1  3  2  0  0  0  0
  1  4  1  0  0  0  0
  1  5  1  0  0  0  0
  5  6  1  0  0  0  0
  6  7  1  0  0  0  0
  7  8  1  0  0  0  0
  8  9  1  0  0  0  0
  9 10  1  0  0  0  0
  9 17  1  0  0  0  0
 10 11  2  0  0  0  0
 10 13  1  0  0  0  0
 11 12  1  0  0  0  0
 13 14  1  0  0  0  0
 13 15  1  0  0  0  0
 13 16  1  0  0  0  0
 16 17  2  0  0  0  0
 16 25  1  0  0  0  0
 17 18  1  0  0  0  0
 18 19  2  0  0  0  0
 19 20  1  0  0  0  0
 20 21  1  0  0  0  0
 20 25  2  0  0  0  0
 21 22  2  0  0  0  0
 21 23  2  0  0  0  0
 21 24  1  0  0  0  0
M  END
>  <name>
S(=O)(=O)(O)CCCCN1/C(=C\[C;olefin])/C(C)(C)c2c1ccc(S(=O)(=O)O)c2

>  <apo>
1

>  <freq>
1

>  <freq0>
0

>  <freq1>
1

>  <freqA>
0.99887151

>  <a_count>
48

$$$$

  MOE2015           2D

 24 26  0  0  0  0  0  0  0  0999 V2000
    3.7590   -8.3700    0.0000 S   0  0  0  0  0  0  0  0  0  0  0  0
    4.7560   -7.2490    0.0000 O   0  0  0  0  0  0  0  0  0  0  0  0
    2.7620   -9.4920    0.0000 O   0  0  0  0  0  0  0  0  0  0  0  0
    4.8800   -9.3670    0.0000 O   0  0  0  0  0  0  0  0  0  0  0  0
    2.6380   -7.3740    0.0000 C   0  0  0  0  0  0  0  0  0  0  0  0
    1.2140   -7.8470    0.0000 C   0  0  0  0  0  0  0  0  0  0  0  0
    0.0930   -6.8500    0.0000 C   0  0  0  0  0  0  0  0  0  0  0  0
   -1.3300   -7.3230    0.0000 C   0  0  0  0  0  0  0  0  0  0  0  0
   -2.4520   -6.3260    0.0000 N   0  3  0  0  0  0  0  0  0  0  0  0
   -2.3040   -4.8330    0.0000 C   0  0  0  0  0  0  0  0  0  0  0  0
   -1.0100   -4.0750    0.0000 C   0  0  0  0  0  0  0  0  0  0  0  0
   -3.6790   -4.2320    0.0000 C   0  0  0  0  0  0  0  0  0  0  0  0
   -3.1500   -2.8280    0.0000 C   0  0  0  0  0  0  0  0  0  0  0  0
   -4.6700   -3.1060    0.0000 C   0  0  0  0  0  0  0  0  0  0  0  0
   -4.6750   -5.3530    0.0000 C   0  0  0  0  0  0  0  0  0  0  0  0
   -6.1750   -5.3630    0.0000 C   0  0  0  0  0  0  0  0  0  0  0  0
   -6.9170   -6.6670    0.0000 C   0  0  0  0  0  0  0  0  0  0  0  0
   -6.1580   -7.9610    0.0000 C   0  0  0  0  0  0  0  0  0  0  0  0
   -4.6580   -7.9510    0.0000 C   0  0  0  0  0  0  0  0  0  0  0  0
   -3.9170   -6.6470    0.0000 C   0  0  0  0  0  0  0  0  0  0  0  0
   -8.4170   -6.6760    0.0000 C   0  0  0  0  0  0  0  0  0  0  0  0
   -9.1750   -5.3820    0.0000 C   0  0  0  0  0  0  0  0  0  0  0  0
   -8.4330   -4.0780    0.0000 C   0  0  0  0  0  0  0  0  0  0  0  0
   -6.9330   -4.0690    0.0000 C   0  0  0  0  0  0  0  0  0  0  0  0
  1  2  2  0  0  0  0
  1  3  2  0  0  0  0
  1  4  1  0  0  0  0
  1  5  1  0  0  0  0
  5  6  1  0  0  0  0
  6  7  1  0  0  0  0
  7  8  1  0  0  0  0
  8  9  1  0  0  0  0
  9 10  2  0  0  0  0
  9 20  1  0  0  0  0
 10 11  1  0  0  0  0
 10 12  1  0  0  0  0
 12 13  1  0  0  0  0
 12 14  1  0  0  0  0
 12 15  1  0  0  0  0
 15 16  1  0  0  0  0
 15 20  2  0  0  0  0
 16 17  1  0  0  0  0
 16 24  2  0  0  0  0
 17 18  1  0  0  0  0
 17 21  2  0  0  0  0
 18 19  2  0  0  0  0
 19 20  1  0  0  0  0
 21 22  1  0  0  0  0
 22 23  2  0  0  0  0
 23 24  1  0  0  0  0
M  CHG  1   9   1
M  END
>  <name>
S(=O)(=O)(O)CCCC[N+]1=C([C;olefin])C(C)(C)c2c3c(ccc12)cccc3

>  <apo>
1

>  <freq>
1

>  <freq0>
0

>  <freq1>
1

>  <freqA>
0.99887151

>  <a_count>
48

$$$$

  MOE2015           2D

 26 25  0  0  1  0  0  0  0  0999 V2000
    0.3730    0.1000    0.0000 Ca  0  0  0  0  0  0  0  0  0  0  0  0
   -0.9260    0.8500    0.0000 O   0  0  0  0  0  0  0  0  0  0  0  0
   -2.2250    0.1000    0.0000 C   0  0  0  0  0  0  0  0  0  0  0  0
   -2.2250   -1.4000    0.0000 O   0  0  0  0  0  0  0  0  0  0  0  0
   -3.5240    0.8500    0.0000 C   0  0  2  0  0  0  0  0  0  0  0  0
   -3.5240    2.3500    0.0000 O   0  0  0  0  0  0  0  0  0  0  0  0
   -4.8230    0.1000    0.0000 C   0  0  1  0  0  0  0  0  0  0  0  0
   -4.8230   -1.4000    0.0000 O   0  0  0  0  0  0  0  0  0  0  0  0
   -6.1220    0.8500    0.0000 C   0  0  2  0  0  0  0  0  0  0  0  0
   -6.1220    2.3500    0.0000 O   0  0  0  0  0  0  0  0  0  0  0  0
   -7.4210    0.1000    0.0000 C   0  0  2  0  0  0  0  0  0  0  0  0
   -8.7200    0.8500    0.0000 O   0  0  0  0  0  0  0  0  0  0  0  0
   -7.4210   -1.4000    0.0000 C   0  0  0  0  0  0  0  0  0  0  0  0
   -8.7200   -2.1500    0.0000 O   0  0  0  0  0  0  0  0  0  0  0  0
    1.6720   -0.6500    0.0000 O   0  0  0  0  0  0  0  0  0  0  0  0
    2.9710    0.1000    0.0000 C   0  0  0  0  0  0  0  0  0  0  0  0
    2.9710    1.6000    0.0000 O   0  0  0  0  0  0  0  0  0  0  0  0
    4.2700   -0.6500    0.0000 C   0  0  2  0  0  0  0  0  0  0  0  0
    4.2700   -2.1500    0.0000 O   0  0  0  0  0  0  0  0  0  0  0  0
    5.5690    0.1000    0.0000 C   0  0  2  0  0  0  0  0  0  0  0  0
    5.5690    1.6000    0.0000 O   0  0  0  0  0  0  0  0  0  0  0  0
    6.8680   -0.6500    0.0000 C   0  0  0  0  0  0  0  0  0  0  0  0
    8.1670    0.1000    0.0000 C   0  0  1  0  0  0  0  0  0  0  0  0
    8.1670    1.6000    0.0000 O   0  0  0  0  0  0  0  0  0  0  0  0
    9.4660   -0.6500    0.0000 C   0  0  0  0  0  0  0  0  0  0  0  0
   10.7650    0.1000    0.0000 O   0  0  0  0  0  0  0  0  0  0  0  0
  1  2  1  0  0  0  0
  1 15  1  0  0  0  0
  2  3  1  0  0  0  0
  3  4  2  0  0  0  0
  3  5  1  0  0  0  0
  5  6  1  1  0  0  0
  5  7  1  0  0  0  0
  7  8  1  1  0  0  0
  7  9  1  0  0  0  0
  9 10  1  1  0  0  0
  9 11  1  0  0  0  0
 11 12  1  1  0  0  0
 11 13  1  0  0  0  0
 13 14  1  0  0  0  0
 15 16  1  0  0  0  0
 16 17  2  0  0  0  0
 16 18  1  0  0  0  0
 18 19  1  1  0  0  0
 18 20  1  0  0  0  0
 20 21  1  6  0  0  0
 20 22  1  0  0  0  0
 22 23  1  0  0  0  0
 23 24  1  1  0  0  0
 23 25  1  0  0  0  0
 25 26  1  0  0  0  0
M  END
>  <name>
[Ca](OC(=O)[C@H](O)[C@@H](O)[C@H](O)[C@H](O)CO)OC(=O)[C@H](O)[C@H](O)[C;ether][C@@H](O)CO

>  <apo>
1

>  <freq>
1

>  <freq0>
0

>  <freq1>
1

>  <freqA>
0.99887151

>  <a_count>
48

$$$$

  MOE2015           2D

 24 27  0  0  0  0  0  0  0  0999 V2000
    4.7750    4.7750    0.0000 N   0  0  0  0  0  0  0  0  0  0  0  0
    4.7750    3.2750    0.0000 C   0  0  0  0  0  0  0  0  0  0  0  0
    6.0740    2.5250    0.0000 N   0  0  0  0  0  0  0  0  0  0  0  0
    6.0740    1.0250    0.0000 C   0  0  0  0  0  0  0  0  0  0  0  0
    7.3730    0.2750    0.0000 N   0  0  0  0  0  0  0  0  0  0  0  0
    8.6720    1.0250    0.0000 C   0  0  0  0  0  0  0  0  0  0  0  0
    9.9710    0.2750    0.0000 C   0  0  0  0  0  0  0  0  0  0  0  0
    9.9710   -1.2250    0.0000 C   0  0  0  0  0  0  0  0  0  0  0  0
    8.6720   -1.9750    0.0000 C   0  0  0  0  0  0  0  0  0  0  0  0
    7.3730   -1.2250    0.0000 C   0  0  0  0  0  0  0  0  0  0  0  0
    4.7750    0.2750    0.0000 C   0  0  0  0  0  0  0  0  0  0  0  0
    4.7750   -1.2250    0.0000 N   0  0  0  0  0  0  0  0  0  0  0  0
    3.4750   -1.9750    0.0000 C   0  0  0  0  0  0  0  0  0  0  0  0
    3.4750   -3.4750    0.0000 N   0  0  0  0  0  0  0  0  0  0  0  0
    2.1760   -1.2250    0.0000 N   0  0  0  0  0  0  0  0  0  0  0  0
    2.1760    0.2750    0.0000 C   0  0  0  0  0  0  0  0  0  0  0  0
    0.8770    1.0250    0.0000 N   0  0  0  0  0  0  0  0  0  0  0  0
    0.8770    2.5250    0.0000 C   0  0  0  0  0  0  0  0  0  0  0  0
   -0.4220    3.2750    0.0000 C   0  0  0  0  0  0  0  0  0  0  0  0
   -1.7210    2.5250    0.0000 C   0  0  0  0  0  0  0  0  0  0  0  0
   -1.7210    1.0250    0.0000 C   0  0  0  0  0  0  0  0  0  0  0  0
   -0.4220    0.2750    0.0000 C   0  0  0  0  0  0  0  0  0  0  0  0
    3.4750    1.0250    0.0000 C   0  0  0  0  0  0  0  0  0  0  0  0
    3.4750    2.5250    0.0000 N   0  0  0  0  0  0  0  0  0  0  0  0
  1  2  1  0  0  0  0
  2  3  1  0  0  0  0
  2 24  2  0  0  0  0
  3  4  2  0  0  0  0
  4  5  1  0  0  0  0
  4 11  1  0  0  0  0
  5  6  1  0  0  0  0
  5 10  1  0  0  0  0
  6  7  1  0  0  0  0
  7  8  1  0  0  0  0
  8  9  1  0  0  0  0
  9 10  1  0  0  0  0
 11 12  1  0  0  0  0
 11 23  2  0  0  0  0
 12 13  2  0  0  0  0
 13 14  1  0  0  0  0
 13 15  1  0  0  0  0
 15 16  2  0  0  0  0
 16 17  1  0  0  0  0
 16 23  1  0  0  0  0
 17 18  1  0  0  0  0
 17 22  1  0  0  0  0
 18 19  1  0  0  0  0
 19 20  1  0  0  0  0
 20 21  1  0  0  0  0
 21 22  1  0  0  0  0
 23 24  1  0  0  0  0
M  END
>  <name>
[N;amine]c1nc(N2CCCCC2)c2nc([N;amine])nc(N3CCCCC3)c2n1

>  <apo>
2

>  <freq>
1

>  <freq0>
0

>  <freq1>
1

>  <freqA>
0.99887151

>  <a_count>
48

$$$$

  MOE2015           2D

 27 29  0  0  0  0  0  0  0  0999 V2000
    4.8130    8.3360    0.0000 S   0  0  0  0  0  0  0  0  0  0  0  0
    5.5630    7.0370    0.0000 O   0  0  0  0  0  0  0  0  0  0  0  0
    5.5630    9.6350    0.0000 O   0  0  0  0  0  0  0  0  0  0  0  0
    3.3130    8.3360    0.0000 C   0  0  0  0  0  0  0  0  0  0  0  0
    2.5630    9.6350    0.0000 C   0  0  0  0  0  0  0  0  0  0  0  0
    1.0630    9.6350    0.0000 C   0  0  0  0  0  0  0  0  0  0  0  0
    0.3130    8.3360    0.0000 C   0  0  0  0  0  0  0  0  0  0  0  0
   -1.1870    8.3360    0.0000 C   0  0  0  0  0  0  0  0  0  0  0  0
   -1.9370    7.0370    0.0000 C   0  0  0  0  0  0  0  0  0  0  0  0
   -3.4370    7.0370    0.0000 N   0  0  0  0  0  0  0  0  0  0  0  0
   -4.1870    8.3360    0.0000 C   0  0  0  0  0  0  0  0  0  0  0  0
   -3.4370    9.6350    0.0000 O   0  0  0  0  0  0  0  0  0  0  0  0
   -5.6870    8.3360    0.0000 C   0  0  0  0  0  0  0  0  0  0  0  0
   -5.6870    9.8360    0.0000 C   0  0  0  0  0  0  0  0  0  0  0  0
   -6.9860    9.0860    0.0000 C   0  0  0  0  0  0  0  0  0  0  0  0
   -6.4370    7.0370    0.0000 C   0  0  0  0  0  0  0  0  0  0  0  0
   -5.6870    5.7380    0.0000 C   0  0  0  0  0  0  0  0  0  0  0  0
   -4.1870    5.7380    0.0000 C   0  0  0  0  0  0  0  0  0  0  0  0
   -3.4370    4.4390    0.0000 O   0  0  0  0  0  0  0  0  0  0  0  0
   -6.4370    4.4390    0.0000 C   0  0  0  0  0  0  0  0  0  0  0  0
   -7.9370    4.4390    0.0000 C   0  0  0  0  0  0  0  0  0  0  0  0
   -8.6870    3.1400    0.0000 O   0  0  0  0  0  0  0  0  0  0  0  0
  -10.1870    3.1400    0.0000 C   0  0  0  0  0  0  0  0  0  0  0  0
   -8.6870    5.7380    0.0000 C   0  0  0  0  0  0  0  0  0  0  0  0
   -7.9370    7.0370    0.0000 C   0  0  0  0  0  0  0  0  0  0  0  0
    1.0630    7.0370    0.0000 C   0  0  0  0  0  0  0  0  0  0  0  0
    2.5630    7.0370    0.0000 C   0  0  0  0  0  0  0  0  0  0  0  0
  1  2  2  0  0  0  0
  1  3  2  0  0  0  0
  1  4  1  0  0  0  0
  4  5  1  0  0  0  0
  4 27  2  0  0  0  0
  5  6  2  0  0  0  0
  6  7  1  0  0  0  0
  7  8  1  0  0  0  0
  7 26  2  0  0  0  0
  8  9  1  0  0  0  0
  9 10  1  0  0  0  0
 10 11  1  0  0  0  0
 10 18  1  0  0  0  0
 11 12  2  0  0  0  0
 11 13  1  0  0  0  0
 13 14  1  0  0  0  0
 13 15  1  0  0  0  0
 13 16  1  0  0  0  0
 16 17  1  0  0  0  0
 16 25  2  0  0  0  0
 17 18  1  0  0  0  0
 17 20  2  0  0  0  0
 18 19  2  0  0  0  0
 20 21  1  0  0  0  0
 21 22  1  0  0  0  0
 21 24  2  0  0  0  0
 22 23  1  0  0  0  0
 24 25  1  0  0  0  0
 26 27  1  0  0  0  0
M  END
>  <name>
[SH;so2amide](=O)(=O)c1ccc(CCN2C(=O)C(C)(C)c3c(C2=O)cc(OC)cc3)cc1

>  <apo>
1

>  <freq>
1

>  <freq0>
0

>  <freq1>
1

>  <freqA>
0.99887151

>  <a_count>
48

$$$$

  MOE2015           2D

 26 28  0  0  1  0  0  0  0  0999 V2000
    1.4800    2.3240    0.0000 Cl  0  0  0  0  0  0  0  0  0  0  0  0
    2.7790    1.5740    0.0000 C   0  0  0  0  0  0  0  0  0  0  0  0
    2.7790    0.0740    0.0000 C   0  0  0  0  0  0  0  0  0  0  0  0
    1.4800   -0.6760    0.0000 C   0  0  0  0  0  0  0  0  0  0  0  0
    1.4800   -2.1760    0.0000 C   0  0  0  0  0  0  0  0  0  0  0  0
    2.7790   -2.9260    0.0000 C   0  0  0  0  0  0  0  0  0  0  0  0
    2.7790   -4.4260    0.0000 C   0  0  0  0  0  0  0  0  0  0  0  0
    1.4800   -5.1760    0.0000 C   0  0  0  0  0  0  0  0  0  0  0  0
    1.4800   -6.6760    0.0000 O   0  0  0  0  0  0  0  0  0  0  0  0
    0.1810   -4.4260    0.0000 C   0  0  0  0  0  0  0  0  0  0  0  0
    0.1810   -2.9260    0.0000 C   0  0  0  0  0  0  0  0  0  0  0  0
    4.0780   -0.6760    0.0000 C   0  0  0  0  0  0  0  0  0  0  0  0
    5.3770    0.0740    0.0000 C   0  0  0  0  0  0  0  0  0  0  0  0
    6.6760   -0.6760    0.0000 C   0  0  1  0  0  0  0  0  0  0  0  0
    7.9750    0.0740    0.0000 C   0  0  2  0  0  0  0  0  0  0  0  0
    7.9750    1.5740    0.0000 O   0  0  0  0  0  0  0  0  0  0  0  0
    9.2740   -0.6760    0.0000 C   0  0  1  0  0  0  0  0  0  0  0  0
   10.5730    0.0740    0.0000 O   0  0  0  0  0  0  0  0  0  0  0  0
    9.2740   -2.1760    0.0000 C   0  0  2  0  0  0  0  0  0  0  0  0
   10.5730   -2.9260    0.0000 O   0  0  0  0  0  0  0  0  0  0  0  0
    7.9750   -2.9260    0.0000 C   0  0  1  0  0  0  0  0  0  0  0  0
    7.9750   -4.4260    0.0000 S   0  0  0  0  0  0  0  0  0  0  0  0
    9.2740   -5.1760    0.0000 C   0  0  0  0  0  0  0  0  0  0  0  0
    6.6760   -2.1760    0.0000 O   0  0  0  0  0  0  0  0  0  0  0  0
    5.3770    1.5740    0.0000 C   0  0  0  0  0  0  0  0  0  0  0  0
    4.0780    2.3240    0.0000 C   0  0  0  0  0  0  0  0  0  0  0  0
  1  2  1  0  0  0  0
  2  3  2  0  0  0  0
  2 26  1  0  0  0  0
  3  4  1  0  0  0  0
  3 12  1  0  0  0  0
  4  5  1  0  0  0  0
  5  6  1  0  0  0  0
  5 11  2  0  0  0  0
  6  7  2  0  0  0  0
  7  8  1  0  0  0  0
  8  9  1  0  0  0  0
  8 10  2  0  0  0  0
 10 11  1  0  0  0  0
 12 13  2  0  0  0  0
 14 13  1  1  0  0  0
 13 25  1  0  0  0  0
 14 15  1  0  0  0  0
 14 24  1  0  0  0  0
 15 16  1  6  0  0  0
 15 17  1  0  0  0  0
 17 18  1  1  0  0  0
 17 19  1  0  0  0  0
 19 20  1  6  0  0  0
 19 21  1  0  0  0  0
 21 22  1  1  0  0  0
 21 24  1  0  0  0  0
 22 23  1  0  0  0  0
 25 26  2  0  0  0  0
M  END
>  <name>
Clc1c(Cc2ccc([O;ether])cc2)cc([C@H]2[C@H](O)[C@@H](O)[C@H](O)[C@@H](SC)O2)cc1

>  <apo>
1

>  <freq>
1

>  <freq0>
0

>  <freq1>
1

>  <freqA>
0.99887151

>  <a_count>
47

$$$$

  MOE2015           2D

 20 21  0  0  1  0  0  0  0  0999 V2000
   -1.1820    1.1820    0.0000 O   0  0  0  0  0  0  0  0  0  0  0  0
   -1.1820    2.6820    0.0000 N   0  0  0  0  0  0  0  0  0  0  0  0
    0.1170    3.4320    0.0000 C   0  0  0  0  0  0  0  0  0  0  0  0
    0.1170    4.9320    0.0000 C   0  0  2  0  0  0  0  0  0  0  0  0
   -1.1820    5.6820    0.0000 C   0  0  0  0  0  0  0  0  0  0  0  0
    1.4160    5.6820    0.0000 C   0  0  2  0  0  0  0  0  0  0  0  0
    1.4160    7.1820    0.0000 C   0  0  0  0  0  0  0  0  0  0  0  0
    2.7150    7.9320    0.0000 C   0  0  0  0  0  0  0  0  0  0  0  0
    2.7150    4.9320    0.0000 O   0  0  0  0  0  0  0  0  0  0  0  0
    2.7150    3.4320    0.0000 C   0  0  1  0  0  0  0  0  0  0  0  0
    4.0140    4.1820    0.0000 O   0  0  0  0  0  0  0  0  0  0  0  0
    5.3130    3.4320    0.0000 C   0  0  2  0  0  0  0  0  0  0  0  0
    6.6120    4.1820    0.0000 C   0  0  0  0  0  0  0  0  0  0  0  0
    7.9110    3.4320    0.0000 C   0  0  0  0  0  0  0  0  0  0  0  0
    5.3130    1.9320    0.0000 C   0  0  0  0  0  0  0  0  0  0  0  0
    4.0140    1.1820    0.0000 C   0  0  2  0  0  0  0  0  0  0  0  0
    4.0140   -0.3180    0.0000 O   0  0  0  0  0  0  0  0  0  0  0  0
    2.7150    1.9320    0.0000 C   0  0  0  0  0  0  0  0  0  0  0  0
    1.4160    2.6820    0.0000 C   0  0  0  0  0  0  0  0  0  0  0  0
   -2.4810    0.4320    0.0000 C   0  0  0  0  0  0  0  0  0  0  0  0
  1  2  1  0  0  0  0
  1 20  1  0  0  0  0
  2  3  2  0  0  0  0
  3  4  1  0  0  0  0
  3 19  1  0  0  0  0
  4  5  1  6  0  0  0
  4  6  1  0  0  0  0
  6  7  1  6  0  0  0
  6  9  1  0  0  0  0
  7  8  1  0  0  0  0
 10  9  1  1  0  0  0
 10 11  1  0  0  0  0
 10 18  1  0  0  0  0
 10 19  1  6  0  0  0
 11 12  1  0  0  0  0
 12 13  1  6  0  0  0
 12 15  1  0  0  0  0
 13 14  1  0  0  0  0
 15 16  1  0  0  0  0
 16 17  1  6  0  0  0
 16 18  1  0  0  0  0
M  END
>  <name>
O(/N=C/1\[C@H](C)[C@H]([C;olefin]C)O[C@]2(O[C@H](C[C;olefin])C[C@H]([O;ester])C2)C\1)C

>  <apo>
3

>  <freq>
1

>  <freq0>
0

>  <freq1>
1

>  <freqA>
0.99887151

>  <a_count>
47

$$$$

  MOE2015           2D

 29 32  0  0  1  0  0  0  0  0999 V2000
   11.6170   -2.4020    0.0000 O   0  0  0  0  0  0  0  0  0  0  0  0
   10.8670   -3.7010    0.0000 C   0  0  0  0  0  0  0  0  0  0  0  0
   11.6170   -5.0000    0.0000 C   0  0  0  0  0  0  0  0  0  0  0  0
   13.1170   -5.0000    0.0000 O   0  0  0  0  0  0  0  0  0  0  0  0
    9.3670   -3.7010    0.0000 C   0  0  1  0  0  0  0  0  0  0  0  0
   10.1170   -2.4020    0.0000 O   0  0  0  0  0  0  0  0  0  0  0  0
    8.0680   -2.9510    0.0000 C   0  0  0  0  0  0  0  0  0  0  0  0
    6.7690   -3.7010    0.0000 C   0  0  0  0  0  0  0  0  0  0  0  0
    5.4700   -2.9510    0.0000 C   0  0  0  0  0  0  0  0  0  0  0  0
    5.4700   -1.4510    0.0000 O   0  0  0  0  0  0  0  0  0  0  0  0
    4.1710   -3.7010    0.0000 C   0  0  0  0  0  0  0  0  0  0  0  0
    2.8720   -2.9510    0.0000 C   0  0  0  0  0  0  0  0  0  0  0  0
    2.8720   -1.4510    0.0000 O   0  0  0  0  0  0  0  0  0  0  0  0
    1.5730   -3.7010    0.0000 C   0  0  0  0  0  0  0  0  0  0  0  0
    1.5730   -5.2010    0.0000 C   0  0  0  0  0  0  0  0  0  0  0  0
    0.2730   -5.9510    0.0000 C   0  0  0  0  0  0  0  0  0  0  0  0
    0.2730   -7.4510    0.0000 O   0  0  0  0  0  0  0  0  0  0  0  0
   -1.0260   -8.2010    0.0000 C   0  0  0  0  0  0  0  0  0  0  0  0
   -1.0260   -5.2010    0.0000 C   0  0  0  0  0  0  0  0  0  0  0  0
   -1.0260   -3.7010    0.0000 C   0  0  0  0  0  0  0  0  0  0  0  0
    0.2730   -2.9510    0.0000 C   0  0  0  0  0  0  0  0  0  0  0  0
    2.8720   -5.9510    0.0000 C   0  0  0  0  0  0  0  0  0  0  0  0
    2.8720   -7.4510    0.0000 O   0  0  0  0  0  0  0  0  0  0  0  0
    4.1710   -5.2010    0.0000 C   0  0  0  0  0  0  0  0  0  0  0  0
    5.4700   -5.9510    0.0000 C   0  0  0  0  0  0  0  0  0  0  0  0
    5.4700   -7.4510    0.0000 O   0  0  0  0  0  0  0  0  0  0  0  0
    6.7690   -5.2010    0.0000 C   0  0  0  0  0  0  0  0  0  0  0  0
    8.0680   -5.9510    0.0000 C   0  0  0  0  0  0  0  0  0  0  0  0
    9.3670   -5.2010    0.0000 C   0  0  0  0  0  0  0  0  0  0  0  0
  1  2  2  0  0  0  0
  2  3  1  0  0  0  0
  5  2  1  6  0  0  0
  3  4  1  0  0  0  0
  5  6  1  1  0  0  0
  5  7  1  0  0  0  0
  5 29  1  0  0  0  0
  7  8  1  0  0  0  0
  8  9  2  0  0  0  0
  8 27  1  0  0  0  0
  9 10  1  0  0  0  0
  9 11  1  0  0  0  0
 11 12  1  0  0  0  0
 11 24  2  0  0  0  0
 12 13  2  0  0  0  0
 12 14  1  0  0  0  0
 14 15  2  0  0  0  0
 14 21  1  0  0  0  0
 15 16  1  0  0  0  0
 15 22  1  0  0  0  0
 16 17  1  0  0  0  0
 16 19  2  0  0  0  0
 17 18  1  0  0  0  0
 19 20  1  0  0  0  0
 20 21  2  0  0  0  0
 22 23  2  0  0  0  0
 22 24  1  0  0  0  0
 24 25  1  0  0  0  0
 25 26  1  0  0  0  0
 25 27  2  0  0  0  0
 27 28  1  0  0  0  0
 28 29  1  0  0  0  0
M  END
>  <name>
O=C(C[O;ester])[C@@]1(O)Cc2c(O)c3C(=O)c4c(c(OC)ccc4)C(=O)c3c(O)c2[C;ether]C1

>  <apo>
2

>  <freq>
1

>  <freq0>
0

>  <freq1>
1

>  <freqA>
0.99887151

>  <a_count>
47

$$$$

  MOE2015           2D

 20 20  0  0  1  0  0  0  0  0999 V2000
    3.8770    3.9350    0.0000 O   0  0  0  0  0  0  0  0  0  0  0  0
    3.8990    2.4350    0.0000 C   0  0  0  0  0  0  0  0  0  0  0  0
    5.2090    1.7040    0.0000 C   0  0  1  0  0  0  0  0  0  0  0  0
    6.4970    2.4730    0.0000 C   0  0  0  0  0  0  0  0  0  0  0  0
    7.8070    1.7420    0.0000 C   0  0  0  0  0  0  0  0  0  0  0  0
    9.0950    2.5120    0.0000 C   0  0  0  0  0  0  0  0  0  0  0  0
    5.2310    0.2040    0.0000 C   0  0  0  0  0  0  0  0  0  0  0  0
    2.6110    1.6660    0.0000 C   0  0  2  0  0  0  0  0  0  0  0  0
    2.6330    0.1660    0.0000 C   0  0  0  0  0  0  0  0  0  0  0  0
    1.3010    2.3960    0.0000 C   0  0  2  0  0  0  0  0  0  0  0  0
   -0.0600    1.7660    0.0000 C   0  0  2  0  0  0  0  0  0  0  0  0
   -1.0910    0.6760    0.0000 C   0  0  2  0  0  0  0  0  0  0  0  0
   -2.5500    1.0240    0.0000 O   0  0  0  0  0  0  0  0  0  0  0  0
   -0.6620   -0.7610    0.0000 C   0  0  0  0  0  0  0  0  0  0  0  0
   -1.6930   -1.8510    0.0000 C   0  0  0  0  0  0  0  0  0  0  0  0
    0.4310    0.3490    0.0000 C   0  0  0  0  0  0  0  0  0  0  0  0
   -1.0800    2.8660    0.0000 O   0  0  0  0  0  0  0  0  0  0  0  0
   -0.3490    4.1760    0.0000 C   0  0  0  0  0  0  0  0  0  0  0  0
   -0.9790    5.5370    0.0000 O   0  0  0  0  0  0  0  0  0  0  0  0
    1.1230    3.8860    0.0000 N   0  0  0  0  0  0  0  0  0  0  0  0
  1  2  2  0  0  0  0
  2  3  1  0  0  0  0
  2  8  1  0  0  0  0
  3  4  1  0  0  0  0
  3  7  1  1  0  0  0
  4  5  1  0  0  0  0
  5  6  1  0  0  0  0
  8  9  1  6  0  0  0
  8 10  1  0  0  0  0
 10 11  1  0  0  0  0
 10 20  1  6  0  0  0
 11 12  1  0  0  0  0
 11 16  1  6  0  0  0
 11 17  1  0  0  0  0
 12 13  1  1  0  0  0
 12 14  1  0  0  0  0
 14 15  1  0  0  0  0
 17 18  1  0  0  0  0
 18 19  2  0  0  0  0
 18 20  1  0  0  0  0
M  END
>  <name>
O=C([C@@H](C[C;ether]C)C)[C@H](C)[C@@H]1[C@]([C@H]([O;ester])CC)(C)OC(=O)[N;lactam]1

>  <apo>
3

>  <freq>
1

>  <freq0>
0

>  <freq1>
1

>  <freqA>
0.99887151

>  <a_count>
47

$$$$

  MOE2015           2D

 22 24  0  0  1  0  0  0  0  0999 V2000
    0.1950    2.1570    0.0000 O   0  0  0  0  0  0  0  0  0  0  0  0
    1.4850    1.3920    0.0000 C   0  0  0  0  0  0  0  0  0  0  0  0
    2.7930    2.1260    0.0000 C   0  0  2  0  0  0  0  0  0  0  0  0
    2.8110    3.6260    0.0000 C   0  0  0  0  0  0  0  0  0  0  0  0
    4.1190    4.3600    0.0000 C   0  0  0  0  0  0  0  0  0  0  0  0
    1.5210    4.3910    0.0000 C   0  0  0  0  0  0  0  0  0  0  0  0
    4.0830    1.3600    0.0000 N   0  0  0  0  0  0  0  0  0  0  0  0
    5.5150    1.8060    0.0000 C   0  0  0  0  0  0  0  0  0  0  0  0
    5.9960    3.2270    0.0000 O   0  0  0  0  0  0  0  0  0  0  0  0
    6.3820    0.5820    0.0000 C   0  0  1  0  0  0  0  0  0  0  0  0
    7.6500    1.3840    0.0000 N   0  0  0  0  0  0  0  0  0  0  0  0
    7.6850   -0.1610    0.0000 C   0  0  0  0  0  0  0  0  0  0  0  0
    7.6930   -1.6610    0.0000 C   0  0  0  0  0  0  0  0  0  0  0  0
    8.9800    0.5960    0.0000 C   0  0  0  0  0  0  0  0  0  0  0  0
    5.4860   -0.6200    0.0000 O   0  0  0  0  0  0  0  0  0  0  0  0
    4.0650   -0.1400    0.0000 C   0  0  2  0  0  0  0  0  0  0  0  0
    4.2300   -1.6310    0.0000 O   0  0  0  0  0  0  0  0  0  0  0  0
    2.7570   -0.8740    0.0000 C   0  0  1  0  0  0  0  0  0  0  0  0
    1.4670   -0.1080    0.0000 N   0  0  0  0  0  0  0  0  0  0  0  0
    0.3400   -1.0980    0.0000 C   0  0  0  0  0  0  0  0  0  0  0  0
    0.9340   -2.4760    0.0000 C   0  0  0  0  0  0  0  0  0  0  0  0
    2.4270   -2.3370    0.0000 C   0  0  0  0  0  0  0  0  0  0  0  0
  1  2  2  0  0  0  0
  2  3  1  0  0  0  0
  2 19  1  0  0  0  0
  3  4  1  6  0  0  0
  3  7  1  0  0  0  0
  4  5  1  0  0  0  0
  4  6  1  0  0  0  0
  7  8  1  0  0  0  0
  7 16  1  0  0  0  0
  8  9  2  0  0  0  0
  8 10  1  0  0  0  0
 10 11  1  6  0  0  0
 10 12  1  1  0  0  0
 10 15  1  0  0  0  0
 12 13  1  0  0  0  0
 12 14  1  0  0  0  0
 15 16  1  0  0  0  0
 16 17  1  6  0  0  0
 16 18  1  0  0  0  0
 18 19  1  6  0  0  0
 18 22  1  0  0  0  0
 19 20  1  0  0  0  0
 20 21  1  0  0  0  0
 21 22  1  0  0  0  0
M  END
>  <name>
O=C1[C@H](C(C)C)N2C(=O)[C@@]([N;amide])(C(C)C)O[C@@]2(O)[C@H]2N1CCC2

>  <apo>
1

>  <freq>
1

>  <freq0>
0

>  <freq1>
1

>  <freqA>
0.99887151

>  <a_count>
47

$$$$

  MOE2015           2D

 24 26  0  0  0  0  0  0  0  0999 V2000
    3.7590   -8.3700    0.0000 S   0  0  0  0  0  0  0  0  0  0  0  0
    4.7560   -7.2490    0.0000 O   0  0  0  0  0  0  0  0  0  0  0  0
    2.7620   -9.4920    0.0000 O   0  0  0  0  0  0  0  0  0  0  0  0
    4.8800   -9.3670    0.0000 O   0  5  0  0  0  0  0  0  0  0  0  0
    2.6380   -7.3740    0.0000 C   0  0  0  0  0  0  0  0  0  0  0  0
    1.2140   -7.8470    0.0000 C   0  0  0  0  0  0  0  0  0  0  0  0
    0.0930   -6.8500    0.0000 C   0  0  0  0  0  0  0  0  0  0  0  0
   -1.3300   -7.3230    0.0000 C   0  0  0  0  0  0  0  0  0  0  0  0
   -2.4520   -6.3260    0.0000 N   0  3  0  0  0  0  0  0  0  0  0  0
   -2.3040   -4.8330    0.0000 C   0  0  0  0  0  0  0  0  0  0  0  0
   -1.0100   -4.0750    0.0000 C   0  0  0  0  0  0  0  0  0  0  0  0
   -3.6790   -4.2320    0.0000 C   0  0  0  0  0  0  0  0  0  0  0  0
   -3.1500   -2.8280    0.0000 C   0  0  0  0  0  0  0  0  0  0  0  0
   -4.6700   -3.1060    0.0000 C   0  0  0  0  0  0  0  0  0  0  0  0
   -4.6750   -5.3530    0.0000 C   0  0  0  0  0  0  0  0  0  0  0  0
   -6.1750   -5.3630    0.0000 C   0  0  0  0  0  0  0  0  0  0  0  0
   -6.9170   -6.6670    0.0000 C   0  0  0  0  0  0  0  0  0  0  0  0
   -6.1580   -7.9610    0.0000 C   0  0  0  0  0  0  0  0  0  0  0  0
   -4.6580   -7.9510    0.0000 C   0  0  0  0  0  0  0  0  0  0  0  0
   -3.9170   -6.6470    0.0000 C   0  0  0  0  0  0  0  0  0  0  0  0
   -8.4170   -6.6760    0.0000 C   0  0  0  0  0  0  0  0  0  0  0  0
   -9.1750   -5.3820    0.0000 C   0  0  0  0  0  0  0  0  0  0  0  0
   -8.4330   -4.0780    0.0000 C   0  0  0  0  0  0  0  0  0  0  0  0
   -6.9330   -4.0690    0.0000 C   0  0  0  0  0  0  0  0  0  0  0  0
  1  2  2  0  0  0  0
  1  3  2  0  0  0  0
  1  4  1  0  0  0  0
  1  5  1  0  0  0  0
  5  6  1  0  0  0  0
  6  7  1  0  0  0  0
  7  8  1  0  0  0  0
  8  9  1  0  0  0  0
  9 10  2  0  0  0  0
  9 20  1  0  0  0  0
 10 11  1  0  0  0  0
 10 12  1  0  0  0  0
 12 13  1  0  0  0  0
 12 14  1  0  0  0  0
 12 15  1  0  0  0  0
 15 16  1  0  0  0  0
 15 20  2  0  0  0  0
 16 17  1  0  0  0  0
 16 24  2  0  0  0  0
 17 18  1  0  0  0  0
 17 21  2  0  0  0  0
 18 19  2  0  0  0  0
 19 20  1  0  0  0  0
 21 22  1  0  0  0  0
 22 23  2  0  0  0  0
 23 24  1  0  0  0  0
M  CHG  1   4  -1
M  CHG  1   9   1
M  END
>  <name>
S(=O)(=O)([O-])CCCC[N+]1=C([C;olefin])C(C)(C)c2c3c(ccc12)cccc3

>  <apo>
1

>  <freq>
1

>  <freq0>
0

>  <freq1>
1

>  <freqA>
0.99887151

>  <a_count>
47

$$$$

  MOE2015           2D

 29 32  0  0  1  0  0  0  0  0999 V2000
   -1.0000    8.1380    0.0000 F   0  0  0  0  0  0  0  0  0  0  0  0
   -1.0000    6.6380    0.0000 C   0  0  0  0  0  0  0  0  0  0  0  0
    0.2990    5.8880    0.0000 C   0  0  0  0  0  0  0  0  0  0  0  0
    0.2990    4.3880    0.0000 C   0  0  0  0  0  0  0  0  0  0  0  0
   -1.0000    3.6380    0.0000 C   0  0  0  0  0  0  0  0  0  0  0  0
   -1.0000    2.1380    0.0000 O   0  0  0  0  0  0  0  0  0  0  0  0
   -2.2990    4.3880    0.0000 C   0  0  0  0  0  0  0  0  0  0  0  0
   -3.5980    3.6380    0.0000 N   0  0  0  0  0  0  0  0  0  0  0  0
   -2.2990    5.8880    0.0000 C   0  0  0  0  0  0  0  0  0  0  0  0
    1.5980    3.6380    0.0000 C   0  0  0  0  0  0  0  0  0  0  0  0
    1.5980    2.1380    0.0000 O   0  0  0  0  0  0  0  0  0  0  0  0
    2.8970    4.3880    0.0000 C   0  0  0  0  0  0  0  0  0  0  0  0
    4.1960    3.6380    0.0000 C   0  0  0  0  0  0  0  0  0  0  0  0
    4.1960    2.1380    0.0000 O   0  0  0  0  0  0  0  0  0  0  0  0
    5.4950    4.3880    0.0000 C   0  0  2  0  0  0  0  0  0  0  0  0
    5.4950    2.8880    0.0000 O   0  0  0  0  0  0  0  0  0  0  0  0
    6.7940    3.6380    0.0000 C   0  0  0  0  0  0  0  0  0  0  0  0
    6.7940    2.1380    0.0000 O   0  0  0  0  0  0  0  0  0  0  0  0
    8.0930    4.3880    0.0000 C   0  0  0  0  0  0  0  0  0  0  0  0
    9.3920    3.6380    0.0000 C   0  0  0  0  0  0  0  0  0  0  0  0
    9.3920    2.1380    0.0000 O   0  0  0  0  0  0  0  0  0  0  0  0
   10.6910    4.3880    0.0000 N   0  0  0  0  0  0  0  0  0  0  0  0
    8.0930    5.8880    0.0000 C   0  0  0  0  0  0  0  0  0  0  0  0
    9.3920    6.6380    0.0000 O   0  0  0  0  0  0  0  0  0  0  0  0
    6.7940    6.6380    0.0000 C   0  0  0  0  0  0  0  0  0  0  0  0
    5.4950    5.8880    0.0000 C   0  0  2  0  0  0  0  0  0  0  0  0
    4.1960    6.6380    0.0000 C   0  0  0  0  0  0  0  0  0  0  0  0
    2.8970    5.8880    0.0000 C   0  0  2  0  0  0  0  0  0  0  0  0
    1.5980    6.6380    0.0000 C   0  0  0  0  0  0  0  0  0  0  0  0
  1  2  1  0  0  0  0
  2  3  1  0  0  0  0
  2  9  2  0  0  0  0
  3  4  2  0  0  0  0
  3 29  1  0  0  0  0
  4  5  1  0  0  0  0
  4 10  1  0  0  0  0
  5  6  1  0  0  0  0
  5  7  2  0  0  0  0
  7  8  1  0  0  0  0
  7  9  1  0  0  0  0
 10 11  2  0  0  0  0
 10 12  1  0  0  0  0
 12 13  2  0  0  0  0
 28 12  1  1  0  0  0
 13 14  1  0  0  0  0
 13 15  1  0  0  0  0
 15 16  1  6  0  0  0
 15 17  1  0  0  0  0
 15 26  1  0  0  0  0
 17 18  2  0  0  0  0
 17 19  1  0  0  0  0
 19 20  1  0  0  0  0
 19 23  2  0  0  0  0
 20 21  2  0  0  0  0
 20 22  1  0  0  0  0
 23 24  1  0  0  0  0
 23 25  1  0  0  0  0
 26 25  1  1  0  0  0
 26 27  1  0  0  0  0
 27 28  1  0  0  0  0
 28 29  1  0  0  0  0
M  END
>  <name>
Fc1c2c(c(O)c([N;amide])c1)C(=O)C1=C(O)[C@]3(O)C(=O)C(C(=O)N)=C(O)[C;amine][C@@H]3C[C@@H]1C2

>  <apo>
2

>  <freq>
1

>  <freq0>
0

>  <freq1>
1

>  <freqA>
0.99887151

>  <a_count>
46

$$$$

  MOE2015           2D

 25 27  0  0  1  0  0  0  0  0999 V2000
    0.0090   -4.4580    0.0000 O   0  0  0  0  0  0  0  0  0  0  0  0
    1.5090   -4.4520    0.0000 C   0  0  0  0  0  0  0  0  0  0  0  0
   -0.7460   -3.1610    0.0000 C   0  0  0  0  0  0  0  0  0  0  0  0
   -2.2460   -3.1670    0.0000 C   0  0  0  0  0  0  0  0  0  0  0  0
   -2.9910   -4.4690    0.0000 O   0  0  0  0  0  0  0  0  0  0  0  0
   -2.2370   -5.7650    0.0000 C   0  0  0  0  0  0  0  0  0  0  0  0
   -3.0010   -1.8710    0.0000 C   0  0  0  0  0  0  0  0  0  0  0  0
   -2.2560   -0.5690    0.0000 C   0  0  0  0  0  0  0  0  0  0  0  0
   -0.7560   -0.5630    0.0000 C   0  0  0  0  0  0  0  0  0  0  0  0
   -0.0010   -1.8600    0.0000 C   0  0  0  0  0  0  0  0  0  0  0  0
    1.4990   -1.8540    0.0000 O   0  0  0  0  0  0  0  0  0  0  0  0
    2.2440   -0.5520    0.0000 C   0  0  0  0  0  0  0  0  0  0  0  0
   -2.8090    0.8250    0.0000 C   0  0  0  0  0  0  0  0  0  0  0  0
   -4.2440    1.2610    0.0000 C   0  0  0  0  0  0  0  0  0  0  0  0
   -5.4800    0.4110    0.0000 C   0  0  3  0  0  0  0  0  0  0  0  0
   -6.7820    1.1560    0.0000 N   0  0  0  0  0  0  0  0  0  0  0  0
   -5.5880   -1.0860    0.0000 C   0  0  0  0  0  0  0  0  0  0  0  0
   -4.4840   -2.1010    0.0000 C   0  0  0  0  0  0  0  0  0  0  0  0
   -4.5900   -3.5970    0.0000 C   0  0  0  0  0  0  0  0  0  0  0  0
   -5.8260   -4.4470    0.0000 C   0  0  0  0  0  0  0  0  0  0  0  0
   -7.2620   -4.0120    0.0000 C   0  0  0  0  0  0  0  0  0  0  0  0
   -8.2780   -5.1150    0.0000 O   0  0  0  0  0  0  0  0  0  0  0  0
   -7.8140   -2.6170    0.0000 C   0  0  0  0  0  0  0  0  0  0  0  0
   -9.3110   -2.5100    0.0000 O   0  0  0  0  0  0  0  0  0  0  0  0
   -7.0700   -1.3160    0.0000 C   0  0  0  0  0  0  0  0  0  0  0  0
  1  2  1  0  0  0  0
  1  3  1  0  0  0  0
  3  4  1  0  0  0  0
  3 10  2  0  0  0  0
  4  5  1  0  0  0  0
  4  7  2  0  0  0  0
  5  6  1  0  0  0  0
  7  8  1  0  0  0  0
  7 18  1  0  0  0  0
  8  9  2  0  0  0  0
  8 13  1  0  0  0  0
  9 10  1  0  0  0  0
 10 11  1  0  0  0  0
 11 12  1  0  0  0  0
 13 14  1  0  0  0  0
 14 15  1  0  0  0  0
 15 16  1  0  0  0  0
 15 17  1  0  0  0  0
 17 18  1  0  0  0  0
 17 25  2  0  0  0  0
 18 19  2  0  0  0  0
 19 20  1  0  0  0  0
 20 21  2  0  0  0  0
 21 22  1  0  0  0  0
 21 23  1  0  0  0  0
 23 24  2  0  0  0  0
 23 25  1  0  0  0  0
M  END
>  <name>
O(C)c1c(OC)c2c(cc1OC)CCC([N;amide])C=1C2=CC=C(O)C(=O)C=1

>  <apo>
1

>  <freq>
1

>  <freq0>
0

>  <freq1>
1

>  <freqA>
0.99887151

>  <a_count>
46

$$$$

  MOE2015           2D

 18 18  0  0  1  0  0  0  0  0999 V2000
    6.3440   -1.5940    0.0000 O   0  0  0  0  0  0  0  0  0  0  0  0
    6.3440   -3.0940    0.0000 C   0  0  0  0  0  0  0  0  0  0  0  0
    7.6430   -3.8440    0.0000 C   0  0  0  0  0  0  0  0  0  0  0  0
    7.6430   -5.3440    0.0000 C   0  0  0  0  0  0  0  0  0  0  0  0
    8.9420   -3.0940    0.0000 C   0  0  0  0  0  0  0  0  0  0  0  0
    5.0450   -3.8440    0.0000 C   0  0  0  0  0  0  0  0  0  0  0  0
    3.7460   -3.0940    0.0000 C   0  0  2  0  0  0  0  0  0  0  0  0
    3.7460   -1.5940    0.0000 O   0  0  0  0  0  0  0  0  0  0  0  0
    2.4470   -3.8440    0.0000 C   0  0  1  0  0  0  0  0  0  0  0  0
    1.1480   -3.0940    0.0000 C   0  0  0  0  0  0  0  0  0  0  0  0
   -0.1510   -3.8440    0.0000 C   0  0  0  0  0  0  0  0  0  0  0  0
   -1.4500   -3.0940    0.0000 C   0  0  0  0  0  0  0  0  0  0  0  0
   -2.7490   -3.8440    0.0000 C   0  0  0  0  0  0  0  0  0  0  0  0
   -2.7490   -5.3440    0.0000 C   0  0  0  0  0  0  0  0  0  0  0  0
   -4.0480   -6.0940    0.0000 O   0  0  0  0  0  0  0  0  0  0  0  0
   -1.4500   -6.0940    0.0000 C   0  0  0  0  0  0  0  0  0  0  0  0
   -0.1510   -5.3440    0.0000 C   0  0  0  0  0  0  0  0  0  0  0  0
    2.4470   -5.3440    0.0000 C   0  0  0  0  0  0  0  0  0  0  0  0
  1  2  2  0  0  0  0
  2  3  1  0  0  0  0
  2  6  1  0  0  0  0
  3  4  1  0  0  0  0
  3  5  1  0  0  0  0
  6  7  1  0  0  0  0
  7  8  1  1  0  0  0
  7  9  1  0  0  0  0
  9 10  1  0  0  0  0
  9 18  1  6  0  0  0
 10 11  1  0  0  0  0
 11 12  1  0  0  0  0
 11 17  1  0  0  0  0
 12 13  1  0  0  0  0
 13 14  1  0  0  0  0
 14 15  1  0  0  0  0
 14 16  1  0  0  0  0
 16 17  1  0  0  0  0
M  END
>  <name>
O=C(C(C)[C;olefin])C[C@H]([O;ester])[C@@H](CC1CCC(O)[C;ether]C1)C

>  <apo>
3

>  <freq>
1

>  <freq0>
0

>  <freq1>
1

>  <freqA>
0.99887151

>  <a_count>
46

$$$$

  MOE2015           2D

 18 18  0  0  1  0  0  0  0  0999 V2000
    6.3440   -1.5940    0.0000 O   0  0  0  0  0  0  0  0  0  0  0  0
    6.3440   -3.0940    0.0000 C   0  0  0  0  0  0  0  0  0  0  0  0
    7.6430   -3.8440    0.0000 C   0  0  0  0  0  0  0  0  0  0  0  0
    7.6430   -5.3440    0.0000 C   0  0  0  0  0  0  0  0  0  0  0  0
    8.9420   -3.0940    0.0000 C   0  0  0  0  0  0  0  0  0  0  0  0
    5.0450   -3.8440    0.0000 C   0  0  0  0  0  0  0  0  0  0  0  0
    3.7460   -3.0940    0.0000 C   0  0  2  0  0  0  0  0  0  0  0  0
    3.7460   -1.5940    0.0000 O   0  0  0  0  0  0  0  0  0  0  0  0
    2.4470   -3.8440    0.0000 C   0  0  1  0  0  0  0  0  0  0  0  0
    1.1480   -3.0940    0.0000 C   0  0  0  0  0  0  0  0  0  0  0  0
   -0.1510   -3.8440    0.0000 C   0  0  0  0  0  0  0  0  0  0  0  0
   -1.4500   -3.0940    0.0000 C   0  0  0  0  0  0  0  0  0  0  0  0
   -2.7490   -3.8440    0.0000 C   0  0  0  0  0  0  0  0  0  0  0  0
   -2.7490   -5.3440    0.0000 C   0  0  0  0  0  0  0  0  0  0  0  0
   -4.0480   -6.0940    0.0000 O   0  0  0  0  0  0  0  0  0  0  0  0
   -1.4500   -6.0940    0.0000 C   0  0  0  0  0  0  0  0  0  0  0  0
   -0.1510   -5.3440    0.0000 C   0  0  0  0  0  0  0  0  0  0  0  0
    2.4470   -5.3440    0.0000 C   0  0  0  0  0  0  0  0  0  0  0  0
  1  2  2  0  0  0  0
  2  3  1  0  0  0  0
  2  6  1  0  0  0  0
  3  4  1  0  0  0  0
  3  5  1  0  0  0  0
  6  7  1  0  0  0  0
  7  8  1  1  0  0  0
  7  9  1  0  0  0  0
  9 10  1  0  0  0  0
  9 18  1  6  0  0  0
 10 11  1  0  0  0  0
 11 12  1  0  0  0  0
 11 17  1  0  0  0  0
 12 13  1  0  0  0  0
 13 14  1  0  0  0  0
 14 15  1  0  0  0  0
 14 16  1  0  0  0  0
 16 17  1  0  0  0  0
M  END
>  <name>
O=C(C([C;olefin])C)C[C@H]([O;ester])[C@@H](CC1C[C;ether]C([O;ester])CC1)C

>  <apo>
4

>  <freq>
1

>  <freq0>
0

>  <freq1>
1

>  <freqA>
0.99887151

>  <a_count>
46

$$$$

  MOE2015           2D

 28 31  0  0  1  0  0  0  0  0999 V2000
   10.5810    5.1860    0.0000 O   0  0  0  0  0  0  0  0  0  0  0  0
    9.8310    6.4850    0.0000 C   0  0  0  0  0  0  0  0  0  0  0  0
   10.5810    7.7840    0.0000 C   0  0  0  0  0  0  0  0  0  0  0  0
    8.3310    6.4850    0.0000 C   0  0  1  0  0  0  0  0  0  0  0  0
    9.0810    7.7840    0.0000 O   0  0  0  0  0  0  0  0  0  0  0  0
    7.0320    7.2350    0.0000 C   0  0  0  0  0  0  0  0  0  0  0  0
    5.7330    6.4850    0.0000 C   0  0  0  0  0  0  0  0  0  0  0  0
    4.4340    7.2350    0.0000 C   0  0  0  0  0  0  0  0  0  0  0  0
    4.4340    8.7350    0.0000 O   0  0  0  0  0  0  0  0  0  0  0  0
    3.1350    6.4850    0.0000 C   0  0  0  0  0  0  0  0  0  0  0  0
    1.8360    7.2350    0.0000 C   0  0  0  0  0  0  0  0  0  0  0  0
    1.8360    8.7350    0.0000 O   0  0  0  0  0  0  0  0  0  0  0  0
    0.5370    6.4850    0.0000 C   0  0  0  0  0  0  0  0  0  0  0  0
    0.5370    4.9850    0.0000 C   0  0  0  0  0  0  0  0  0  0  0  0
   -0.7620    4.2350    0.0000 C   0  0  0  0  0  0  0  0  0  0  0  0
   -0.7620    2.7350    0.0000 O   0  0  0  0  0  0  0  0  0  0  0  0
   -2.0610    1.9850    0.0000 C   0  0  0  0  0  0  0  0  0  0  0  0
   -2.0610    4.9850    0.0000 C   0  0  0  0  0  0  0  0  0  0  0  0
   -2.0610    6.4850    0.0000 C   0  0  0  0  0  0  0  0  0  0  0  0
   -0.7620    7.2350    0.0000 C   0  0  0  0  0  0  0  0  0  0  0  0
    1.8360    4.2350    0.0000 C   0  0  0  0  0  0  0  0  0  0  0  0
    1.8360    2.7350    0.0000 O   0  0  0  0  0  0  0  0  0  0  0  0
    3.1350    4.9850    0.0000 C   0  0  0  0  0  0  0  0  0  0  0  0
    4.4340    4.2350    0.0000 C   0  0  0  0  0  0  0  0  0  0  0  0
    4.4340    2.7350    0.0000 O   0  0  0  0  0  0  0  0  0  0  0  0
    5.7330    4.9850    0.0000 C   0  0  0  0  0  0  0  0  0  0  0  0
    7.0320    4.2350    0.0000 C   0  0  0  0  0  0  0  0  0  0  0  0
    8.3310    4.9850    0.0000 C   0  0  0  0  0  0  0  0  0  0  0  0
  1  2  2  0  0  0  0
  2  3  1  0  0  0  0
  4  2  1  6  0  0  0
  4  5  1  1  0  0  0
  4  6  1  0  0  0  0
  4 28  1  0  0  0  0
  6  7  1  0  0  0  0
  7  8  2  0  0  0  0
  7 26  1  0  0  0  0
  8  9  1  0  0  0  0
  8 10  1  0  0  0  0
 10 11  1  0  0  0  0
 10 23  2  0  0  0  0
 11 12  2  0  0  0  0
 11 13  1  0  0  0  0
 13 14  2  0  0  0  0
 13 20  1  0  0  0  0
 14 15  1  0  0  0  0
 14 21  1  0  0  0  0
 15 16  1  0  0  0  0
 15 18  2  0  0  0  0
 16 17  1  0  0  0  0
 18 19  1  0  0  0  0
 19 20  2  0  0  0  0
 21 22  2  0  0  0  0
 21 23  1  0  0  0  0
 23 24  1  0  0  0  0
 24 25  1  0  0  0  0
 24 26  2  0  0  0  0
 26 27  1  0  0  0  0
 27 28  1  0  0  0  0
M  END
>  <name>
O=C(C)[C@@]1(O)Cc2c(O)c3C(=O)c4c(c(OC)ccc4)C(=O)c3c(O)c2[C;ether]C1

>  <apo>
1

>  <freq>
1

>  <freq0>
0

>  <freq1>
1

>  <freqA>
0.99887151

>  <a_count>
46

$$$$

  MOE2015           2D

 29 32  0  0  1  0  0  0  0  0999 V2000
   12.4540   -4.0090    0.0000 O   0  0  0  0  0  0  0  0  0  0  0  0
   11.1550   -4.7590    0.0000 C   0  0  0  0  0  0  0  0  0  0  0  0
   11.1550   -6.2590    0.0000 N   0  0  0  0  0  0  0  0  0  0  0  0
    9.8560   -4.0090    0.0000 C   0  0  0  0  0  0  0  0  0  0  0  0
    8.5560   -4.7590    0.0000 C   0  0  0  0  0  0  0  0  0  0  0  0
    8.5560   -6.2590    0.0000 O   0  0  0  0  0  0  0  0  0  0  0  0
    7.2570   -4.0090    0.0000 C   0  0  1  0  0  0  0  0  0  0  0  0
    7.2570   -5.5090    0.0000 O   0  0  0  0  0  0  0  0  0  0  0  0
    5.9580   -4.7590    0.0000 C   0  0  0  0  0  0  0  0  0  0  0  0
    5.9580   -6.2590    0.0000 O   0  0  0  0  0  0  0  0  0  0  0  0
    4.6590   -4.0090    0.0000 C   0  0  0  0  0  0  0  0  0  0  0  0
    3.3600   -4.7590    0.0000 C   0  0  0  0  0  0  0  0  0  0  0  0
    3.3600   -6.2590    0.0000 O   0  0  0  0  0  0  0  0  0  0  0  0
    2.0610   -4.0090    0.0000 C   0  0  0  0  0  0  0  0  0  0  0  0
    0.7620   -4.7590    0.0000 C   0  0  0  0  0  0  0  0  0  0  0  0
    0.7620   -6.2590    0.0000 O   0  0  0  0  0  0  0  0  0  0  0  0
   -0.5370   -4.0090    0.0000 C   0  0  0  0  0  0  0  0  0  0  0  0
   -0.5370   -2.5090    0.0000 C   0  0  0  0  0  0  0  0  0  0  0  0
    0.7620   -1.7590    0.0000 C   0  0  0  0  0  0  0  0  0  0  0  0
    2.0610   -2.5090    0.0000 C   0  0  0  0  0  0  0  0  0  0  0  0
    3.3600   -1.7590    0.0000 C   0  0  0  0  0  0  0  0  0  0  0  0
    3.3600   -0.2590    0.0000 C   0  0  0  0  0  0  0  0  0  0  0  0
    4.6590   -2.5090    0.0000 C   0  0  1  0  0  0  0  0  0  0  0  0
    5.9580   -1.7590    0.0000 C   0  0  2  0  0  0  0  0  0  0  0  0
    5.9580   -0.2590    0.0000 O   0  0  0  0  0  0  0  0  0  0  0  0
    7.2570   -2.5090    0.0000 C   0  0  1  0  0  0  0  0  0  0  0  0
    8.5560   -1.7590    0.0000 C   0  0  0  0  0  0  0  0  0  0  0  0
    9.8560   -2.5090    0.0000 C   0  0  0  0  0  0  0  0  0  0  0  0
   11.1550   -1.7590    0.0000 O   0  0  0  0  0  0  0  0  0  0  0  0
  1  2  2  0  0  0  0
  2  3  1  0  0  0  0
  2  4  1  0  0  0  0
  4  5  1  0  0  0  0
  4 28  2  0  0  0  0
  5  6  2  0  0  0  0
  5  7  1  0  0  0  0
  7  8  1  6  0  0  0
  7  9  1  0  0  0  0
  7 26  1  0  0  0  0
  9 10  1  0  0  0  0
  9 11  2  0  0  0  0
 11 12  1  0  0  0  0
 23 11  1  1  0  0  0
 12 13  2  0  0  0  0
 12 14  1  0  0  0  0
 14 15  2  0  0  0  0
 14 20  1  0  0  0  0
 15 16  1  0  0  0  0
 15 17  1  0  0  0  0
 17 18  2  0  0  0  0
 18 19  1  0  0  0  0
 19 20  2  0  0  0  0
 20 21  1  0  0  0  0
 21 22  2  0  0  0  0
 21 23  1  0  0  0  0
 23 24  1  0  0  0  0
 24 25  1  6  0  0  0
 24 26  1  0  0  0  0
 26 27  1  1  0  0  0
 27 28  1  0  0  0  0
 28 29  1  0  0  0  0
M  END
>  <name>
O=C(N)C=1C(=O)[C@@]2(O)C(O)=C3C(=O)c4c(O)cccc4C(=C)[C@H]3[C@H](O)[C@H]2[C;amine]C=1O

>  <apo>
1

>  <freq>
1

>  <freq0>
0

>  <freq1>
1

>  <freqA>
0.99887151

>  <a_count>
46

$$$$

  MOE2015           2D

 20 20  0  0  1  0  0  0  0  0999 V2000
    2.1340    1.7060    0.0000 O   0  0  0  0  0  0  0  0  0  0  0  0
    3.3760    0.8640    0.0000 C   0  0  0  0  0  0  0  0  0  0  0  0
    4.7250    1.5180    0.0000 O   0  0  0  0  0  0  0  0  0  0  0  0
    3.2670   -0.6320    0.0000 C   0  0  2  0  0  0  0  0  0  0  0  0
    4.4140   -1.5990    0.0000 C   0  0  1  0  0  0  0  0  0  0  0  0
    5.8700   -1.2400    0.0000 O   0  0  0  0  0  0  0  0  0  0  0  0
    3.8490   -2.9890    0.0000 C   0  0  2  0  0  0  0  0  0  0  0  0
    4.6410   -4.2630    0.0000 C   0  0  1  0  0  0  0  0  0  0  0  0
    3.9340   -5.5850    0.0000 N   0  0  0  0  0  0  0  0  0  0  0  0
    6.1400   -4.2140    0.0000 C   0  0  0  0  0  0  0  0  0  0  0  0
    6.9320   -5.4880    0.0000 C   0  0  0  0  0  0  0  0  0  0  0  0
    8.4310   -5.4390    0.0000 C   0  0  0  0  0  0  0  0  0  0  0  0
    6.8470   -2.8910    0.0000 C   0  0  0  0  0  0  0  0  0  0  0  0
    8.3470   -2.8420    0.0000 C   0  0  0  0  0  0  0  0  0  0  0  0
    2.3530   -2.8800    0.0000 C   0  0  2  0  0  0  0  0  0  0  0  0
    1.3860   -4.0270    0.0000 N   0  0  0  0  0  0  0  0  0  0  0  0
   -0.0910   -3.7630    0.0000 C   0  0  0  0  0  0  0  0  0  0  0  0
   -0.6000   -2.3530    0.0000 N   0  0  0  0  0  0  0  0  0  0  0  0
   -1.0570   -4.9100    0.0000 N   0  0  0  0  0  0  0  0  0  0  0  0
    1.9930   -1.4240    0.0000 C   0  0  0  0  0  0  0  0  0  0  0  0
  1  2  2  0  0  0  0
  2  3  1  0  0  0  0
  4  2  1  6  0  0  0
  4  5  1  0  0  0  0
  4 20  1  0  0  0  0
  5  6  1  1  0  0  0
  5  7  1  0  0  0  0
  7  8  1  6  0  0  0
  7 15  1  0  0  0  0
  8  9  1  6  0  0  0
  8 10  1  0  0  0  0
 10 11  1  0  0  0  0
 10 13  1  0  0  0  0
 11 12  1  0  0  0  0
 13 14  1  0  0  0  0
 15 16  1  6  0  0  0
 15 20  1  0  0  0  0
 16 17  1  0  0  0  0
 17 18  2  0  0  0  0
 17 19  1  0  0  0  0
M  END
>  <name>
O=C(O)[C@@H]1[C@@H](O)[C@H]([C@@H]([N;amide])C(CC)CC)[C@H](NC(=N)N)C1

>  <apo>
1

>  <freq>
1

>  <freq0>
0

>  <freq1>
1

>  <freqA>
0.99887151

>  <a_count>
46

$$$$

  MOE2015           2D

 18 17  0  0  1  0  0  0  0  0999 V2000
    3.9210    0.7460    0.0000 O   0  0  0  0  0  0  0  0  0  0  0  0
    3.9210   -0.7540    0.0000 C   0  0  0  0  0  0  0  0  0  0  0  0
    2.6220   -1.5040    0.0000 C   0  0  1  0  0  0  0  0  0  0  0  0
    1.3230   -0.7540    0.0000 C   0  0  1  0  0  0  0  0  0  0  0  0
    1.3230    0.7460    0.0000 O   0  0  0  0  0  0  0  0  0  0  0  0
    0.0240   -1.5040    0.0000 C   0  0  1  0  0  0  0  0  0  0  0  0
    0.7740   -2.8030    0.0000 O   0  0  0  0  0  0  0  0  0  0  0  0
   -1.2750   -2.2540    0.0000 C   0  0  2  0  0  0  0  0  0  0  0  0
   -2.5740   -1.5040    0.0000 O   0  0  0  0  0  0  0  0  0  0  0  0
   -1.2750   -3.7540    0.0000 C   0  0  0  0  0  0  0  0  0  0  0  0
   -2.5740   -4.5040    0.0000 C   0  0  0  0  0  0  0  0  0  0  0  0
   -0.7260   -0.2050    0.0000 C   0  0  0  0  0  0  0  0  0  0  0  0
    2.6220   -3.0040    0.0000 C   0  0  0  0  0  0  0  0  0  0  0  0
    5.2200   -1.5040    0.0000 C   0  0  1  0  0  0  0  0  0  0  0  0
    6.5190   -0.7540    0.0000 C   0  0  0  0  0  0  0  0  0  0  0  0
    7.8180   -1.5040    0.0000 C   0  0  0  0  0  0  0  0  0  0  0  0
    9.1170   -0.7540    0.0000 C   0  0  0  0  0  0  0  0  0  0  0  0
    5.2200   -3.0040    0.0000 C   0  0  0  0  0  0  0  0  0  0  0  0
  1  2  2  0  0  0  0
  2  3  1  0  0  0  0
  2 14  1  0  0  0  0
  3  4  1  0  0  0  0
  3 13  1  6  0  0  0
  4  5  1  6  0  0  0
  6  4  1  1  0  0  0
  6  7  1  0  0  0  0
  6  8  1  0  0  0  0
  6 12  1  6  0  0  0
  8  9  1  1  0  0  0
  8 10  1  0  0  0  0
 10 11  1  0  0  0  0
 14 15  1  0  0  0  0
 14 18  1  1  0  0  0
 15 16  1  0  0  0  0
 16 17  1  0  0  0  0
M  END
>  <name>
O=C([C@@H]([C@@H](O)[C@@](O)([C@H]([O;ester])CC)C)C)[C@@H](C[C;ether]C)C

>  <apo>
2

>  <freq>
1

>  <freq0>
0

>  <freq1>
1

>  <freqA>
0.99887151

>  <a_count>
46

$$$$

  MOE2015           2D

 28 32  0  0  1  0  0  0  0  0999 V2000
   -0.7160   -3.8110    0.0000 O   0  0  0  0  0  0  0  0  0  0  0  0
    0.5450   -2.9990    0.0000 C   0  0  0  0  0  0  0  0  0  0  0  0
    1.8790   -3.6850    0.0000 C   0  0  2  0  0  0  0  0  0  0  0  0
    1.1750   -5.0100    0.0000 O   0  0  0  0  0  0  0  0  0  0  0  0
    2.6630   -4.9640    0.0000 C   0  0  0  0  0  0  0  0  0  0  0  0
    1.9480   -6.2830    0.0000 C   0  0  0  0  0  0  0  0  0  0  0  0
    3.1400   -2.8740    0.0000 C   0  0  0  0  0  0  0  0  0  0  0  0
    3.0680   -1.3750    0.0000 C   0  0  0  0  0  0  0  0  0  0  0  0
    4.3290   -0.5640    0.0000 C   0  0  0  0  0  0  0  0  0  0  0  0
    4.2570    0.9350    0.0000 O   0  0  0  0  0  0  0  0  0  0  0  0
    5.6630   -1.2500    0.0000 N   0  0  0  0  0  0  0  0  0  0  0  0
    5.7350   -2.7480    0.0000 C   0  0  0  0  0  0  0  0  0  0  0  0
    7.1830   -3.1420    0.0000 C   0  0  0  0  0  0  0  0  0  0  0  0
    7.8580   -4.4820    0.0000 N   0  0  0  0  0  0  0  0  0  0  0  0
    9.3560   -4.5660    0.0000 C   0  0  0  0  0  0  0  0  0  0  0  0
   10.1780   -3.3120    0.0000 C   0  0  0  0  0  0  0  0  0  0  0  0
   11.6760   -3.3960    0.0000 C   0  0  0  0  0  0  0  0  0  0  0  0
   12.4980   -2.1420    0.0000 C   0  0  0  0  0  0  0  0  0  0  0  0
   12.3510   -4.7360    0.0000 C   0  0  0  0  0  0  0  0  0  0  0  0
   13.8490   -4.8200    0.0000 O   0  0  0  0  0  0  0  0  0  0  0  0
   11.5290   -5.9900    0.0000 C   0  0  0  0  0  0  0  0  0  0  0  0
   10.0310   -5.9060    0.0000 C   0  0  0  0  0  0  0  0  0  0  0  0
    9.5020   -1.9720    0.0000 C   0  0  0  0  0  0  0  0  0  0  0  0
    8.0050   -1.8880    0.0000 C   0  0  0  0  0  0  0  0  0  0  0  0
    7.0660   -0.7180    0.0000 C   0  0  0  0  0  0  0  0  0  0  0  0
    4.4740   -3.5600    0.0000 C   0  0  0  0  0  0  0  0  0  0  0  0
    1.7340   -0.6890    0.0000 C   0  0  0  0  0  0  0  0  0  0  0  0
    0.4730   -1.5010    0.0000 O   0  0  0  0  0  0  0  0  0  0  0  0
  1  2  2  0  0  0  0
  2  3  1  0  0  0  0
  2 28  1  0  0  0  0
  3  4  1  6  0  0  0
  3  5  1  1  0  0  0
  3  7  1  0  0  0  0
  5  6  1  0  0  0  0
  7  8  2  0  0  0  0
  7 26  1  0  0  0  0
  8  9  1  0  0  0  0
  8 27  1  0  0  0  0
  9 10  2  0  0  0  0
  9 11  1  0  0  0  0
 11 12  1  0  0  0  0
 11 25  1  0  0  0  0
 12 13  1  0  0  0  0
 12 26  2  0  0  0  0
 13 14  2  0  0  0  0
 13 24  1  0  0  0  0
 14 15  1  0  0  0  0
 15 16  1  0  0  0  0
 15 22  2  0  0  0  0
 16 17  2  0  0  0  0
 16 23  1  0  0  0  0
 17 18  1  0  0  0  0
 17 19  1  0  0  0  0
 19 20  1  0  0  0  0
 19 21  2  0  0  0  0
 21 22  1  0  0  0  0
 23 24  2  0  0  0  0
 24 25  1  0  0  0  0
 27 28  1  0  0  0  0
M  END
>  <name>
O=C1[C@](O)(CC)C2=C(C(=O)N3C(c4nc5c(c([C;amine])c(O)cc5)cc4C3)=C2)CO1

>  <apo>
1

>  <freq>
1

>  <freq0>
0

>  <freq1>
1

>  <freqA>
0.99887151

>  <a_count>
46

$$$$

  MOE2015           2D

 22 25  0  0  0  0  0  0  0  0999 V2000
    2.2350   -2.1910    0.0000 O   0  0  0  0  0  0  0  0  0  0  0  0
    2.2240   -0.6910    0.0000 C   0  0  0  0  0  0  0  0  0  0  0  0
    3.7240   -0.6800    0.0000 C   0  0  0  0  0  0  0  0  0  0  0  0
    4.4830   -1.9740    0.0000 C   0  0  0  0  0  0  0  0  0  0  0  0
    5.9830   -1.9630    0.0000 C   0  0  0  0  0  0  0  0  0  0  0  0
    6.7240   -0.6590    0.0000 C   0  0  0  0  0  0  0  0  0  0  0  0
    5.9640    0.6350    0.0000 C   0  0  0  0  0  0  0  0  0  0  0  0
    4.4640    0.6240    0.0000 C   0  0  0  0  0  0  0  0  0  0  0  0
    2.2130    0.8090    0.0000 C   0  0  0  0  0  0  0  0  0  0  0  0
    0.9090    1.5490    0.0000 C   0  0  0  0  0  0  0  0  0  0  0  0
    0.8980    3.0490    0.0000 C   0  0  0  0  0  0  0  0  0  0  0  0
    2.1910    3.8090    0.0000 C   0  0  0  0  0  0  0  0  0  0  0  0
    3.4960    3.0680    0.0000 C   0  0  0  0  0  0  0  0  0  0  0  0
    3.5070    1.5680    0.0000 C   0  0  0  0  0  0  0  0  0  0  0  0
    0.7240   -0.7020    0.0000 C   0  0  0  0  0  0  0  0  0  0  0  0
    1.3290    0.6390    0.0000 C   0  0  0  0  0  0  0  0  0  0  0  0
   -0.0280    0.3570    0.0000 C   0  0  0  0  0  0  0  0  0  0  0  0
   -0.6080   -0.9700    0.0000 N   0  3  0  0  0  0  0  0  0  0  0  0
    0.0360   -2.3970    0.0000 C   0  0  0  0  0  0  0  0  0  0  0  0
    1.3830   -2.1950    0.0000 C   0  0  0  0  0  0  0  0  0  0  0  0
   -2.2080   -0.9140    0.0000 C   0  0  0  0  0  0  0  0  0  0  0  0
   -1.1320   -0.4680    0.0000 C   0  0  0  0  0  0  0  0  0  0  0  0
  1  2  1  0  0  0  0
  2  3  1  0  0  0  0
  2  9  1  0  0  0  0
  2 15  1  0  0  0  0
  3  4  1  0  0  0  0
  3  8  2  0  0  0  0
  4  5  2  0  0  0  0
  5  6  1  0  0  0  0
  6  7  2  0  0  0  0
  7  8  1  0  0  0  0
  9 10  1  0  0  0  0
  9 14  2  0  0  0  0
 10 11  2  0  0  0  0
 11 12  1  0  0  0  0
 12 13  2  0  0  0  0
 13 14  1  0  0  0  0
 15 16  1  0  0  0  0
 15 20  1  0  0  0  0
 15 22  1  0  0  0  0
 16 17  1  0  0  0  0
 17 18  1  0  0  0  0
 18 19  1  0  0  0  0
 18 21  1  0  0  0  0
 19 20  1  0  0  0  0
 21 22  1  0  0  0  0
M  CHG  1  18   1
M  END
>  <name>
OC(c1ccccc1)(c1ccccc1)C12CC[N+;quatN](CC1)CC2

>  <apo>
1

>  <freq>
1

>  <freq0>
0

>  <freq1>
1

>  <freqA>
0.99887151

>  <a_count>
46

$$$$

  MOE2015           2D

 24 26  0  0  1  0  0  0  0  0999 V2000
    9.2330    5.3690    0.0000 O   0  0  0  0  0  0  0  0  0  0  0  0
    7.9340    4.6190    0.0000 C   0  0  0  0  0  0  0  0  0  0  0  0
    7.9340    3.1190    0.0000 C   0  0  2  0  0  0  0  0  0  0  0  0
    9.2330    2.3690    0.0000 C   0  0  1  0  0  0  0  0  0  0  0  0
   10.5320    3.1190    0.0000 O   0  0  0  0  0  0  0  0  0  0  0  0
    9.2330    0.8690    0.0000 C   0  0  2  0  0  0  0  0  0  0  0  0
   10.5320    0.1190    0.0000 O   0  0  0  0  0  0  0  0  0  0  0  0
    7.9340    0.1190    0.0000 C   0  0  1  0  0  0  0  0  0  0  0  0
    7.9340   -1.3810    0.0000 O   0  0  0  0  0  0  0  0  0  0  0  0
    6.6350    0.8690    0.0000 C   0  0  2  0  0  0  0  0  0  0  0  0
    5.3360    0.1190    0.0000 C   0  0  0  0  0  0  0  0  0  0  0  0
    4.0370    0.8690    0.0000 C   0  0  0  0  0  0  0  0  0  0  0  0
    2.7380    0.1190    0.0000 C   0  0  0  0  0  0  0  0  0  0  0  0
    1.4390    0.8690    0.0000 C   0  0  0  0  0  0  0  0  0  0  0  0
    1.4390    2.3690    0.0000 C   0  0  0  0  0  0  0  0  0  0  0  0
    0.2250    3.2510    0.0000 S   0  0  0  0  0  0  0  0  0  0  0  0
    0.6890    4.6780    0.0000 C   0  0  0  0  0  0  0  0  0  0  0  0
    2.1890    4.6780    0.0000 C   0  0  0  0  0  0  0  0  0  0  0  0
    2.6520    3.2510    0.0000 C   0  0  0  0  0  0  0  0  0  0  0  0
    2.7380   -1.3810    0.0000 C   0  0  0  0  0  0  0  0  0  0  0  0
    1.4390   -2.1310    0.0000 C   0  0  0  0  0  0  0  0  0  0  0  0
    4.0370   -2.1310    0.0000 C   0  0  0  0  0  0  0  0  0  0  0  0
    5.3360   -1.3810    0.0000 C   0  0  0  0  0  0  0  0  0  0  0  0
    6.6350    2.3690    0.0000 O   0  0  0  0  0  0  0  0  0  0  0  0
  1  2  1  0  0  0  0
  3  2  1  6  0  0  0
  3  4  1  0  0  0  0
  3 24  1  0  0  0  0
  4  5  1  1  0  0  0
  4  6  1  0  0  0  0
  6  7  1  6  0  0  0
  6  8  1  0  0  0  0
  8  9  1  1  0  0  0
  8 10  1  0  0  0  0
 10 11  1  6  0  0  0
 10 24  1  0  0  0  0
 11 12  1  0  0  0  0
 11 23  2  0  0  0  0
 12 13  2  0  0  0  0
 13 14  1  0  0  0  0
 13 20  1  0  0  0  0
 14 15  1  0  0  0  0
 15 16  1  0  0  0  0
 15 19  2  0  0  0  0
 16 17  1  0  0  0  0
 17 18  2  0  0  0  0
 18 19  1  0  0  0  0
 20 21  1  0  0  0  0
 20 22  2  0  0  0  0
 22 23  1  0  0  0  0
M  END
>  <name>
OC[C@@H]1[C@@H](O)[C@H](O)[C@@H](O)[C@H](c2cc(Cc3s[c;biphenyl]cc3)c(C)cc2)O1

>  <apo>
1

>  <freq>
1

>  <freq0>
0

>  <freq1>
1

>  <freqA>
0.99887151

>  <a_count>
46

$$$$

  MOE2015           2D

 20 20  0  0  1  0  0  0  0  0999 V2000
    3.0840   -2.5510    0.0000 Au  0  5  0  0  0  0  0  0  0  0  0  0
    1.7850   -3.3010    0.0000 S   0  0  0  0  0  0  0  0  0  0  0  0
    0.4860   -2.5510    0.0000 C   0  0  1  0  0  0  0  0  0  0  0  0
   -0.8140   -3.3010    0.0000 C   0  0  2  0  0  0  0  0  0  0  0  0
   -0.8140   -4.8010    0.0000 O   0  0  0  0  0  0  0  0  0  0  0  0
   -2.1130   -2.5510    0.0000 C   0  0  1  0  0  0  0  0  0  0  0  0
   -3.4120   -3.3010    0.0000 O   0  0  0  0  0  0  0  0  0  0  0  0
   -2.1130   -1.0510    0.0000 C   0  0  1  0  0  0  0  0  0  0  0  0
   -3.4120   -0.3010    0.0000 O   0  0  0  0  0  0  0  0  0  0  0  0
   -0.8140   -0.3010    0.0000 C   0  0  1  0  0  0  0  0  0  0  0  0
   -0.8140    1.1990    0.0000 C   0  0  0  0  0  0  0  0  0  0  0  0
   -2.1130    1.9490    0.0000 O   0  0  0  0  0  0  0  0  0  0  0  0
    0.4860   -1.0510    0.0000 O   0  0  0  0  0  0  0  0  0  0  0  0
    4.3830   -1.8010    0.0000 P   0  3  0  0  0  0  0  0  0  0  0  0
    5.1330   -3.1000    0.0000 C   0  0  0  0  0  0  0  0  0  0  0  0
    4.3830   -4.3990    0.0000 C   0  0  0  0  0  0  0  0  0  0  0  0
    3.6330   -0.5020    0.0000 C   0  0  0  0  0  0  0  0  0  0  0  0
    4.3830    0.7970    0.0000 C   0  0  0  0  0  0  0  0  0  0  0  0
    5.6820   -1.0510    0.0000 C   0  0  0  0  0  0  0  0  0  0  0  0
    6.9810   -1.8010    0.0000 C   0  0  0  0  0  0  0  0  0  0  0  0
  1  2  1  0  0  0  0
  1 14  1  0  0  0  0
  3  2  1  1  0  0  0
  3  4  1  0  0  0  0
  3 13  1  0  0  0  0
  4  5  1  6  0  0  0
  4  6  1  0  0  0  0
  6  7  1  1  0  0  0
  6  8  1  0  0  0  0
  8  9  1  1  0  0  0
  8 10  1  0  0  0  0
 10 11  1  1  0  0  0
 10 13  1  0  0  0  0
 11 12  1  0  0  0  0
 14 15  1  0  0  0  0
 14 17  1  0  0  0  0
 14 19  1  0  0  0  0
 15 16  1  0  0  0  0
 17 18  1  0  0  0  0
 19 20  1  0  0  0  0
M  CHG  1   1  -1
M  CHG  1  14   1
M  END
>  <name>
[Au-](S[C@H]1[C@H]([O;ester])[C@@H]([O;ester])[C@@H]([O;ester])[C@@H](C[O;ester])O1)[P+](CC)(CC)CC

>  <apo>
4

>  <freq>
1

>  <freq0>
0

>  <freq1>
1

>  <freqA>
0.99887151

>  <a_count>
46

$$$$

  MOE2015           2D

 18 19  0  0  1  0  0  0  0  0999 V2000
    1.2080   -4.4020    0.0000 O   0  0  0  0  0  0  0  0  0  0  0  0
    1.9580   -3.1030    0.0000 C   0  0  1  0  0  0  0  0  0  0  0  0
    1.2080   -1.8040    0.0000 C   0  0  0  0  0  0  0  0  0  0  0  0
    1.9580   -0.5050    0.0000 C   0  0  1  0  0  0  0  0  0  0  0  0
    1.2080    0.7940    0.0000 C   0  0  0  0  0  0  0  0  0  0  0  0
   -0.2920    0.7940    0.0000 C   0  0  0  0  0  0  0  0  0  0  0  0
    3.4580   -0.5050    0.0000 O   0  0  0  0  0  0  0  0  0  0  0  0
    4.2080   -1.8040    0.0000 C   0  0  1  0  0  0  0  0  0  0  0  0
    4.9580   -0.5050    0.0000 O   0  0  0  0  0  0  0  0  0  0  0  0
    6.4580   -0.5050    0.0000 C   0  0  2  0  0  0  0  0  0  0  0  0
    7.2080    0.7940    0.0000 C   0  0  0  0  0  0  0  0  0  0  0  0
    6.4580    2.0930    0.0000 C   0  0  0  0  0  0  0  0  0  0  0  0
    8.7080    0.7940    0.0000 C   0  0  0  0  0  0  0  0  0  0  0  0
    7.2080   -1.8040    0.0000 C   0  0  1  0  0  0  0  0  0  0  0  0
    8.7080   -1.8040    0.0000 C   0  0  0  0  0  0  0  0  0  0  0  0
    6.4580   -3.1030    0.0000 C   0  0  0  0  0  0  0  0  0  0  0  0
    4.9580   -3.1030    0.0000 C   0  0  0  0  0  0  0  0  0  0  0  0
    3.4580   -3.1030    0.0000 C   0  0  0  0  0  0  0  0  0  0  0  0
  2  1  1  1  0  0  0
  2  3  1  0  0  0  0
  2 18  1  0  0  0  0
  3  4  1  0  0  0  0
  4  5  1  1  0  0  0
  4  7  1  0  0  0  0
  5  6  1  0  0  0  0
  7  8  1  0  0  0  0
  8  9  1  6  0  0  0
  8 17  1  1  0  0  0
  8 18  1  0  0  0  0
  9 10  1  0  0  0  0
 10 11  1  6  0  0  0
 10 14  1  0  0  0  0
 11 12  1  0  0  0  0
 11 13  1  0  0  0  0
 14 15  1  1  0  0  0
 14 16  1  0  0  0  0
 16 17  1  0  0  0  0
M  END
>  <name>
[O;ester][C@H]1C[C@@H](C[C;olefin])O[C@]2(O[C@H](C(C)C)[C@@H](C)CC2)C1

>  <apo>
2

>  <freq>
1

>  <freq0>
0

>  <freq1>
1

>  <freqA>
0.99887151

>  <a_count>
46

$$$$

  MOE2015           2D

 22 25  0  0  1  0  0  0  0  0999 V2000
   13.6340   -0.6140    0.0000 O   0  0  0  0  0  0  0  0  0  0  0  0
   12.1340   -0.6210    0.0000 C   0  0  0  0  0  0  0  0  0  0  0  0
   11.3780    0.6750    0.0000 C   0  0  0  0  0  0  0  0  0  0  0  0
    9.8780    0.6680    0.0000 C   0  0  0  0  0  0  0  0  0  0  0  0
    9.1340   -0.6350    0.0000 C   0  0  0  0  0  0  0  0  0  0  0  0
    7.6340   -0.6420    0.0000 C   0  0  2  0  0  0  0  0  0  0  0  0
    6.8780    0.6540    0.0000 C   0  0  2  0  0  0  0  0  0  0  0  0
    5.3780    0.6470    0.0000 C   0  0  1  0  0  0  0  0  0  0  0  0
    4.6340   -0.6560    0.0000 C   0  0  1  0  0  0  0  0  0  0  0  0
    3.7370   -1.8580    0.0000 C   0  0  0  0  0  0  0  0  0  0  0  0
    3.1660   -0.3510    0.0000 C   0  0  2  0  0  0  0  0  0  0  0  0
    2.7650   -1.7960    0.0000 O   0  0  0  0  0  0  0  0  0  0  0  0
    1.6990   -0.6630    0.0000 C   0  0  0  0  0  0  0  0  0  0  0  0
    0.2320   -0.9760    0.0000 C   0  0  0  0  0  0  0  0  0  0  0  0
    3.0020    1.1400    0.0000 C   0  0  0  0  0  0  0  0  0  0  0  0
    4.3690    1.7570    0.0000 C   0  0  0  0  0  0  0  0  0  0  0  0
    5.3910   -1.9510    0.0000 C   0  0  0  0  0  0  0  0  0  0  0  0
    6.8910   -1.9440    0.0000 C   0  0  0  0  0  0  0  0  0  0  0  0
    7.6220    1.9560    0.0000 C   0  0  0  0  0  0  0  0  0  0  0  0
    9.1220    1.9630    0.0000 C   0  0  0  0  0  0  0  0  0  0  0  0
    9.8900   -1.9300    0.0000 C   0  0  0  0  0  0  0  0  0  0  0  0
   11.3900   -1.9230    0.0000 C   0  0  0  0  0  0  0  0  0  0  0  0
  1  2  1  0  0  0  0
  2  3  1  0  0  0  0
  2 22  2  0  0  0  0
  3  4  2  0  0  0  0
  4  5  1  0  0  0  0
  4 20  1  0  0  0  0
  6  5  1  1  0  0  0
  5 21  2  0  0  0  0
  6  7  1  0  0  0  0
  6 18  1  0  0  0  0
  7  8  1  0  0  0  0
  7 19  1  6  0  0  0
  8  9  1  0  0  0  0
  8 16  1  1  0  0  0
  9 10  1  1  0  0  0
  9 11  1  0  0  0  0
  9 17  1  0  0  0  0
 11 12  1  1  0  0  0
 11 13  1  6  0  0  0
 11 15  1  0  0  0  0
 13 14  3  0  0  0  0
 15 16  1  0  0  0  0
 17 18  1  0  0  0  0
 19 20  1  0  0  0  0
 21 22  1  0  0  0  0
M  END
>  <name>
[O;ether]c1cc2c([C@@H]3[C@H]([C@H]4[C@@](C)([C@](O)(C#C)CC4)CC3)CC2)cc1

>  <apo>
1

>  <freq>
1

>  <freq0>
0

>  <freq1>
1

>  <freqA>
0.99887151

>  <a_count>
46

$$$$

  MOE2015           2D

 21 21  0  0  1  0  0  0  0  0999 V2000
   -4.2530    1.1400    0.0000 P   0  0  1  0  0  0  0  0  0  0  0  0
   -5.5520    1.8900    0.0000 O   0  0  0  0  0  0  0  0  0  0  0  0
   -5.0030   -0.1590    0.0000 O   0  0  0  0  0  0  0  0  0  0  0  0
   -6.5030   -0.1590    0.0000 C   0  0  2  0  0  0  0  0  0  0  0  0
   -7.2530    1.1400    0.0000 O   0  0  0  0  0  0  0  0  0  0  0  0
   -7.2530   -1.4580    0.0000 C   0  0  0  0  0  0  0  0  0  0  0  0
   -8.7530   -1.4580    0.0000 C   0  0  0  0  0  0  0  0  0  0  0  0
   -6.5030   -2.7580    0.0000 C   0  0  0  0  0  0  0  0  0  0  0  0
   -3.5030    2.4390    0.0000 C   0  0  0  0  0  0  0  0  0  0  0  0
   -4.2530    3.7380    0.0000 C   0  0  0  0  0  0  0  0  0  0  0  0
   -3.5030    5.0370    0.0000 O   0  0  0  0  0  0  0  0  0  0  0  0
   -2.9540    0.3900    0.0000 C   0  0  0  0  0  0  0  0  0  0  0  0
   -1.6550    1.1400    0.0000 C   0  0  0  0  0  0  0  0  0  0  0  0
   -0.3560    0.3900    0.0000 C   0  0  0  0  0  0  0  0  0  0  0  0
    0.9430    1.1400    0.0000 C   0  0  0  0  0  0  0  0  0  0  0  0
    2.2420    0.3900    0.0000 C   0  0  0  0  0  0  0  0  0  0  0  0
    2.2420   -1.1100    0.0000 C   0  0  0  0  0  0  0  0  0  0  0  0
    3.5410   -1.8600    0.0000 C   0  0  0  0  0  0  0  0  0  0  0  0
    4.8400   -1.1100    0.0000 C   0  0  0  0  0  0  0  0  0  0  0  0
    4.8400    0.3900    0.0000 C   0  0  0  0  0  0  0  0  0  0  0  0
    3.5410    1.1400    0.0000 C   0  0  0  0  0  0  0  0  0  0  0  0
  1  2  2  0  0  0  0
  1  3  1  0  0  0  0
  1  9  1  6  0  0  0
  1 12  1  1  0  0  0
  3  4  1  0  0  0  0
  4  5  1  1  0  0  0
  4  6  1  0  0  0  0
  6  7  1  0  0  0  0
  6  8  1  0  0  0  0
  9 10  1  0  0  0  0
 10 11  2  0  0  0  0
 12 13  1  0  0  0  0
 13 14  1  0  0  0  0
 14 15  1  0  0  0  0
 15 16  1  0  0  0  0
 16 17  1  0  0  0  0
 16 21  2  0  0  0  0
 17 18  2  0  0  0  0
 18 19  1  0  0  0  0
 19 20  2  0  0  0  0
 20 21  1  0  0  0  0
M  END
>  <name>
[P@@](=O)(O[C@H]([O;ester])C(C)C)(C[C;amide]=O)CCCCc1ccccc1

>  <apo>
2

>  <freq>
1

>  <freq0>
0

>  <freq1>
1

>  <freqA>
0.99887151

>  <a_count>
46

$$$$

  MOE2015           2D

 26 28  0  0  0  0  0  0  0  0999 V2000
   13.8210   -3.5540    0.0000 Cl  0  0  0  0  0  0  0  0  0  0  0  0
   12.5080   -2.8300    0.0000 C   0  0  0  0  0  0  0  0  0  0  0  0
   12.4770   -1.3300    0.0000 C   0  0  0  0  0  0  0  0  0  0  0  0
   13.7610   -0.5540    0.0000 O   0  0  0  0  0  0  0  0  0  0  0  0
   11.1630   -0.6070    0.0000 C   0  0  0  0  0  0  0  0  0  0  0  0
    9.8800   -1.3830    0.0000 C   0  0  0  0  0  0  0  0  0  0  0  0
    9.9100   -2.8830    0.0000 C   0  0  0  0  0  0  0  0  0  0  0  0
    8.6260   -3.6590    0.0000 C   0  0  0  0  0  0  0  0  0  0  0  0
    7.3120   -2.9360    0.0000 C   0  0  0  0  0  0  0  0  0  0  0  0
    7.1250   -1.4470    0.0000 C   0  0  0  0  0  0  0  0  0  0  0  0
    8.2200   -0.4210    0.0000 O   0  0  0  0  0  0  0  0  0  0  0  0
    5.6520   -1.1650    0.0000 N   0  0  0  0  0  0  0  0  0  0  0  0
    5.0140    0.1930    0.0000 C   0  0  0  0  0  0  0  0  0  0  0  0
    5.8710    1.4240    0.0000 C   0  0  0  0  0  0  0  0  0  0  0  0
    7.3660    1.2970    0.0000 C   0  0  0  0  0  0  0  0  0  0  0  0
    5.2340    2.7810    0.0000 C   0  0  0  0  0  0  0  0  0  0  0  0
    3.7390    2.9080    0.0000 C   0  0  0  0  0  0  0  0  0  0  0  0
    2.8820    1.6770    0.0000 C   0  0  0  0  0  0  0  0  0  0  0  0
    3.5200    0.3190    0.0000 C   0  0  0  0  0  0  0  0  0  0  0  0
    4.9290   -2.4790    0.0000 C   0  0  0  0  0  0  0  0  0  0  0  0
    3.4400   -2.6660    0.0000 N   0  0  0  0  0  0  0  0  0  0  0  0
    2.5340   -1.4710    0.0000 C   0  0  0  0  0  0  0  0  0  0  0  0
    1.0460   -1.6580    0.0000 C   0  0  0  0  0  0  0  0  0  0  0  0
    0.4640   -3.0400    0.0000 C   0  0  0  0  0  0  0  0  0  0  0  0
    5.9550   -3.5730    0.0000 S   0  0  0  0  0  0  0  0  0  0  0  0
   11.2240   -3.6060    0.0000 C   0  0  0  0  0  0  0  0  0  0  0  0
  1  2  1  0  0  0  0
  2  3  1  0  0  0  0
  2 26  2  0  0  0  0
  3  4  1  0  0  0  0
  3  5  2  0  0  0  0
  5  6  1  0  0  0  0
  6  7  2  0  0  0  0
  7  8  1  0  0  0  0
  7 26  1  0  0  0  0
  8  9  2  0  0  0  0
  9 10  1  0  0  0  0
  9 25  1  0  0  0  0
 10 11  2  0  0  0  0
 10 12  1  0  0  0  0
 12 13  1  0  0  0  0
 12 20  1  0  0  0  0
 13 14  2  0  0  0  0
 13 19  1  0  0  0  0
 14 15  1  0  0  0  0
 14 16  1  0  0  0  0
 16 17  2  0  0  0  0
 17 18  1  0  0  0  0
 18 19  2  0  0  0  0
 20 21  2  0  0  0  0
 20 25  1  0  0  0  0
 21 22  1  0  0  0  0
 22 23  1  0  0  0  0
 23 24  1  0  0  0  0
M  END
>  <name>
Clc1c([O;ether])ccc(/C=C/2\C(=O)N(c3c(C)cccc3)/C(=N\CCC)/S\2)c1

>  <apo>
1

>  <freq>
1

>  <freq0>
0

>  <freq1>
1

>  <freqA>
0.99887151

>  <a_count>
45

$$$$

  MOE2015           2D

 29 32  0  0  1  0  0  0  0  0999 V2000
   -1.3340    8.1620    0.0000 Cl  0  0  0  0  0  0  0  0  0  0  0  0
   -1.3340    6.6620    0.0000 C   0  0  0  0  0  0  0  0  0  0  0  0
   -0.0350    5.9120    0.0000 C   0  0  0  0  0  0  0  0  0  0  0  0
    1.2640    6.6620    0.0000 C   0  0  1  0  0  0  0  0  0  0  0  0
    1.2640    8.1620    0.0000 O   0  0  0  0  0  0  0  0  0  0  0  0
    2.5630    5.9120    0.0000 C   0  0  2  0  0  0  0  0  0  0  0  0
    2.5630    4.4120    0.0000 C   0  0  0  0  0  0  0  0  0  0  0  0
    1.2640    3.6620    0.0000 C   0  0  0  0  0  0  0  0  0  0  0  0
    1.2640    2.1620    0.0000 O   0  0  0  0  0  0  0  0  0  0  0  0
   -0.0350    4.4120    0.0000 C   0  0  0  0  0  0  0  0  0  0  0  0
   -1.3340    3.6620    0.0000 C   0  0  0  0  0  0  0  0  0  0  0  0
   -1.3340    2.1620    0.0000 O   0  0  0  0  0  0  0  0  0  0  0  0
   -2.6330    4.4120    0.0000 C   0  0  0  0  0  0  0  0  0  0  0  0
   -2.6330    5.9120    0.0000 C   0  0  0  0  0  0  0  0  0  0  0  0
    3.8620    3.6620    0.0000 C   0  0  0  0  0  0  0  0  0  0  0  0
    3.8620    2.1620    0.0000 O   0  0  0  0  0  0  0  0  0  0  0  0
    5.1610    4.4120    0.0000 C   0  0  2  0  0  0  0  0  0  0  0  0
    5.1610    2.9120    0.0000 O   0  0  0  0  0  0  0  0  0  0  0  0
    6.4600    3.6620    0.0000 C   0  0  0  0  0  0  0  0  0  0  0  0
    6.4600    2.1620    0.0000 O   0  0  0  0  0  0  0  0  0  0  0  0
    7.7590    4.4120    0.0000 C   0  0  0  0  0  0  0  0  0  0  0  0
    9.0580    3.6620    0.0000 C   0  0  0  0  0  0  0  0  0  0  0  0
    9.0580    2.1620    0.0000 O   0  0  0  0  0  0  0  0  0  0  0  0
   10.3570    4.4120    0.0000 N   0  0  0  0  0  0  0  0  0  0  0  0
    7.7590    5.9120    0.0000 C   0  0  0  0  0  0  0  0  0  0  0  0
    9.0580    6.6620    0.0000 O   0  0  0  0  0  0  0  0  0  0  0  0
    6.4600    6.6620    0.0000 C   0  0  0  0  0  0  0  0  0  0  0  0
    5.1610    5.9120    0.0000 C   0  0  2  0  0  0  0  0  0  0  0  0
    3.8620    6.6620    0.0000 C   0  0  0  0  0  0  0  0  0  0  0  0
  1  2  1  0  0  0  0
  2  3  1  0  0  0  0
  2 14  2  0  0  0  0
  3  4  1  0  0  0  0
  3 10  2  0  0  0  0
  4  5  1  1  0  0  0
  4  6  1  0  0  0  0
  6  7  1  1  0  0  0
  6 29  1  0  0  0  0
  7  8  1  0  0  0  0
  7 15  2  0  0  0  0
  8  9  2  0  0  0  0
  8 10  1  0  0  0  0
 10 11  1  0  0  0  0
 11 12  1  0  0  0  0
 11 13  2  0  0  0  0
 13 14  1  0  0  0  0
 15 16  1  0  0  0  0
 15 17  1  0  0  0  0
 17 18  1  6  0  0  0
 17 19  1  0  0  0  0
 17 28  1  0  0  0  0
 19 20  2  0  0  0  0
 19 21  1  0  0  0  0
 21 22  1  0  0  0  0
 21 25  2  0  0  0  0
 22 23  2  0  0  0  0
 22 24  1  0  0  0  0
 25 26  1  0  0  0  0
 25 27  1  0  0  0  0
 28 27  1  1  0  0  0
 28 29  1  0  0  0  0
M  END
>  <name>
Clc1c2[C@@H](O)[C@@H]3C(C(=O)c2c(O)cc1)=C(O)[C@]1(O)C(=O)C(C(=O)N)=C(O)[C;amine][C@@H]1C3

>  <apo>
1

>  <freq>
1

>  <freq0>
0

>  <freq1>
1

>  <freqA>
0.99887151

>  <a_count>
45

$$$$

  MOE2015           2D

 30 34  0  0  1  0  0  0  0  0999 V2000
   -1.3350    4.9810    0.0000 F   0  0  0  0  0  0  0  0  0  0  0  0
   -0.0360    5.7310    0.0000 C   0  0  0  0  0  0  0  0  0  0  0  0
    1.2630    4.9810    0.0000 C   0  0  0  0  0  0  0  0  0  0  0  0
    1.2630    3.4810    0.0000 N   0  0  0  0  0  0  0  0  0  0  0  0
    2.5630    2.7310    0.0000 C   0  0  0  0  0  0  0  0  0  0  0  0
    3.8620    3.4810    0.0000 N   0  0  0  0  0  0  0  0  0  0  0  0
    5.1610    2.7310    0.0000 C   0  0  0  0  0  0  0  0  0  0  0  0
    6.4600    3.4810    0.0000 N   0  0  0  0  0  0  0  0  0  0  0  0
    6.6160    4.9730    0.0000 C   0  0  0  0  0  0  0  0  0  0  0  0
    8.0840    5.2850    0.0000 C   0  0  1  0  0  0  0  0  0  0  0  0
    9.5840    5.2850    0.0000 C   0  0  0  0  0  0  0  0  0  0  0  0
   10.8830    6.0350    0.0000 N   0  0  0  0  0  0  0  0  0  0  0  0
    8.8340    3.9860    0.0000 C   0  0  1  0  0  0  0  0  0  0  0  0
    7.8300    2.8710    0.0000 C   0  0  0  0  0  0  0  0  0  0  0  0
    5.1610    1.2310    0.0000 C   0  0  0  0  0  0  0  0  0  0  0  0
    6.4600    0.4810    0.0000 F   0  0  0  0  0  0  0  0  0  0  0  0
    3.8620    0.4810    0.0000 C   0  0  0  0  0  0  0  0  0  0  0  0
    2.5630    1.2310    0.0000 C   0  0  0  0  0  0  0  0  0  0  0  0
    1.2630    0.4810    0.0000 C   0  0  0  0  0  0  0  0  0  0  0  0
    1.2640   -1.0190    0.0000 O   0  0  0  0  0  0  0  0  0  0  0  0
   -0.0360    1.2310    0.0000 C   0  0  0  0  0  0  0  0  0  0  0  0
   -1.3350    0.4810    0.0000 C   0  0  0  0  0  0  0  0  0  0  0  0
   -1.3350   -1.0190    0.0000 O   0  0  0  0  0  0  0  0  0  0  0  0
   -2.6340    1.2310    0.0000 O   0  0  0  0  0  0  0  0  0  0  0  0
   -0.0360    2.7310    0.0000 C   0  0  0  0  0  0  0  0  0  0  0  0
    2.5620    5.7310    0.0000 C   0  0  0  0  0  0  0  0  0  0  0  0
    2.5620    7.2310    0.0000 C   0  0  0  0  0  0  0  0  0  0  0  0
    1.2630    7.9810    0.0000 C   0  0  0  0  0  0  0  0  0  0  0  0
    1.2630    9.4810    0.0000 F   0  0  0  0  0  0  0  0  0  0  0  0
   -0.0360    7.2310    0.0000 C   0  0  0  0  0  0  0  0  0  0  0  0
  1  2  1  0  0  0  0
  2  3  1  0  0  0  0
  2 30  2  0  0  0  0
  3  4  1  0  0  0  0
  3 26  2  0  0  0  0
  4  5  1  0  0  0  0
  4 25  1  0  0  0  0
  5  6  2  0  0  0  0
  5 18  1  0  0  0  0
  6  7  1  0  0  0  0
  7  8  1  0  0  0  0
  7 15  2  0  0  0  0
  8  9  1  0  0  0  0
  8 14  1  0  0  0  0
 10  9  1  1  0  0  0
 10 11  1  0  0  0  0
 10 13  1  0  0  0  0
 11 12  1  0  0  0  0
 11 13  1  0  0  0  0
 13 14  1  1  0  0  0
 15 16  1  0  0  0  0
 15 17  1  0  0  0  0
 17 18  2  0  0  0  0
 18 19  1  0  0  0  0
 19 20  2  0  0  0  0
 19 21  1  0  0  0  0
 21 22  1  0  0  0  0
 21 25  2  0  0  0  0
 22 23  2  0  0  0  0
 22 24  1  0  0  0  0
 26 27  1  0  0  0  0
 27 28  2  0  0  0  0
 28 29  1  0  0  0  0
 28 30  1  0  0  0  0
M  END
>  <name>
Fc1c(N2c3nc(N4C[C@H]5C([N;amide])[C@H]5C4)c(F)cc3C(=O)C(C(=O)O)=C2)ccc(F)c1

>  <apo>
1

>  <freq>
1

>  <freq0>
0

>  <freq1>
1

>  <freqA>
0.99887151

>  <a_count>
45

$$$$

  MOE2015           2D

 17 17  0  0  1  0  0  0  0  0999 V2000
    5.8410   -5.8410    0.0000 O   0  0  0  0  0  0  0  0  0  0  0  0
    5.8410   -4.3410    0.0000 C   0  0  0  0  0  0  0  0  0  0  0  0
    7.1400   -3.5910    0.0000 C   0  0  0  0  0  0  0  0  0  0  0  0
    7.1400   -2.0910    0.0000 C   0  0  0  0  0  0  0  0  0  0  0  0
    8.4400   -4.3410    0.0000 C   0  0  0  0  0  0  0  0  0  0  0  0
    4.5420   -3.5910    0.0000 C   0  0  0  0  0  0  0  0  0  0  0  0
    3.2430   -4.3410    0.0000 C   0  0  2  0  0  0  0  0  0  0  0  0
    3.2430   -5.8410    0.0000 O   0  0  0  0  0  0  0  0  0  0  0  0
    1.9440   -3.5910    0.0000 C   0  0  1  0  0  0  0  0  0  0  0  0
    0.6450   -4.3410    0.0000 C   0  0  0  0  0  0  0  0  0  0  0  0
   -0.6540   -3.5910    0.0000 C   0  0  0  0  0  0  0  0  0  0  0  0
   -1.9530   -4.3410    0.0000 C   0  0  0  0  0  0  0  0  0  0  0  0
   -3.2520   -3.5910    0.0000 C   0  0  0  0  0  0  0  0  0  0  0  0
   -3.2520   -2.0910    0.0000 C   0  0  0  0  0  0  0  0  0  0  0  0
   -1.9530   -1.3410    0.0000 C   0  0  0  0  0  0  0  0  0  0  0  0
   -0.6540   -2.0910    0.0000 C   0  0  0  0  0  0  0  0  0  0  0  0
    1.9440   -2.0910    0.0000 C   0  0  0  0  0  0  0  0  0  0  0  0
  1  2  2  0  0  0  0
  2  3  1  0  0  0  0
  2  6  1  0  0  0  0
  3  4  1  0  0  0  0
  3  5  1  0  0  0  0
  6  7  1  0  0  0  0
  7  8  1  6  0  0  0
  7  9  1  0  0  0  0
  9 10  1  0  0  0  0
  9 17  1  1  0  0  0
 10 11  1  0  0  0  0
 11 12  1  0  0  0  0
 11 16  1  0  0  0  0
 12 13  1  0  0  0  0
 13 14  1  0  0  0  0
 14 15  1  0  0  0  0
 15 16  1  0  0  0  0
M  END
>  <name>
O=C(C([C;olefin])C)C[C@H]([O;ester])[C@@H](CC1C[C;ether][C;ether]CC1)C

>  <apo>
4

>  <freq>
1

>  <freq0>
0

>  <freq1>
1

>  <freqA>
0.99887151

>  <a_count>
45

$$$$

  MOE2015           2D

 22 25  0  0  1  0  0  0  0  0999 V2000
    5.2380    5.2770    0.0000 O   0  0  0  0  0  0  0  0  0  0  0  0
    5.2490    3.7770    0.0000 C   0  0  0  0  0  0  0  0  0  0  0  0
    6.5540    3.0370    0.0000 N   0  0  0  0  0  0  0  0  0  0  0  0
    7.8470    3.7970    0.0000 C   0  0  0  0  0  0  0  0  0  0  0  0
    9.1520    3.0560    0.0000 C   0  0  0  0  0  0  0  0  0  0  0  0
   10.4450    3.8160    0.0000 C   0  0  0  0  0  0  0  0  0  0  0  0
    3.9560    3.0180    0.0000 C   0  0  1  0  0  0  0  0  0  0  0  0
    3.9670    1.5180    0.0000 C   0  0  0  0  0  0  0  0  0  0  0  0
    2.6740    0.7580    0.0000 N   0  0  0  0  0  0  0  0  0  0  0  0
    1.3610    1.5320    0.0000 C   0  0  1  0  0  0  0  0  0  0  0  0
    1.3660    2.9940    0.0000 C   0  0  1  0  0  0  0  0  0  0  0  0
    0.1040    3.7390    0.0000 C   0  0  0  0  0  0  0  0  0  0  0  0
   -1.1690    3.0090    0.0000 C   0  0  0  0  0  0  0  0  0  0  0  0
   -2.4380    3.7470    0.0000 C   0  0  0  0  0  0  0  0  0  0  0  0
   -3.5150    2.6900    0.0000 N   0  0  0  0  0  0  0  0  0  0  0  0
   -2.5980    1.0650    0.0000 C   0  0  0  0  0  0  0  0  0  0  0  0
   -1.1780    1.5410    0.0000 C   0  0  0  0  0  0  0  0  0  0  0  0
    0.0870    0.8040    0.0000 C   0  0  0  0  0  0  0  0  0  0  0  0
   -2.4280    5.2190    0.0000 C   0  0  0  0  0  0  0  0  0  0  0  0
   -1.1500    5.9450    0.0000 C   0  0  0  0  0  0  0  0  0  0  0  0
    0.1090    5.2020    0.0000 C   0  0  0  0  0  0  0  0  0  0  0  0
    2.6510    3.7580    0.0000 C   0  0  0  0  0  0  0  0  0  0  0  0
  1  2  2  0  0  0  0
  2  3  1  0  0  0  0
  7  2  1  1  0  0  0
  3  4  1  0  0  0  0
  4  5  1  0  0  0  0
  5  6  1  0  0  0  0
  7  8  1  0  0  0  0
  7 22  1  0  0  0  0
  8  9  1  0  0  0  0
 10  9  1  6  0  0  0
 10 11  1  0  0  0  0
 10 18  1  0  0  0  0
 11 12  1  1  0  0  0
 11 22  1  0  0  0  0
 12 13  2  0  0  0  0
 12 21  1  0  0  0  0
 13 14  1  0  0  0  0
 13 17  1  0  0  0  0
 14 15  1  0  0  0  0
 14 19  2  0  0  0  0
 15 16  1  0  0  0  0
 16 17  2  0  0  0  0
 17 18  1  0  0  0  0
 19 20  1  0  0  0  0
 20 21  2  0  0  0  0
M  END
>  <name>
O=C([N;urea]CC[C;amine])[C@H]1C[N;amine][C@H]2[C@@H](c3c4c([nH]cc4C2)ccc3)C1

>  <apo>
3

>  <freq>
1

>  <freq0>
0

>  <freq1>
1

>  <freqA>
0.99887151

>  <a_count>
45

$$$$

  MOE2015           2D

 20 23  0  0  1  0  0  0  0  0999 V2000
    0.7600    0.9860    0.0000 O   0  0  0  0  0  0  0  0  0  0  0  0
    1.1420   -0.4650    0.0000 C   0  0  0  0  0  0  0  0  0  0  0  0
    2.5290   -1.0350    0.0000 N   0  0  0  0  0  0  0  0  0  0  0  0
    3.8060   -0.2470    0.0000 C   0  0  0  0  0  0  0  0  0  0  0  0
    5.1260   -0.9590    0.0000 C   0  0  1  0  0  0  0  0  0  0  0  0
    6.4030   -0.1710    0.0000 C   0  0  2  0  0  0  0  0  0  0  0  0
    6.3590    1.3290    0.0000 C   0  0  0  0  0  0  0  0  0  0  0  0
    7.7230   -0.8820    0.0000 C   0  0  0  0  0  0  0  0  0  0  0  0
    7.7670   -2.3820    0.0000 C   0  0  0  0  0  0  0  0  0  0  0  0
    6.4900   -3.1700    0.0000 C   0  0  0  0  0  0  0  0  0  0  0  0
    5.1700   -2.4580    0.0000 C   0  0  0  0  0  0  0  0  0  0  0  0
    2.4160   -2.5300    0.0000 C   0  0  0  0  0  0  0  0  0  0  0  0
    3.5020   -3.5650    0.0000 O   0  0  0  0  0  0  0  0  0  0  0  0
    0.8080   -2.7300    0.0000 C   0  0  2  0  0  0  0  0  0  0  0  0
    0.2380   -1.6130    0.0000 C   0  0  1  0  0  0  0  0  0  0  0  0
   -0.8040   -0.8270    0.0000 C   0  0  2  0  0  0  0  0  0  0  0  0
   -0.4950    0.5200    0.0000 C   0  0  0  0  0  0  0  0  0  0  0  0
   -0.4560   -2.0360    0.0000 C   0  0  1  0  0  0  0  0  0  0  0  0
   -1.6950   -2.6180    0.0000 C   0  0  0  0  0  0  0  0  0  0  0  0
   -2.1540   -1.5560    0.0000 C   0  0  0  0  0  0  0  0  0  0  0  0
  1  2  2  0  0  0  0
  2  3  1  0  0  0  0
 15  2  1  1  0  0  0
  3  4  1  0  0  0  0
  3 12  1  0  0  0  0
  5  4  1  1  0  0  0
  5  6  1  0  0  0  0
  5 11  1  0  0  0  0
  6  7  1  6  0  0  0
  6  8  1  0  0  0  0
  8  9  1  0  0  0  0
  9 10  1  0  0  0  0
 10 11  1  0  0  0  0
 12 13  2  0  0  0  0
 14 12  1  1  0  0  0
 14 15  1  0  0  0  0
 14 18  1  0  0  0  0
 15 16  1  0  0  0  0
 16 17  1  0  0  0  0
 16 20  1  1  0  0  0
 17 18  1  0  0  0  0
 18 19  1  6  0  0  0
 19 20  1  0  0  0  0
M  END
>  <name>
O=C1N(C[C@H]2[C@H]([C;amine])CCCC2)C(=O)[C@@H]2[C@H]1[C@@H]1C[C@H]2CC1

>  <apo>
1

>  <freq>
1

>  <freq0>
0

>  <freq1>
1

>  <freqA>
0.99887151

>  <a_count>
45

$$$$

  MOE2015           2D

 21 23  0  0  0  0  0  0  0  0999 V2000
    0.2360    2.0920    0.0000 O   0  0  0  0  0  0  0  0  0  0  0  0
    1.6980    1.7590    0.0000 C   0  0  0  0  0  0  0  0  0  0  0  0
    2.2880    0.3790    0.0000 N   0  0  0  0  0  0  0  0  0  0  0  0
    1.5190   -0.9080    0.0000 C   0  0  0  0  0  0  0  0  0  0  0  0
    0.0190   -0.8860    0.0000 C   0  0  0  0  0  0  0  0  0  0  0  0
   -0.7500   -2.1740    0.0000 C   0  0  0  0  0  0  0  0  0  0  0  0
   -2.2500   -2.1520    0.0000 C   0  0  0  0  0  0  0  0  0  0  0  0
   -2.9810   -0.8420    0.0000 C   0  0  0  0  0  0  0  0  0  0  0  0
   -2.2120    0.4460    0.0000 C   0  0  0  0  0  0  0  0  0  0  0  0
   -0.7120    0.4240    0.0000 C   0  0  0  0  0  0  0  0  0  0  0  0
    3.7820    0.5140    0.0000 C   0  0  0  0  0  0  0  0  0  0  0  0
    4.7690   -0.6150    0.0000 C   0  0  0  0  0  0  0  0  0  0  0  0
    6.2400   -0.3250    0.0000 C   0  0  0  0  0  0  0  0  0  0  0  0
    7.2280   -1.4550    0.0000 C   0  0  0  0  0  0  0  0  0  0  0  0
    8.6990   -1.1640    0.0000 C   0  0  0  0  0  0  0  0  0  0  0  0
    4.1150    1.9770    0.0000 N   0  0  0  0  0  0  0  0  0  0  0  0
    2.8270    2.7460    0.0000 C   0  0  0  0  0  0  0  0  0  0  0  0
    3.9570    3.7330    0.0000 C   0  0  0  0  0  0  0  0  0  0  0  0
    3.3670    5.1120    0.0000 C   0  0  0  0  0  0  0  0  0  0  0  0
    1.8730    4.9770    0.0000 C   0  0  0  0  0  0  0  0  0  0  0  0
    1.5400    3.5150    0.0000 C   0  0  0  0  0  0  0  0  0  0  0  0
  1  2  2  0  0  0  0
  2  3  1  0  0  0  0
  2 17  1  0  0  0  0
  3  4  1  0  0  0  0
  3 11  1  0  0  0  0
  4  5  1  0  0  0  0
  5  6  1  0  0  0  0
  5 10  2  0  0  0  0
  6  7  2  0  0  0  0
  7  8  1  0  0  0  0
  8  9  2  0  0  0  0
  9 10  1  0  0  0  0
 11 12  1  0  0  0  0
 11 16  2  0  0  0  0
 12 13  1  0  0  0  0
 13 14  1  0  0  0  0
 14 15  1  0  0  0  0
 16 17  1  0  0  0  0
 17 18  1  0  0  0  0
 17 21  1  0  0  0  0
 18 19  1  0  0  0  0
 19 20  1  0  0  0  0
 20 21  1  0  0  0  0
M  END
>  <name>
O=C1N(Cc2cc[c;biphenyl]cc2)C(CCCC)=NC21CCCC2

>  <apo>
1

>  <freq>
1

>  <freq0>
0

>  <freq1>
1

>  <freqA>
0.99887151

>  <a_count>
45

$$$$

  MOE2015           2D

 21 22  0  0  1  0  0  0  0  0999 V2000
    1.1670    2.4040    0.0000 O   0  0  0  0  0  0  0  0  0  0  0  0
    1.1670    0.9040    0.0000 C   0  0  2  0  0  0  0  0  0  0  0  0
   -0.1320    0.1540    0.0000 C   0  0  1  0  0  0  0  0  0  0  0  0
   -0.1320   -1.3460    0.0000 N   0  0  0  0  0  0  0  0  0  0  0  0
   -1.4310    0.9040    0.0000 C   0  0  0  0  0  0  0  0  0  0  0  0
   -2.7300    0.1540    0.0000 C   0  0  0  0  0  0  0  0  0  0  0  0
   -4.0290    0.9040    0.0000 C   0  0  0  0  0  0  0  0  0  0  0  0
   -5.3280    0.1540    0.0000 C   0  0  0  0  0  0  0  0  0  0  0  0
   -5.3280   -1.3460    0.0000 C   0  0  0  0  0  0  0  0  0  0  0  0
   -4.0290   -2.0960    0.0000 C   0  0  0  0  0  0  0  0  0  0  0  0
   -2.7300   -1.3460    0.0000 C   0  0  0  0  0  0  0  0  0  0  0  0
    2.4660    0.1540    0.0000 C   0  0  0  0  0  0  0  0  0  0  0  0
    3.7650    0.9040    0.0000 C   0  0  1  0  0  0  0  0  0  0  0  0
    3.7650    2.4040    0.0000 N   0  0  0  0  0  0  0  0  0  0  0  0
    5.0640    0.1540    0.0000 C   0  0  0  0  0  0  0  0  0  0  0  0
    6.3630    0.9040    0.0000 C   0  0  0  0  0  0  0  0  0  0  0  0
    6.3630    2.4040    0.0000 C   0  0  0  0  0  0  0  0  0  0  0  0
    7.6620    3.1540    0.0000 C   0  0  0  0  0  0  0  0  0  0  0  0
    8.9610    2.4040    0.0000 C   0  0  0  0  0  0  0  0  0  0  0  0
    8.9610    0.9040    0.0000 C   0  0  0  0  0  0  0  0  0  0  0  0
    7.6620    0.1540    0.0000 C   0  0  0  0  0  0  0  0  0  0  0  0
  2  1  1  1  0  0  0
  2  3  1  0  0  0  0
  2 12  1  0  0  0  0
  3  4  1  1  0  0  0
  3  5  1  0  0  0  0
  5  6  1  0  0  0  0
  6  7  1  0  0  0  0
  6 11  2  0  0  0  0
  7  8  2  0  0  0  0
  8  9  1  0  0  0  0
  9 10  2  0  0  0  0
 10 11  1  0  0  0  0
 12 13  1  0  0  0  0
 13 14  1  1  0  0  0
 13 15  1  0  0  0  0
 15 16  1  0  0  0  0
 16 17  1  0  0  0  0
 16 21  2  0  0  0  0
 17 18  2  0  0  0  0
 18 19  1  0  0  0  0
 19 20  2  0  0  0  0
 20 21  1  0  0  0  0
M  END
>  <name>
O[C@H]([C@@H]([N;amide])Cc1ccccc1)C[C@@H]([N;amide])Cc1ccccc1

>  <apo>
2

>  <freq>
1

>  <freq0>
0

>  <freq1>
1

>  <freqA>
0.99887151

>  <a_count>
45

$$$$

  MOE2015           2D

 27 28  0  0  1  0  0  0  0  0999 V2000
    3.6410    3.4830    0.0000 P   0  0  3  0  0  0  0  0  0  0  0  0
    3.5750    1.9840    0.0000 O   0  0  0  0  0  0  0  0  0  0  0  0
    5.1400    3.4160    0.0000 O   0  0  0  0  0  0  0  0  0  0  0  0
    5.8310    2.0850    0.0000 P   0  0  0  0  0  0  0  0  0  0  0  0
    7.1620    2.7770    0.0000 O   0  0  0  0  0  0  0  0  0  0  0  0
    6.5230    0.7540    0.0000 O   0  0  0  0  0  0  0  0  0  0  0  0
    8.0210    0.6870    0.0000 C   0  0  0  0  0  0  0  0  0  0  0  0
    8.7130   -0.6440    0.0000 C   0  0  0  0  0  0  0  0  0  0  0  0
    4.5000    1.3940    0.0000 O   0  5  0  0  0  0  0  0  0  0  0  0
    2.1430    3.5500    0.0000 O   0  0  0  0  0  0  0  0  0  0  0  0
    1.4510    4.8810    0.0000 C   0  0  0  0  0  0  0  0  0  0  0  0
   -0.0470    4.9470    0.0000 C   0  0  2  0  0  0  0  0  0  0  0  0
   -0.8740    6.1990    0.0000 C   0  0  1  0  0  0  0  0  0  0  0  0
   -0.3470    7.6040    0.0000 O   0  0  0  0  0  0  0  0  0  0  0  0
   -2.3200    5.7990    0.0000 C   0  0  1  0  0  0  0  0  0  0  0  0
   -3.4930    6.7340    0.0000 O   0  0  0  0  0  0  0  0  0  0  0  0
   -2.3860    4.3010    0.0000 C   0  0  2  0  0  0  0  0  0  0  0  0
   -3.6380    3.4740    0.0000 N   0  0  0  0  0  0  0  0  0  0  0  0
   -3.5480    1.9770    0.0000 C   0  0  0  0  0  0  0  0  0  0  0  0
   -2.2060    1.3060    0.0000 O   0  0  0  0  0  0  0  0  0  0  0  0
   -4.7990    1.1500    0.0000 N   0  0  0  0  0  0  0  0  0  0  0  0
   -6.1410    1.8200    0.0000 C   0  0  0  0  0  0  0  0  0  0  0  0
   -7.3930    0.9930    0.0000 N   0  0  0  0  0  0  0  0  0  0  0  0
   -6.2310    3.3180    0.0000 C   0  0  0  0  0  0  0  0  0  0  0  0
   -4.9800    4.1440    0.0000 C   0  0  0  0  0  0  0  0  0  0  0  0
   -0.9820    3.7740    0.0000 O   0  0  0  0  0  0  0  0  0  0  0  0
    3.7080    4.9810    0.0000 O   0  0  0  0  0  0  0  0  0  0  0  0
  1  2  2  0  0  0  0
  1  3  1  0  0  0  0
  1 10  1  0  0  0  0
  1 27  1  0  0  0  0
  3  4  1  0  0  0  0
  4  5  2  0  0  0  0
  4  6  1  0  0  0  0
  4  9  1  0  0  0  0
  6  7  1  0  0  0  0
  7  8  1  0  0  0  0
 10 11  1  0  0  0  0
 12 11  1  1  0  0  0
 12 13  1  0  0  0  0
 12 26  1  0  0  0  0
 13 14  1  6  0  0  0
 13 15  1  0  0  0  0
 15 16  1  6  0  0  0
 15 17  1  0  0  0  0
 17 18  1  1  0  0  0
 17 26  1  0  0  0  0
 18 19  1  0  0  0  0
 18 25  1  0  0  0  0
 19 20  2  0  0  0  0
 19 21  1  0  0  0  0
 21 22  2  0  0  0  0
 22 23  1  0  0  0  0
 22 24  1  0  0  0  0
 24 25  2  0  0  0  0
M  CHG  1   9  -1
M  END
>  <name>
P(=O)(OP(=O)(OC[C;quatN])[O-])(OC[C@@H]1[C@@H](O)[C@@H](O)[C@H](N2C(=O)N=C(N)C=C2)O1)O

>  <apo>
1

>  <freq>
1

>  <freq0>
0

>  <freq1>
1

>  <freqA>
0.99887151

>  <a_count>
45

$$$$

  MOE2015           2D

 27 29  0  0  1  0  0  0  0  0999 V2000
   -3.4840    0.3600    0.0000 S   0  0  0  0  0  0  0  0  0  0  0  0
   -2.7340    1.6590    0.0000 O   0  0  0  0  0  0  0  0  0  0  0  0
   -4.2340   -0.9390    0.0000 O   0  0  0  0  0  0  0  0  0  0  0  0
   -2.1850   -0.3900    0.0000 C   0  0  0  0  0  0  0  0  0  0  0  0
   -2.1850   -1.8900    0.0000 C   0  0  1  0  0  0  0  0  0  0  0  0
   -0.8860   -2.6400    0.0000 N   0  0  0  0  0  0  0  0  0  0  0  0
    0.4840   -2.0300    0.0000 C   0  0  0  0  0  0  0  0  0  0  0  0
    0.7960   -0.5620    0.0000 O   0  0  0  0  0  0  0  0  0  0  0  0
    1.4880   -3.1440    0.0000 C   0  0  0  0  0  0  0  0  0  0  0  0
    2.9880   -3.1440    0.0000 C   0  0  0  0  0  0  0  0  0  0  0  0
    3.7380   -1.8450    0.0000 N   0  0  0  0  0  0  0  0  0  0  0  0
    3.7380   -4.4430    0.0000 C   0  0  0  0  0  0  0  0  0  0  0  0
    2.9880   -5.7420    0.0000 C   0  0  0  0  0  0  0  0  0  0  0  0
    1.4880   -5.7420    0.0000 C   0  0  0  0  0  0  0  0  0  0  0  0
    0.7380   -4.4430    0.0000 C   0  0  0  0  0  0  0  0  0  0  0  0
   -0.7290   -4.1320    0.0000 C   0  0  0  0  0  0  0  0  0  0  0  0
   -1.8440   -5.1350    0.0000 O   0  0  0  0  0  0  0  0  0  0  0  0
   -3.4840   -2.6400    0.0000 C   0  0  0  0  0  0  0  0  0  0  0  0
   -4.7830   -1.8900    0.0000 C   0  0  0  0  0  0  0  0  0  0  0  0
   -6.0820   -2.6400    0.0000 C   0  0  0  0  0  0  0  0  0  0  0  0
   -7.3810   -1.8900    0.0000 O   0  0  0  0  0  0  0  0  0  0  0  0
   -6.0820   -4.1400    0.0000 C   0  0  0  0  0  0  0  0  0  0  0  0
   -7.3810   -4.8900    0.0000 O   0  0  0  0  0  0  0  0  0  0  0  0
   -7.3810   -6.3900    0.0000 C   0  0  0  0  0  0  0  0  0  0  0  0
   -4.7830   -4.8900    0.0000 C   0  0  0  0  0  0  0  0  0  0  0  0
   -3.4840   -4.1400    0.0000 C   0  0  0  0  0  0  0  0  0  0  0  0
   -4.7830    1.1100    0.0000 C   0  0  0  0  0  0  0  0  0  0  0  0
  1  2  2  0  0  0  0
  1  3  2  0  0  0  0
  1  4  1  0  0  0  0
  1 27  1  0  0  0  0
  5  4  1  1  0  0  0
  5  6  1  0  0  0  0
  5 18  1  0  0  0  0
  6  7  1  0  0  0  0
  6 16  1  0  0  0  0
  7  8  2  0  0  0  0
  7  9  1  0  0  0  0
  9 10  2  0  0  0  0
  9 15  1  0  0  0  0
 10 11  1  0  0  0  0
 10 12  1  0  0  0  0
 12 13  2  0  0  0  0
 13 14  1  0  0  0  0
 14 15  2  0  0  0  0
 15 16  1  0  0  0  0
 16 17  2  0  0  0  0
 18 19  1  0  0  0  0
 18 26  2  0  0  0  0
 19 20  2  0  0  0  0
 20 21  1  0  0  0  0
 20 22  1  0  0  0  0
 22 23  1  0  0  0  0
 22 25  2  0  0  0  0
 23 24  1  0  0  0  0
 25 26  1  0  0  0  0
M  END
>  <name>
S(=O)(=O)(C[C@@H](N1C(=O)c2c([N;amide])cccc2C1=O)c1cc([O;ether])c(OC)cc1)C

>  <apo>
2

>  <freq>
1

>  <freq0>
0

>  <freq1>
1

>  <freqA>
0.99887151

>  <a_count>
45

$$$$

  MOE2015           2D

 24 25  0  0  0  0  0  0  0  0999 V2000
    3.5880   -7.9840    0.0000 S   0  0  0  0  0  0  0  0  0  0  0  0
    4.5840   -6.8620    0.0000 O   0  0  0  0  0  0  0  0  0  0  0  0
    2.5920   -9.1060    0.0000 O   0  0  0  0  0  0  0  0  0  0  0  0
    4.7100   -8.9800    0.0000 O   0  0  0  0  0  0  0  0  0  0  0  0
    2.4670   -6.9880    0.0000 C   0  0  0  0  0  0  0  0  0  0  0  0
    1.0430   -7.4620    0.0000 C   0  0  0  0  0  0  0  0  0  0  0  0
   -0.0790   -6.4660    0.0000 C   0  0  0  0  0  0  0  0  0  0  0  0
   -1.5020   -6.9390    0.0000 C   0  0  0  0  0  0  0  0  0  0  0  0
   -2.6240   -5.9430    0.0000 N   0  3  0  0  0  0  0  0  0  0  0  0
   -2.4770   -4.4510    0.0000 C   0  0  0  0  0  0  0  0  0  0  0  0
   -1.1830   -3.6910    0.0000 C   0  0  0  0  0  0  0  0  0  0  0  0
   -3.8520   -3.8500    0.0000 C   0  0  0  0  0  0  0  0  0  0  0  0
   -3.3240   -2.4460    0.0000 C   0  0  0  0  0  0  0  0  0  0  0  0
   -4.8440   -2.7250    0.0000 C   0  0  0  0  0  0  0  0  0  0  0  0
   -4.8480   -4.9720    0.0000 C   0  0  0  0  0  0  0  0  0  0  0  0
   -4.0890   -6.2660    0.0000 C   0  0  0  0  0  0  0  0  0  0  0  0
   -4.8290   -7.5700    0.0000 C   0  0  0  0  0  0  0  0  0  0  0  0
   -6.3290   -7.5800    0.0000 C   0  0  0  0  0  0  0  0  0  0  0  0
   -7.0880   -6.2860    0.0000 C   0  0  0  0  0  0  0  0  0  0  0  0
   -8.5880   -6.2970    0.0000 S   0  0  0  0  0  0  0  0  0  0  0  0
   -8.5990   -4.7970    0.0000 O   0  0  0  0  0  0  0  0  0  0  0  0
   -8.5780   -7.7970    0.0000 O   0  0  0  0  0  0  0  0  0  0  0  0
  -10.0880   -6.3070    0.0000 O   0  5  0  0  0  0  0  0  0  0  0  0
   -6.3480   -4.9820    0.0000 C   0  0  0  0  0  0  0  0  0  0  0  0
  1  2  2  0  0  0  0
  1  3  2  0  0  0  0
  1  4  1  0  0  0  0
  1  5  1  0  0  0  0
  5  6  1  0  0  0  0
  6  7  1  0  0  0  0
  7  8  1  0  0  0  0
  8  9  1  0  0  0  0
  9 10  2  0  0  0  0
  9 16  1  0  0  0  0
 10 11  1  0  0  0  0
 10 12  1  0  0  0  0
 12 13  1  0  0  0  0
 12 14  1  0  0  0  0
 12 15  1  0  0  0  0
 15 16  1  0  0  0  0
 15 24  2  0  0  0  0
 16 17  2  0  0  0  0
 17 18  1  0  0  0  0
 18 19  2  0  0  0  0
 19 20  1  0  0  0  0
 19 24  1  0  0  0  0
 20 21  2  0  0  0  0
 20 22  2  0  0  0  0
 20 23  1  0  0  0  0
M  CHG  1   9   1
M  CHG  1  23  -1
M  END
>  <name>
S(=O)(=O)(O)CCCC[N+]1=C([C;olefin])C(C)(C)c2c1ccc(S(=O)(=O)[O-])c2

>  <apo>
1

>  <freq>
1

>  <freq0>
0

>  <freq1>
1

>  <freqA>
0.99887151

>  <a_count>
45

$$$$

  MOE2015           2D

 27 29  0  0  0  0  0  0  0  0999 V2000
   13.7470    1.1280    0.0000 F   0  0  0  0  0  0  0  0  0  0  0  0
   12.4480    1.8780    0.0000 C   0  0  0  0  0  0  0  0  0  0  0  0
   13.1980    3.1770    0.0000 F   0  0  0  0  0  0  0  0  0  0  0  0
   11.6980    0.5790    0.0000 F   0  0  0  0  0  0  0  0  0  0  0  0
   11.1490    2.6280    0.0000 C   0  0  0  0  0  0  0  0  0  0  0  0
    9.8500    1.8780    0.0000 C   0  0  0  0  0  0  0  0  0  0  0  0
    8.5500    2.6280    0.0000 C   0  0  0  0  0  0  0  0  0  0  0  0
    7.2510    1.8780    0.0000 O   0  0  0  0  0  0  0  0  0  0  0  0
    5.9520    2.6280    0.0000 C   0  0  0  0  0  0  0  0  0  0  0  0
    5.9520    4.1280    0.0000 C   0  0  0  0  0  0  0  0  0  0  0  0
    7.2510    4.8780    0.0000 O   0  0  0  0  0  0  0  0  0  0  0  0
    7.2510    6.3780    0.0000 C   0  0  0  0  0  0  0  0  0  0  0  0
    4.6530    4.8780    0.0000 C   0  0  0  0  0  0  0  0  0  0  0  0
    3.3540    4.1280    0.0000 C   0  0  0  0  0  0  0  0  0  0  0  0
    2.0550    4.8780    0.0000 N   0  0  0  0  0  0  0  0  0  0  0  0
    3.3540    2.6280    0.0000 C   0  0  0  0  0  0  0  0  0  0  0  0
    2.0550    1.8780    0.0000 N   0  0  0  0  0  0  0  0  0  0  0  0
    2.0550    0.3780    0.0000 C   0  0  0  0  0  0  0  0  0  0  0  0
    0.7560   -0.3720    0.0000 O   0  0  0  0  0  0  0  0  0  0  0  0
    0.7560   -1.8720    0.0000 C   0  0  0  0  0  0  0  0  0  0  0  0
    3.3540   -0.3720    0.0000 C   0  0  0  0  0  0  0  0  0  0  0  0
    4.6530    0.3780    0.0000 C   0  0  0  0  0  0  0  0  0  0  0  0
    5.9520   -0.3720    0.0000 C   0  0  0  0  0  0  0  0  0  0  0  0
    4.6530    1.8780    0.0000 C   0  0  0  0  0  0  0  0  0  0  0  0
    8.5500    4.1280    0.0000 C   0  0  0  0  0  0  0  0  0  0  0  0
    9.8500    4.8780    0.0000 C   0  0  0  0  0  0  0  0  0  0  0  0
   11.1490    4.1280    0.0000 C   0  0  0  0  0  0  0  0  0  0  0  0
  1  2  1  0  0  0  0
  2  3  1  0  0  0  0
  2  4  1  0  0  0  0
  2  5  1  0  0  0  0
  5  6  1  0  0  0  0
  5 27  2  0  0  0  0
  6  7  2  0  0  0  0
  7  8  1  0  0  0  0
  7 25  1  0  0  0  0
  8  9  1  0  0  0  0
  9 10  1  0  0  0  0
  9 24  2  0  0  0  0
 10 11  1  0  0  0  0
 10 13  2  0  0  0  0
 11 12  1  0  0  0  0
 13 14  1  0  0  0  0
 14 15  1  0  0  0  0
 14 16  2  0  0  0  0
 16 17  1  0  0  0  0
 16 24  1  0  0  0  0
 17 18  2  0  0  0  0
 18 19  1  0  0  0  0
 18 21  1  0  0  0  0
 19 20  1  0  0  0  0
 21 22  2  0  0  0  0
 22 23  1  0  0  0  0
 22 24  1  0  0  0  0
 25 26  2  0  0  0  0
 26 27  1  0  0  0  0
M  END
>  <name>
FC(F)(F)c1cc(Oc2c(OC)cc([N;amine])c3nc(OC)cc(C)c23)ccc1

>  <apo>
1

>  <freq>
1

>  <freq0>
0

>  <freq1>
1

>  <freqA>
0.99887151

>  <a_count>
44

$$$$

  MOE2015           2D

 19 19  0  0  1  0  0  0  0  0999 V2000
   -3.3880   -3.3880    0.0000 I   0  0  0  0  0  0  0  0  0  0  0  0
   -3.3880   -4.8880    0.0000 C   0  0  0  0  0  0  0  0  0  0  0  0
   -2.0890   -5.6380    0.0000 C   0  0  0  0  0  0  0  0  0  0  0  0
   -0.7900   -4.8880    0.0000 C   0  0  3  0  0  0  0  0  0  0  0  0
    0.5090   -5.6380    0.0000 C   0  0  0  0  0  0  0  0  0  0  0  0
    1.8080   -4.8880    0.0000 C   0  0  0  0  0  0  0  0  0  0  0  0
    3.1070   -5.6380    0.0000 C   0  0  0  0  0  0  0  0  0  0  0  0
    4.4060   -4.8880    0.0000 C   0  0  0  0  0  0  0  0  0  0  0  0
    5.7050   -5.6380    0.0000 C   0  0  0  0  0  0  0  0  0  0  0  0
    7.0040   -4.8880    0.0000 C   0  0  0  0  0  0  0  0  0  0  0  0
    8.3030   -5.6380    0.0000 C   0  0  0  0  0  0  0  0  0  0  0  0
    9.6020   -4.8880    0.0000 C   0  0  0  0  0  0  0  0  0  0  0  0
   10.9010   -5.6380    0.0000 C   0  0  0  0  0  0  0  0  0  0  0  0
   12.2000   -4.8880    0.0000 O   0  0  0  0  0  0  0  0  0  0  0  0
   -0.7900   -3.3880    0.0000 C   0  0  0  0  0  0  0  0  0  0  0  0
   -2.0890   -7.1380    0.0000 C   0  0  0  0  0  0  0  0  0  0  0  0
   -3.3880   -7.8880    0.0000 C   0  0  0  0  0  0  0  0  0  0  0  0
   -4.6870   -7.1380    0.0000 C   0  0  0  0  0  0  0  0  0  0  0  0
   -4.6870   -5.6380    0.0000 C   0  0  0  0  0  0  0  0  0  0  0  0
  1  2  1  0  0  0  0
  2  3  1  0  0  0  0
  2 19  2  0  0  0  0
  3  4  1  0  0  0  0
  3 16  2  0  0  0  0
  4  5  1  0  0  0  0
  4 15  1  0  0  0  0
  5  6  1  0  0  0  0
  6  7  1  0  0  0  0
  7  8  1  0  0  0  0
  8  9  1  0  0  0  0
  9 10  1  0  0  0  0
 10 11  1  0  0  0  0
 11 12  1  0  0  0  0
 12 13  1  0  0  0  0
 13 14  2  0  0  0  0
 16 17  1  0  0  0  0
 17 18  2  0  0  0  0
 18 19  1  0  0  0  0
M  END
>  <name>
Ic1c(C(CCCCCCCC[C;ester]=O)C)cccc1

>  <apo>
1

>  <freq>
1

>  <freq0>
0

>  <freq1>
1

>  <freqA>
0.99887151

>  <a_count>
44

$$$$

  MOE2015           2D

 32 33  0  0  0  0  0  0  0  0999 V2000
   -4.0980   -1.0980    0.0000 I   0  0  0  0  0  0  0  0  0  0  0  0
   -5.3970   -1.8480    0.0000 C   0  0  0  0  0  0  0  0  0  0  0  0
   -5.3970   -3.3480    0.0000 C   0  0  0  0  0  0  0  0  0  0  0  0
   -4.0980   -4.0980    0.0000 N   0  0  0  0  0  0  0  0  0  0  0  0
   -2.7990   -3.3480    0.0000 C   0  0  0  0  0  0  0  0  0  0  0  0
   -1.5000   -4.0980    0.0000 C   0  0  0  0  0  0  0  0  0  0  0  0
   -1.5000   -5.5980    0.0000 O   0  0  0  0  0  0  0  0  0  0  0  0
   -0.2010   -3.3480    0.0000 C   0  0  0  0  0  0  0  0  0  0  0  0
    1.0980   -4.0980    0.0000 N   0  0  0  0  0  0  0  0  0  0  0  0
    2.3970   -3.3480    0.0000 C   0  0  0  0  0  0  0  0  0  0  0  0
    3.6960   -4.0980    0.0000 C   0  0  0  0  0  0  0  0  0  0  0  0
    3.6960   -5.5980    0.0000 I   0  0  0  0  0  0  0  0  0  0  0  0
    4.9950   -3.3480    0.0000 C   0  0  0  0  0  0  0  0  0  0  0  0
    6.2940   -4.0980    0.0000 C   0  0  0  0  0  0  0  0  0  0  0  0
    7.5930   -3.3480    0.0000 O   0  0  0  0  0  0  0  0  0  0  0  0
    4.9950   -1.8480    0.0000 C   0  0  0  0  0  0  0  0  0  0  0  0
    6.2940   -1.0980    0.0000 I   0  0  0  0  0  0  0  0  0  0  0  0
    3.6960   -1.0980    0.0000 C   0  0  0  0  0  0  0  0  0  0  0  0
    3.6960    0.4020    0.0000 C   0  0  0  0  0  0  0  0  0  0  0  0
    4.9950    1.1520    0.0000 O   0  0  0  0  0  0  0  0  0  0  0  0
    2.3970   -1.8480    0.0000 C   0  0  0  0  0  0  0  0  0  0  0  0
    1.0980   -1.0980    0.0000 I   0  0  0  0  0  0  0  0  0  0  0  0
   -6.6960   -4.0980    0.0000 C   0  0  0  0  0  0  0  0  0  0  0  0
   -6.6960   -5.5980    0.0000 I   0  0  0  0  0  0  0  0  0  0  0  0
   -7.9950   -3.3480    0.0000 C   0  0  0  0  0  0  0  0  0  0  0  0
   -9.2940   -4.0980    0.0000 C   0  0  0  0  0  0  0  0  0  0  0  0
  -10.5930   -3.3480    0.0000 O   0  0  0  0  0  0  0  0  0  0  0  0
   -7.9950   -1.8480    0.0000 C   0  0  0  0  0  0  0  0  0  0  0  0
   -9.2940   -1.0980    0.0000 I   0  0  0  0  0  0  0  0  0  0  0  0
   -6.6960   -1.0980    0.0000 C   0  0  0  0  0  0  0  0  0  0  0  0
   -6.6960    0.4020    0.0000 C   0  0  0  0  0  0  0  0  0  0  0  0
   -7.9950    1.1520    0.0000 O   0  0  0  0  0  0  0  0  0  0  0  0
  1  2  1  0  0  0  0
  2  3  1  0  0  0  0
  2 30  2  0  0  0  0
  3  4  1  0  0  0  0
  3 23  2  0  0  0  0
  4  5  1  0  0  0  0
  5  6  1  0  0  0  0
  6  7  1  0  0  0  0
  6  8  1  0  0  0  0
  8  9  1  0  0  0  0
  9 10  1  0  0  0  0
 10 11  1  0  0  0  0
 10 21  2  0  0  0  0
 11 12  1  0  0  0  0
 11 13  2  0  0  0  0
 13 14  1  0  0  0  0
 13 16  1  0  0  0  0
 14 15  2  0  0  0  0
 16 17  1  0  0  0  0
 16 18  2  0  0  0  0
 18 19  1  0  0  0  0
 18 21  1  0  0  0  0
 19 20  2  0  0  0  0
 21 22  1  0  0  0  0
 23 24  1  0  0  0  0
 23 25  1  0  0  0  0
 25 26  1  0  0  0  0
 25 28  2  0  0  0  0
 26 27  2  0  0  0  0
 28 29  1  0  0  0  0
 28 30  1  0  0  0  0
 30 31  1  0  0  0  0
 31 32  2  0  0  0  0
M  END
>  <name>
Ic1c([N;amide]CC(O)C[N;amide]c2c(I)c([C;amide]=O)c(I)c([C;amide]=O)c2I)c(I)c([C;amide]=O)c(I)c1[C;amide]=O

>  <apo>
6

>  <freq>
1

>  <freq0>
0

>  <freq1>
1

>  <freqA>
0.99887151

>  <a_count>
44

$$$$

  MOE2015           2D

 25 27  0  0  0  0  0  0  0  0999 V2000
   17.9810    0.3780    0.0000 N   0  0  0  0  0  0  0  0  0  0  0  0
   16.6820    1.1280    0.0000 C   0  0  0  0  0  0  0  0  0  0  0  0
   15.3830    1.8780    0.0000 C   0  0  0  0  0  0  0  0  0  0  0  0
   15.3830    3.3780    0.0000 C   0  0  0  0  0  0  0  0  0  0  0  0
   14.0840    4.1280    0.0000 C   0  0  0  0  0  0  0  0  0  0  0  0
   12.7850    3.3780    0.0000 C   0  0  0  0  0  0  0  0  0  0  0  0
   11.4860    4.1280    0.0000 N   0  0  0  0  0  0  0  0  0  0  0  0
   10.1870    3.3780    0.0000 C   0  0  0  0  0  0  0  0  0  0  0  0
    8.8880    4.1280    0.0000 N   0  0  0  0  0  0  0  0  0  0  0  0
    7.5890    3.3780    0.0000 C   0  0  0  0  0  0  0  0  0  0  0  0
    6.2900    4.1280    0.0000 N   0  0  0  0  0  0  0  0  0  0  0  0
    4.9910    3.3780    0.0000 C   0  0  0  0  0  0  0  0  0  0  0  0
    4.9910    1.8780    0.0000 C   0  0  0  0  0  0  0  0  0  0  0  0
    6.2900    1.1280    0.0000 C   0  0  0  0  0  0  0  0  0  0  0  0
    3.6920    1.1280    0.0000 C   0  0  0  0  0  0  0  0  0  0  0  0
    2.3930    1.8780    0.0000 C   0  0  0  0  0  0  0  0  0  0  0  0
    1.0940    1.1280    0.0000 C   0  0  0  0  0  0  0  0  0  0  0  0
    2.3930    3.3780    0.0000 C   0  0  0  0  0  0  0  0  0  0  0  0
    3.6920    4.1280    0.0000 C   0  0  0  0  0  0  0  0  0  0  0  0
    3.6920    5.6280    0.0000 C   0  0  0  0  0  0  0  0  0  0  0  0
    7.5890    1.8780    0.0000 C   0  0  0  0  0  0  0  0  0  0  0  0
    8.8880    1.1280    0.0000 C   0  0  0  0  0  0  0  0  0  0  0  0
   10.1870    1.8780    0.0000 N   0  0  0  0  0  0  0  0  0  0  0  0
   12.7850    1.8780    0.0000 C   0  0  0  0  0  0  0  0  0  0  0  0
   14.0840    1.1280    0.0000 C   0  0  0  0  0  0  0  0  0  0  0  0
  1  2  3  0  0  0  0
  2  3  1  0  0  0  0
  3  4  1  0  0  0  0
  3 25  2  0  0  0  0
  4  5  2  0  0  0  0
  5  6  1  0  0  0  0
  6  7  1  0  0  0  0
  6 24  2  0  0  0  0
  7  8  1  0  0  0  0
  8  9  1  0  0  0  0
  8 23  2  0  0  0  0
  9 10  2  0  0  0  0
 10 11  1  0  0  0  0
 10 21  1  0  0  0  0
 11 12  1  0  0  0  0
 12 13  1  0  0  0  0
 12 19  2  0  0  0  0
 13 14  1  0  0  0  0
 13 15  2  0  0  0  0
 15 16  1  0  0  0  0
 16 17  1  0  0  0  0
 16 18  2  0  0  0  0
 18 19  1  0  0  0  0
 19 20  1  0  0  0  0
 21 22  2  0  0  0  0
 22 23  1  0  0  0  0
 24 25  1  0  0  0  0
M  END
>  <name>
N#Cc1ccc(Nc2nc(Nc3c(C)cc([C;olefin])cc3C)ccn2)cc1

>  <apo>
1

>  <freq>
1

>  <freq0>
0

>  <freq1>
1

>  <freqA>
0.99887151

>  <a_count>
44

$$$$

  MOE2015           2D

 23 27  0  0  1  0  0  0  0  0999 V2000
   -6.8740   -5.5860    0.0000 O   0  0  0  0  0  0  0  0  0  0  0  0
   -8.3350   -5.2450    0.0000 C   0  0  0  0  0  0  0  0  0  0  0  0
   -5.8800   -4.3940    0.0000 C   0  0  0  0  0  0  0  0  0  0  0  0
   -4.3820   -4.6430    0.0000 C   0  0  1  0  0  0  0  0  0  0  0  0
   -3.7280   -5.9890    0.0000 O   0  0  0  0  0  0  0  0  0  0  0  0
   -3.6880   -3.3220    0.0000 C   0  0  1  0  0  0  0  0  0  0  0  0
   -2.1910   -3.1740    0.0000 C   0  0  0  0  0  0  0  0  0  0  0  0
   -1.3830   -1.9110    0.0000 C   0  0  0  0  0  0  0  0  0  0  0  0
    0.1150   -1.9840    0.0000 C   0  0  0  0  0  0  0  0  0  0  0  0
    0.8010   -3.3180    0.0000 C   0  0  0  0  0  0  0  0  0  0  0  0
    2.2520   -3.7000    0.0000 O   0  0  0  0  0  0  0  0  0  0  0  0
    2.3380   -5.1970    0.0000 C   0  0  0  0  0  0  0  0  0  0  0  0
    0.9380   -5.7410    0.0000 O   0  0  0  0  0  0  0  0  0  0  0  0
   -0.0090   -4.5800    0.0000 C   0  0  0  0  0  0  0  0  0  0  0  0
   -1.5100   -4.5080    0.0000 C   0  0  0  0  0  0  0  0  0  0  0  0
   -1.8710   -0.4920    0.0000 C   0  0  0  0  0  0  0  0  0  0  0  0
   -3.2830    0.0160    0.0000 C   0  0  0  0  0  0  0  0  0  0  0  0
   -4.5600   -0.7800    0.0000 N   0  0  0  0  0  0  0  0  0  0  0  0
   -4.7320   -2.2630    0.0000 C   0  0  1  0  0  0  0  0  0  0  0  0
   -6.0120   -3.0680    0.0000 C   0  0  0  0  0  0  0  0  0  0  0  0
   -6.2480   -2.4170    0.0000 C   0  0  0  0  0  0  0  0  0  0  0  0
   -6.9400   -1.2930    0.0000 C   0  0  0  0  0  0  0  0  0  0  0  0
   -5.9200   -0.1680    0.0000 C   0  0  0  0  0  0  0  0  0  0  0  0
  1  2  1  0  0  0  0
  1  3  1  0  0  0  0
  3  4  1  0  0  0  0
  3 20  2  0  0  0  0
  4  5  1  6  0  0  0
  4  6  1  0  0  0  0
  6  7  1  6  0  0  0
  6 19  1  0  0  0  0
  7  8  2  0  0  0  0
  7 15  1  0  0  0  0
  8  9  1  0  0  0  0
  8 16  1  0  0  0  0
  9 10  2  0  0  0  0
 10 11  1  0  0  0  0
 10 14  1  0  0  0  0
 11 12  1  0  0  0  0
 12 13  1  0  0  0  0
 13 14  1  0  0  0  0
 14 15  2  0  0  0  0
 16 17  1  0  0  0  0
 17 18  1  0  0  0  0
 19 18  1  6  0  0  0
 18 23  1  0  0  0  0
 19 20  1  0  0  0  0
 19 21  1  1  0  0  0
 21 22  1  0  0  0  0
 22 23  1  0  0  0  0
M  END
>  <name>
O(C)C=1[C@@H]([O;ester])[C@H]2c3c(cc4OCOc4c3)CCN3[C@]2(C=1)CCC3

>  <apo>
1

>  <freq>
1

>  <freq0>
0

>  <freq1>
1

>  <freqA>
0.99887151

>  <a_count>
44

$$$$

  MOE2015           2D

 21 23  0  0  1  0  0  0  0  0999 V2000
   -7.3470   -4.2420    0.0000 O   0  0  0  0  0  0  0  0  0  0  0  0
   -8.0970   -5.5410    0.0000 C   0  0  0  0  0  0  0  0  0  0  0  0
   -5.8470   -4.2420    0.0000 C   0  0  0  0  0  0  0  0  0  0  0  0
   -5.0970   -2.9430    0.0000 C   0  0  0  0  0  0  0  0  0  0  0  0
   -5.8470   -1.6440    0.0000 O   0  0  0  0  0  0  0  0  0  0  0  0
   -5.0970   -0.3450    0.0000 C   0  0  0  0  0  0  0  0  0  0  0  0
   -3.5970   -2.9430    0.0000 C   0  0  0  0  0  0  0  0  0  0  0  0
   -2.8470   -4.2420    0.0000 C   0  0  0  0  0  0  0  0  0  0  0  0
   -3.5970   -5.5410    0.0000 C   0  0  0  0  0  0  0  0  0  0  0  0
   -2.5930   -6.6550    0.0000 C   0  0  0  0  0  0  0  0  0  0  0  0
   -2.9050   -8.1230    0.0000 O   0  0  0  0  0  0  0  0  0  0  0  0
   -1.2230   -6.0450    0.0000 C   0  0  3  0  0  0  0  0  0  0  0  0
    0.0760   -6.7950    0.0000 C   0  0  0  0  0  0  0  0  0  0  0  0
    1.3750   -6.0450    0.0000 C   0  0  0  0  0  0  0  0  0  0  0  0
    1.3750   -4.5450    0.0000 C   0  0  0  0  0  0  0  0  0  0  0  0
    2.6740   -3.7950    0.0000 C   0  0  0  0  0  0  0  0  0  0  0  0
    3.9730   -4.5450    0.0000 N   0  0  0  0  0  0  0  0  0  0  0  0
    3.9730   -6.0450    0.0000 C   0  0  0  0  0  0  0  0  0  0  0  0
    2.6740   -6.7950    0.0000 C   0  0  0  0  0  0  0  0  0  0  0  0
   -1.3800   -4.5540    0.0000 C   0  0  0  0  0  0  0  0  0  0  0  0
   -5.0970   -5.5410    0.0000 C   0  0  0  0  0  0  0  0  0  0  0  0
  1  2  1  0  0  0  0
  1  3  1  0  0  0  0
  3  4  1  0  0  0  0
  3 21  2  0  0  0  0
  4  5  1  0  0  0  0
  4  7  2  0  0  0  0
  5  6  1  0  0  0  0
  7  8  1  0  0  0  0
  8  9  2  0  0  0  0
  8 20  1  0  0  0  0
  9 10  1  0  0  0  0
  9 21  1  0  0  0  0
 10 11  2  0  0  0  0
 10 12  1  0  0  0  0
 12 13  1  0  0  0  0
 12 20  1  0  0  0  0
 13 14  1  0  0  0  0
 14 15  1  0  0  0  0
 14 19  1  0  0  0  0
 15 16  1  0  0  0  0
 16 17  1  0  0  0  0
 17 18  1  0  0  0  0
 18 19  1  0  0  0  0
M  END
>  <name>
O(C)c1c(OC)cc2c(C(=O)C(CC3CC[N;amine]CC3)C2)c1

>  <apo>
1

>  <freq>
1

>  <freq0>
0

>  <freq1>
1

>  <freqA>
0.99887151

>  <a_count>
44

$$$$

  MOE2015           2D

 26 28  0  0  1  0  0  0  0  0999 V2000
    1.6720    0.2060    0.0000 O   0  0  0  0  0  0  0  0  0  0  0  0
    0.2170   -0.1580    0.0000 C   0  0  0  0  0  0  0  0  0  0  0  0
   -0.8250    0.9210    0.0000 N   0  0  0  0  0  0  0  0  0  0  0  0
   -0.1960   -1.6000    0.0000 C   0  0  0  0  0  0  0  0  0  0  0  0
    0.6430   -2.8430    0.0000 C   0  0  1  0  0  0  0  0  0  0  0  0
    2.1350   -2.9990    0.0000 C   0  0  0  0  0  0  0  0  0  0  0  0
    3.0160   -1.7850    0.0000 C   0  0  0  0  0  0  0  0  0  0  0  0
    2.4060   -0.4150    0.0000 O   0  0  0  0  0  0  0  0  0  0  0  0
    3.2870    0.7990    0.0000 C   0  0  0  0  0  0  0  0  0  0  0  0
    4.5080   -1.9420    0.0000 C   0  0  0  0  0  0  0  0  0  0  0  0
    5.1190   -3.3120    0.0000 C   0  0  0  0  0  0  0  0  0  0  0  0
    6.6110   -3.4680    0.0000 C   0  0  0  0  0  0  0  0  0  0  0  0
    8.1030   -3.6240    0.0000 N   0  0  0  0  0  0  0  0  0  0  0  0
    4.2380   -4.5260    0.0000 C   0  0  0  0  0  0  0  0  0  0  0  0
    2.7460   -4.3690    0.0000 C   0  0  0  0  0  0  0  0  0  0  0  0
   -0.0140   -4.1910    0.0000 C   0  0  0  0  0  0  0  0  0  0  0  0
    0.8260   -5.4350    0.0000 C   0  0  0  0  0  0  0  0  0  0  0  0
    2.3220   -5.3300    0.0000 O   0  0  0  0  0  0  0  0  0  0  0  0
    0.1690   -6.7830    0.0000 N   0  0  0  0  0  0  0  0  0  0  0  0
   -1.3280   -6.8880    0.0000 C   0  0  0  0  0  0  0  0  0  0  0  0
   -2.1670   -5.6450    0.0000 C   0  0  0  0  0  0  0  0  0  0  0  0
   -3.6630   -5.7500    0.0000 C   0  0  0  0  0  0  0  0  0  0  0  0
   -1.5100   -4.2970    0.0000 C   0  0  0  0  0  0  0  0  0  0  0  0
   -2.3490   -3.0530    0.0000 N   0  0  0  0  0  0  0  0  0  0  0  0
   -1.6920   -1.7050    0.0000 C   0  0  0  0  0  0  0  0  0  0  0  0
   -2.5310   -0.4620    0.0000 C   0  0  0  0  0  0  0  0  0  0  0  0
  1  2  2  0  0  0  0
  2  3  1  0  0  0  0
  2  4  1  0  0  0  0
  4  5  1  0  0  0  0
  4 25  2  0  0  0  0
  5  6  1  1  0  0  0
  5 16  1  0  0  0  0
  6  7  2  0  0  0  0
  6 15  1  0  0  0  0
  7  8  1  0  0  0  0
  7 10  1  0  0  0  0
  8  9  1  0  0  0  0
 10 11  2  0  0  0  0
 11 12  1  0  0  0  0
 11 14  1  0  0  0  0
 12 13  3  0  0  0  0
 14 15  2  0  0  0  0
 16 17  2  0  0  0  0
 16 23  1  0  0  0  0
 17 18  1  0  0  0  0
 17 19  1  0  0  0  0
 19 20  2  0  0  0  0
 20 21  1  0  0  0  0
 21 22  1  0  0  0  0
 21 23  2  0  0  0  0
 23 24  1  0  0  0  0
 24 25  1  0  0  0  0
 25 26  1  0  0  0  0
M  END
>  <name>
O=C(N)C=1[C@@H](c2c(OC)cc(C#N)cc2)c2c([O;ether])ncc(C)c2NC=1C

>  <apo>
1

>  <freq>
1

>  <freq0>
0

>  <freq1>
1

>  <freqA>
0.99887151

>  <a_count>
44

$$$$

  MOE2015           2D

 23 25  0  0  1  0  0  0  0  0999 V2000
    2.1530    6.2430    0.0000 O   0  0  0  0  0  0  0  0  0  0  0  0
    2.1530    4.7430    0.0000 C   0  0  0  0  0  0  0  0  0  0  0  0
    0.8540    3.9930    0.0000 N   0  0  0  0  0  0  0  0  0  0  0  0
    3.4530    3.9930    0.0000 C   0  0  0  0  0  0  0  0  0  0  0  0
    3.4530    2.4930    0.0000 C   0  0  0  0  0  0  0  0  0  0  0  0
    2.1530    1.7430    0.0000 N   0  0  0  0  0  0  0  0  0  0  0  0
    1.9970    0.2510    0.0000 C   0  0  0  0  0  0  0  0  0  0  0  0
    3.4650   -0.0540    0.0000 C   0  0  0  0  0  0  0  0  0  0  0  0
    2.4040   -1.1930    0.0000 C   0  0  0  0  0  0  0  0  0  0  0  0
    0.5290   -0.0610    0.0000 C   0  0  0  0  0  0  0  0  0  0  0  0
   -0.2210    1.2380    0.0000 C   0  0  2  0  0  0  0  0  0  0  0  0
   -1.7120    1.3950    0.0000 C   0  0  0  0  0  0  0  0  0  0  0  0
    0.7830    2.3530    0.0000 C   0  0  0  0  0  0  0  0  0  0  0  0
    4.7520    1.7430    0.0000 N   0  0  0  0  0  0  0  0  0  0  0  0
    6.0510    2.4930    0.0000 C   0  0  0  0  0  0  0  0  0  0  0  0
    7.3500    1.7430    0.0000 N   0  0  0  0  0  0  0  0  0  0  0  0
    8.7200    2.3530    0.0000 N   0  0  0  0  0  0  0  0  0  0  0  0
    9.7240    1.2380    0.0000 C   0  0  0  0  0  0  0  0  0  0  0  0
   11.2150    1.3950    0.0000 O   0  0  0  0  0  0  0  0  0  0  0  0
    8.9740   -0.0610    0.0000 C   0  0  0  0  0  0  0  0  0  0  0  0
    7.5060    0.2510    0.0000 C   0  0  0  0  0  0  0  0  0  0  0  0
    6.0510    3.9930    0.0000 C   0  0  0  0  0  0  0  0  0  0  0  0
    4.7520    4.7430    0.0000 C   0  0  0  0  0  0  0  0  0  0  0  0
  1  2  2  0  0  0  0
  2  3  1  0  0  0  0
  2  4  1  0  0  0  0
  4  5  1  0  0  0  0
  4 23  2  0  0  0  0
  5  6  1  0  0  0  0
  5 14  2  0  0  0  0
  6  7  1  0  0  0  0
  6 13  1  0  0  0  0
  7  8  1  0  0  0  0
  7  9  1  0  0  0  0
  7 10  1  0  0  0  0
 10 11  1  0  0  0  0
 11 12  1  6  0  0  0
 11 13  1  0  0  0  0
 14 15  1  0  0  0  0
 15 16  1  0  0  0  0
 15 22  2  0  0  0  0
 16 17  1  0  0  0  0
 16 21  1  0  0  0  0
 17 18  2  0  0  0  0
 18 19  1  0  0  0  0
 18 20  1  0  0  0  0
 20 21  2  0  0  0  0
 22 23  1  0  0  0  0
M  END
>  <name>
O=C([N;so2amide])c1c(N2C(C)(C)C[C@H](C)C2)nc(-n2nc([O;ether])cc2)cc1

>  <apo>
2

>  <freq>
1

>  <freq0>
0

>  <freq1>
1

>  <freqA>
0.99887151

>  <a_count>
44

$$$$

  MOE2015           2D

 25 28  0  0  0  0  0  0  0  0999 V2000
    4.3500    7.5340    0.0000 O   0  0  0  0  0  0  0  0  0  0  0  0
    5.1000    6.2350    0.0000 C   0  0  0  0  0  0  0  0  0  0  0  0
    6.6000    6.2350    0.0000 N   0  0  0  0  0  0  0  0  0  0  0  0
    4.3500    4.9360    0.0000 C   0  0  0  0  0  0  0  0  0  0  0  0
    5.1000    3.6370    0.0000 C   0  0  0  0  0  0  0  0  0  0  0  0
    6.6000    3.6370    0.0000 O   0  0  0  0  0  0  0  0  0  0  0  0
    7.3500    2.3380    0.0000 C   0  0  0  0  0  0  0  0  0  0  0  0
    6.6000    1.0390    0.0000 C   0  0  0  0  0  0  0  0  0  0  0  0
    7.3500   -0.2600    0.0000 N   0  0  0  0  0  0  0  0  0  0  0  0
    8.8500   -0.2600    0.0000 C   0  0  0  0  0  0  0  0  0  0  0  0
    9.8540   -1.3750    0.0000 N   0  0  0  0  0  0  0  0  0  0  0  0
   11.2240   -0.7640    0.0000 C   0  0  0  0  0  0  0  0  0  0  0  0
   11.0670    0.7270    0.0000 C   0  0  0  0  0  0  0  0  0  0  0  0
    9.6000    1.0390    0.0000 C   0  0  0  0  0  0  0  0  0  0  0  0
    8.8500    2.3380    0.0000 C   0  0  0  0  0  0  0  0  0  0  0  0
    4.3500    2.3380    0.0000 C   0  0  0  0  0  0  0  0  0  0  0  0
    2.8500    2.3380    0.0000 C   0  0  0  0  0  0  0  0  0  0  0  0
    2.1000    1.0390    0.0000 N   0  0  0  0  0  0  0  0  0  0  0  0
    0.6000    1.0390    0.0000 C   0  0  0  0  0  0  0  0  0  0  0  0
   -0.1500   -0.2600    0.0000 C   0  0  0  0  0  0  0  0  0  0  0  0
    0.6000   -1.5590    0.0000 N   0  0  0  0  0  0  0  0  0  0  0  0
    2.1000   -1.5590    0.0000 C   0  0  0  0  0  0  0  0  0  0  0  0
    2.8500   -0.2600    0.0000 C   0  0  0  0  0  0  0  0  0  0  0  0
    2.1000    3.6370    0.0000 C   0  0  0  0  0  0  0  0  0  0  0  0
    2.8500    4.9360    0.0000 C   0  0  0  0  0  0  0  0  0  0  0  0
  1  2  2  0  0  0  0
  2  3  1  0  0  0  0
  2  4  1  0  0  0  0
  4  5  1  0  0  0  0
  4 25  2  0  0  0  0
  5  6  1  0  0  0  0
  5 16  2  0  0  0  0
  6  7  1  0  0  0  0
  7  8  1  0  0  0  0
  7 15  2  0  0  0  0
  8  9  2  0  0  0  0
  9 10  1  0  0  0  0
 10 11  1  0  0  0  0
 10 14  2  0  0  0  0
 11 12  1  0  0  0  0
 12 13  2  0  0  0  0
 13 14  1  0  0  0  0
 14 15  1  0  0  0  0
 16 17  1  0  0  0  0
 17 18  1  0  0  0  0
 17 24  2  0  0  0  0
 18 19  1  0  0  0  0
 18 23  1  0  0  0  0
 19 20  1  0  0  0  0
 20 21  1  0  0  0  0
 21 22  1  0  0  0  0
 22 23  1  0  0  0  0
 24 25  1  0  0  0  0
M  END
>  <name>
O=C([N;so2amide])c1c(Oc2cnc3[nH]ccc3c2)cc(N2CC[N;amine]CC2)cc1

>  <apo>
2

>  <freq>
1

>  <freq0>
0

>  <freq1>
1

>  <freqA>
0.99887151

>  <a_count>
44

$$$$

  MOE2015           2D

 24 27  0  0  0  0  0  0  0  0999 V2000
    0.0000    0.0000    0.0000 O   0  0  0  0  0  0  0  0  0  0  0  0
    1.5000    0.0000    0.0000 C   0  0  0  0  0  0  0  0  0  0  0  0
    2.2500    1.2990    0.0000 N   0  0  0  0  0  0  0  0  0  0  0  0
    3.7500    1.2990    0.0000 C   0  0  0  0  0  0  0  0  0  0  0  0
    4.5000    2.5980    0.0000 N   0  0  0  0  0  0  0  0  0  0  0  0
    3.7500    3.8970    0.0000 C   0  0  0  0  0  0  0  0  0  0  0  0
    6.0000    2.5980    0.0000 C   0  0  0  0  0  0  0  0  0  0  0  0
    6.7500    3.8970    0.0000 C   0  0  0  0  0  0  0  0  0  0  0  0
    8.2500    3.8970    0.0000 C   0  0  0  0  0  0  0  0  0  0  0  0
    9.0000    2.5980    0.0000 N   0  0  0  0  0  0  0  0  0  0  0  0
   10.5000    2.5980    0.0000 C   0  0  0  0  0  0  0  0  0  0  0  0
   11.3820    1.3850    0.0000 N   0  0  0  0  0  0  0  0  0  0  0  0
   12.8080    1.8480    0.0000 C   0  0  0  0  0  0  0  0  0  0  0  0
   12.8080    3.3480    0.0000 C   0  0  0  0  0  0  0  0  0  0  0  0
   11.3820    3.8120    0.0000 N   0  0  0  0  0  0  0  0  0  0  0  0
   14.1070    4.0980    0.0000 C   0  0  0  0  0  0  0  0  0  0  0  0
   15.4060    3.3480    0.0000 C   0  0  0  0  0  0  0  0  0  0  0  0
   15.4060    1.8480    0.0000 C   0  0  0  0  0  0  0  0  0  0  0  0
   14.1070    1.0980    0.0000 C   0  0  0  0  0  0  0  0  0  0  0  0
    8.2500    1.2990    0.0000 C   0  0  0  0  0  0  0  0  0  0  0  0
    6.7500    1.2990    0.0000 C   0  0  0  0  0  0  0  0  0  0  0  0
    4.5000    0.0000    0.0000 N   0  0  0  0  0  0  0  0  0  0  0  0
    3.7500   -1.2990    0.0000 C   0  0  0  0  0  0  0  0  0  0  0  0
    2.2500   -1.2990    0.0000 C   0  0  0  0  0  0  0  0  0  0  0  0
  1  2  2  0  0  0  0
  2  3  1  0  0  0  0
  2 24  1  0  0  0  0
  3  4  1  0  0  0  0
  4  5  1  0  0  0  0
  4 22  2  0  0  0  0
  5  6  1  0  0  0  0
  5  7  1  0  0  0  0
  7  8  1  0  0  0  0
  7 21  1  0  0  0  0
  8  9  1  0  0  0  0
  9 10  1  0  0  0  0
 10 11  1  0  0  0  0
 10 20  1  0  0  0  0
 11 12  1  0  0  0  0
 11 15  2  0  0  0  0
 12 13  1  0  0  0  0
 13 14  1  0  0  0  0
 13 19  2  0  0  0  0
 14 15  1  0  0  0  0
 14 16  2  0  0  0  0
 16 17  1  0  0  0  0
 17 18  2  0  0  0  0
 18 19  1  0  0  0  0
 20 21  1  0  0  0  0
 22 23  1  0  0  0  0
 23 24  2  0  0  0  0
M  END
>  <name>
O=C1NC(N(C)C2CCN(c3[nH;NaroC]c4c(n3)cccc4)CC2)=NC=C1

>  <apo>
1

>  <freq>
1

>  <freq0>
0

>  <freq1>
1

>  <freqA>
0.99887151

>  <a_count>
44

$$$$

  MOE2015           2D

 21 23  0  0  1  0  0  0  0  0999 V2000
   -1.3150   -4.9840    0.0000 O   0  0  0  0  0  0  0  0  0  0  0  0
   -0.0110   -5.7240    0.0000 C   0  0  0  0  0  0  0  0  0  0  0  0
    1.2830   -4.9650    0.0000 C   0  0  1  0  0  0  0  0  0  0  0  0
    2.6580   -5.5640    0.0000 C   0  0  0  0  0  0  0  0  0  0  0  0
    3.6980   -6.6440    0.0000 C   0  0  0  0  0  0  0  0  0  0  0  0
    2.1680   -6.9820    0.0000 C   0  0  0  0  0  0  0  0  0  0  0  0
    3.6530   -4.4420    0.0000 S   0  0  0  0  0  0  0  0  0  0  0  0
    2.8930   -3.1490    0.0000 C   0  0  2  0  0  0  0  0  0  0  0  0
    2.5700   -1.6840    0.0000 C   0  0  2  0  0  0  0  0  0  0  0  0
    3.3770   -0.4200    0.0000 N   0  0  0  0  0  0  0  0  0  0  0  0
    4.8760   -0.4870    0.0000 C   0  0  0  0  0  0  0  0  0  0  0  0
    5.5670   -1.8180    0.0000 N   0  0  0  0  0  0  0  0  0  0  0  0
    4.6670   -3.0180    0.0000 C   0  0  0  0  0  0  0  0  0  0  0  0
    5.0460   -4.4690    0.0000 C   0  0  0  0  0  0  0  0  0  0  0  0
    6.4170   -5.0790    0.0000 C   0  0  0  0  0  0  0  0  0  0  0  0
    7.7480   -4.3880    0.0000 C   0  0  0  0  0  0  0  0  0  0  0  0
    8.0370   -2.9160    0.0000 C   0  0  0  0  0  0  0  0  0  0  0  0
    7.0660   -1.7730    0.0000 C   0  0  0  0  0  0  0  0  0  0  0  0
    1.1050   -2.0070    0.0000 C   0  0  0  0  0  0  0  0  0  0  0  0
   -0.1590   -1.1990    0.0000 O   0  0  0  0  0  0  0  0  0  0  0  0
    1.4280   -3.4720    0.0000 N   0  0  0  0  0  0  0  0  0  0  0  0
  1  2  2  0  0  0  0
  3  2  1  6  0  0  0
  3  4  1  0  0  0  0
  3 21  1  0  0  0  0
  4  5  1  0  0  0  0
  4  6  1  0  0  0  0
  4  7  1  0  0  0  0
  8  7  1  1  0  0  0
  8  9  1  0  0  0  0
  8 21  1  0  0  0  0
  9 10  1  1  0  0  0
  9 19  1  0  0  0  0
 10 11  2  0  0  0  0
 11 12  1  0  0  0  0
 12 13  1  0  0  0  0
 12 18  1  0  0  0  0
 13 14  1  0  0  0  0
 14 15  1  0  0  0  0
 15 16  1  0  0  0  0
 16 17  1  0  0  0  0
 17 18  1  0  0  0  0
 19 20  2  0  0  0  0
 19 21  1  0  0  0  0
M  END
>  <name>
O=[C;ester][C@H]1C(C)(C)S[C@@H]2[C@H](/N=C\N3CCCCCC3)C(=O)N12

>  <apo>
1

>  <freq>
1

>  <freq0>
0

>  <freq1>
1

>  <freqA>
0.99887151

>  <a_count>
44

$$$$

  MOE2015           2D

 20 21  0  0  0  0  0  0  0  0999 V2000
    0.1200   -7.0050    0.0000 O   0  0  0  0  0  0  0  0  0  0  0  0
    0.1200   -5.5050    0.0000 C   0  0  0  0  0  0  0  0  0  0  0  0
    1.6200   -5.5050    0.0000 C   0  0  0  0  0  0  0  0  0  0  0  0
   -1.3800   -5.5050    0.0000 C   0  0  0  0  0  0  0  0  0  0  0  0
    0.1200   -4.0050    0.0000 C   0  0  0  0  0  0  0  0  0  0  0  0
    1.4190   -3.2550    0.0000 C   0  0  0  0  0  0  0  0  0  0  0  0
    2.7180   -4.0050    0.0000 C   0  0  0  0  0  0  0  0  0  0  0  0
    4.0170   -3.2550    0.0000 C   0  0  0  0  0  0  0  0  0  0  0  0
    5.3160   -4.0050    0.0000 C   0  0  0  0  0  0  0  0  0  0  0  0
    6.6150   -3.2550    0.0000 C   0  0  0  0  0  0  0  0  0  0  0  0
    7.9140   -4.0050    0.0000 C   0  0  0  0  0  0  0  0  0  0  0  0
    9.2130   -3.2550    0.0000 C   0  0  0  0  0  0  0  0  0  0  0  0
   10.5120   -4.0050    0.0000 C   0  0  0  0  0  0  0  0  0  0  0  0
    9.2130   -1.7550    0.0000 C   0  0  0  0  0  0  0  0  0  0  0  0
    7.9140   -1.0050    0.0000 C   0  0  0  0  0  0  0  0  0  0  0  0
    6.6150   -1.7550    0.0000 C   0  0  0  0  0  0  0  0  0  0  0  0
    1.4190   -1.7550    0.0000 C   0  0  0  0  0  0  0  0  0  0  0  0
    0.1200   -1.0050    0.0000 C   0  0  0  0  0  0  0  0  0  0  0  0
   -1.1790   -1.7550    0.0000 C   0  0  0  0  0  0  0  0  0  0  0  0
   -1.1790   -3.2550    0.0000 C   0  0  0  0  0  0  0  0  0  0  0  0
  1  2  1  0  0  0  0
  2  3  1  0  0  0  0
  2  4  1  0  0  0  0
  2  5  1  0  0  0  0
  5  6  1  0  0  0  0
  5 20  2  0  0  0  0
  6  7  1  0  0  0  0
  6 17  2  0  0  0  0
  7  8  1  0  0  0  0
  8  9  1  0  0  0  0
  9 10  1  0  0  0  0
 10 11  1  0  0  0  0
 10 16  2  0  0  0  0
 11 12  2  0  0  0  0
 12 13  1  0  0  0  0
 12 14  1  0  0  0  0
 14 15  2  0  0  0  0
 15 16  1  0  0  0  0
 17 18  1  0  0  0  0
 18 19  2  0  0  0  0
 19 20  1  0  0  0  0
M  END
>  <name>
OC(C)(C)c1c(CC[C;thioether]c2cc([C;olefin])ccc2)cccc1

>  <apo>
2

>  <freq>
1

>  <freq0>
0

>  <freq1>
1

>  <freqA>
0.99887151

>  <a_count>
44

$$$$

  MOE2015           2D

 24 27  0  0  1  0  0  0  0  0999 V2000
   12.8130   -0.5410    0.0000 O   0  0  0  0  0  0  0  0  0  0  0  0
   11.3130   -0.5410    0.0000 C   0  0  0  0  0  0  0  0  0  0  0  0
   10.5630   -1.8400    0.0000 C   0  0  0  0  0  0  0  0  0  0  0  0
    9.0630   -1.8400    0.0000 C   0  0  0  0  0  0  0  0  0  0  0  0
    8.3120   -0.5410    0.0000 C   0  0  0  0  0  0  0  0  0  0  0  0
    6.8130   -0.5410    0.0000 C   0  0  2  0  0  0  0  0  0  0  0  0
    6.0620   -1.8400    0.0000 C   0  0  1  0  0  0  0  0  0  0  0  0
    4.5620   -1.8400    0.0000 C   0  0  0  0  0  0  0  0  0  0  0  0
    3.8120   -3.1390    0.0000 C   0  0  0  0  0  0  0  0  0  0  0  0
    2.3120   -3.1390    0.0000 C   0  0  0  0  0  0  0  0  0  0  0  0
    1.5620   -1.8400    0.0000 C   0  0  0  0  0  0  0  0  0  0  0  0
    2.3120   -0.5410    0.0000 C   0  0  0  0  0  0  0  0  0  0  0  0
    3.8120   -0.5410    0.0000 C   0  0  0  0  0  0  0  0  0  0  0  0
    6.8120   -3.1390    0.0000 C   0  0  0  0  0  0  0  0  0  0  0  0
    8.3120   -3.1390    0.0000 C   0  0  0  0  0  0  0  0  0  0  0  0
    6.0620    0.7580    0.0000 C   0  0  0  0  0  0  0  0  0  0  0  0
    6.8120    2.0570    0.0000 C   0  0  0  0  0  0  0  0  0  0  0  0
    6.0620    3.3560    0.0000 C   0  0  0  0  0  0  0  0  0  0  0  0
    4.5620    3.3560    0.0000 C   0  0  0  0  0  0  0  0  0  0  0  0
    3.8120    4.6550    0.0000 O   0  0  0  0  0  0  0  0  0  0  0  0
    3.8120    2.0570    0.0000 C   0  0  0  0  0  0  0  0  0  0  0  0
    4.5620    0.7580    0.0000 C   0  0  0  0  0  0  0  0  0  0  0  0
    9.0620    0.7580    0.0000 C   0  0  0  0  0  0  0  0  0  0  0  0
   10.5620    0.7580    0.0000 C   0  0  0  0  0  0  0  0  0  0  0  0
  1  2  1  0  0  0  0
  2  3  1  0  0  0  0
  2 24  2  0  0  0  0
  3  4  2  0  0  0  0
  4  5  1  0  0  0  0
  4 15  1  0  0  0  0
  5  6  1  0  0  0  0
  5 23  2  0  0  0  0
  6  7  1  0  0  0  0
  6 16  1  6  0  0  0
  7  8  1  6  0  0  0
  7 14  1  0  0  0  0
  8  9  1  0  0  0  0
  8 13  2  0  0  0  0
  9 10  2  0  0  0  0
 10 11  1  0  0  0  0
 11 12  2  0  0  0  0
 12 13  1  0  0  0  0
 14 15  1  0  0  0  0
 16 17  1  0  0  0  0
 16 22  2  0  0  0  0
 17 18  2  0  0  0  0
 18 19  1  0  0  0  0
 19 20  1  0  0  0  0
 19 21  2  0  0  0  0
 21 22  1  0  0  0  0
 23 24  1  0  0  0  0
M  END
>  <name>
Oc1cc2c([C@H]([C@@H](c3ccccc3)CC2)c2ccc([O;ether])cc2)cc1

>  <apo>
1

>  <freq>
1

>  <freq0>
0

>  <freq1>
1

>  <freqA>
0.99887151

>  <a_count>
44

$$$$

  MOE2015           2D

 18 19  0  0  1  0  0  0  0  0999 V2000
    1.4580   -2.5260    0.0000 N   0  0  0  0  0  0  0  0  0  0  0  0
    2.2080   -1.2270    0.0000 C   0  0  1  0  0  0  0  0  0  0  0  0
    3.7080   -1.2270    0.0000 C   0  0  0  0  0  0  0  0  0  0  0  0
    4.4580   -2.5260    0.0000 C   0  0  0  0  0  0  0  0  0  0  0  0
    5.9580   -2.5260    0.0000 C   0  0  0  0  0  0  0  0  0  0  0  0
    3.7080   -3.8250    0.0000 C   0  0  0  0  0  0  0  0  0  0  0  0
    1.4580    0.0720    0.0000 C   0  0  0  0  0  0  0  0  0  0  0  0
   -0.0420    0.0720    0.0000 C   0  0  0  0  0  0  0  0  0  0  0  0
   -0.7920   -1.2270    0.0000 N   0  0  0  0  0  0  0  0  0  0  0  0
   -0.0420   -2.5260    0.0000 C   0  0  0  0  0  0  0  0  0  0  0  0
   -0.7920   -3.8250    0.0000 C   0  0  0  0  0  0  0  0  0  0  0  0
   -2.2920   -3.8250    0.0000 C   0  0  0  0  0  0  0  0  0  0  0  0
   -3.0420   -2.5260    0.0000 C   0  0  0  0  0  0  0  0  0  0  0  0
   -2.2920   -1.2270    0.0000 C   0  0  0  0  0  0  0  0  0  0  0  0
   -0.7920    1.3710    0.0000 C   0  0  0  0  0  0  0  0  0  0  0  0
   -0.0420    2.6700    0.0000 C   0  0  0  0  0  0  0  0  0  0  0  0
    1.4580    2.6700    0.0000 C   0  0  0  0  0  0  0  0  0  0  0  0
    2.2080    1.3710    0.0000 C   0  0  0  0  0  0  0  0  0  0  0  0
  2  1  1  6  0  0  0
  2  3  1  0  0  0  0
  2  7  1  0  0  0  0
  3  4  1  0  0  0  0
  4  5  1  0  0  0  0
  4  6  1  0  0  0  0
  7  8  2  0  0  0  0
  7 18  1  0  0  0  0
  8  9  1  0  0  0  0
  8 15  1  0  0  0  0
  9 10  1  0  0  0  0
  9 14  1  0  0  0  0
 10 11  1  0  0  0  0
 11 12  1  0  0  0  0
 12 13  1  0  0  0  0
 13 14  1  0  0  0  0
 15 16  2  0  0  0  0
 16 17  1  0  0  0  0
 17 18  2  0  0  0  0
M  END
>  <name>
[N;amide][C@@H](CC(C)C)c1c(N2CCCCC2)cccc1

>  <apo>
1

>  <freq>
1

>  <freq0>
0

>  <freq1>
1

>  <freqA>
0.99887151

>  <a_count>
44

$$$$

  MOE2015           2D

 20 23  0  0  1  0  0  0  0  0999 V2000
    8.9650   -2.0860    0.0000 O   0  0  0  0  0  0  0  0  0  0  0  0
    7.6190   -1.4240    0.0000 C   0  0  2  0  0  0  0  0  0  0  0  0
    7.4200    0.0310    0.0000 C   0  0  2  0  0  0  0  0  0  0  0  0
    8.6710    0.8570    0.0000 C   0  0  0  0  0  0  0  0  0  0  0  0
    6.1070    0.8160    0.0000 C   0  0  1  0  0  0  0  0  0  0  0  0
    4.7830    0.0870    0.0000 C   0  0  1  0  0  0  0  0  0  0  0  0
    4.0020   -1.2170    0.0000 O   0  0  0  0  0  0  0  0  0  0  0  0
    2.8200   -0.9580    0.0000 O   0  0  0  0  0  0  0  0  0  0  0  0
    2.3970   -2.3960    0.0000 C   0  0  1  0  0  0  0  0  0  0  0  0
    1.6270   -3.6830    0.0000 C   0  0  0  0  0  0  0  0  0  0  0  0
    3.9310   -2.5110    0.0000 O   0  0  0  0  0  0  0  0  0  0  0  0
    5.0100   -1.4660    0.0000 C   0  0  1  0  0  0  0  0  0  0  0  0
    6.2500   -2.2080    0.0000 O   0  0  0  0  0  0  0  0  0  0  0  0
    1.5700   -1.0980    0.0000 C   0  0  0  0  0  0  0  0  0  0  0  0
    2.0590    0.3000    0.0000 C   0  0  0  0  0  0  0  0  0  0  0  0
    3.4710    0.8730    0.0000 C   0  0  1  0  0  0  0  0  0  0  0  0
    3.4850    2.3850    0.0000 C   0  0  2  0  0  0  0  0  0  0  0  0
    2.1990    3.1570    0.0000 C   0  0  0  0  0  0  0  0  0  0  0  0
    4.8080    3.1090    0.0000 C   0  0  0  0  0  0  0  0  0  0  0  0
    6.1200    2.3240    0.0000 C   0  0  0  0  0  0  0  0  0  0  0  0
  2  1  1  1  0  0  0
  2  3  1  0  0  0  0
  2 13  1  0  0  0  0
  3  4  1  1  0  0  0
  3  5  1  0  0  0  0
  5  6  1  0  0  0  0
  5 20  1  1  0  0  0
  6  7  1  6  0  0  0
  6 12  1  0  0  0  0
  6 16  1  0  0  0  0
  7  8  1  0  0  0  0
  8  9  1  0  0  0  0
  9 10  1  6  0  0  0
  9 11  1  0  0  0  0
  9 14  1  0  0  0  0
 12 11  1  6  0  0  0
 12 13  1  0  0  0  0
 14 15  1  0  0  0  0
 16 15  1  1  0  0  0
 16 17  1  0  0  0  0
 17 18  1  6  0  0  0
 17 19  1  0  0  0  0
 19 20  1  0  0  0  0
M  END
>  <name>
[O;ester][C@@H]1[C@H](C)[C@H]2[C@@]34OO[C@@](C)(O[C@H]3O1)CC[C@H]4[C@H](C)CC2

>  <apo>
1

>  <freq>
1

>  <freq0>
0

>  <freq1>
1

>  <freqA>
0.99887151

>  <a_count>
44

$$$$

  MOE2015           2D

 20 23  0  0  1  0  0  0  0  0999 V2000
   -0.6370   -3.8570    0.0000 O   0  0  0  0  0  0  0  0  0  0  0  0
    0.4730   -2.8490    0.0000 C   0  0  2  0  0  0  0  0  0  0  0  0
    1.9420   -3.1550    0.0000 C   0  0  2  0  0  0  0  0  0  0  0  0
    1.0860   -4.3870    0.0000 C   0  0  0  0  0  0  0  0  0  0  0  0
    2.6870   -1.8530    0.0000 C   0  0  2  0  0  0  0  0  0  0  0  0
    4.1870   -1.8470    0.0000 C   0  0  1  0  0  0  0  0  0  0  0  0
    4.9420   -3.1430    0.0000 C   0  0  1  0  0  0  0  0  0  0  0  0
    6.4420   -3.1370    0.0000 C   0  0  0  0  0  0  0  0  0  0  0  0
    7.1870   -1.8350    0.0000 C   0  0  0  0  0  0  0  0  0  0  0  0
    8.6860   -1.8290    0.0000 C   0  0  0  0  0  0  0  0  0  0  0  0
    9.4420   -3.1250    0.0000 C   0  0  0  0  0  0  0  0  0  0  0  0
   10.9420   -3.1190    0.0000 O   0  0  0  0  0  0  0  0  0  0  0  0
    8.6970   -4.4270    0.0000 C   0  0  0  0  0  0  0  0  0  0  0  0
    7.1970   -4.4330    0.0000 C   0  0  0  0  0  0  0  0  0  0  0  0
    6.4310   -0.5390    0.0000 C   0  0  0  0  0  0  0  0  0  0  0  0
    4.9310   -0.5450    0.0000 C   0  0  0  0  0  0  0  0  0  0  0  0
    4.1970   -4.4450    0.0000 C   0  0  0  0  0  0  0  0  0  0  0  0
    2.6970   -4.4510    0.0000 C   0  0  0  0  0  0  0  0  0  0  0  0
    1.6780   -0.7420    0.0000 C   0  0  0  0  0  0  0  0  0  0  0  0
    0.3110   -1.3580    0.0000 C   0  0  0  0  0  0  0  0  0  0  0  0
  2  1  1  1  0  0  0
  2  3  1  0  0  0  0
  2 20  1  0  0  0  0
  3  4  1  1  0  0  0
  3  5  1  0  0  0  0
  3 18  1  0  0  0  0
  5  6  1  0  0  0  0
  5 19  1  1  0  0  0
  6  7  1  0  0  0  0
  6 16  1  6  0  0  0
  7  8  1  0  0  0  0
  7 17  1  1  0  0  0
  8  9  1  0  0  0  0
  8 14  2  0  0  0  0
  9 10  2  0  0  0  0
  9 15  1  0  0  0  0
 10 11  1  0  0  0  0
 11 12  1  0  0  0  0
 11 13  2  0  0  0  0
 13 14  1  0  0  0  0
 15 16  1  0  0  0  0
 17 18  1  0  0  0  0
 19 20  1  0  0  0  0
M  END
>  <name>
[O;ester][C@@H]1[C@]2(C)[C@H]([C@H]3[C@@H](c4c(cc([O;ester])cc4)CC3)CC2)CC1

>  <apo>
2

>  <freq>
1

>  <freq0>
0

>  <freq1>
1

>  <freqA>
0.99887151

>  <a_count>
44

$$$$

  MOE2015           2D

 20 21  0  0  1  0  0  0  0  0999 V2000
    0.9030   -3.3720    0.0000 O   0  0  0  0  0  0  0  0  0  0  0  0
    2.2020   -2.6220    0.0000 C   0  0  2  0  0  0  0  0  0  0  0  0
    2.2020   -1.1220    0.0000 C   0  0  0  0  0  0  0  0  0  0  0  0
    2.2020    0.3780    0.0000 C   0  0  0  0  0  0  0  0  0  0  0  0
    0.9030    1.1280    0.0000 C   0  0  0  0  0  0  0  0  0  0  0  0
    0.9030    2.6280    0.0000 C   0  0  0  0  0  0  0  0  0  0  0  0
    0.7020   -1.1220    0.0000 C   0  0  0  0  0  0  0  0  0  0  0  0
   -0.0480   -2.4210    0.0000 C   0  0  0  0  0  0  0  0  0  0  0  0
   -1.5480   -2.4210    0.0000 C   0  0  0  0  0  0  0  0  0  0  0  0
   -2.2980   -1.1220    0.0000 C   0  0  0  0  0  0  0  0  0  0  0  0
   -1.5480    0.1770    0.0000 C   0  0  0  0  0  0  0  0  0  0  0  0
   -0.0480    0.1770    0.0000 C   0  0  0  0  0  0  0  0  0  0  0  0
    3.7020   -1.1220    0.0000 C   0  0  0  0  0  0  0  0  0  0  0  0
    4.4520   -2.4210    0.0000 C   0  0  0  0  0  0  0  0  0  0  0  0
    5.9520   -2.4210    0.0000 C   0  0  0  0  0  0  0  0  0  0  0  0
    6.7020   -1.1220    0.0000 C   0  0  0  0  0  0  0  0  0  0  0  0
    5.9520    0.1770    0.0000 C   0  0  0  0  0  0  0  0  0  0  0  0
    4.4520    0.1770    0.0000 C   0  0  0  0  0  0  0  0  0  0  0  0
    3.5010   -3.3720    0.0000 C   0  0  0  0  0  0  0  0  0  0  0  0
    3.5010   -4.8720    0.0000 C   0  0  0  0  0  0  0  0  0  0  0  0
  2  1  1  6  0  0  0
  2  3  1  0  0  0  0
  2 19  1  0  0  0  0
  3  4  1  0  0  0  0
  3  7  1  0  0  0  0
  3 13  1  0  0  0  0
  4  5  1  0  0  0  0
  5  6  1  0  0  0  0
  7  8  1  0  0  0  0
  7 12  2  0  0  0  0
  8  9  2  0  0  0  0
  9 10  1  0  0  0  0
 10 11  2  0  0  0  0
 11 12  1  0  0  0  0
 13 14  1  0  0  0  0
 13 18  2  0  0  0  0
 14 15  2  0  0  0  0
 15 16  1  0  0  0  0
 16 17  2  0  0  0  0
 17 18  1  0  0  0  0
 19 20  1  0  0  0  0
M  END
>  <name>
[O;ester][C@H](C(C[C;amine]C)(c1ccccc1)c1ccccc1)CC

>  <apo>
2

>  <freq>
1

>  <freq0>
0

>  <freq1>
1

>  <freqA>
0.99887151

>  <a_count>
44

$$$$

  MOE2015           2D

 24 27  0  0  1  0  0  0  0  0999 V2000
   -0.9820    3.8250    0.0000 Br  0  0  0  0  0  0  0  0  0  0  0  0
   -0.9300    2.3260    0.0000 C   0  0  0  0  0  0  0  0  0  0  0  0
    0.3950    1.6210    0.0000 C   0  0  0  0  0  0  0  0  0  0  0  0
    1.5340    2.5980    0.0000 C   0  0  1  0  0  0  0  0  0  0  0  0
    1.1490    4.0470    0.0000 C   0  0  0  0  0  0  0  0  0  0  0  0
    2.2130    5.1050    0.0000 C   0  0  0  0  0  0  0  0  0  0  0  0
    1.8280    6.5550    0.0000 C   0  0  0  0  0  0  0  0  0  0  0  0
    0.3800    6.9470    0.0000 N   0  0  0  0  0  0  0  0  0  0  0  0
   -0.6830    5.8890    0.0000 C   0  0  0  0  0  0  0  0  0  0  0  0
   -0.2990    4.4390    0.0000 C   0  0  0  0  0  0  0  0  0  0  0  0
    3.0070    2.3140    0.0000 C   0  0  0  0  0  0  0  0  0  0  0  0
    3.8080    3.5820    0.0000 N   0  0  0  0  0  0  0  0  0  0  0  0
    5.3070    3.5220    0.0000 C   0  0  0  0  0  0  0  0  0  0  0  0
    6.0040    2.1940    0.0000 C   0  0  0  0  0  0  0  0  0  0  0  0
    7.5030    2.1330    0.0000 Br  0  0  0  0  0  0  0  0  0  0  0  0
    5.2030    0.9260    0.0000 C   0  0  0  0  0  0  0  0  0  0  0  0
    3.7040    0.9860    0.0000 C   0  0  0  0  0  0  0  0  0  0  0  0
    3.1010   -0.3880    0.0000 C   0  0  0  0  0  0  0  0  0  0  0  0
    1.6510   -0.7720    0.0000 C   0  0  0  0  0  0  0  0  0  0  0  0
    0.4470    0.1220    0.0000 C   0  0  0  0  0  0  0  0  0  0  0  0
   -0.8250   -0.6730    0.0000 C   0  0  0  0  0  0  0  0  0  0  0  0
   -2.1490    0.0320    0.0000 C   0  0  0  0  0  0  0  0  0  0  0  0
   -3.4210   -0.7630    0.0000 Cl  0  0  0  0  0  0  0  0  0  0  0  0
   -2.2020    1.5310    0.0000 C   0  0  0  0  0  0  0  0  0  0  0  0
  1  2  1  0  0  0  0
  2  3  1  0  0  0  0
  2 24  2  0  0  0  0
  3  4  1  0  0  0  0
  3 20  2  0  0  0  0
  4  5  1  1  0  0  0
  4 11  1  0  0  0  0
  5  6  1  0  0  0  0
  5 10  1  0  0  0  0
  6  7  1  0  0  0  0
  7  8  1  0  0  0  0
  8  9  1  0  0  0  0
  9 10  1  0  0  0  0
 11 12  2  0  0  0  0
 11 17  1  0  0  0  0
 12 13  1  0  0  0  0
 13 14  2  0  0  0  0
 14 15  1  0  0  0  0
 14 16  1  0  0  0  0
 16 17  2  0  0  0  0
 17 18  1  0  0  0  0
 18 19  1  0  0  0  0
 19 20  1  0  0  0  0
 20 21  1  0  0  0  0
 21 22  2  0  0  0  0
 22 23  1  0  0  0  0
 22 24  1  0  0  0  0
M  END
>  <name>
Brc1c2[C@@H](C3CC[N;amide]CC3)c3ncc(Br)cc3CCc2cc(Cl)c1

>  <apo>
1

>  <freq>
1

>  <freq0>
0

>  <freq1>
1

>  <freqA>
0.99887151

>  <a_count>
43

$$$$

  MOE2015           2D

 19 22  0  0  1  0  0  0  0  0999 V2000
   -0.0940   -2.6780    0.0000 C   0  0  0  0  0  0  0  0  0  0  0  0
    1.4020   -2.7830    0.0000 C   0  0  2  0  0  0  0  0  0  0  0  0
    2.1600   -1.4540    0.0000 C   0  0  1  0  0  0  0  0  0  0  0  0
    3.6720   -1.4380    0.0000 C   0  0  1  0  0  0  0  0  0  0  0  0
    4.9930   -2.1910    0.0000 O   0  0  0  0  0  0  0  0  0  0  0  0
    5.8940   -1.3850    0.0000 O   0  0  0  0  0  0  0  0  0  0  0  0
    6.9680   -2.4300    0.0000 C   0  0  2  0  0  0  0  0  0  0  0  0
    8.2710   -3.1730    0.0000 C   0  0  0  0  0  0  0  0  0  0  0  0
    5.6890   -3.2840    0.0000 O   0  0  0  0  0  0  0  0  0  0  0  0
    4.2360   -2.9030    0.0000 C   0  0  1  0  0  0  0  0  0  0  0  0
    3.5200   -4.1590    0.0000 O   0  0  0  0  0  0  0  0  0  0  0  0
    1.9430   -4.1480    0.0000 C   0  0  0  0  0  0  0  0  0  0  0  0
    7.0510   -0.8950    0.0000 C   0  0  0  0  0  0  0  0  0  0  0  0
    5.9400    0.0850    0.0000 C   0  0  0  0  0  0  0  0  0  0  0  0
    4.4300   -0.1090    0.0000 C   0  0  1  0  0  0  0  0  0  0  0  0
    3.6730    1.2000    0.0000 C   0  0  2  0  0  0  0  0  0  0  0  0
    4.4150    2.5040    0.0000 C   0  0  0  0  0  0  0  0  0  0  0  0
    2.1650    1.1810    0.0000 C   0  0  0  0  0  0  0  0  0  0  0  0
    1.4080   -0.1470    0.0000 C   0  0  0  0  0  0  0  0  0  0  0  0
  2  1  1  6  0  0  0
  2  3  1  0  0  0  0
  2 12  1  0  0  0  0
  3  4  1  0  0  0  0
  3 19  1  6  0  0  0
  4  5  1  1  0  0  0
  4 10  1  0  0  0  0
  4 15  1  0  0  0  0
  5  6  1  0  0  0  0
  6  7  1  0  0  0  0
  7  8  1  6  0  0  0
  7  9  1  0  0  0  0
  7 13  1  0  0  0  0
  9 10  1  0  0  0  0
 10 11  1  1  0  0  0
 11 12  1  0  0  0  0
 13 14  1  0  0  0  0
 15 14  1  6  0  0  0
 15 16  1  0  0  0  0
 16 17  1  1  0  0  0
 16 18  1  0  0  0  0
 18 19  1  0  0  0  0
M  END
>  <name>
C[C@@H]1[C@H]2[C@@]34OO[C@](C)(O[C@H]3O[C;ether]1)CC[C@H]4[C@H](C)CC2

>  <apo>
1

>  <freq>
1

>  <freq0>
0

>  <freq1>
1

>  <freqA>
0.99887151

>  <a_count>
43

$$$$

  MOE2015           2D

 29 32  0  0  0  0  0  0  0  0999 V2000
   -0.8600    0.1520    0.0000 F   0  0  0  0  0  0  0  0  0  0  0  0
   -2.2700    0.6650    0.0000 C   0  0  0  0  0  0  0  0  0  0  0  0
   -3.0200    1.9640    0.0000 C   0  0  0  0  0  0  0  0  0  0  0  0
   -2.7590    3.4410    0.0000 C   0  0  0  0  0  0  0  0  0  0  0  0
   -1.3500    3.9540    0.0000 N   0  0  0  0  0  0  0  0  0  0  0  0
   -0.0510    3.2040    0.0000 C   0  0  0  0  0  0  0  0  0  0  0  0
   -0.0510    1.7040    0.0000 O   0  0  0  0  0  0  0  0  0  0  0  0
    1.2480    3.9540    0.0000 N   0  0  0  0  0  0  0  0  0  0  0  0
    2.5470    3.2040    0.0000 C   0  0  0  0  0  0  0  0  0  0  0  0
    3.8460    3.9540    0.0000 N   0  0  0  0  0  0  0  0  0  0  0  0
    5.1450    3.2040    0.0000 N   0  0  0  0  0  0  0  0  0  0  0  0
    5.1450    1.7040    0.0000 C   0  0  0  0  0  0  0  0  0  0  0  0
    6.4440    0.9540    0.0000 O   0  0  0  0  0  0  0  0  0  0  0  0
    7.7430    1.7040    0.0000 C   0  0  0  0  0  0  0  0  0  0  0  0
    3.8460    0.9540    0.0000 C   0  0  0  0  0  0  0  0  0  0  0  0
    2.5470    1.7040    0.0000 C   0  0  0  0  0  0  0  0  0  0  0  0
    1.2480    5.4540    0.0000 C   0  0  0  0  0  0  0  0  0  0  0  0
    2.5470    6.2040    0.0000 O   0  0  0  0  0  0  0  0  0  0  0  0
   -0.0510    6.2040    0.0000 C   0  0  0  0  0  0  0  0  0  0  0  0
   -0.3630    7.6710    0.0000 C   0  0  0  0  0  0  0  0  0  0  0  0
    0.6410    8.7860    0.0000 C   0  0  0  0  0  0  0  0  0  0  0  0
   -1.8550    7.8280    0.0000 C   0  0  0  0  0  0  0  0  0  0  0  0
   -2.4650    6.4580    0.0000 S   0  0  0  0  0  0  0  0  0  0  0  0
   -1.3500    5.4540    0.0000 C   0  0  0  0  0  0  0  0  0  0  0  0
   -4.5200    1.9640    0.0000 C   0  0  0  0  0  0  0  0  0  0  0  0
   -5.2700    3.2630    0.0000 F   0  0  0  0  0  0  0  0  0  0  0  0
   -5.2700    0.6650    0.0000 C   0  0  0  0  0  0  0  0  0  0  0  0
   -4.5200   -0.6340    0.0000 C   0  0  0  0  0  0  0  0  0  0  0  0
   -3.0200   -0.6340    0.0000 C   0  0  0  0  0  0  0  0  0  0  0  0
  1  2  1  0  0  0  0
  2  3  1  0  0  0  0
  2 29  2  0  0  0  0
  3  4  1  0  0  0  0
  3 25  2  0  0  0  0
  4  5  1  0  0  0  0
  5  6  1  0  0  0  0
  5 24  1  0  0  0  0
  6  7  2  0  0  0  0
  6  8  1  0  0  0  0
  8  9  1  0  0  0  0
  8 17  1  0  0  0  0
  9 10  1  0  0  0  0
  9 16  2  0  0  0  0
 10 11  2  0  0  0  0
 11 12  1  0  0  0  0
 12 13  1  0  0  0  0
 12 15  2  0  0  0  0
 13 14  1  0  0  0  0
 15 16  1  0  0  0  0
 17 18  2  0  0  0  0
 17 19  1  0  0  0  0
 19 20  1  0  0  0  0
 19 24  2  0  0  0  0
 20 21  1  0  0  0  0
 20 22  2  0  0  0  0
 22 23  1  0  0  0  0
 23 24  1  0  0  0  0
 25 26  1  0  0  0  0
 25 27  1  0  0  0  0
 27 28  2  0  0  0  0
 28 29  1  0  0  0  0
M  END
>  <name>
Fc1c(CN2C(=O)N(c3nnc(OC)cc3)C(=O)c3c([C;amine])[c;biphenyl]sc23)c(F)ccc1

>  <apo>
2

>  <freq>
1

>  <freq0>
0

>  <freq1>
1

>  <freqA>
0.99887151

>  <a_count>
43

$$$$

  MOE2015           2D

 29 33  0  0  0  0  0  0  0  0999 V2000
   -0.3810   -3.4410    0.0000 F   0  0  0  0  0  0  0  0  0  0  0  0
    0.9800   -2.8100    0.0000 C   0  0  0  0  0  0  0  0  0  0  0  0
    1.1140   -1.3160    0.0000 C   0  0  0  0  0  0  0  0  0  0  0  0
   -0.1130   -0.4530    0.0000 C   0  0  0  0  0  0  0  0  0  0  0  0
    0.0210    1.0410    0.0000 O   0  0  0  0  0  0  0  0  0  0  0  0
    2.4750   -0.6850    0.0000 C   0  0  0  0  0  0  0  0  0  0  0  0
    3.7020   -1.5490    0.0000 C   0  0  0  0  0  0  0  0  0  0  0  0
    3.5680   -3.0430    0.0000 C   0  0  0  0  0  0  0  0  0  0  0  0
    4.7950   -3.9060    0.0000 C   0  0  0  0  0  0  0  0  0  0  0  0
    6.1550   -3.2750    0.0000 N   0  0  0  0  0  0  0  0  0  0  0  0
    7.3820   -4.1380    0.0000 N   0  0  0  0  0  0  0  0  0  0  0  0
    8.8450   -3.8030    0.0000 C   0  0  0  0  0  0  0  0  0  0  0  0
    9.4340   -2.4240    0.0000 C   0  0  0  0  0  0  0  0  0  0  0  0
   10.9230   -2.2440    0.0000 C   0  0  0  0  0  0  0  0  0  0  0  0
   11.5120   -0.8650    0.0000 C   0  0  0  0  0  0  0  0  0  0  0  0
   13.0010   -0.6850    0.0000 C   0  0  0  0  0  0  0  0  0  0  0  0
   13.9010   -1.8850    0.0000 C   0  0  0  0  0  0  0  0  0  0  0  0
   15.3910   -1.7060    0.0000 N   0  0  0  0  0  0  0  0  0  0  0  0
   15.9800   -0.3260    0.0000 C   0  0  0  0  0  0  0  0  0  0  0  0
   15.0800    0.8740    0.0000 C   0  0  0  0  0  0  0  0  0  0  0  0
   13.5900    0.6940    0.0000 C   0  0  0  0  0  0  0  0  0  0  0  0
   13.3120   -3.2650    0.0000 C   0  0  0  0  0  0  0  0  0  0  0  0
   11.8230   -3.4440    0.0000 C   0  0  0  0  0  0  0  0  0  0  0  0
    9.6140   -5.0910    0.0000 C   0  0  0  0  0  0  0  0  0  0  0  0
    8.6280   -6.2210    0.0000 N   0  0  0  0  0  0  0  0  0  0  0  0
    7.2480   -5.6320    0.0000 C   0  0  0  0  0  0  0  0  0  0  0  0
    5.8870   -6.2630    0.0000 N   0  0  0  0  0  0  0  0  0  0  0  0
    4.6610   -5.4000    0.0000 C   0  0  0  0  0  0  0  0  0  0  0  0
    2.2070   -3.6730    0.0000 C   0  0  0  0  0  0  0  0  0  0  0  0
  1  2  1  0  0  0  0
  2  3  1  0  0  0  0
  2 29  2  0  0  0  0
  3  4  1  0  0  0  0
  3  6  2  0  0  0  0
  4  5  2  0  0  0  0
  6  7  1  0  0  0  0
  7  8  2  0  0  0  0
  8  9  1  0  0  0  0
  8 29  1  0  0  0  0
  9 10  2  0  0  0  0
  9 28  1  0  0  0  0
 10 11  1  0  0  0  0
 11 12  1  0  0  0  0
 11 26  1  0  0  0  0
 12 13  1  0  0  0  0
 12 24  2  0  0  0  0
 13 14  1  0  0  0  0
 14 15  2  0  0  0  0
 14 23  1  0  0  0  0
 15 16  1  0  0  0  0
 16 17  1  0  0  0  0
 16 21  2  0  0  0  0
 17 18  2  0  0  0  0
 17 22  1  0  0  0  0
 18 19  1  0  0  0  0
 19 20  2  0  0  0  0
 20 21  1  0  0  0  0
 22 23  2  0  0  0  0
 24 25  1  0  0  0  0
 25 26  2  0  0  0  0
 26 27  1  0  0  0  0
 27 28  2  0  0  0  0
M  END
>  <name>
Fc1c([C;amide]=O)ccc(C2=Nn3c(Cc4cc5c(nccc5)cc4)cnc3N=C2)c1

>  <apo>
1

>  <freq>
1

>  <freq0>
0

>  <freq1>
1

>  <freqA>
0.99887151

>  <a_count>
43

$$$$

  MOE2015           2D

 22 26  0  0  1  0  0  0  0  0999 V2000
    0.9800   -2.0920    0.0000 O   0  0  0  0  0  0  0  0  0  0  0  0
    2.2870   -2.8280    0.0000 C   0  0  0  0  0  0  0  0  0  0  0  0
   -0.3110   -2.8560    0.0000 C   0  0  0  0  0  0  0  0  0  0  0  0
   -1.5620   -2.1510    0.0000 C   0  0  0  0  0  0  0  0  0  0  0  0
   -2.3010   -0.5180    0.0000 O   0  0  0  0  0  0  0  0  0  0  0  0
   -4.0570   -0.7550    0.0000 C   0  0  1  0  0  0  0  0  0  0  0  0
   -5.3030   -0.0470    0.0000 C   0  0  0  0  0  0  0  0  0  0  0  0
   -5.3140    1.4530    0.0000 O   0  0  0  0  0  0  0  0  0  0  0  0
   -6.5390   -0.7740    0.0000 C   0  0  0  0  0  0  0  0  0  0  0  0
   -6.5300   -2.2110    0.0000 C   0  0  0  0  0  0  0  0  0  0  0  0
   -5.2820   -2.9090    0.0000 C   0  0  1  0  0  0  0  0  0  0  0  0
   -5.2680   -4.3530    0.0000 C   0  0  2  0  0  0  0  0  0  0  0  0
   -6.2660   -5.3980    0.0000 N   0  0  0  0  0  0  0  0  0  0  0  0
   -7.6420   -5.9950    0.0000 C   0  0  0  0  0  0  0  0  0  0  0  0
   -4.8270   -5.3810    0.0000 C   0  0  0  0  0  0  0  0  0  0  0  0
   -3.6440   -3.5830    0.0000 C   0  0  0  0  0  0  0  0  0  0  0  0
   -4.0460   -2.1810    0.0000 C   0  0  2  0  0  0  0  0  0  0  0  0
   -2.7880   -2.8840    0.0000 C   0  0  0  0  0  0  0  0  0  0  0  0
   -2.7710   -4.3170    0.0000 C   0  0  0  0  0  0  0  0  0  0  0  0
   -1.5280   -5.0150    0.0000 C   0  0  0  0  0  0  0  0  0  0  0  0
   -0.2940   -4.2890    0.0000 C   0  0  0  0  0  0  0  0  0  0  0  0
   -4.0110   -5.0490    0.0000 C   0  0  0  0  0  0  0  0  0  0  0  0
  1  2  1  0  0  0  0
  1  3  1  0  0  0  0
  3  4  2  0  0  0  0
  3 21  1  0  0  0  0
  4  5  1  0  0  0  0
  4 18  1  0  0  0  0
  6  5  1  6  0  0  0
  6  7  1  0  0  0  0
  6 17  1  0  0  0  0
  7  8  1  0  0  0  0
  7  9  2  0  0  0  0
  9 10  1  0  0  0  0
 11 10  1  6  0  0  0
 11 12  1  0  0  0  0
 17 11  1  6  0  0  0
 12 13  1  1  0  0  0
 12 22  1  0  0  0  0
 13 14  1  0  0  0  0
 13 15  1  0  0  0  0
 15 16  1  0  0  0  0
 17 16  1  1  0  0  0
 17 18  1  0  0  0  0
 18 19  2  0  0  0  0
 19 20  1  0  0  0  0
 19 22  1  0  0  0  0
 20 21  2  0  0  0  0
M  END
>  <name>
O(C)c1c2O[C@H]3C([O;ester])=CC[C@H]4[C@@H]5N(C)CC[C@]34c2c(cc1)C5

>  <apo>
1

>  <freq>
1

>  <freq0>
0

>  <freq1>
1

>  <freqA>
0.99887151

>  <a_count>
43

$$$$

  MOE2015           2D

 23 26  0  0  1  0  0  0  0  0999 V2000
    6.4970   -2.3190    0.0000 O   0  0  0  0  0  0  0  0  0  0  0  0
    6.4790   -3.8190    0.0000 C   0  0  0  0  0  0  0  0  0  0  0  0
    7.7680   -4.5850    0.0000 N   0  0  0  0  0  0  0  0  0  0  0  0
    5.1700   -4.5530    0.0000 C   0  0  0  0  0  0  0  0  0  0  0  0
    3.8810   -3.7870    0.0000 C   0  0  0  0  0  0  0  0  0  0  0  0
    3.8870   -2.2870    0.0000 O   0  0  0  0  0  0  0  0  0  0  0  0
    2.5650   -4.5530    0.0000 C   0  0  0  0  0  0  0  0  0  0  0  0
    2.5620   -6.0160    0.0000 C   0  0  0  0  0  0  0  0  0  0  0  0
    3.8440   -6.7870    0.0000 C   0  0  0  0  0  0  0  0  0  0  0  0
    5.1520   -6.0530    0.0000 C   0  0  0  0  0  0  0  0  0  0  0  0
    1.3070   -6.7680    0.0000 C   0  0  0  0  0  0  0  0  0  0  0  0
    0.0350   -5.9890    0.0000 C   0  0  2  0  0  0  0  0  0  0  0  0
    0.0130   -4.5680    0.0000 C   0  0  1  0  0  0  0  0  0  0  0  0
   -1.2810   -5.3270    0.0000 O   0  0  0  0  0  0  0  0  0  0  0  0
    1.2900   -3.8280    0.0000 C   0  0  2  0  0  0  0  0  0  0  0  0
    1.2720   -2.3540    0.0000 C   0  0  0  0  0  0  0  0  0  0  0  0
   -0.0040   -1.6300    0.0000 C   0  0  0  0  0  0  0  0  0  0  0  0
   -0.0100   -0.1300    0.0000 O   0  0  0  0  0  0  0  0  0  0  0  0
   -1.2800   -2.3680    0.0000 C   0  0  0  0  0  0  0  0  0  0  0  0
   -1.2620   -3.8440    0.0000 C   0  0  0  0  0  0  0  0  0  0  0  0
    1.3000   -5.2710    0.0000 C   0  0  0  0  0  0  0  0  0  0  0  0
    0.3840   -6.9350    0.0000 C   0  0  0  0  0  0  0  0  0  0  0  0
   -1.1960   -6.7020    0.0000 N   0  0  0  0  0  0  0  0  0  0  0  0
  1  2  2  0  0  0  0
  2  3  1  0  0  0  0
  2  4  1  0  0  0  0
  4  5  2  0  0  0  0
  4 10  1  0  0  0  0
  5  6  1  0  0  0  0
  5  7  1  0  0  0  0
  7  8  2  0  0  0  0
  7 15  1  0  0  0  0
  8  9  1  0  0  0  0
  8 11  1  0  0  0  0
  9 10  2  0  0  0  0
 12 11  1  1  0  0  0
 12 13  1  0  0  0  0
 12 23  1  0  0  0  0
 13 14  1  1  0  0  0
 15 13  1  6  0  0  0
 13 20  1  0  0  0  0
 15 16  1  0  0  0  0
 15 21  1  1  0  0  0
 16 17  1  0  0  0  0
 17 18  2  0  0  0  0
 17 19  1  0  0  0  0
 19 20  1  0  0  0  0
 21 22  1  0  0  0  0
 22 23  1  0  0  0  0
M  END
>  <name>
O=C(N)c1c(O)c2c(cc1)C[C@@H]1[C@@]3(O)[C@@]2(CC(=O)CC3)CC[N;amine]1

>  <apo>
1

>  <freq>
1

>  <freq0>
0

>  <freq1>
1

>  <freqA>
0.99887151

>  <a_count>
43

$$$$

  MOE2015           2D

 27 31  0  0  0  0  0  0  0  0999 V2000
    6.7880    3.9430    0.0000 O   0  0  0  0  0  0  0  0  0  0  0  0
    5.5730    3.0630    0.0000 C   0  0  0  0  0  0  0  0  0  0  0  0
    5.5710    1.5630    0.0000 O   0  0  0  0  0  0  0  0  0  0  0  0
    4.1440    1.1020    0.0000 C   0  0  0  0  0  0  0  0  0  0  0  0
    5.4550    0.3730    0.0000 C   0  0  0  0  0  0  0  0  0  0  0  0
    5.4790   -1.1270    0.0000 C   0  0  0  0  0  0  0  0  0  0  0  0
    4.1930   -1.8980    0.0000 O   0  0  0  0  0  0  0  0  0  0  0  0
    2.8820   -1.1690    0.0000 C   0  0  0  0  0  0  0  0  0  0  0  0
    2.8570    0.3310    0.0000 C   0  0  0  0  0  0  0  0  0  0  0  0
    1.5460    1.0600    0.0000 C   0  0  0  0  0  0  0  0  0  0  0  0
    0.2600    0.2890    0.0000 C   0  0  0  0  0  0  0  0  0  0  0  0
   -1.0510    1.0180    0.0000 C   0  0  0  0  0  0  0  0  0  0  0  0
    0.2840   -1.2110    0.0000 C   0  0  0  0  0  0  0  0  0  0  0  0
   -1.0030   -1.9820    0.0000 O   0  0  0  0  0  0  0  0  0  0  0  0
    1.5950   -1.9400    0.0000 C   0  0  0  0  0  0  0  0  0  0  0  0
    6.7900   -1.8560    0.0000 C   0  0  0  0  0  0  0  0  0  0  0  0
    8.0770   -1.0850    0.0000 C   0  0  0  0  0  0  0  0  0  0  0  0
    9.3880   -1.8140    0.0000 O   0  0  0  0  0  0  0  0  0  0  0  0
    8.0530    0.4150    0.0000 C   0  0  0  0  0  0  0  0  0  0  0  0
    9.3400    1.1860    0.0000 C   0  0  0  0  0  0  0  0  0  0  0  0
    6.7420    1.1440    0.0000 C   0  0  0  0  0  0  0  0  0  0  0  0
    3.2640    2.3160    0.0000 C   0  0  0  0  0  0  0  0  0  0  0  0
    4.1470    3.5290    0.0000 C   0  0  0  0  0  0  0  0  0  0  0  0
    3.5390    4.9000    0.0000 C   0  0  0  0  0  0  0  0  0  0  0  0
    2.0470    5.0580    0.0000 C   0  0  0  0  0  0  0  0  0  0  0  0
    1.1640    3.8460    0.0000 C   0  0  0  0  0  0  0  0  0  0  0  0
    1.7720    2.4750    0.0000 C   0  0  0  0  0  0  0  0  0  0  0  0
  1  2  2  0  0  0  0
  2  3  1  0  0  0  0
  2 23  1  0  0  0  0
  3  4  1  0  0  0  0
  4  5  1  0  0  0  0
  4  9  1  0  0  0  0
  4 22  1  0  0  0  0
  5  6  1  0  0  0  0
  5 21  2  0  0  0  0
  6  7  1  0  0  0  0
  6 16  2  0  0  0  0
  7  8  1  0  0  0  0
  8  9  1  0  0  0  0
  8 15  2  0  0  0  0
  9 10  2  0  0  0  0
 10 11  1  0  0  0  0
 11 12  1  0  0  0  0
 11 13  2  0  0  0  0
 13 14  1  0  0  0  0
 13 15  1  0  0  0  0
 16 17  1  0  0  0  0
 17 18  1  0  0  0  0
 17 19  2  0  0  0  0
 19 20  1  0  0  0  0
 19 21  1  0  0  0  0
 22 23  1  0  0  0  0
 22 27  2  0  0  0  0
 23 24  2  0  0  0  0
 24 25  1  0  0  0  0
 25 26  2  0  0  0  0
 26 27  1  0  0  0  0
M  END
>  <name>
O=C1OC2(c3c(Oc4c2cc([C;amine])c(O)c4)cc(O)c([C;amine])c3)c2c1cccc2

>  <apo>
2

>  <freq>
1

>  <freq0>
0

>  <freq1>
1

>  <freqA>
0.99887151

>  <a_count>
43

$$$$

  MOE2015           2D

 22 24  0  0  0  0  0  0  0  0999 V2000
   13.2890    3.5320    0.0000 O   0  0  0  0  0  0  0  0  0  0  0  0
   11.9870    2.7880    0.0000 C   0  0  0  0  0  0  0  0  0  0  0  0
   10.6910    3.5430    0.0000 C   0  0  0  0  0  0  0  0  0  0  0  0
    9.3890    2.7980    0.0000 C   0  0  0  0  0  0  0  0  0  0  0  0
    8.0930    3.5530    0.0000 C   0  0  0  0  0  0  0  0  0  0  0  0
    8.0990    5.0530    0.0000 C   0  0  0  0  0  0  0  0  0  0  0  0
    6.8020    5.8080    0.0000 C   0  0  0  0  0  0  0  0  0  0  0  0
    5.5000    5.0630    0.0000 N   0  0  0  0  0  0  0  0  0  0  0  0
    4.2040    5.8190    0.0000 C   0  0  0  0  0  0  0  0  0  0  0  0
    2.9020    5.0740    0.0000 N   0  0  0  0  0  0  0  0  0  0  0  0
    1.6060    5.8290    0.0000 C   0  0  0  0  0  0  0  0  0  0  0  0
    1.4560    7.3210    0.0000 N   0  0  0  0  0  0  0  0  0  0  0  0
   -0.0100    7.6390    0.0000 N   0  0  0  0  0  0  0  0  0  0  0  0
   -0.7660    6.3430    0.0000 C   0  0  0  0  0  0  0  0  0  0  0  0
   -2.2580    6.1920    0.0000 C   0  0  0  0  0  0  0  0  0  0  0  0
    0.2340    5.2240    0.0000 C   0  0  0  0  0  0  0  0  0  0  0  0
    4.2100    7.3190    0.0000 C   0  0  0  0  0  0  0  0  0  0  0  0
    5.5120    8.0630    0.0000 C   0  0  0  0  0  0  0  0  0  0  0  0
    5.5180    9.5630    0.0000 C   0  0  0  0  0  0  0  0  0  0  0  0
    6.8080    7.3080    0.0000 N   0  0  0  0  0  0  0  0  0  0  0  0
    9.4010    5.7980    0.0000 C   0  0  0  0  0  0  0  0  0  0  0  0
   10.6970    5.0430    0.0000 C   0  0  0  0  0  0  0  0  0  0  0  0
  1  2  2  0  0  0  0
  2  3  1  0  0  0  0
  3  4  1  0  0  0  0
  3 22  1  0  0  0  0
  4  5  1  0  0  0  0
  5  6  1  0  0  0  0
  6  7  1  0  0  0  0
  6 21  1  0  0  0  0
  7  8  1  0  0  0  0
  7 20  2  0  0  0  0
  8  9  2  0  0  0  0
  9 10  1  0  0  0  0
  9 17  1  0  0  0  0
 10 11  1  0  0  0  0
 11 12  2  0  0  0  0
 11 16  1  0  0  0  0
 12 13  1  0  0  0  0
 13 14  1  0  0  0  0
 14 15  1  0  0  0  0
 14 16  2  0  0  0  0
 17 18  2  0  0  0  0
 18 19  1  0  0  0  0
 18 20  1  0  0  0  0
 21 22  1  0  0  0  0
M  END
>  <name>
O=[C;amide][C;ether]1CCC(c2nc(Nc3n[nH]c(C)c3)cc(C)n2)CC1

>  <apo>
2

>  <freq>
1

>  <freq0>
0

>  <freq1>
1

>  <freqA>
0.99887151

>  <a_count>
43

$$$$

  MOE2015           2D

 21 23  0  0  1  0  0  0  0  0999 V2000
   -0.2730    0.4450    0.0000 O   0  0  0  0  0  0  0  0  0  0  0  0
    0.4080    1.7810    0.0000 C   0  0  1  0  0  0  0  0  0  0  0  0
    1.9060    1.8600    0.0000 C   0  0  2  0  0  0  0  0  0  0  0  0
    2.8500    0.6940    0.0000 N   0  0  0  0  0  0  0  0  0  0  0  0
    4.2510    1.2320    0.0000 C   0  0  2  0  0  0  0  0  0  0  0  0
    5.5090    0.4150    0.0000 C   0  0  0  0  0  0  0  0  0  0  0  0
    6.8450    1.0960    0.0000 C   0  0  0  0  0  0  0  0  0  0  0  0
    6.9240    2.5940    0.0000 C   0  0  0  0  0  0  0  0  0  0  0  0
    8.2600    3.2750    0.0000 C   0  0  0  0  0  0  0  0  0  0  0  0
    9.5180    2.4580    0.0000 C   0  0  0  0  0  0  0  0  0  0  0  0
   10.8550    3.1390    0.0000 N   0  0  0  0  0  0  0  0  0  0  0  0
    9.4400    0.9600    0.0000 C   0  0  0  0  0  0  0  0  0  0  0  0
    8.1030    0.2790    0.0000 C   0  0  0  0  0  0  0  0  0  0  0  0
    4.1720    2.7300    0.0000 C   0  0  0  0  0  0  0  0  0  0  0  0
    2.7230    3.1180    0.0000 C   0  0  0  0  0  0  0  0  0  0  0  0
   -0.4090    3.0390    0.0000 C   0  0  0  0  0  0  0  0  0  0  0  0
   -1.9070    2.9610    0.0000 C   0  0  0  0  0  0  0  0  0  0  0  0
   -2.7230    4.2190    0.0000 C   0  0  0  0  0  0  0  0  0  0  0  0
   -2.0420    5.5550    0.0000 C   0  0  0  0  0  0  0  0  0  0  0  0
   -0.5450    5.6340    0.0000 C   0  0  0  0  0  0  0  0  0  0  0  0
    0.2720    4.3760    0.0000 C   0  0  0  0  0  0  0  0  0  0  0  0
  2  1  1  6  0  0  0
  2  3  1  0  0  0  0
  2 16  1  0  0  0  0
  3  4  1  0  0  0  0
  3 15  1  1  0  0  0
  4  5  1  0  0  0  0
  5  6  1  1  0  0  0
  5 14  1  0  0  0  0
  6  7  1  0  0  0  0
  7  8  1  0  0  0  0
  7 13  2  0  0  0  0
  8  9  2  0  0  0  0
  9 10  1  0  0  0  0
 10 11  1  0  0  0  0
 10 12  2  0  0  0  0
 12 13  1  0  0  0  0
 14 15  1  0  0  0  0
 16 17  1  0  0  0  0
 16 21  2  0  0  0  0
 17 18  2  0  0  0  0
 18 19  1  0  0  0  0
 19 20  2  0  0  0  0
 20 21  1  0  0  0  0
M  END
>  <name>
O[C@@H]([C@@H]1N[C@H](Cc2ccc([N;amide])cc2)CC1)c1ccccc1

>  <apo>
1

>  <freq>
1

>  <freq0>
0

>  <freq1>
1

>  <freqA>
0.99887151

>  <a_count>
43

$$$$

  MOE2015           2D

 19 19  0  0  1  0  0  0  0  0999 V2000
   -0.6620    3.1170    0.0000 O   0  0  0  0  0  0  0  0  0  0  0  0
    0.7080    3.7270    0.0000 C   0  0  2  0  0  0  0  0  0  0  0  0
    0.8650    5.2190    0.0000 C   0  0  0  0  0  0  0  0  0  0  0  0
   -0.3490    6.1000    0.0000 O   0  0  0  0  0  0  0  0  0  0  0  0
    1.9210    2.8450    0.0000 C   0  0  2  0  0  0  0  0  0  0  0  0
    1.9210    1.3450    0.0000 C   0  0  1  0  0  0  0  0  0  0  0  0
    0.7080    0.4630    0.0000 C   0  0  2  0  0  0  0  0  0  0  0  0
   -0.6620    1.0730    0.0000 O   0  0  0  0  0  0  0  0  0  0  0  0
    0.8650   -1.0280    0.0000 C   0  0  0  0  0  0  0  0  0  0  0  0
   -0.3490   -1.9100    0.0000 O   0  0  0  0  0  0  0  0  0  0  0  0
    3.3480    0.8820    0.0000 O   0  0  0  0  0  0  0  0  0  0  0  0
    4.2300    2.0950    0.0000 B   0  0  0  0  0  0  0  0  0  0  0  0
    5.7300    2.0950    0.0000 C   0  0  1  0  0  0  0  0  0  0  0  0
    6.4800    0.7960    0.0000 N   0  0  0  0  0  0  0  0  0  0  0  0
    6.4800    3.3940    0.0000 C   0  0  0  0  0  0  0  0  0  0  0  0
    7.9800    3.3940    0.0000 C   0  0  0  0  0  0  0  0  0  0  0  0
    8.7300    4.6930    0.0000 C   0  0  0  0  0  0  0  0  0  0  0  0
    8.7300    2.0950    0.0000 C   0  0  0  0  0  0  0  0  0  0  0  0
    3.3480    3.3090    0.0000 O   0  0  0  0  0  0  0  0  0  0  0  0
  2  1  1  6  0  0  0
  2  3  1  0  0  0  0
  2  5  1  0  0  0  0
  3  4  1  0  0  0  0
  5  6  1  0  0  0  0
  5 19  1  1  0  0  0
  6  7  1  0  0  0  0
  6 11  1  6  0  0  0
  7  8  1  1  0  0  0
  7  9  1  0  0  0  0
  9 10  1  0  0  0  0
 11 12  1  0  0  0  0
 12 13  1  0  0  0  0
 12 19  1  0  0  0  0
 13 14  1  6  0  0  0
 13 15  1  0  0  0  0
 15 16  1  0  0  0  0
 16 17  1  0  0  0  0
 16 18  1  0  0  0  0
M  END
>  <name>
O[C@H](CO)[C@@H]1[C@@H]([C@H](O)CO)OB([C@@H]([N;amide])CC(C)C)O1

>  <apo>
1

>  <freq>
1

>  <freq0>
0

>  <freq1>
1

>  <freqA>
0.99887151

>  <a_count>
43

$$$$

  MOE2015           2D

 30 32  0  0  0  0  0  0  0  0999 V2000
    3.2340   -2.5200    0.0000 S   0  0  0  0  0  0  0  0  0  0  0  0
    2.8680   -1.0660    0.0000 C   0  0  0  0  0  0  0  0  0  0  0  0
    1.4760   -0.5070    0.0000 N   0  0  0  0  0  0  0  0  0  0  0  0
    0.2050   -1.3050    0.0000 C   0  0  0  0  0  0  0  0  0  0  0  0
   -1.1210   -0.6040    0.0000 C   0  0  0  0  0  0  0  0  0  0  0  0
   -2.3910   -1.4030    0.0000 C   0  0  0  0  0  0  0  0  0  0  0  0
   -3.7170   -0.7020    0.0000 C   0  0  0  0  0  0  0  0  0  0  0  0
   -4.4180   -2.0280    0.0000 F   0  0  0  0  0  0  0  0  0  0  0  0
   -3.0160    0.6250    0.0000 F   0  0  0  0  0  0  0  0  0  0  0  0
   -5.0430   -0.0010    0.0000 F   0  0  0  0  0  0  0  0  0  0  0  0
   -2.3350   -2.9010    0.0000 C   0  0  0  0  0  0  0  0  0  0  0  0
   -3.6050   -3.7000    0.0000 C   0  0  0  0  0  0  0  0  0  0  0  0
   -4.8750   -4.4980    0.0000 N   0  0  0  0  0  0  0  0  0  0  0  0
   -1.0090   -3.6020    0.0000 C   0  0  0  0  0  0  0  0  0  0  0  0
    0.2620   -2.8040    0.0000 C   0  0  0  0  0  0  0  0  0  0  0  0
    1.5760    0.9890    0.0000 C   0  0  0  0  0  0  0  0  0  0  0  0
    0.4250    1.9510    0.0000 O   0  0  0  0  0  0  0  0  0  0  0  0
    3.0310    1.3560    0.0000 C   0  0  0  0  0  0  0  0  0  0  0  0
    4.2580    2.2190    0.0000 C   0  0  0  0  0  0  0  0  0  0  0  0
    2.8440    2.8440    0.0000 C   0  0  0  0  0  0  0  0  0  0  0  0
    3.8290    0.0860    0.0000 N   0  0  0  0  0  0  0  0  0  0  0  0
    5.3260   -0.0150    0.0000 C   0  0  0  0  0  0  0  0  0  0  0  0
    5.9870   -1.3620    0.0000 C   0  0  0  0  0  0  0  0  0  0  0  0
    7.4830   -1.4630    0.0000 C   0  0  0  0  0  0  0  0  0  0  0  0
    8.1440   -2.8090    0.0000 F   0  0  0  0  0  0  0  0  0  0  0  0
    8.3190   -0.2170    0.0000 C   0  0  0  0  0  0  0  0  0  0  0  0
    9.8150   -0.3180    0.0000 C   0  0  0  0  0  0  0  0  0  0  0  0
   10.6510    0.9280    0.0000 O   0  0  0  0  0  0  0  0  0  0  0  0
    7.6580    1.1290    0.0000 C   0  0  0  0  0  0  0  0  0  0  0  0
    6.1610    1.2300    0.0000 C   0  0  0  0  0  0  0  0  0  0  0  0
  1  2  2  0  0  0  0
  2  3  1  0  0  0  0
  2 21  1  0  0  0  0
  3  4  1  0  0  0  0
  3 16  1  0  0  0  0
  4  5  1  0  0  0  0
  4 15  2  0  0  0  0
  5  6  2  0  0  0  0
  6  7  1  0  0  0  0
  6 11  1  0  0  0  0
  7  8  1  0  0  0  0
  7  9  1  0  0  0  0
  7 10  1  0  0  0  0
 11 12  1  0  0  0  0
 11 14  2  0  0  0  0
 12 13  3  0  0  0  0
 14 15  1  0  0  0  0
 16 17  2  0  0  0  0
 16 18  1  0  0  0  0
 18 19  1  0  0  0  0
 18 20  1  0  0  0  0
 18 21  1  0  0  0  0
 21 22  1  0  0  0  0
 22 23  1  0  0  0  0
 22 30  2  0  0  0  0
 23 24  2  0  0  0  0
 24 25  1  0  0  0  0
 24 26  1  0  0  0  0
 26 27  1  0  0  0  0
 26 29  2  0  0  0  0
 27 28  2  0  0  0  0
 29 30  1  0  0  0  0
M  END
>  <name>
S=C1N(c2cc(C(F)(F)F)c(C#N)cc2)C(=O)C(C)(C)N1c1cc(F)c([C;amide]=O)cc1

>  <apo>
1

>  <freq>
1

>  <freq0>
0

>  <freq1>
1

>  <freqA>
0.99887151

>  <a_count>
43

$$$$

  MOE2015           2D

 31 34  0  0  0  0  0  0  0  0999 V2000
    3.3320   -1.3220    0.0000 S   0  0  0  0  0  0  0  0  0  0  0  0
    2.9320    0.1240    0.0000 C   0  0  0  0  0  0  0  0  0  0  0  0
    1.5270    0.6500    0.0000 N   0  0  0  0  0  0  0  0  0  0  0  0
    0.2760   -0.1770    0.0000 C   0  0  0  0  0  0  0  0  0  0  0  0
   -1.0660    0.4940    0.0000 C   0  0  0  0  0  0  0  0  0  0  0  0
   -2.3170   -0.3330    0.0000 C   0  0  0  0  0  0  0  0  0  0  0  0
   -3.6590    0.3370    0.0000 C   0  0  0  0  0  0  0  0  0  0  0  0
   -4.3300   -1.0050    0.0000 F   0  0  0  0  0  0  0  0  0  0  0  0
   -2.9890    1.6790    0.0000 F   0  0  0  0  0  0  0  0  0  0  0  0
   -5.0010    1.0080    0.0000 F   0  0  0  0  0  0  0  0  0  0  0  0
   -2.2270   -1.8310    0.0000 C   0  0  0  0  0  0  0  0  0  0  0  0
   -3.4790   -2.6570    0.0000 C   0  0  0  0  0  0  0  0  0  0  0  0
   -4.7300   -3.4840    0.0000 N   0  0  0  0  0  0  0  0  0  0  0  0
   -0.8850   -2.5010    0.0000 N   0  0  0  0  0  0  0  0  0  0  0  0
    0.3660   -1.6740    0.0000 C   0  0  0  0  0  0  0  0  0  0  0  0
    1.5940    2.1490    0.0000 C   0  0  0  0  0  0  0  0  0  0  0  0
    0.4210    3.0830    0.0000 O   0  0  0  0  0  0  0  0  0  0  0  0
    3.0400    2.5480    0.0000 C   0  0  0  0  0  0  0  0  0  0  0  0
    3.8670    1.2970    0.0000 N   0  0  0  0  0  0  0  0  0  0  0  0
    5.3650    1.2300    0.0000 C   0  0  0  0  0  0  0  0  0  0  0  0
    6.0570   -0.1010    0.0000 C   0  0  0  0  0  0  0  0  0  0  0  0
    7.5550   -0.1680    0.0000 C   0  0  0  0  0  0  0  0  0  0  0  0
    8.2470   -1.4990    0.0000 F   0  0  0  0  0  0  0  0  0  0  0  0
    8.3620    1.0970    0.0000 C   0  0  0  0  0  0  0  0  0  0  0  0
    9.8610    1.0300    0.0000 C   0  0  0  0  0  0  0  0  0  0  0  0
   10.6680    2.2950    0.0000 O   0  0  0  0  0  0  0  0  0  0  0  0
    7.6710    2.4280    0.0000 C   0  0  0  0  0  0  0  0  0  0  0  0
    6.1720    2.4950    0.0000 C   0  0  0  0  0  0  0  0  0  0  0  0
    2.4190    3.9140    0.0000 C   0  0  0  0  0  0  0  0  0  0  0  0
    3.7840    4.5350    0.0000 C   0  0  0  0  0  0  0  0  0  0  0  0
    4.4050    3.1690    0.0000 C   0  0  0  0  0  0  0  0  0  0  0  0
  1  2  2  0  0  0  0
  2  3  1  0  0  0  0
  2 19  1  0  0  0  0
  3  4  1  0  0  0  0
  3 16  1  0  0  0  0
  4  5  1  0  0  0  0
  4 15  2  0  0  0  0
  5  6  2  0  0  0  0
  6  7  1  0  0  0  0
  6 11  1  0  0  0  0
  7  8  1  0  0  0  0
  7  9  1  0  0  0  0
  7 10  1  0  0  0  0
 11 12  1  0  0  0  0
 11 14  2  0  0  0  0
 12 13  3  0  0  0  0
 14 15  1  0  0  0  0
 16 17  2  0  0  0  0
 16 18  1  0  0  0  0
 18 19  1  0  0  0  0
 18 29  1  0  0  0  0
 18 31  1  0  0  0  0
 19 20  1  0  0  0  0
 20 21  1  0  0  0  0
 20 28  2  0  0  0  0
 21 22  2  0  0  0  0
 22 23  1  0  0  0  0
 22 24  1  0  0  0  0
 24 25  1  0  0  0  0
 24 27  2  0  0  0  0
 25 26  2  0  0  0  0
 27 28  1  0  0  0  0
 29 30  1  0  0  0  0
 30 31  1  0  0  0  0
M  END
>  <name>
S=C1N(c2cc(C(F)(F)F)c(C#N)nc2)C(=O)C2(N1c1cc(F)c([C;amide]=O)cc1)CCC2

>  <apo>
1

>  <freq>
1

>  <freq0>
0

>  <freq1>
1

>  <freqA>
0.99887151

>  <a_count>
43

$$$$

  MOE2015           2D

 23 25  0  0  0  0  0  0  0  0999 V2000
   15.6510    4.1940    0.0000 O   0  0  0  0  0  0  0  0  0  0  0  0
   14.3520    3.4440    0.0000 C   0  0  0  0  0  0  0  0  0  0  0  0
   13.0530    4.1940    0.0000 C   0  0  0  0  0  0  0  0  0  0  0  0
   11.7530    3.4440    0.0000 C   0  0  0  0  0  0  0  0  0  0  0  0
   11.7530    1.9440    0.0000 C   0  0  0  0  0  0  0  0  0  0  0  0
   10.4540    1.1940    0.0000 N   0  0  0  0  0  0  0  0  0  0  0  0
    9.1550    1.9440    0.0000 C   0  0  0  0  0  0  0  0  0  0  0  0
    9.1550    3.4440    0.0000 C   0  0  0  0  0  0  0  0  0  0  0  0
    7.8560    4.1940    0.0000 C   0  0  0  0  0  0  0  0  0  0  0  0
    6.5570    3.4440    0.0000 C   0  0  0  0  0  0  0  0  0  0  0  0
    5.2580    4.1940    0.0000 C   0  0  0  0  0  0  0  0  0  0  0  0
    3.9590    3.4440    0.0000 C   0  0  0  0  0  0  0  0  0  0  0  0
    2.6600    4.1940    0.0000 C   0  0  0  0  0  0  0  0  0  0  0  0
    2.6600    5.6940    0.0000 C   0  0  0  0  0  0  0  0  0  0  0  0
    1.3610    3.4440    0.0000 C   0  0  0  0  0  0  0  0  0  0  0  0
    1.3610    1.9440    0.0000 C   0  0  0  0  0  0  0  0  0  0  0  0
    0.0620    1.1940    0.0000 N   0  0  0  0  0  0  0  0  0  0  0  0
    2.6600    1.1940    0.0000 C   0  0  0  0  0  0  0  0  0  0  0  0
    3.9590    1.9440    0.0000 C   0  0  0  0  0  0  0  0  0  0  0  0
    6.5570    1.9440    0.0000 C   0  0  0  0  0  0  0  0  0  0  0  0
    7.8560    1.1940    0.0000 C   0  0  0  0  0  0  0  0  0  0  0  0
   13.0530    1.1940    0.0000 C   0  0  0  0  0  0  0  0  0  0  0  0
   14.3520    1.9440    0.0000 C   0  0  0  0  0  0  0  0  0  0  0  0
  1  2  1  0  0  0  0
  2  3  1  0  0  0  0
  2 23  2  0  0  0  0
  3  4  2  0  0  0  0
  4  5  1  0  0  0  0
  5  6  1  0  0  0  0
  5 22  2  0  0  0  0
  6  7  1  0  0  0  0
  7  8  1  0  0  0  0
  7 21  2  0  0  0  0
  8  9  2  0  0  0  0
  9 10  1  0  0  0  0
 10 11  1  0  0  0  0
 10 20  2  0  0  0  0
 11 12  1  0  0  0  0
 12 13  1  0  0  0  0
 12 19  2  0  0  0  0
 13 14  1  0  0  0  0
 13 15  2  0  0  0  0
 15 16  1  0  0  0  0
 16 17  1  0  0  0  0
 16 18  2  0  0  0  0
 18 19  1  0  0  0  0
 20 21  1  0  0  0  0
 22 23  1  0  0  0  0
M  END
>  <name>
[O;ether]c1ccc(Nc2ccc([C;olefin]c3c(C)cc([N;amine])cc3)cc2)cc1

>  <apo>
3

>  <freq>
1

>  <freq0>
0

>  <freq1>
1

>  <freqA>
0.99887151

>  <a_count>
43

$$$$

  MOE2015           2D

 21 23  0  0  0  0  0  0  0  0999 V2000
    5.5070   -8.3980    0.0000 S   0  0  0  0  0  0  0  0  0  0  0  0
    4.7480   -9.6920    0.0000 O   0  0  0  0  0  0  0  0  0  0  0  0
    7.0070   -8.4080    0.0000 O   0  0  0  0  0  0  0  0  0  0  0  0
    4.7660   -7.0940    0.0000 C   0  0  0  0  0  0  0  0  0  0  0  0
    3.2660   -7.0830    0.0000 C   0  0  0  0  0  0  0  0  0  0  0  0
    2.5250   -5.7790    0.0000 C   0  0  0  0  0  0  0  0  0  0  0  0
    1.0250   -5.7680    0.0000 C   0  0  0  0  0  0  0  0  0  0  0  0
    0.2840   -4.4640    0.0000 C   0  0  0  0  0  0  0  0  0  0  0  0
   -1.1810   -4.1420    0.0000 C   0  0  0  0  0  0  0  0  0  0  0  0
   -2.3030   -5.1380    0.0000 C   0  0  0  0  0  0  0  0  0  0  0  0
   -2.0010   -6.6070    0.0000 C   0  0  0  0  0  0  0  0  0  0  0  0
   -3.1230   -7.6030    0.0000 C   0  0  0  0  0  0  0  0  0  0  0  0
   -4.5460   -7.1300    0.0000 N   0  0  0  0  0  0  0  0  0  0  0  0
   -5.6680   -8.1260    0.0000 C   0  0  0  0  0  0  0  0  0  0  0  0
   -4.8480   -5.6600    0.0000 C   0  0  0  0  0  0  0  0  0  0  0  0
   -3.7260   -4.6640    0.0000 C   0  0  0  0  0  0  0  0  0  0  0  0
   -1.3270   -2.6490    0.0000 C   0  0  0  0  0  0  0  0  0  0  0  0
    0.0470   -2.0490    0.0000 N   0  0  0  0  0  0  0  0  0  0  0  0
    1.0430   -3.1700    0.0000 C   0  0  0  0  0  0  0  0  0  0  0  0
    2.5430   -3.1810    0.0000 C   0  0  0  0  0  0  0  0  0  0  0  0
    3.2840   -4.4850    0.0000 C   0  0  0  0  0  0  0  0  0  0  0  0
  1  2  2  0  0  0  0
  1  3  2  0  0  0  0
  1  4  1  0  0  0  0
  4  5  1  0  0  0  0
  5  6  1  0  0  0  0
  6  7  1  0  0  0  0
  6 21  2  0  0  0  0
  7  8  2  0  0  0  0
  8  9  1  0  0  0  0
  8 19  1  0  0  0  0
  9 10  1  0  0  0  0
  9 17  2  0  0  0  0
 10 11  1  0  0  0  0
 10 16  1  0  0  0  0
 11 12  1  0  0  0  0
 12 13  1  0  0  0  0
 13 14  1  0  0  0  0
 13 15  1  0  0  0  0
 15 16  1  0  0  0  0
 17 18  1  0  0  0  0
 18 19  1  0  0  0  0
 19 20  2  0  0  0  0
 20 21  1  0  0  0  0
M  END
>  <name>
[SH;so2amide](=O)(=O)CCc1cc2c(C3CCN(C)CC3)c[nH]c2cc1

>  <apo>
1

>  <freq>
1

>  <freq0>
0

>  <freq1>
1

>  <freqA>
0.99887151

>  <a_count>
43

$$$$

  MOE2015           2D

 19 19  0  0  1  0  0  0  0  0999 V2000
    2.4730    5.7610    0.0000 O   0  0  0  0  0  0  0  0  0  0  0  0
    1.7230    7.0600    0.0000 C   0  0  0  0  0  0  0  0  0  0  0  0
    1.7230    4.4620    0.0000 C   0  0  0  0  0  0  0  0  0  0  0  0
    2.4730    3.1630    0.0000 C   0  0  0  0  0  0  0  0  0  0  0  0
    3.9730    3.1630    0.0000 O   0  0  0  0  0  0  0  0  0  0  0  0
    4.7230    1.8640    0.0000 C   0  0  0  0  0  0  0  0  0  0  0  0
    1.7230    1.8640    0.0000 C   0  0  0  0  0  0  0  0  0  0  0  0
    0.2230    1.8640    0.0000 C   0  0  0  0  0  0  0  0  0  0  0  0
   -0.5270    3.1630    0.0000 C   0  0  0  0  0  0  0  0  0  0  0  0
   -2.0270    3.1630    0.0000 C   0  0  3  0  0  0  0  0  0  0  0  0
   -2.0270    1.6630    0.0000 C   0  0  0  0  0  0  0  0  0  0  0  0
   -2.0270    0.1630    0.0000 N   0  0  0  0  0  0  0  0  0  0  0  0
   -3.5270    3.1630    0.0000 C   0  0  0  0  0  0  0  0  0  0  0  0
   -4.2770    4.4620    0.0000 C   0  0  0  0  0  0  0  0  0  0  0  0
   -4.2770    1.8640    0.0000 C   0  0  0  0  0  0  0  0  0  0  0  0
   -2.0270    4.6630    0.0000 C   0  0  0  0  0  0  0  0  0  0  0  0
   -3.3260    5.4130    0.0000 C   0  0  0  0  0  0  0  0  0  0  0  0
   -3.3260    6.9130    0.0000 C   0  0  0  0  0  0  0  0  0  0  0  0
    0.2230    4.4620    0.0000 C   0  0  0  0  0  0  0  0  0  0  0  0
  1  2  1  0  0  0  0
  1  3  1  0  0  0  0
  3  4  1  0  0  0  0
  3 19  2  0  0  0  0
  4  5  1  0  0  0  0
  4  7  2  0  0  0  0
  5  6  1  0  0  0  0
  7  8  1  0  0  0  0
  8  9  2  0  0  0  0
  9 10  1  0  0  0  0
  9 19  1  0  0  0  0
 10 11  1  0  0  0  0
 10 13  1  0  0  0  0
 10 16  1  0  0  0  0
 11 12  3  0  0  0  0
 13 14  1  0  0  0  0
 13 15  1  0  0  0  0
 16 17  1  0  0  0  0
 17 18  1  0  0  0  0
M  END
>  <name>
O(C)c1c(OC)ccc(C(C#N)(C(C)C)CC[C;amine])c1

>  <apo>
1

>  <freq>
1

>  <freq0>
0

>  <freq1>
1

>  <freqA>
0.99887151

>  <a_count>
42

$$$$

  MOE2015           2D

 23 25  0  0  1  0  0  0  0  0999 V2000
    3.2630    5.2310    0.0000 O   0  0  0  0  0  0  0  0  0  0  0  0
    4.0610    6.5010    0.0000 C   0  0  0  0  0  0  0  0  0  0  0  0
    1.7640    5.2870    0.0000 C   0  0  0  0  0  0  0  0  0  0  0  0
    0.9660    4.0170    0.0000 C   0  0  0  0  0  0  0  0  0  0  0  0
   -0.5330    4.0730    0.0000 C   0  0  0  0  0  0  0  0  0  0  0  0
   -1.2340    5.3990    0.0000 C   0  0  0  0  0  0  0  0  0  0  0  0
   -2.7330    5.4550    0.0000 C   0  0  1  0  0  0  0  0  0  0  0  0
   -3.4330    4.1290    0.0000 C   0  0  1  0  0  0  0  0  0  0  0  0
   -2.5420    2.9220    0.0000 O   0  0  0  0  0  0  0  0  0  0  0  0
   -4.9070    3.8490    0.0000 C   0  0  0  0  0  0  0  0  0  0  0  0
   -5.2940    2.4000    0.0000 O   0  0  0  0  0  0  0  0  0  0  0  0
   -6.0450    4.8260    0.0000 N   0  0  0  0  0  0  0  0  0  0  0  0
   -7.4190    4.2260    0.0000 C   0  0  0  0  0  0  0  0  0  0  0  0
   -7.5870    2.7350    0.0000 C   0  0  0  0  0  0  0  0  0  0  0  0
   -5.9890    6.3250    0.0000 C   0  0  0  0  0  0  0  0  0  0  0  0
   -4.7810    7.2170    0.0000 C   0  0  0  0  0  0  0  0  0  0  0  0
   -3.3320    6.8300    0.0000 S   0  0  0  0  0  0  0  0  0  0  0  0
   -4.9500    8.7080    0.0000 C   0  0  0  0  0  0  0  0  0  0  0  0
   -6.3250    9.3070    0.0000 C   0  0  0  0  0  0  0  0  0  0  0  0
   -7.5320    8.4150    0.0000 C   0  0  0  0  0  0  0  0  0  0  0  0
   -7.3640    6.9240    0.0000 C   0  0  0  0  0  0  0  0  0  0  0  0
   -0.4350    6.6690    0.0000 C   0  0  0  0  0  0  0  0  0  0  0  0
    1.0630    6.6130    0.0000 C   0  0  0  0  0  0  0  0  0  0  0  0
  1  2  1  0  0  0  0
  1  3  1  0  0  0  0
  3  4  1  0  0  0  0
  3 23  2  0  0  0  0
  4  5  2  0  0  0  0
  5  6  1  0  0  0  0
  7  6  1  1  0  0  0
  6 22  2  0  0  0  0
  7  8  1  0  0  0  0
  7 17  1  0  0  0  0
  8  9  1  1  0  0  0
  8 10  1  0  0  0  0
 10 11  2  0  0  0  0
 10 12  1  0  0  0  0
 12 13  1  0  0  0  0
 12 15  1  0  0  0  0
 13 14  1  0  0  0  0
 15 16  2  0  0  0  0
 15 21  1  0  0  0  0
 16 17  1  0  0  0  0
 16 18  1  0  0  0  0
 18 19  2  0  0  0  0
 19 20  1  0  0  0  0
 20 21  2  0  0  0  0
 22 23  1  0  0  0  0
M  END
>  <name>
O(C)c1ccc([C@H]2[C@@H]([O;ester])C(=O)N(C[C;amine])c3c(S2)cccc3)cc1

>  <apo>
2

>  <freq>
1

>  <freq0>
0

>  <freq1>
1

>  <freqA>
0.99887151

>  <a_count>
42

$$$$

  MOE2015           2D

 20 21  0  0  0  0  0  0  0  0999 V2000
    0.9030   -3.3720    0.0000 O   0  0  0  0  0  0  0  0  0  0  0  0
    2.2020   -2.6220    0.0000 C   0  0  0  0  0  0  0  0  0  0  0  0
    2.2020   -1.1220    0.0000 C   0  0  0  0  0  0  0  0  0  0  0  0
    2.2020    0.3780    0.0000 C   0  0  0  0  0  0  0  0  0  0  0  0
    0.9030    1.1280    0.0000 C   0  0  0  0  0  0  0  0  0  0  0  0
    0.9030    2.6280    0.0000 C   0  0  0  0  0  0  0  0  0  0  0  0
    0.7020   -1.1220    0.0000 C   0  0  0  0  0  0  0  0  0  0  0  0
   -0.0480   -2.4210    0.0000 C   0  0  0  0  0  0  0  0  0  0  0  0
   -1.5480   -2.4210    0.0000 C   0  0  0  0  0  0  0  0  0  0  0  0
   -2.2980   -1.1220    0.0000 C   0  0  0  0  0  0  0  0  0  0  0  0
   -1.5480    0.1770    0.0000 C   0  0  0  0  0  0  0  0  0  0  0  0
   -0.0480    0.1770    0.0000 C   0  0  0  0  0  0  0  0  0  0  0  0
    3.7020   -1.1220    0.0000 C   0  0  0  0  0  0  0  0  0  0  0  0
    4.4520   -2.4210    0.0000 C   0  0  0  0  0  0  0  0  0  0  0  0
    5.9520   -2.4210    0.0000 C   0  0  0  0  0  0  0  0  0  0  0  0
    6.7020   -1.1220    0.0000 C   0  0  0  0  0  0  0  0  0  0  0  0
    5.9520    0.1770    0.0000 C   0  0  0  0  0  0  0  0  0  0  0  0
    4.4520    0.1770    0.0000 C   0  0  0  0  0  0  0  0  0  0  0  0
    3.5010   -3.3720    0.0000 C   0  0  0  0  0  0  0  0  0  0  0  0
    3.5010   -4.8720    0.0000 C   0  0  0  0  0  0  0  0  0  0  0  0
  1  2  2  0  0  0  0
  2  3  1  0  0  0  0
  2 19  1  0  0  0  0
  3  4  1  0  0  0  0
  3  7  1  0  0  0  0
  3 13  1  0  0  0  0
  4  5  1  0  0  0  0
  5  6  1  0  0  0  0
  7  8  1  0  0  0  0
  7 12  2  0  0  0  0
  8  9  2  0  0  0  0
  9 10  1  0  0  0  0
 10 11  2  0  0  0  0
 11 12  1  0  0  0  0
 13 14  1  0  0  0  0
 13 18  2  0  0  0  0
 14 15  2  0  0  0  0
 15 16  1  0  0  0  0
 16 17  2  0  0  0  0
 17 18  1  0  0  0  0
 19 20  1  0  0  0  0
M  END
>  <name>
O=C(C(C[C;amine]C)(c1ccccc1)c1ccccc1)CC

>  <apo>
1

>  <freq>
1

>  <freq0>
0

>  <freq1>
1

>  <freqA>
0.99887151

>  <a_count>
42

$$$$

  MOE2015           2D

 26 29  0  0  1  0  0  0  0  0999 V2000
   10.1990    5.8890    0.0000 O   0  0  0  0  0  0  0  0  0  0  0  0
    9.4490    4.5900    0.0000 C   0  0  0  0  0  0  0  0  0  0  0  0
   10.1990    3.2910    0.0000 C   0  0  0  0  0  0  0  0  0  0  0  0
    7.9490    4.5900    0.0000 C   0  0  1  0  0  0  0  0  0  0  0  0
    8.6990    3.2910    0.0000 O   0  0  0  0  0  0  0  0  0  0  0  0
    6.6500    3.8400    0.0000 C   0  0  0  0  0  0  0  0  0  0  0  0
    5.3510    4.5900    0.0000 C   0  0  0  0  0  0  0  0  0  0  0  0
    4.0520    3.8400    0.0000 C   0  0  0  0  0  0  0  0  0  0  0  0
    4.0520    2.3400    0.0000 O   0  0  0  0  0  0  0  0  0  0  0  0
    2.7530    4.5900    0.0000 C   0  0  0  0  0  0  0  0  0  0  0  0
    1.4540    3.8400    0.0000 C   0  0  0  0  0  0  0  0  0  0  0  0
    1.4540    2.3400    0.0000 O   0  0  0  0  0  0  0  0  0  0  0  0
    0.1550    4.5900    0.0000 C   0  0  0  0  0  0  0  0  0  0  0  0
    0.1550    6.0900    0.0000 C   0  0  0  0  0  0  0  0  0  0  0  0
    1.4540    6.8400    0.0000 C   0  0  0  0  0  0  0  0  0  0  0  0
    1.4540    8.3400    0.0000 O   0  0  0  0  0  0  0  0  0  0  0  0
    2.7530    6.0900    0.0000 C   0  0  0  0  0  0  0  0  0  0  0  0
    4.0520    6.8400    0.0000 C   0  0  0  0  0  0  0  0  0  0  0  0
    4.0520    8.3400    0.0000 O   0  0  0  0  0  0  0  0  0  0  0  0
    5.3510    6.0900    0.0000 C   0  0  0  0  0  0  0  0  0  0  0  0
    6.6500    6.8400    0.0000 C   0  0  0  0  0  0  0  0  0  0  0  0
    7.9490    6.0900    0.0000 C   0  0  0  0  0  0  0  0  0  0  0  0
   -1.1440    6.8400    0.0000 C   0  0  0  0  0  0  0  0  0  0  0  0
   -2.4430    6.0900    0.0000 C   0  0  0  0  0  0  0  0  0  0  0  0
   -2.4430    4.5900    0.0000 C   0  0  0  0  0  0  0  0  0  0  0  0
   -1.1440    3.8400    0.0000 C   0  0  0  0  0  0  0  0  0  0  0  0
  1  2  2  0  0  0  0
  2  3  1  0  0  0  0
  4  2  1  1  0  0  0
  4  5  1  6  0  0  0
  4  6  1  0  0  0  0
  4 22  1  0  0  0  0
  6  7  1  0  0  0  0
  7  8  2  0  0  0  0
  7 20  1  0  0  0  0
  8  9  1  0  0  0  0
  8 10  1  0  0  0  0
 10 11  1  0  0  0  0
 10 17  2  0  0  0  0
 11 12  2  0  0  0  0
 11 13  1  0  0  0  0
 13 14  2  0  0  0  0
 13 26  1  0  0  0  0
 14 15  1  0  0  0  0
 14 23  1  0  0  0  0
 15 16  2  0  0  0  0
 15 17  1  0  0  0  0
 17 18  1  0  0  0  0
 18 19  1  0  0  0  0
 18 20  2  0  0  0  0
 20 21  1  0  0  0  0
 21 22  1  0  0  0  0
 23 24  2  0  0  0  0
 24 25  1  0  0  0  0
 25 26  2  0  0  0  0
M  END
>  <name>
O=C(C)[C@@]1(O)Cc2c(O)c3C(=O)c4c(C(=O)c3c(O)c2[C;ether]C1)cccc4

>  <apo>
1

>  <freq>
1

>  <freq0>
0

>  <freq1>
1

>  <freqA>
0.99887151

>  <a_count>
42

$$$$

  MOE2015           2D

 18 18  0  0  1  0  0  0  0  0999 V2000
    8.0250    8.0780    0.0000 O   0  0  0  0  0  0  0  0  0  0  0  0
    8.0350    6.5780    0.0000 C   0  0  0  0  0  0  0  0  0  0  0  0
    9.3390    5.8370    0.0000 O   0  0  0  0  0  0  0  0  0  0  0  0
   10.6330    6.5950    0.0000 C   0  0  0  0  0  0  0  0  0  0  0  0
    6.7400    5.8190    0.0000 C   0  0  0  0  0  0  0  0  0  0  0  0
    5.4370    6.5610    0.0000 C   0  0  0  0  0  0  0  0  0  0  0  0
    4.1420    5.8020    0.0000 C   0  0  0  0  0  0  0  0  0  0  0  0
    2.8380    6.5440    0.0000 C   0  0  0  0  0  0  0  0  0  0  0  0
    1.5440    5.7850    0.0000 C   0  0  0  0  0  0  0  0  0  0  0  0
    0.2400    6.5260    0.0000 C   0  0  0  0  0  0  0  0  0  0  0  0
   -1.0540    5.7680    0.0000 C   0  0  2  0  0  0  0  0  0  0  0  0
   -2.4280    6.3690    0.0000 C   0  0  1  0  0  0  0  0  0  0  0  0
   -2.7490    7.8340    0.0000 C   0  0  0  0  0  0  0  0  0  0  0  0
   -3.4240    5.2470    0.0000 C   0  0  2  0  0  0  0  0  0  0  0  0
   -4.9170    5.3940    0.0000 O   0  0  0  0  0  0  0  0  0  0  0  0
   -2.6660    3.9530    0.0000 C   0  0  0  0  0  0  0  0  0  0  0  0
   -1.2000    4.2750    0.0000 C   0  0  0  0  0  0  0  0  0  0  0  0
   -0.0790    3.2790    0.0000 O   0  0  0  0  0  0  0  0  0  0  0  0
  1  2  2  0  0  0  0
  2  3  1  0  0  0  0
  2  5  1  0  0  0  0
  3  4  1  0  0  0  0
  5  6  1  0  0  0  0
  6  7  1  0  0  0  0
  7  8  1  0  0  0  0
  8  9  1  0  0  0  0
  9 10  1  0  0  0  0
 11 10  1  1  0  0  0
 11 12  1  0  0  0  0
 11 17  1  0  0  0  0
 12 13  1  6  0  0  0
 12 14  1  0  0  0  0
 14 15  1  1  0  0  0
 14 16  1  0  0  0  0
 16 17  1  0  0  0  0
 17 18  2  0  0  0  0
M  END
>  <name>
O=C(OC)CCCCCC[C@@H]1[C@@H]([C;olefin])[C@H](O)CC1=O

>  <apo>
1

>  <freq>
1

>  <freq0>
0

>  <freq1>
1

>  <freqA>
0.99887151

>  <a_count>
42

$$$$

  MOE2015           2D

 23 25  0  0  0  0  0  0  0  0999 V2000
    3.3160   -2.1530    0.0000 O   0  0  0  0  0  0  0  0  0  0  0  0
    2.7060   -0.7830    0.0000 C   0  0  0  0  0  0  0  0  0  0  0  0
    3.5870    0.4310    0.0000 C   0  0  0  0  0  0  0  0  0  0  0  0
    5.0870    0.4310    0.0000 C   0  0  0  0  0  0  0  0  0  0  0  0
    5.9690   -0.7830    0.0000 C   0  0  0  0  0  0  0  0  0  0  0  0
    7.4610   -0.6260    0.0000 C   0  0  0  0  0  0  0  0  0  0  0  0
    8.3430   -1.8400    0.0000 C   0  0  0  0  0  0  0  0  0  0  0  0
    9.8340   -1.6830    0.0000 C   0  0  0  0  0  0  0  0  0  0  0  0
    5.5510    1.8570    0.0000 O   0  0  0  0  0  0  0  0  0  0  0  0
    4.3370    2.7390    0.0000 C   0  0  0  0  0  0  0  0  0  0  0  0
    3.1240    1.8570    0.0000 C   0  0  0  0  0  0  0  0  0  0  0  0
    1.7540    2.4670    0.0000 C   0  0  0  0  0  0  0  0  0  0  0  0
    1.5970    3.9590    0.0000 C   0  0  0  0  0  0  0  0  0  0  0  0
    0.2260    4.5690    0.0000 N   0  0  0  0  0  0  0  0  0  0  0  0
    2.8100    4.8410    0.0000 C   0  0  0  0  0  0  0  0  0  0  0  0
    4.1810    4.2310    0.0000 C   0  0  0  0  0  0  0  0  0  0  0  0
    1.2140   -0.6260    0.0000 C   0  0  0  0  0  0  0  0  0  0  0  0
    0.3320   -1.8400    0.0000 C   0  0  0  0  0  0  0  0  0  0  0  0
   -1.1600   -1.6830    0.0000 C   0  0  0  0  0  0  0  0  0  0  0  0
   -1.7700   -0.3130    0.0000 C   0  0  0  0  0  0  0  0  0  0  0  0
   -3.2610   -0.1560    0.0000 O   0  0  0  0  0  0  0  0  0  0  0  0
   -0.8880    0.9010    0.0000 C   0  0  0  0  0  0  0  0  0  0  0  0
    0.6040    0.7440    0.0000 C   0  0  0  0  0  0  0  0  0  0  0  0
  1  2  2  0  0  0  0
  2  3  1  0  0  0  0
  2 17  1  0  0  0  0
  3  4  2  0  0  0  0
  3 11  1  0  0  0  0
  4  5  1  0  0  0  0
  4  9  1  0  0  0  0
  5  6  1  0  0  0  0
  6  7  1  0  0  0  0
  7  8  1  0  0  0  0
  9 10  1  0  0  0  0
 10 11  1  0  0  0  0
 10 16  2  0  0  0  0
 11 12  2  0  0  0  0
 12 13  1  0  0  0  0
 13 14  1  0  0  0  0
 13 15  2  0  0  0  0
 15 16  1  0  0  0  0
 17 18  1  0  0  0  0
 17 23  2  0  0  0  0
 18 19  2  0  0  0  0
 19 20  1  0  0  0  0
 20 21  1  0  0  0  0
 20 22  2  0  0  0  0
 22 23  1  0  0  0  0
M  END
>  <name>
O=C(c1c(CCCC)oc2c1cc([N;so2amide])cc2)c1ccc([O;ether])cc1

>  <apo>
2

>  <freq>
1

>  <freq0>
0

>  <freq1>
1

>  <freqA>
0.99887151

>  <a_count>
42

$$$$

  MOE2015           2D

 24 26  0  0  0  0  0  0  0  0999 V2000
    1.0080   -2.6460    0.0000 O   0  0  0  0  0  0  0  0  0  0  0  0
    1.3920   -1.1960    0.0000 C   0  0  0  0  0  0  0  0  0  0  0  0
    0.4450   -0.0330    0.0000 N   0  0  0  0  0  0  0  0  0  0  0  0
   -1.0530   -0.1160    0.0000 C   0  0  0  0  0  0  0  0  0  0  0  0
   -1.8740    1.1390    0.0000 C   0  0  0  0  0  0  0  0  0  0  0  0
   -3.3710    1.0570    0.0000 C   0  0  0  0  0  0  0  0  0  0  0  0
   -4.1920    2.3120    0.0000 C   0  0  0  0  0  0  0  0  0  0  0  0
   -4.0490   -0.2820    0.0000 C   0  0  0  0  0  0  0  0  0  0  0  0
   -5.5460   -0.3650    0.0000 C   0  0  0  0  0  0  0  0  0  0  0  0
   -3.2280   -1.5380    0.0000 C   0  0  0  0  0  0  0  0  0  0  0  0
   -1.7300   -1.4550    0.0000 C   0  0  0  0  0  0  0  0  0  0  0  0
    1.2580    1.2270    0.0000 N   0  0  0  0  0  0  0  0  0  0  0  0
    2.7080    0.8430    0.0000 C   0  0  0  0  0  0  0  0  0  0  0  0
    3.8710    1.7900    0.0000 C   0  0  0  0  0  0  0  0  0  0  0  0
    2.7910   -0.6550    0.0000 C   0  0  0  0  0  0  0  0  0  0  0  0
    4.0510   -1.4680    0.0000 N   0  0  0  0  0  0  0  0  0  0  0  0
    5.3860   -0.7830    0.0000 N   0  0  0  0  0  0  0  0  0  0  0  0
    6.6460   -1.5970    0.0000 C   0  0  0  0  0  0  0  0  0  0  0  0
    7.9800   -0.9120    0.0000 C   0  0  0  0  0  0  0  0  0  0  0  0
    8.0550    0.5860    0.0000 O   0  0  0  0  0  0  0  0  0  0  0  0
    9.2410   -1.7250    0.0000 C   0  0  0  0  0  0  0  0  0  0  0  0
    9.1670   -3.2230    0.0000 C   0  0  0  0  0  0  0  0  0  0  0  0
    7.8320   -3.9080    0.0000 C   0  0  0  0  0  0  0  0  0  0  0  0
    6.5720   -3.0950    0.0000 C   0  0  0  0  0  0  0  0  0  0  0  0
  1  2  2  0  0  0  0
  2  3  1  0  0  0  0
  2 15  1  0  0  0  0
  3  4  1  0  0  0  0
  3 12  1  0  0  0  0
  4  5  1  0  0  0  0
  4 11  2  0  0  0  0
  5  6  2  0  0  0  0
  6  7  1  0  0  0  0
  6  8  1  0  0  0  0
  8  9  1  0  0  0  0
  8 10  2  0  0  0  0
 10 11  1  0  0  0  0
 12 13  2  0  0  0  0
 13 14  1  0  0  0  0
 13 15  1  0  0  0  0
 15 16  2  0  0  0  0
 16 17  1  0  0  0  0
 17 18  1  0  0  0  0
 18 19  2  0  0  0  0
 18 24  1  0  0  0  0
 19 20  1  0  0  0  0
 19 21  1  0  0  0  0
 21 22  2  0  0  0  0
 22 23  1  0  0  0  0
 23 24  2  0  0  0  0
M  END
>  <name>
O=C/1N(c2cc(C)c(C)cc2)N=C(C)\C\1=N/Nc1c(O)[c;biphenyl]ccc1

>  <apo>
1

>  <freq>
1

>  <freq0>
0

>  <freq1>
1

>  <freqA>
0.99887151

>  <a_count>
42

$$$$

  MOE2015           2D

 18 19  0  0  1  0  0  0  0  0999 V2000
    1.8860    4.1550    0.0000 O   0  0  0  0  0  0  0  0  0  0  0  0
    2.6490    2.8630    0.0000 C   0  0  0  0  0  0  0  0  0  0  0  0
    2.0520    1.4870    0.0000 C   0  0  0  0  0  0  0  0  0  0  0  0
    0.5880    1.1610    0.0000 C   0  0  0  0  0  0  0  0  0  0  0  0
    3.1770    0.4940    0.0000 C   0  0  2  0  0  0  0  0  0  0  0  0
    3.0340   -0.9990    0.0000 C   0  0  0  0  0  0  0  0  0  0  0  0
    1.6700   -1.6220    0.0000 C   0  0  0  0  0  0  0  0  0  0  0  0
    1.5280   -3.1150    0.0000 C   0  0  0  0  0  0  0  0  0  0  0  0
    0.1630   -3.7390    0.0000 C   0  0  0  0  0  0  0  0  0  0  0  0
    4.4680    1.2570    0.0000 C   0  0  1  0  0  0  0  0  0  0  0  0
    5.8440    0.6600    0.0000 C   0  0  1  0  0  0  0  0  0  0  0  0
    7.3350    0.8310    0.0000 C   0  0  2  0  0  0  0  0  0  0  0  0
    8.8340    0.8070    0.0000 C   0  0  0  0  0  0  0  0  0  0  0  0
    9.5630   -0.5050    0.0000 C   0  0  0  0  0  0  0  0  0  0  0  0
   11.0630   -0.5290    0.0000 C   0  0  0  0  0  0  0  0  0  0  0  0
    7.7470    2.2740    0.0000 C   0  0  0  0  0  0  0  0  0  0  0  0
    6.7380   -0.5450    0.0000 O   0  0  0  0  0  0  0  0  0  0  0  0
    4.1420    2.7210    0.0000 O   0  0  0  0  0  0  0  0  0  0  0  0
  1  2  2  0  0  0  0
  2  3  1  0  0  0  0
  2 18  1  0  0  0  0
  3  4  2  0  0  0  0
  3  5  1  0  0  0  0
  5  6  1  1  0  0  0
  5 10  1  0  0  0  0
  6  7  1  0  0  0  0
  7  8  1  0  0  0  0
  8  9  1  0  0  0  0
 10 11  1  0  0  0  0
 10 18  1  6  0  0  0
 11 12  1  0  0  0  0
 11 17  1  1  0  0  0
 12 13  1  1  0  0  0
 12 16  1  6  0  0  0
 12 17  1  0  0  0  0
 13 14  1  0  0  0  0
 14 15  1  0  0  0  0
M  END
>  <name>
O=C1C(=C)[C@H](CC[C;olefin]C)[C@@H]([C@H]2[C@](CC[C;olefin])(C)O2)O1

>  <apo>
2

>  <freq>
1

>  <freq0>
0

>  <freq1>
1

>  <freqA>
0.99887151

>  <a_count>
42

$$$$

  MOE2015           2D

 22 26  0  0  1  0  0  0  0  0999 V2000
    3.0080    3.0290    0.0000 O   0  0  0  0  0  0  0  0  0  0  0  0
    3.0180    1.5290    0.0000 C   0  0  0  0  0  0  0  0  0  0  0  0
    4.2640    0.8210    0.0000 C   0  0  2  0  0  0  0  0  0  0  0  0
    6.0200    1.0570    0.0000 O   0  0  0  0  0  0  0  0  0  0  0  0
    6.7590   -0.5750    0.0000 C   0  0  0  0  0  0  0  0  0  0  0  0
    8.0100   -1.2810    0.0000 C   0  0  0  0  0  0  0  0  0  0  0  0
    9.3010   -0.5170    0.0000 O   0  0  0  0  0  0  0  0  0  0  0  0
    8.0260   -2.7130    0.0000 C   0  0  0  0  0  0  0  0  0  0  0  0
    6.7920   -3.4390    0.0000 C   0  0  0  0  0  0  0  0  0  0  0  0
    5.5490   -2.7400    0.0000 C   0  0  0  0  0  0  0  0  0  0  0  0
    5.5320   -1.3080    0.0000 C   0  0  0  0  0  0  0  0  0  0  0  0
    4.2750   -0.6050    0.0000 C   0  0  2  0  0  0  0  0  0  0  0  0
    3.0390   -1.3330    0.0000 C   0  0  2  0  0  0  0  0  0  0  0  0
    1.7510   -2.1020    0.0000 O   0  0  0  0  0  0  0  0  0  0  0  0
    3.0530   -2.7770    0.0000 C   0  0  2  0  0  0  0  0  0  0  0  0
    2.0540   -3.8210    0.0000 N   0  3  2  0  0  0  0  0  0  0  0  0
    0.6780   -4.4190    0.0000 C   0  0  0  0  0  0  0  0  0  0  0  0
    3.4930   -3.8050    0.0000 C   0  0  0  0  0  0  0  0  0  0  0  0
    4.6760   -2.0070    0.0000 C   0  0  0  0  0  0  0  0  0  0  0  0
    4.3090   -3.4720    0.0000 C   0  0  0  0  0  0  0  0  0  0  0  0
    1.7910   -0.6340    0.0000 C   0  0  0  0  0  0  0  0  0  0  0  0
    1.7820    0.8020    0.0000 C   0  0  0  0  0  0  0  0  0  0  0  0
  1  2  2  0  0  0  0
  2  3  1  0  0  0  0
  2 22  1  0  0  0  0
  3  4  1  6  0  0  0
  3 12  1  0  0  0  0
  4  5  1  0  0  0  0
  5  6  1  0  0  0  0
  5 11  2  0  0  0  0
  6  7  1  0  0  0  0
  6  8  2  0  0  0  0
  8  9  1  0  0  0  0
  9 10  2  0  0  0  0
 10 11  1  0  0  0  0
 10 20  1  0  0  0  0
 11 12  1  0  0  0  0
 12 13  1  0  0  0  0
 12 19  1  1  0  0  0
 13 14  1  1  0  0  0
 13 15  1  0  0  0  0
 13 21  1  0  0  0  0
 15 16  1  0  0  0  0
 15 20  1  1  0  0  0
 16 17  1  1  0  0  0
 16 18  1  0  0  0  0
 18 19  1  0  0  0  0
 21 22  1  0  0  0  0
M  CHG  1  16   1
M  END
>  <name>
O=C1[C@@H]2Oc3c(O)ccc4c3[C@@]32[C@](O)([C@H]([N+@H;quatN](C)CC3)C4)CC1

>  <apo>
1

>  <freq>
1

>  <freq0>
0

>  <freq1>
1

>  <freqA>
0.99887151

>  <a_count>
42

$$$$

  MOE2015           2D

 21 20  0  0  0  0  0  0  0  0999 V2000
   -0.3710    0.0000    0.0000 P   0  0  0  0  0  0  0  0  0  0  0  0
    0.3790   -1.2990    0.0000 O   0  0  0  0  0  0  0  0  0  0  0  0
    0.9280    0.7500    0.0000 O   0  0  0  0  0  0  0  0  0  0  0  0
    2.2270    0.0000    0.0000 C   0  0  0  0  0  0  0  0  0  0  0  0
    3.5260    0.7500    0.0000 O   0  0  0  0  0  0  0  0  0  0  0  0
    4.8250    0.0000    0.0000 C   0  0  0  0  0  0  0  0  0  0  0  0
    4.8250   -1.5000    0.0000 O   0  0  0  0  0  0  0  0  0  0  0  0
    6.1240    0.7500    0.0000 O   0  0  0  0  0  0  0  0  0  0  0  0
    7.4230    0.0000    0.0000 C   0  0  0  0  0  0  0  0  0  0  0  0
    7.4230   -1.5000    0.0000 C   0  0  0  0  0  0  0  0  0  0  0  0
    8.7220    0.7500    0.0000 C   0  0  0  0  0  0  0  0  0  0  0  0
   -1.6700   -0.7500    0.0000 O   0  0  0  0  0  0  0  0  0  0  0  0
   -2.9690    0.0000    0.0000 C   0  0  0  0  0  0  0  0  0  0  0  0
   -4.2680   -0.7500    0.0000 O   0  0  0  0  0  0  0  0  0  0  0  0
   -5.5670    0.0000    0.0000 C   0  0  0  0  0  0  0  0  0  0  0  0
   -6.8660   -0.7500    0.0000 O   0  0  0  0  0  0  0  0  0  0  0  0
   -5.5670    1.5000    0.0000 O   0  0  0  0  0  0  0  0  0  0  0  0
   -6.8660    2.2500    0.0000 C   0  0  0  0  0  0  0  0  0  0  0  0
   -8.1650    1.5000    0.0000 C   0  0  0  0  0  0  0  0  0  0  0  0
   -6.8660    3.7500    0.0000 C   0  0  0  0  0  0  0  0  0  0  0  0
   -1.1210    1.2990    0.0000 C   0  0  0  0  0  0  0  0  0  0  0  0
  1  2  2  0  0  0  0
  1  3  1  0  0  0  0
  1 12  1  0  0  0  0
  1 21  1  0  0  0  0
  3  4  1  0  0  0  0
  4  5  1  0  0  0  0
  5  6  1  0  0  0  0
  6  7  2  0  0  0  0
  6  8  1  0  0  0  0
  8  9  1  0  0  0  0
  9 10  1  0  0  0  0
  9 11  1  0  0  0  0
 12 13  1  0  0  0  0
 13 14  1  0  0  0  0
 14 15  1  0  0  0  0
 15 16  2  0  0  0  0
 15 17  1  0  0  0  0
 17 18  1  0  0  0  0
 18 19  1  0  0  0  0
 18 20  1  0  0  0  0
M  END
>  <name>
P(=O)(OCOC(=O)OC(C)C)(OCOC(=O)OC(C)C)[C;ether]

>  <apo>
1

>  <freq>
1

>  <freq0>
0

>  <freq1>
1

>  <freqA>
0.99887151

>  <a_count>
42

$$$$

  MOE2015           2D

 20 23  0  0  1  0  0  0  0  0999 V2000
   11.0920   -3.4300    0.0000 O   0  0  0  0  0  0  0  0  0  0  0  0
    9.7860   -4.1680    0.0000 C   0  0  0  0  0  0  0  0  0  0  0  0
    8.4940   -3.4050    0.0000 C   0  0  1  0  0  0  0  0  0  0  0  0
    8.5080   -1.9050    0.0000 C   0  0  0  0  0  0  0  0  0  0  0  0
    7.2170   -1.1430    0.0000 N   0  0  0  0  0  0  0  0  0  0  0  0
    7.2190    0.3570    0.0000 C   0  0  0  0  0  0  0  0  0  0  0  0
    5.9040   -1.9110    0.0000 C   0  0  1  0  0  0  0  0  0  0  0  0
    5.9050   -3.3740    0.0000 C   0  0  2  0  0  0  0  0  0  0  0  0
    4.6450   -4.1150    0.0000 C   0  0  0  0  0  0  0  0  0  0  0  0
    3.3680   -3.3910    0.0000 C   0  0  0  0  0  0  0  0  0  0  0  0
    2.1000   -4.1310    0.0000 C   0  0  0  0  0  0  0  0  0  0  0  0
    0.9670   -3.1530    0.0000 N   0  0  0  0  0  0  0  0  0  0  0  0
   -0.5120   -3.4030    0.0000 C   0  0  0  0  0  0  0  0  0  0  0  0
    1.8980   -1.5360    0.0000 C   0  0  0  0  0  0  0  0  0  0  0  0
    3.3570   -1.9230    0.0000 C   0  0  0  0  0  0  0  0  0  0  0  0
    4.6280   -1.1820    0.0000 C   0  0  0  0  0  0  0  0  0  0  0  0
    2.1100   -5.5950    0.0000 C   0  0  0  0  0  0  0  0  0  0  0  0
    3.3850   -6.3210    0.0000 C   0  0  0  0  0  0  0  0  0  0  0  0
    4.6460   -5.5800    0.0000 C   0  0  0  0  0  0  0  0  0  0  0  0
    7.1880   -4.1430    0.0000 C   0  0  0  0  0  0  0  0  0  0  0  0
  1  2  1  0  0  0  0
  3  2  1  6  0  0  0
  3  4  1  0  0  0  0
  3 20  1  0  0  0  0
  4  5  1  0  0  0  0
  5  6  1  0  0  0  0
  7  5  1  1  0  0  0
  7  8  1  0  0  0  0
  7 16  1  0  0  0  0
  8  9  1  1  0  0  0
  8 20  1  0  0  0  0
  9 10  2  0  0  0  0
  9 19  1  0  0  0  0
 10 11  1  0  0  0  0
 10 15  1  0  0  0  0
 11 12  1  0  0  0  0
 11 17  2  0  0  0  0
 12 13  1  0  0  0  0
 12 14  1  0  0  0  0
 14 15  2  0  0  0  0
 15 16  1  0  0  0  0
 17 18  1  0  0  0  0
 18 19  2  0  0  0  0
M  END
>  <name>
[O;ester]C[C@H]1CN(C)[C@H]2[C@H;ether](c3c4c(n(C)cc4C2)ccc3)C1

>  <apo>
2

>  <freq>
1

>  <freq0>
0

>  <freq1>
1

>  <freqA>
0.99887151

>  <a_count>
42

$$$$

  MOE2015           2D

 23 23  0  0  0  0  0  0  0  0999 V2000
    1.2720   -2.2030    0.0000 S   0  0  0  0  0  0  0  0  0  0  0  0
    2.0220   -0.9040    0.0000 C   0  0  0  0  0  0  0  0  0  0  0  0
    1.2720    0.3950    0.0000 C   0  0  0  0  0  0  0  0  0  0  0  0
   -0.2280    0.3950    0.0000 N   0  0  0  0  0  0  0  0  0  0  0  0
   -0.9780    1.6940    0.0000 C   0  0  0  0  0  0  0  0  0  0  0  0
   -0.2280    2.9930    0.0000 O   0  0  0  0  0  0  0  0  0  0  0  0
   -0.9780   -0.9040    0.0000 C   0  0  0  0  0  0  0  0  0  0  0  0
   -2.4780   -0.9040    0.0000 C   0  0  0  0  0  0  0  0  0  0  0  0
   -3.2280   -2.2030    0.0000 C   0  0  0  0  0  0  0  0  0  0  0  0
   -2.4780   -3.5020    0.0000 N   0  0  0  0  0  0  0  0  0  0  0  0
   -4.7280   -2.2030    0.0000 N   0  0  0  0  0  0  0  0  0  0  0  0
   -5.4780   -0.9040    0.0000 C   0  0  0  0  0  0  0  0  0  0  0  0
   -6.9780   -0.9040    0.0000 C   0  0  0  0  0  0  0  0  0  0  0  0
   -4.7280    0.3950    0.0000 N   0  0  0  0  0  0  0  0  0  0  0  0
   -3.2280    0.3950    0.0000 C   0  0  0  0  0  0  0  0  0  0  0  0
    2.0220    1.6940    0.0000 C   0  0  0  0  0  0  0  0  0  0  0  0
    3.5220   -0.9040    0.0000 C   0  0  0  0  0  0  0  0  0  0  0  0
    4.2720   -2.2030    0.0000 C   0  0  0  0  0  0  0  0  0  0  0  0
    5.7720   -2.2030    0.0000 O   0  0  0  0  0  0  0  0  0  0  0  0
    6.5220   -3.5020    0.0000 P   0  0  0  0  0  0  0  0  0  0  0  0
    7.2720   -4.8010    0.0000 O   0  0  0  0  0  0  0  0  0  0  0  0
    5.2230   -4.2520    0.0000 O   0  0  0  0  0  0  0  0  0  0  0  0
    7.8210   -2.7520    0.0000 O   0  0  0  0  0  0  0  0  0  0  0  0
  1  2  1  0  0  0  0
  2  3  2  0  0  0  0
  2 17  1  0  0  0  0
  3  4  1  0  0  0  0
  3 16  1  0  0  0  0
  4  5  1  0  0  0  0
  4  7  1  0  0  0  0
  5  6  2  0  0  0  0
  7  8  1  0  0  0  0
  8  9  1  0  0  0  0
  8 15  2  0  0  0  0
  9 10  1  0  0  0  0
  9 11  2  0  0  0  0
 11 12  1  0  0  0  0
 12 13  1  0  0  0  0
 12 14  2  0  0  0  0
 14 15  1  0  0  0  0
 17 18  1  0  0  0  0
 18 19  1  0  0  0  0
 19 20  1  0  0  0  0
 20 21  2  0  0  0  0
 20 22  1  0  0  0  0
 20 23  1  0  0  0  0
M  END
>  <name>
[S;thioester]/C(=C(\N(C=O)Cc1c(N)nc(C)nc1)/C)/CCOP(=O)(O)O

>  <apo>
1

>  <freq>
1

>  <freq0>
0

>  <freq1>
1

>  <freqA>
0.99887151

>  <a_count>
42

$$$$

  MOE2015           2D

 18 20  0  0  1  0  0  0  0  0999 V2000
    0.5380    0.3110    0.0000 C   0  0  0  0  0  0  0  0  0  0  0  0
   -0.2120   -0.9880    0.0000 C   0  0  0  0  0  0  0  0  0  0  0  0
   -0.2120    1.6100    0.0000 C   0  0  2  0  0  0  0  0  0  0  0  0
    1.2880    1.6100    0.0000 C   0  0  0  0  0  0  0  0  0  0  0  0
    2.0380    0.3110    0.0000 N   0  0  0  0  0  0  0  0  0  0  0  0
    3.5380    0.3110    0.0000 C   0  0  0  0  0  0  0  0  0  0  0  0
    4.2880    1.6100    0.0000 C   0  0  0  0  0  0  0  0  0  0  0  0
    3.5380    2.9090    0.0000 C   0  0  0  0  0  0  0  0  0  0  0  0
    2.0380    2.9090    0.0000 C   0  0  0  0  0  0  0  0  0  0  0  0
   -1.5110    0.8600    0.0000 C   0  0  0  0  0  0  0  0  0  0  0  0
   -2.8100    1.6100    0.0000 C   0  0  0  0  0  0  0  0  0  0  0  0
   -2.8100    3.1100    0.0000 O   0  0  0  0  0  0  0  0  0  0  0  0
   -1.5110    3.8600    0.0000 C   0  0  0  0  0  0  0  0  0  0  0  0
   -0.2120    3.1100    0.0000 C   0  0  0  0  0  0  0  0  0  0  0  0
   -2.9670    0.1180    0.0000 C   0  0  0  0  0  0  0  0  0  0  0  0
   -4.4340   -0.1940    0.0000 C   0  0  0  0  0  0  0  0  0  0  0  0
   -5.1840    1.1050    0.0000 C   0  0  0  0  0  0  0  0  0  0  0  0
   -4.1800    2.2200    0.0000 C   0  0  0  0  0  0  0  0  0  0  0  0
  1  2  1  0  0  0  0
  3  1  1  6  0  0  0
  3  4  1  1  0  0  0
  3 10  1  0  0  0  0
  3 14  1  0  0  0  0
  4  5  2  0  0  0  0
  4  9  1  0  0  0  0
  5  6  1  0  0  0  0
  6  7  2  0  0  0  0
  7  8  1  0  0  0  0
  8  9  2  0  0  0  0
 10 11  1  0  0  0  0
 11 12  1  0  0  0  0
 11 15  1  0  0  0  0
 11 18  1  0  0  0  0
 12 13  1  0  0  0  0
 13 14  1  0  0  0  0
 15 16  1  0  0  0  0
 16 17  1  0  0  0  0
 17 18  1  0  0  0  0
M  END
>  <name>
C([C;amine])[C@]1(c2ncccc2)CC2(OCC1)CCCC2

>  <apo>
1

>  <freq>
1

>  <freq0>
0

>  <freq1>
1

>  <freqA>
0.99887151

>  <a_count>
41

$$$$

  MOE2015           2D

 23 25  0  0  0  0  0  0  0  0999 V2000
   -2.5470   -2.6920    0.0000 Cl  0  0  0  0  0  0  0  0  0  0  0  0
   -2.4640   -4.1900    0.0000 C   0  0  0  0  0  0  0  0  0  0  0  0
   -1.1260   -4.8670    0.0000 C   0  0  0  0  0  0  0  0  0  0  0  0
    0.1300   -4.0460    0.0000 N   0  0  0  0  0  0  0  0  0  0  0  0
    1.5320   -4.5800    0.0000 N   0  0  0  0  0  0  0  0  0  0  0  0
    2.4720   -3.4110    0.0000 C   0  0  0  0  0  0  0  0  0  0  0  0
    3.9710   -3.4850    0.0000 C   0  0  0  0  0  0  0  0  0  0  0  0
    4.7840   -2.2250    0.0000 O   0  0  0  0  0  0  0  0  0  0  0  0
    4.6550   -4.8200    0.0000 N   0  0  0  0  0  0  0  0  0  0  0  0
    6.1540   -4.8940    0.0000 N   0  0  0  0  0  0  0  0  0  0  0  0
    6.8380   -6.2290    0.0000 C   0  0  0  0  0  0  0  0  0  0  0  0
    8.3370   -6.3030    0.0000 C   0  0  0  0  0  0  0  0  0  0  0  0
    9.1500   -5.0420    0.0000 C   0  0  0  0  0  0  0  0  0  0  0  0
    8.4650   -3.7080    0.0000 C   0  0  0  0  0  0  0  0  0  0  0  0
    6.9670   -3.6340    0.0000 C   0  0  0  0  0  0  0  0  0  0  0  0
    1.6520   -2.1560    0.0000 C   0  0  0  0  0  0  0  0  0  0  0  0
    2.1850   -0.7540    0.0000 C   0  0  0  0  0  0  0  0  0  0  0  0
    0.2040   -2.5480    0.0000 C   0  0  0  0  0  0  0  0  0  0  0  0
   -1.0430   -6.3640    0.0000 C   0  0  0  0  0  0  0  0  0  0  0  0
   -2.2990   -7.1850    0.0000 C   0  0  0  0  0  0  0  0  0  0  0  0
   -3.6370   -6.5080    0.0000 C   0  0  0  0  0  0  0  0  0  0  0  0
   -4.8930   -7.3280    0.0000 Cl  0  0  0  0  0  0  0  0  0  0  0  0
   -3.7200   -5.0100    0.0000 C   0  0  0  0  0  0  0  0  0  0  0  0
  1  2  1  0  0  0  0
  2  3  1  0  0  0  0
  2 23  2  0  0  0  0
  3  4  1  0  0  0  0
  3 19  2  0  0  0  0
  4  5  1  0  0  0  0
  4 18  1  0  0  0  0
  5  6  2  0  0  0  0
  6  7  1  0  0  0  0
  6 16  1  0  0  0  0
  7  8  2  0  0  0  0
  7  9  1  0  0  0  0
  9 10  1  0  0  0  0
 10 11  1  0  0  0  0
 10 15  1  0  0  0  0
 11 12  1  0  0  0  0
 12 13  1  0  0  0  0
 13 14  1  0  0  0  0
 14 15  1  0  0  0  0
 16 17  1  0  0  0  0
 16 18  2  0  0  0  0
 19 20  1  0  0  0  0
 20 21  2  0  0  0  0
 21 22  1  0  0  0  0
 21 23  1  0  0  0  0
M  END
>  <name>
Clc1c(-n2nc(C(=O)NN3CCCCC3)c(C)[c;biphenyl]2)ccc(Cl)c1

>  <apo>
1

>  <freq>
1

>  <freq0>
0

>  <freq1>
1

>  <freqA>
0.99887151

>  <a_count>
41

$$$$

  MOE2015           2D

 23 26  0  0  0  0  0  0  0  0999 V2000
    2.2020    5.3430    0.0000 Cl  0  0  0  0  0  0  0  0  0  0  0  0
    3.2660    4.2860    0.0000 C   0  0  0  0  0  0  0  0  0  0  0  0
    2.8830    2.8360    0.0000 C   0  0  0  0  0  0  0  0  0  0  0  0
    3.9480    1.7790    0.0000 C   0  0  0  0  0  0  0  0  0  0  0  0
    3.8750    0.2810    0.0000 C   0  0  0  0  0  0  0  0  0  0  0  0
    2.6200   -0.5410    0.0000 C   0  0  0  0  0  0  0  0  0  0  0  0
    1.2810    0.1360    0.0000 C   0  0  0  0  0  0  0  0  0  0  0  0
    0.0260   -0.6860    0.0000 C   0  0  0  0  0  0  0  0  0  0  0  0
    0.1090   -2.1840    0.0000 N   0  0  0  0  0  0  0  0  0  0  0  0
    1.4480   -2.8600    0.0000 C   0  0  0  0  0  0  0  0  0  0  0  0
    2.7030   -2.0380    0.0000 C   0  0  0  0  0  0  0  0  0  0  0  0
    5.2770   -0.2520    0.0000 C   0  0  0  0  0  0  0  0  0  0  0  0
    6.2170    0.9170    0.0000 N   0  0  0  0  0  0  0  0  0  0  0  0
    7.7150    0.8440    0.0000 C   0  0  0  0  0  0  0  0  0  0  0  0
    8.5270    2.1050    0.0000 C   0  0  0  0  0  0  0  0  0  0  0  0
   10.0260    2.0320    0.0000 C   0  0  0  0  0  0  0  0  0  0  0  0
   10.7110    0.6980    0.0000 C   0  0  0  0  0  0  0  0  0  0  0  0
   12.2100    0.6250    0.0000 F   0  0  0  0  0  0  0  0  0  0  0  0
    9.8990   -0.5630    0.0000 C   0  0  0  0  0  0  0  0  0  0  0  0
    8.4010   -0.4900    0.0000 C   0  0  0  0  0  0  0  0  0  0  0  0
    5.3950    2.1720    0.0000 C   0  0  0  0  0  0  0  0  0  0  0  0
    5.7780    3.6230    0.0000 C   0  0  0  0  0  0  0  0  0  0  0  0
    4.7140    4.6800    0.0000 C   0  0  0  0  0  0  0  0  0  0  0  0
  1  2  1  0  0  0  0
  2  3  1  0  0  0  0
  2 23  2  0  0  0  0
  3  4  2  0  0  0  0
  4  5  1  0  0  0  0
  4 21  1  0  0  0  0
  5  6  1  0  0  0  0
  5 12  2  0  0  0  0
  6  7  1  0  0  0  0
  6 11  1  0  0  0  0
  7  8  1  0  0  0  0
  8  9  1  0  0  0  0
  9 10  1  0  0  0  0
 10 11  1  0  0  0  0
 12 13  1  0  0  0  0
 13 14  1  0  0  0  0
 13 21  1  0  0  0  0
 14 15  1  0  0  0  0
 14 20  2  0  0  0  0
 15 16  2  0  0  0  0
 16 17  1  0  0  0  0
 17 18  1  0  0  0  0
 17 19  2  0  0  0  0
 19 20  1  0  0  0  0
 21 22  2  0  0  0  0
 22 23  1  0  0  0  0
M  END
>  <name>
Clc1cc2c(C3CC[N;amine]CC3)cn(-c3ccc(F)cc3)c2cc1

>  <apo>
1

>  <freq>
1

>  <freq0>
0

>  <freq1>
1

>  <freqA>
0.99887151

>  <a_count>
41

$$$$

  MOE2015           2D

 19 20  0  0  0  0  0  0  0  0999 V2000
    1.2090    4.5130    0.0000 N   0  0  0  0  0  0  0  0  0  0  0  0
    2.5080    3.7630    0.0000 C   0  0  0  0  0  0  0  0  0  0  0  0
    1.2090    6.0130    0.0000 C   0  0  0  0  0  0  0  0  0  0  0  0
   -0.0900    3.7630    0.0000 C   0  0  0  0  0  0  0  0  0  0  0  0
   -1.3890    4.5130    0.0000 C   0  0  0  0  0  0  0  0  0  0  0  0
   -2.6880    3.7630    0.0000 C   0  0  0  0  0  0  0  0  0  0  0  0
   -2.6880    2.2630    0.0000 C   0  0  0  0  0  0  0  0  0  0  0  0
   -3.9870    1.5130    0.0000 C   0  0  0  0  0  0  0  0  0  0  0  0
   -5.2860    2.2630    0.0000 C   0  0  0  0  0  0  0  0  0  0  0  0
   -5.2860    3.7630    0.0000 C   0  0  0  0  0  0  0  0  0  0  0  0
   -6.5850    4.5130    0.0000 C   0  0  0  0  0  0  0  0  0  0  0  0
   -7.8840    3.7630    0.0000 C   0  0  0  0  0  0  0  0  0  0  0  0
   -9.1830    4.5130    0.0000 N   0  0  0  0  0  0  0  0  0  0  0  0
   -9.1830    6.0130    0.0000 C   0  0  0  0  0  0  0  0  0  0  0  0
  -10.4820    3.7630    0.0000 C   0  0  0  0  0  0  0  0  0  0  0  0
   -7.8840    2.2630    0.0000 C   0  0  0  0  0  0  0  0  0  0  0  0
   -6.5850    1.5130    0.0000 C   0  0  0  0  0  0  0  0  0  0  0  0
   -1.3890    1.5130    0.0000 C   0  0  0  0  0  0  0  0  0  0  0  0
   -0.0900    2.2630    0.0000 C   0  0  0  0  0  0  0  0  0  0  0  0
  1  2  1  0  0  0  0
  1  3  1  0  0  0  0
  1  4  1  0  0  0  0
  4  5  1  0  0  0  0
  4 19  2  0  0  0  0
  5  6  2  0  0  0  0
  6  7  1  0  0  0  0
  7  8  1  0  0  0  0
  7 18  2  0  0  0  0
  8  9  1  0  0  0  0
  9 10  1  0  0  0  0
  9 17  2  0  0  0  0
 10 11  2  0  0  0  0
 11 12  1  0  0  0  0
 12 13  1  0  0  0  0
 12 16  2  0  0  0  0
 13 14  1  0  0  0  0
 13 15  1  0  0  0  0
 16 17  1  0  0  0  0
 18 19  1  0  0  0  0
M  END
>  <name>
N(C)(C)c1ccc([C;olefin]c2ccc(N(C)C)cc2)cc1

>  <apo>
1

>  <freq>
1

>  <freq0>
0

>  <freq1>
1

>  <freqA>
0.99887151

>  <a_count>
41

$$$$

  MOE2015           2D

 24 27  0  0  0  0  0  0  0  0999 V2000
   -0.9610   -3.5850    0.0000 O   0  0  0  0  0  0  0  0  0  0  0  0
    0.3390   -4.3350    0.0000 C   0  0  0  0  0  0  0  0  0  0  0  0
   -0.9610   -2.0850    0.0000 C   0  0  0  0  0  0  0  0  0  0  0  0
   -2.2600   -1.3350    0.0000 C   0  0  0  0  0  0  0  0  0  0  0  0
   -3.5590   -2.0850    0.0000 N   0  0  0  0  0  0  0  0  0  0  0  0
   -4.8580   -1.3350    0.0000 C   0  0  0  0  0  0  0  0  0  0  0  0
   -6.1570   -2.0850    0.0000 C   0  0  0  0  0  0  0  0  0  0  0  0
   -7.4560   -1.3350    0.0000 C   0  0  0  0  0  0  0  0  0  0  0  0
   -7.4560    0.1650    0.0000 N   0  0  0  0  0  0  0  0  0  0  0  0
   -6.1570    0.9150    0.0000 C   0  0  0  0  0  0  0  0  0  0  0  0
   -4.8580    0.1650    0.0000 C   0  0  0  0  0  0  0  0  0  0  0  0
   -3.5590    0.9150    0.0000 C   0  0  0  0  0  0  0  0  0  0  0  0
   -3.5590    2.4150    0.0000 C   0  0  0  0  0  0  0  0  0  0  0  0
   -4.8580    3.1650    0.0000 C   0  0  0  0  0  0  0  0  0  0  0  0
   -6.1570    2.4150    0.0000 C   0  0  0  0  0  0  0  0  0  0  0  0
   -8.7550   -2.0850    0.0000 C   0  0  0  0  0  0  0  0  0  0  0  0
   -8.7550   -3.5850    0.0000 C   0  0  0  0  0  0  0  0  0  0  0  0
   -7.4560   -4.3350    0.0000 C   0  0  0  0  0  0  0  0  0  0  0  0
   -6.1570   -3.5850    0.0000 C   0  0  0  0  0  0  0  0  0  0  0  0
   -2.2600    0.1650    0.0000 C   0  0  0  0  0  0  0  0  0  0  0  0
   -0.9610    0.9150    0.0000 C   0  0  0  0  0  0  0  0  0  0  0  0
    0.3390    0.1650    0.0000 C   0  0  0  0  0  0  0  0  0  0  0  0
    1.6380    0.9150    0.0000 N   0  0  0  0  0  0  0  0  0  0  0  0
    0.3390   -1.3350    0.0000 C   0  0  0  0  0  0  0  0  0  0  0  0
  1  2  1  0  0  0  0
  1  3  1  0  0  0  0
  3  4  1  0  0  0  0
  3 24  2  0  0  0  0
  4  5  1  0  0  0  0
  4 20  2  0  0  0  0
  5  6  1  0  0  0  0
  6  7  2  0  0  0  0
  6 11  1  0  0  0  0
  7  8  1  0  0  0  0
  7 19  1  0  0  0  0
  8  9  2  0  0  0  0
  8 16  1  0  0  0  0
  9 10  1  0  0  0  0
 10 11  1  0  0  0  0
 10 15  2  0  0  0  0
 11 12  2  0  0  0  0
 12 13  1  0  0  0  0
 13 14  2  0  0  0  0
 14 15  1  0  0  0  0
 16 17  2  0  0  0  0
 17 18  1  0  0  0  0
 18 19  2  0  0  0  0
 20 21  1  0  0  0  0
 21 22  2  0  0  0  0
 22 23  1  0  0  0  0
 22 24  1  0  0  0  0
M  END
>  <name>
O(C)c1c(Nc2c3c(nc4c2cccc4)cccc3)ccc([N;so2amide])c1

>  <apo>
1

>  <freq>
1

>  <freq0>
0

>  <freq1>
1

>  <freqA>
0.99887151

>  <a_count>
41

$$$$

  MOE2015           2D

 21 23  0  0  1  0  0  0  0  0999 V2000
    3.7370   -4.2490    0.0000 O   0  0  0  0  0  0  0  0  0  0  0  0
    2.4380   -3.4990    0.0000 C   0  0  0  0  0  0  0  0  0  0  0  0
    1.1390   -4.2490    0.0000 N   0  0  0  0  0  0  0  0  0  0  0  0
    2.4380   -1.9990    0.0000 C   0  0  0  0  0  0  0  0  0  0  0  0
    2.4380   -0.4990    0.0000 C   0  0  1  0  0  0  0  0  0  0  0  0
    1.2240    0.3820    0.0000 C   0  0  0  0  0  0  0  0  0  0  0  0
    1.6880    1.8090    0.0000 N   0  0  0  0  0  0  0  0  0  0  0  0
    3.1880    1.8090    0.0000 C   0  0  0  0  0  0  0  0  0  0  0  0
    3.6510    0.3820    0.0000 C   0  0  0  0  0  0  0  0  0  0  0  0
    3.9380   -1.9990    0.0000 C   0  0  0  0  0  0  0  0  0  0  0  0
    4.6880   -0.7000    0.0000 C   0  0  0  0  0  0  0  0  0  0  0  0
    6.1880   -0.7000    0.0000 C   0  0  0  0  0  0  0  0  0  0  0  0
    6.9380   -1.9990    0.0000 C   0  0  0  0  0  0  0  0  0  0  0  0
    6.1880   -3.2980    0.0000 C   0  0  0  0  0  0  0  0  0  0  0  0
    4.6880   -3.2980    0.0000 C   0  0  0  0  0  0  0  0  0  0  0  0
    0.9380   -1.9990    0.0000 C   0  0  0  0  0  0  0  0  0  0  0  0
    0.1880   -0.7000    0.0000 C   0  0  0  0  0  0  0  0  0  0  0  0
   -1.3120   -0.7000    0.0000 C   0  0  0  0  0  0  0  0  0  0  0  0
   -2.0620   -1.9990    0.0000 C   0  0  0  0  0  0  0  0  0  0  0  0
   -1.3120   -3.2980    0.0000 C   0  0  0  0  0  0  0  0  0  0  0  0
    0.1880   -3.2980    0.0000 C   0  0  0  0  0  0  0  0  0  0  0  0
  1  2  2  0  0  0  0
  2  3  1  0  0  0  0
  2  4  1  0  0  0  0
  5  4  1  1  0  0  0
  4 10  1  0  0  0  0
  4 16  1  0  0  0  0
  5  6  1  0  0  0  0
  5  9  1  0  0  0  0
  6  7  1  0  0  0  0
  7  8  1  0  0  0  0
  8  9  1  0  0  0  0
 10 11  1  0  0  0  0
 10 15  2  0  0  0  0
 11 12  2  0  0  0  0
 12 13  1  0  0  0  0
 13 14  2  0  0  0  0
 14 15  1  0  0  0  0
 16 17  1  0  0  0  0
 16 21  2  0  0  0  0
 17 18  2  0  0  0  0
 18 19  1  0  0  0  0
 19 20  2  0  0  0  0
 20 21  1  0  0  0  0
M  END
>  <name>
O=C(N)C([C@H]1C[N;amine]CC1)(c1ccccc1)c1ccccc1

>  <apo>
1

>  <freq>
1

>  <freq0>
0

>  <freq1>
1

>  <freqA>
0.99887151

>  <a_count>
41

$$$$

  MOE2015           2D

 20 21  0  0  1  0  0  0  0  0999 V2000
   12.8920    4.7290    0.0000 O   0  0  0  0  0  0  0  0  0  0  0  0
   11.5930    5.4790    0.0000 C   0  0  0  0  0  0  0  0  0  0  0  0
   11.5930    6.9790    0.0000 O   0  0  0  0  0  0  0  0  0  0  0  0
   10.2940    4.7290    0.0000 C   0  0  1  0  0  0  0  0  0  0  0  0
   10.2940    3.2290    0.0000 N   0  0  0  0  0  0  0  0  0  0  0  0
    8.9950    5.4790    0.0000 C   0  0  0  0  0  0  0  0  0  0  0  0
    7.6960    4.7290    0.0000 C   0  0  0  0  0  0  0  0  0  0  0  0
    7.6960    3.2290    0.0000 C   0  0  0  0  0  0  0  0  0  0  0  0
    6.3970    2.4790    0.0000 C   0  0  0  0  0  0  0  0  0  0  0  0
    5.0980    3.2290    0.0000 C   0  0  0  0  0  0  0  0  0  0  0  0
    3.7990    2.4790    0.0000 O   0  0  0  0  0  0  0  0  0  0  0  0
    2.5000    3.2290    0.0000 C   0  0  0  0  0  0  0  0  0  0  0  0
    1.2010    2.4790    0.0000 C   0  0  0  0  0  0  0  0  0  0  0  0
    1.2010    0.9790    0.0000 C   0  0  0  0  0  0  0  0  0  0  0  0
   -0.0980    3.2290    0.0000 C   0  0  0  0  0  0  0  0  0  0  0  0
   -0.0980    4.7290    0.0000 C   0  0  0  0  0  0  0  0  0  0  0  0
    1.2010    5.4790    0.0000 C   0  0  0  0  0  0  0  0  0  0  0  0
    2.5000    4.7290    0.0000 C   0  0  0  0  0  0  0  0  0  0  0  0
    5.0980    4.7290    0.0000 C   0  0  0  0  0  0  0  0  0  0  0  0
    6.3970    5.4790    0.0000 C   0  0  0  0  0  0  0  0  0  0  0  0
  1  2  2  0  0  0  0
  2  3  1  0  0  0  0
  2  4  1  0  0  0  0
  4  5  1  1  0  0  0
  4  6  1  0  0  0  0
  6  7  1  0  0  0  0
  7  8  1  0  0  0  0
  7 20  2  0  0  0  0
  8  9  2  0  0  0  0
  9 10  1  0  0  0  0
 10 11  1  0  0  0  0
 10 19  2  0  0  0  0
 11 12  1  0  0  0  0
 12 13  2  0  0  0  0
 12 18  1  0  0  0  0
 13 14  1  0  0  0  0
 13 15  1  0  0  0  0
 15 16  1  0  0  0  0
 16 17  1  0  0  0  0
 17 18  1  0  0  0  0
 19 20  1  0  0  0  0
M  END
>  <name>
O=C(O)[C@@H]([N;amide])Cc1ccc(OC2=C([C;olefin])CCC[C;olefin]2)cc1

>  <apo>
3

>  <freq>
1

>  <freq0>
0

>  <freq1>
1

>  <freqA>
0.99887151

>  <a_count>
41

$$$$

  MOE2015           2D

 24 27  0  0  0  0  0  0  0  0999 V2000
   13.7010   -7.9100    0.0000 O   0  0  0  0  0  0  0  0  0  0  0  0
   12.9510   -6.6110    0.0000 C   0  0  0  0  0  0  0  0  0  0  0  0
   11.4510   -6.6110    0.0000 C   0  0  0  0  0  0  0  0  0  0  0  0
   10.5690   -5.3970    0.0000 N   0  0  0  0  0  0  0  0  0  0  0  0
    9.1420   -5.8610    0.0000 C   0  0  0  0  0  0  0  0  0  0  0  0
    7.8430   -5.1110    0.0000 N   0  0  0  0  0  0  0  0  0  0  0  0
    6.5440   -5.8610    0.0000 C   0  0  0  0  0  0  0  0  0  0  0  0
    5.2450   -5.1110    0.0000 N   0  0  0  0  0  0  0  0  0  0  0  0
    3.9460   -5.8610    0.0000 C   0  0  0  0  0  0  0  0  0  0  0  0
    2.6470   -5.1110    0.0000 N   0  0  0  0  0  0  0  0  0  0  0  0
    1.3480   -5.8610    0.0000 C   0  0  0  0  0  0  0  0  0  0  0  0
    1.3480   -7.3610    0.0000 C   0  0  0  0  0  0  0  0  0  0  0  0
    0.0490   -8.1110    0.0000 N   0  0  0  0  0  0  0  0  0  0  0  0
   -1.2500   -7.3610    0.0000 C   0  0  0  0  0  0  0  0  0  0  0  0
   -2.5490   -8.1110    0.0000 C   0  0  0  0  0  0  0  0  0  0  0  0
   -2.5490   -9.6110    0.0000 N   0  0  0  0  0  0  0  0  0  0  0  0
   -1.2500  -10.3610    0.0000 C   0  0  0  0  0  0  0  0  0  0  0  0
    0.0490   -9.6110    0.0000 C   0  0  0  0  0  0  0  0  0  0  0  0
    2.6470   -8.1110    0.0000 C   0  0  0  0  0  0  0  0  0  0  0  0
    3.9460   -7.3610    0.0000 C   0  0  0  0  0  0  0  0  0  0  0  0
    6.5440   -7.3610    0.0000 N   0  0  0  0  0  0  0  0  0  0  0  0
    7.8430   -8.1110    0.0000 C   0  0  0  0  0  0  0  0  0  0  0  0
    9.1420   -7.3610    0.0000 C   0  0  0  0  0  0  0  0  0  0  0  0
   10.5690   -7.8240    0.0000 C   0  0  0  0  0  0  0  0  0  0  0  0
  1  2  2  0  0  0  0
  2  3  1  0  0  0  0
  3  4  1  0  0  0  0
  3 24  2  0  0  0  0
  4  5  1  0  0  0  0
  5  6  1  0  0  0  0
  5 23  2  0  0  0  0
  6  7  2  0  0  0  0
  7  8  1  0  0  0  0
  7 21  1  0  0  0  0
  8  9  1  0  0  0  0
  9 10  1  0  0  0  0
  9 20  2  0  0  0  0
 10 11  2  0  0  0  0
 11 12  1  0  0  0  0
 12 13  1  0  0  0  0
 12 19  2  0  0  0  0
 13 14  1  0  0  0  0
 13 18  1  0  0  0  0
 14 15  1  0  0  0  0
 15 16  1  0  0  0  0
 16 17  1  0  0  0  0
 17 18  1  0  0  0  0
 19 20  1  0  0  0  0
 21 22  2  0  0  0  0
 22 23  1  0  0  0  0
 23 24  1  0  0  0  0
M  END
>  <name>
O=[C;amide]c1[nH;NaroC]c2nc(Nc3ncc(N4CCNCC4)cc3)ncc2c1

>  <apo>
2

>  <freq>
1

>  <freq0>
0

>  <freq1>
1

>  <freqA>
0.99887151

>  <a_count>
41

$$$$

  MOE2015           2D

 25 27  0  0  1  0  0  0  0  0999 V2000
   11.1350    2.3750    0.0000 O   0  0  0  0  0  0  0  0  0  0  0  0
   11.1350    3.8750    0.0000 C   0  0  0  0  0  0  0  0  0  0  0  0
    9.8360    4.6250    0.0000 C   0  0  0  0  0  0  0  0  0  0  0  0
    9.8360    6.1250    0.0000 C   0  0  0  0  0  0  0  0  0  0  0  0
    8.5370    6.8750    0.0000 C   0  0  0  0  0  0  0  0  0  0  0  0
    7.2380    6.1250    0.0000 C   0  0  0  0  0  0  0  0  0  0  0  0
    5.9390    6.8750    0.0000 C   0  0  3  0  0  0  0  0  0  0  0  0
    5.9390    8.3750    0.0000 C   0  0  0  0  0  0  0  0  0  0  0  0
    7.2380    9.1250    0.0000 C   0  0  0  0  0  0  0  0  0  0  0  0
    8.5370    9.8750    0.0000 C   0  0  0  0  0  0  0  0  0  0  0  0
    4.6400    6.1250    0.0000 C   0  0  0  0  0  0  0  0  0  0  0  0
    3.3410    6.8750    0.0000 C   0  0  0  0  0  0  0  0  0  0  0  0
    2.0420    6.1250    0.0000 N   0  0  0  0  0  0  0  0  0  0  0  0
    0.7430    6.8750    0.0000 C   0  0  0  0  0  0  0  0  0  0  0  0
   -0.5560    6.1250    0.0000 C   0  0  0  0  0  0  0  0  0  0  0  0
   -0.5560    4.6250    0.0000 N   0  0  0  0  0  0  0  0  0  0  0  0
   -1.8550    6.8750    0.0000 N   0  0  0  0  0  0  0  0  0  0  0  0
   -1.8550    8.3750    0.0000 C   0  0  0  0  0  0  0  0  0  0  0  0
   -3.1540    9.1250    0.0000 N   0  0  0  0  0  0  0  0  0  0  0  0
   -0.5560    9.1250    0.0000 N   0  0  0  0  0  0  0  0  0  0  0  0
    0.7430    8.3750    0.0000 C   0  0  0  0  0  0  0  0  0  0  0  0
    2.0420    9.1250    0.0000 N   0  0  0  0  0  0  0  0  0  0  0  0
    3.3410    8.3750    0.0000 C   0  0  0  0  0  0  0  0  0  0  0  0
    7.2380    4.6250    0.0000 C   0  0  0  0  0  0  0  0  0  0  0  0
    8.5370    3.8750    0.0000 C   0  0  0  0  0  0  0  0  0  0  0  0
  1  2  2  0  0  0  0
  2  3  1  0  0  0  0
  3  4  1  0  0  0  0
  3 25  2  0  0  0  0
  4  5  2  0  0  0  0
  5  6  1  0  0  0  0
  6  7  1  0  0  0  0
  6 24  2  0  0  0  0
  7  8  1  0  0  0  0
  7 11  1  0  0  0  0
  8  9  1  0  0  0  0
  9 10  3  0  0  0  0
 11 12  1  0  0  0  0
 12 13  1  0  0  0  0
 12 23  2  0  0  0  0
 13 14  2  0  0  0  0
 14 15  1  0  0  0  0
 14 21  1  0  0  0  0
 15 16  1  0  0  0  0
 15 17  2  0  0  0  0
 17 18  1  0  0  0  0
 18 19  1  0  0  0  0
 18 20  2  0  0  0  0
 20 21  1  0  0  0  0
 21 22  2  0  0  0  0
 22 23  1  0  0  0  0
 24 25  1  0  0  0  0
M  END
>  <name>
O=[C;amide]c1ccc(C(CC#C)Cc2nc3c(N)nc(N)nc3nc2)cc1

>  <apo>
1

>  <freq>
1

>  <freq0>
0

>  <freq1>
1

>  <freqA>
0.99887151

>  <a_count>
41

$$$$

  MOE2015           2D

 15 14  0  0  1  0  0  0  0  0999 V2000
   11.4490   -3.1680    0.0000 O   0  0  0  0  0  0  0  0  0  0  0  0
   10.1500   -3.9180    0.0000 C   0  0  0  0  0  0  0  0  0  0  0  0
    8.8510   -3.1680    0.0000 C   0  0  1  0  0  0  0  0  0  0  0  0
    7.5520   -3.9180    0.0000 C   0  0  0  0  0  0  0  0  0  0  0  0
    6.2530   -3.1680    0.0000 C   0  0  1  0  0  0  0  0  0  0  0  0
    4.9540   -3.9180    0.0000 C   0  0  0  0  0  0  0  0  0  0  0  0
    3.6550   -3.1680    0.0000 C   0  0  2  0  0  0  0  0  0  0  0  0
    4.4050   -1.8690    0.0000 O   0  0  0  0  0  0  0  0  0  0  0  0
    2.3560   -2.4180    0.0000 C   0  0  0  0  0  0  0  0  0  0  0  0
    1.0560   -3.1680    0.0000 C   0  0  0  0  0  0  0  0  0  0  0  0
    1.0560   -4.6680    0.0000 C   0  0  0  0  0  0  0  0  0  0  0  0
   -0.2430   -2.4180    0.0000 C   0  0  0  0  0  0  0  0  0  0  0  0
    2.9050   -4.4670    0.0000 C   0  0  0  0  0  0  0  0  0  0  0  0
    6.2530   -1.6680    0.0000 C   0  0  0  0  0  0  0  0  0  0  0  0
    8.8510   -1.6680    0.0000 C   0  0  0  0  0  0  0  0  0  0  0  0
  1  2  2  0  0  0  0
  2  3  1  0  0  0  0
  3  4  1  0  0  0  0
  3 15  1  1  0  0  0
  4  5  1  0  0  0  0
  5  6  1  0  0  0  0
  5 14  1  1  0  0  0
  6  7  1  0  0  0  0
  7  8  1  6  0  0  0
  7  9  1  1  0  0  0
  7 13  1  0  0  0  0
  9 10  1  0  0  0  0
 10 11  1  0  0  0  0
 10 12  1  0  0  0  0
M  END
>  <name>
O=[C;ester][C@@H]([C;ether][C@@H]([C;ether][C@](O)(CC([C;amine])C)C)C)C

>  <apo>
4

>  <freq>
1

>  <freq0>
0

>  <freq1>
1

>  <freqA>
0.99887151

>  <a_count>
41

$$$$

  MOE2015           2D

 21 23  0  0  0  0  0  0  0  0999 V2000
    1.8520   -2.9840    0.0000 N   0  0  0  0  0  0  0  0  0  0  0  0
    3.1510   -3.7340    0.0000 C   0  0  0  0  0  0  0  0  0  0  0  0
    0.5530   -3.7340    0.0000 C   0  0  0  0  0  0  0  0  0  0  0  0
    0.5530   -5.2340    0.0000 N   0  0  0  0  0  0  0  0  0  0  0  0
   -0.7460   -5.9840    0.0000 C   0  0  0  0  0  0  0  0  0  0  0  0
   -2.0450   -5.2340    0.0000 N   0  0  0  0  0  0  0  0  0  0  0  0
   -2.0450   -3.7340    0.0000 C   0  0  0  0  0  0  0  0  0  0  0  0
   -3.3440   -2.9840    0.0000 N   0  0  0  0  0  0  0  0  0  0  0  0
   -4.6430   -3.7340    0.0000 C   0  0  0  0  0  0  0  0  0  0  0  0
   -4.6430   -5.2340    0.0000 C   0  0  0  0  0  0  0  0  0  0  0  0
   -5.9420   -5.9840    0.0000 C   0  0  0  0  0  0  0  0  0  0  0  0
   -7.2410   -5.2340    0.0000 C   0  0  0  0  0  0  0  0  0  0  0  0
   -8.5400   -5.9840    0.0000 N   0  0  0  0  0  0  0  0  0  0  0  0
   -8.5400   -7.4840    0.0000 C   0  0  0  0  0  0  0  0  0  0  0  0
   -9.8390   -8.2340    0.0000 C   0  0  0  0  0  0  0  0  0  0  0  0
  -11.1380   -7.4840    0.0000 N   0  0  0  0  0  0  0  0  0  0  0  0
  -11.1380   -5.9840    0.0000 C   0  0  0  0  0  0  0  0  0  0  0  0
   -9.8390   -5.2340    0.0000 C   0  0  0  0  0  0  0  0  0  0  0  0
   -7.2410   -3.7340    0.0000 C   0  0  0  0  0  0  0  0  0  0  0  0
   -5.9420   -2.9840    0.0000 C   0  0  0  0  0  0  0  0  0  0  0  0
   -0.7460   -2.9840    0.0000 C   0  0  0  0  0  0  0  0  0  0  0  0
  1  2  1  0  0  0  0
  1  3  1  0  0  0  0
  3  4  1  0  0  0  0
  3 21  2  0  0  0  0
  4  5  2  0  0  0  0
  5  6  1  0  0  0  0
  6  7  2  0  0  0  0
  7  8  1  0  0  0  0
  7 21  1  0  0  0  0
  8  9  1  0  0  0  0
  9 10  1  0  0  0  0
  9 20  2  0  0  0  0
 10 11  2  0  0  0  0
 11 12  1  0  0  0  0
 12 13  1  0  0  0  0
 12 19  2  0  0  0  0
 13 14  1  0  0  0  0
 13 18  1  0  0  0  0
 14 15  1  0  0  0  0
 15 16  1  0  0  0  0
 16 17  1  0  0  0  0
 17 18  1  0  0  0  0
 19 20  1  0  0  0  0
M  END
>  <name>
[N;urea](C)c1ncnc(Nc2ccc(N3CC[N;amine]CC3)cc2)c1

>  <apo>
2

>  <freq>
1

>  <freq0>
0

>  <freq1>
1

>  <freqA>
0.99887151

>  <a_count>
41

$$$$

  MOE2015           2D

 25 27  0  0  0  0  0  0  0  0999 V2000
   -9.2700   -7.2230    0.0000 S   0  0  0  0  0  0  0  0  0  0  0  0
  -10.0200   -5.9240    0.0000 O   0  0  0  0  0  0  0  0  0  0  0  0
  -10.0200   -8.5220    0.0000 O   0  0  0  0  0  0  0  0  0  0  0  0
   -7.7700   -7.2230    0.0000 C   0  0  0  0  0  0  0  0  0  0  0  0
   -7.0200   -5.9240    0.0000 C   0  0  0  0  0  0  0  0  0  0  0  0
   -5.5200   -5.9240    0.0000 C   0  0  0  0  0  0  0  0  0  0  0  0
   -4.7700   -4.6250    0.0000 N   0  0  0  0  0  0  0  0  0  0  0  0
   -3.2700   -4.6250    0.0000 C   0  0  0  0  0  0  0  0  0  0  0  0
   -2.5200   -3.3260    0.0000 C   0  0  0  0  0  0  0  0  0  0  0  0
   -3.2700   -2.0260    0.0000 C   0  0  0  0  0  0  0  0  0  0  0  0
   -1.0200   -3.3260    0.0000 C   0  0  0  0  0  0  0  0  0  0  0  0
   -0.2700   -4.6250    0.0000 N   0  0  0  0  0  0  0  0  0  0  0  0
   -1.0200   -5.9240    0.0000 C   0  0  0  0  0  0  0  0  0  0  0  0
   -0.2700   -7.2230    0.0000 N   0  0  0  0  0  0  0  0  0  0  0  0
    1.2300   -7.2230    0.0000 C   0  0  0  0  0  0  0  0  0  0  0  0
    1.9800   -8.5220    0.0000 C   0  0  0  0  0  0  0  0  0  0  0  0
    3.4800   -8.5220    0.0000 C   0  0  0  0  0  0  0  0  0  0  0  0
    4.2300   -7.2230    0.0000 C   0  0  0  0  0  0  0  0  0  0  0  0
    5.7300   -7.2230    0.0000 O   0  0  0  0  0  0  0  0  0  0  0  0
    3.4800   -5.9240    0.0000 C   0  0  0  0  0  0  0  0  0  0  0  0
    1.9800   -5.9240    0.0000 C   0  0  0  0  0  0  0  0  0  0  0  0
   -2.5200   -5.9240    0.0000 N   0  0  0  0  0  0  0  0  0  0  0  0
   -4.7700   -7.2230    0.0000 C   0  0  0  0  0  0  0  0  0  0  0  0
   -5.5200   -8.5220    0.0000 C   0  0  0  0  0  0  0  0  0  0  0  0
   -7.0200   -8.5220    0.0000 C   0  0  0  0  0  0  0  0  0  0  0  0
  1  2  2  0  0  0  0
  1  3  2  0  0  0  0
  1  4  1  0  0  0  0
  4  5  1  0  0  0  0
  4 25  2  0  0  0  0
  5  6  2  0  0  0  0
  6  7  1  0  0  0  0
  6 23  1  0  0  0  0
  7  8  1  0  0  0  0
  8  9  1  0  0  0  0
  8 22  2  0  0  0  0
  9 10  1  0  0  0  0
  9 11  2  0  0  0  0
 11 12  1  0  0  0  0
 12 13  2  0  0  0  0
 13 14  1  0  0  0  0
 13 22  1  0  0  0  0
 14 15  1  0  0  0  0
 15 16  1  0  0  0  0
 15 21  2  0  0  0  0
 16 17  2  0  0  0  0
 17 18  1  0  0  0  0
 18 19  1  0  0  0  0
 18 20  2  0  0  0  0
 20 21  1  0  0  0  0
 23 24  2  0  0  0  0
 24 25  1  0  0  0  0
M  END
>  <name>
[SH;so2amide](=O)(=O)c1cc(Nc2c(C)cnc(Nc3ccc([O;ether])cc3)n2)ccc1

>  <apo>
2

>  <freq>
1

>  <freq0>
0

>  <freq1>
1

>  <freqA>
0.99887151

>  <a_count>
41

$$$$

  MOE2015           2D

 24 26  0  0  0  0  0  0  0  0999 V2000
   -1.0310    0.5950    0.0000 Br  0  0  0  0  0  0  0  0  0  0  0  0
   -1.7810    1.8940    0.0000 C   0  0  0  0  0  0  0  0  0  0  0  0
   -1.0310    3.1930    0.0000 C   0  0  0  0  0  0  0  0  0  0  0  0
    0.4690    3.1930    0.0000 C   0  0  0  0  0  0  0  0  0  0  0  0
    1.2190    4.4930    0.0000 C   0  0  0  0  0  0  0  0  0  0  0  0
    0.4690    5.7920    0.0000 O   0  0  0  0  0  0  0  0  0  0  0  0
    2.7190    4.4930    0.0000 N   0  0  0  0  0  0  0  0  0  0  0  0
    3.4690    5.7920    0.0000 C   0  0  0  0  0  0  0  0  0  0  0  0
    2.7190    7.0910    0.0000 C   0  0  0  0  0  0  0  0  0  0  0  0
    3.4690    3.1930    0.0000 C   0  0  0  0  0  0  0  0  0  0  0  0
    2.7190    1.8940    0.0000 C   0  0  0  0  0  0  0  0  0  0  0  0
    3.4690    0.5950    0.0000 C   0  0  0  0  0  0  0  0  0  0  0  0
    4.9690    0.5950    0.0000 N   0  0  0  0  0  0  0  0  0  0  0  0
    5.7190    1.8940    0.0000 C   0  0  0  0  0  0  0  0  0  0  0  0
    7.2190    1.8940    0.0000 N   0  0  0  0  0  0  0  0  0  0  0  0
    7.9690    0.5950    0.0000 C   0  0  0  0  0  0  0  0  0  0  0  0
    4.9690    3.1930    0.0000 C   0  0  0  0  0  0  0  0  0  0  0  0
    1.2190    1.8940    0.0000 C   0  0  0  0  0  0  0  0  0  0  0  0
   -1.7810    4.4930    0.0000 C   0  0  0  0  0  0  0  0  0  0  0  0
   -3.2810    4.4930    0.0000 C   0  0  0  0  0  0  0  0  0  0  0  0
   -4.0310    5.7920    0.0000 N   0  0  0  0  0  0  0  0  0  0  0  0
   -4.0310    3.1930    0.0000 C   0  0  0  0  0  0  0  0  0  0  0  0
   -5.5310    3.1930    0.0000 F   0  0  0  0  0  0  0  0  0  0  0  0
   -3.2810    1.8940    0.0000 C   0  0  0  0  0  0  0  0  0  0  0  0
  1  2  1  0  0  0  0
  2  3  1  0  0  0  0
  2 24  2  0  0  0  0
  3  4  1  0  0  0  0
  3 19  2  0  0  0  0
  4  5  1  0  0  0  0
  4 18  2  0  0  0  0
  5  6  2  0  0  0  0
  5  7  1  0  0  0  0
  7  8  1  0  0  0  0
  7 10  1  0  0  0  0
  8  9  1  0  0  0  0
 10 11  1  0  0  0  0
 10 17  2  0  0  0  0
 11 12  2  0  0  0  0
 11 18  1  0  0  0  0
 12 13  1  0  0  0  0
 13 14  2  0  0  0  0
 14 15  1  0  0  0  0
 14 17  1  0  0  0  0
 15 16  1  0  0  0  0
 19 20  1  0  0  0  0
 20 21  1  0  0  0  0
 20 22  2  0  0  0  0
 22 23  1  0  0  0  0
 22 24  1  0  0  0  0
M  END
>  <name>
Brc1c(C=2C(=O)N(CC)c3c(cnc(NC)c3)C=2)cc([N;urea])c(F)c1

>  <apo>
1

>  <freq>
1

>  <freq0>
0

>  <freq1>
1

>  <freqA>
0.99887151

>  <a_count>
40

$$$$

  MOE2015           2D

 24 26  0  0  0  0  0  0  0  0999 V2000
   13.6320    3.6020    0.0000 Cl  0  0  0  0  0  0  0  0  0  0  0  0
   12.3270    2.8610    0.0000 C   0  0  0  0  0  0  0  0  0  0  0  0
   12.3170    1.3610    0.0000 C   0  0  0  0  0  0  0  0  0  0  0  0
   11.0130    0.6200    0.0000 C   0  0  0  0  0  0  0  0  0  0  0  0
    9.7190    1.3790    0.0000 C   0  0  0  0  0  0  0  0  0  0  0  0
    8.4150    0.6380    0.0000 C   0  0  0  0  0  0  0  0  0  0  0  0
    8.4040   -0.8620    0.0000 O   0  0  0  0  0  0  0  0  0  0  0  0
    7.1210    1.3970    0.0000 N   0  0  0  0  0  0  0  0  0  0  0  0
    6.9740    2.8900    0.0000 C   0  0  0  0  0  0  0  0  0  0  0  0
    8.0960    3.8860    0.0000 C   0  0  0  0  0  0  0  0  0  0  0  0
    5.5090    3.2120    0.0000 C   0  0  0  0  0  0  0  0  0  0  0  0
    4.9090    4.5870    0.0000 C   0  0  0  0  0  0  0  0  0  0  0  0
    3.4180    4.7540    0.0000 C   0  0  0  0  0  0  0  0  0  0  0  0
    2.8180    6.1280    0.0000 O   0  0  0  0  0  0  0  0  0  0  0  0
    4.7500    1.9180    0.0000 C   0  0  0  0  0  0  0  0  0  0  0  0
    5.7460    0.7970    0.0000 C   0  0  0  0  0  0  0  0  0  0  0  0
    5.2730   -0.6270    0.0000 C   0  0  0  0  0  0  0  0  0  0  0  0
    3.8030   -0.9280    0.0000 C   0  0  0  0  0  0  0  0  0  0  0  0
    2.8080    0.1930    0.0000 C   0  0  0  0  0  0  0  0  0  0  0  0
    1.3380   -0.1080    0.0000 O   0  0  0  0  0  0  0  0  0  0  0  0
    0.8650   -1.5320    0.0000 C   0  0  0  0  0  0  0  0  0  0  0  0
    3.2810    1.6170    0.0000 C   0  0  0  0  0  0  0  0  0  0  0  0
    9.7290    2.8790    0.0000 C   0  0  0  0  0  0  0  0  0  0  0  0
   11.0340    3.6200    0.0000 C   0  0  0  0  0  0  0  0  0  0  0  0
  1  2  1  0  0  0  0
  2  3  1  0  0  0  0
  2 24  2  0  0  0  0
  3  4  2  0  0  0  0
  4  5  1  0  0  0  0
  5  6  1  0  0  0  0
  5 23  2  0  0  0  0
  6  7  2  0  0  0  0
  6  8  1  0  0  0  0
  8  9  1  0  0  0  0
  8 16  1  0  0  0  0
  9 10  1  0  0  0  0
  9 11  2  0  0  0  0
 11 12  1  0  0  0  0
 11 15  1  0  0  0  0
 12 13  1  0  0  0  0
 13 14  2  0  0  0  0
 15 16  1  0  0  0  0
 15 22  2  0  0  0  0
 16 17  2  0  0  0  0
 17 18  1  0  0  0  0
 18 19  2  0  0  0  0
 19 20  1  0  0  0  0
 19 22  1  0  0  0  0
 20 21  1  0  0  0  0
 23 24  1  0  0  0  0
M  END
>  <name>
Clc1ccc(C(=O)n2c(C)c(C[C;ester]=O)c3c2ccc(OC)c3)cc1

>  <apo>
1

>  <freq>
1

>  <freq0>
0

>  <freq1>
1

>  <freqA>
0.99887151

>  <a_count>
40

$$$$

  MOE2015           2D

 24 26  0  0  0  0  0  0  0  0999 V2000
    1.1880   -5.5390    0.0000 I   0  0  0  0  0  0  0  0  0  0  0  0
    1.9460   -4.2450    0.0000 C   0  0  0  0  0  0  0  0  0  0  0  0
    1.2030   -2.9410    0.0000 C   0  0  0  0  0  0  0  0  0  0  0  0
   -0.2970   -2.9320    0.0000 O   0  0  0  0  0  0  0  0  0  0  0  0
    1.9610   -1.6470    0.0000 C   0  0  0  0  0  0  0  0  0  0  0  0
    1.2190   -0.3430    0.0000 I   0  0  0  0  0  0  0  0  0  0  0  0
    3.4610   -1.6550    0.0000 C   0  0  0  0  0  0  0  0  0  0  0  0
    4.2030   -2.9590    0.0000 C   0  0  0  0  0  0  0  0  0  0  0  0
    5.7030   -2.9680    0.0000 C   0  0  0  0  0  0  0  0  0  0  0  0
    6.4460   -4.2710    0.0000 O   0  0  0  0  0  0  0  0  0  0  0  0
    6.4610   -1.6730    0.0000 C   0  0  0  0  0  0  0  0  0  0  0  0
    7.9540   -1.5250    0.0000 C   0  0  0  0  0  0  0  0  0  0  0  0
    8.9510   -2.6460    0.0000 C   0  0  0  0  0  0  0  0  0  0  0  0
   10.4200   -2.3430    0.0000 C   0  0  0  0  0  0  0  0  0  0  0  0
   11.4170   -3.4640    0.0000 C   0  0  0  0  0  0  0  0  0  0  0  0
   12.8860   -3.1600    0.0000 C   0  0  0  0  0  0  0  0  0  0  0  0
    8.2740   -0.0600    0.0000 O   0  0  0  0  0  0  0  0  0  0  0  0
    6.9800    0.6980    0.0000 C   0  0  0  0  0  0  0  0  0  0  0  0
    5.8590   -0.2990    0.0000 C   0  0  0  0  0  0  0  0  0  0  0  0
    4.4350    0.1730    0.0000 C   0  0  0  0  0  0  0  0  0  0  0  0
    4.1320    1.6420    0.0000 C   0  0  0  0  0  0  0  0  0  0  0  0
    5.2530    2.6390    0.0000 C   0  0  0  0  0  0  0  0  0  0  0  0
    6.6770    2.1670    0.0000 C   0  0  0  0  0  0  0  0  0  0  0  0
    3.4460   -4.2530    0.0000 C   0  0  0  0  0  0  0  0  0  0  0  0
  1  2  1  0  0  0  0
  2  3  1  0  0  0  0
  2 24  2  0  0  0  0
  3  4  1  0  0  0  0
  3  5  2  0  0  0  0
  5  6  1  0  0  0  0
  5  7  1  0  0  0  0
  7  8  2  0  0  0  0
  8  9  1  0  0  0  0
  8 24  1  0  0  0  0
  9 10  2  0  0  0  0
  9 11  1  0  0  0  0
 11 12  2  0  0  0  0
 11 19  1  0  0  0  0
 12 13  1  0  0  0  0
 12 17  1  0  0  0  0
 13 14  1  0  0  0  0
 14 15  1  0  0  0  0
 15 16  1  0  0  0  0
 17 18  1  0  0  0  0
 18 19  1  0  0  0  0
 18 23  2  0  0  0  0
 19 20  2  0  0  0  0
 20 21  1  0  0  0  0
 21 22  2  0  0  0  0
 22 23  1  0  0  0  0
M  END
>  <name>
Ic1c([O;ether])c(I)cc(C(=O)c2c(CCCC)oc3c2cccc3)c1

>  <apo>
1

>  <freq>
1

>  <freq0>
0

>  <freq1>
1

>  <freqA>
0.99887151

>  <a_count>
40

$$$$

  MOE2015           2D

 18 21  0  0  0  0  0  0  0  0999 V2000
   -0.4200    1.3630    0.0000 O   0  0  0  0  0  0  0  0  0  0  0  0
    0.8790    2.1130    0.0000 C   0  0  0  0  0  0  0  0  0  0  0  0
   -0.4200   -0.1370    0.0000 C   0  0  0  0  0  0  0  0  0  0  0  0
   -1.7190   -0.8880    0.0000 C   0  0  0  0  0  0  0  0  0  0  0  0
   -3.0180   -0.1380    0.0000 C   0  0  0  0  0  0  0  0  0  0  0  0
   -4.5690   -0.3700    0.0000 C   0  0  0  0  0  0  0  0  0  0  0  0
   -5.8890    0.4450    0.0000 C   0  0  0  0  0  0  0  0  0  0  0  0
   -5.6440    1.9000    0.0000 C   0  0  0  0  0  0  0  0  0  0  0  0
   -4.0650    2.0890    0.0000 C   0  0  0  0  0  0  0  0  0  0  0  0
   -2.7910    1.3170    0.0000 C   0  0  0  0  0  0  0  0  0  0  0  0
   -5.0640    1.1050    0.0000 C   0  0  0  0  0  0  0  0  0  0  0  0
   -5.3310   -0.2480    0.0000 C   0  0  0  0  0  0  0  0  0  0  0  0
   -4.1050   -1.0150    0.0000 C   0  0  0  0  0  0  0  0  0  0  0  0
   -7.0040   -0.5890    0.0000 C   0  0  0  0  0  0  0  0  0  0  0  0
   -1.7190   -2.3880    0.0000 C   0  0  0  0  0  0  0  0  0  0  0  0
   -0.4200   -3.1370    0.0000 C   0  0  0  0  0  0  0  0  0  0  0  0
    0.8790   -2.3870    0.0000 C   0  0  0  0  0  0  0  0  0  0  0  0
    0.8790   -0.8870    0.0000 C   0  0  0  0  0  0  0  0  0  0  0  0
  1  2  1  0  0  0  0
  1  3  1  0  0  0  0
  3  4  1  0  0  0  0
  3 18  2  0  0  0  0
  4  5  1  0  0  0  0
  4 15  2  0  0  0  0
  5  6  1  0  0  0  0
  5 10  1  0  0  0  0
  5 13  1  0  0  0  0
  6  7  1  0  0  0  0
  7  8  1  0  0  0  0
  7 14  1  0  0  0  0
  8  9  1  0  0  0  0
  9 10  1  0  0  0  0
  9 11  1  0  0  0  0
 11 12  1  0  0  0  0
 12 13  1  0  0  0  0
 12 14  1  0  0  0  0
 15 16  1  0  0  0  0
 16 17  2  0  0  0  0
 17 18  1  0  0  0  0
M  END
>  <name>
O(C)c1c(C23CC4CC(C2)CC(C3)C4)c[c;biphenyl]cc1

>  <apo>
1

>  <freq>
1

>  <freq0>
0

>  <freq1>
1

>  <freqA>
0.99887151

>  <a_count>
40

$$$$

  MOE2015           2D

 19 19  0  0  0  0  0  0  0  0999 V2000
    2.6500    1.6920    0.0000 O   0  0  0  0  0  0  0  0  0  0  0  0
    2.6500    0.1920    0.0000 C   0  0  0  0  0  0  0  0  0  0  0  0
    3.9490   -0.5580    0.0000 O   0  0  0  0  0  0  0  0  0  0  0  0
    5.2480    0.1920    0.0000 C   0  0  0  0  0  0  0  0  0  0  0  0
    6.5470   -0.5580    0.0000 C   0  0  0  0  0  0  0  0  0  0  0  0
    7.8460    0.1920    0.0000 C   0  0  0  0  0  0  0  0  0  0  0  0
    9.1450   -0.5580    0.0000 C   0  0  0  0  0  0  0  0  0  0  0  0
   10.4440    0.1920    0.0000 C   0  0  0  0  0  0  0  0  0  0  0  0
   11.7430   -0.5580    0.0000 C   0  0  0  0  0  0  0  0  0  0  0  0
    1.3510   -0.5580    0.0000 N   0  0  0  0  0  0  0  0  0  0  0  0
    0.0520    0.1920    0.0000 C   0  0  0  0  0  0  0  0  0  0  0  0
    0.0520    1.6920    0.0000 N   0  0  0  0  0  0  0  0  0  0  0  0
   -1.2470   -0.5580    0.0000 C   0  0  0  0  0  0  0  0  0  0  0  0
   -1.2470   -2.0580    0.0000 C   0  0  0  0  0  0  0  0  0  0  0  0
   -2.5470   -2.8080    0.0000 C   0  0  0  0  0  0  0  0  0  0  0  0
   -3.8460   -2.0580    0.0000 C   0  0  0  0  0  0  0  0  0  0  0  0
   -5.1450   -2.8080    0.0000 N   0  0  0  0  0  0  0  0  0  0  0  0
   -3.8460   -0.5580    0.0000 C   0  0  0  0  0  0  0  0  0  0  0  0
   -2.5470    0.1920    0.0000 C   0  0  0  0  0  0  0  0  0  0  0  0
  1  2  2  0  0  0  0
  2  3  1  0  0  0  0
  2 10  1  0  0  0  0
  3  4  1  0  0  0  0
  4  5  1  0  0  0  0
  5  6  1  0  0  0  0
  6  7  1  0  0  0  0
  7  8  1  0  0  0  0
  8  9  1  0  0  0  0
 10 11  2  0  0  0  0
 11 12  1  0  0  0  0
 11 13  1  0  0  0  0
 13 14  1  0  0  0  0
 13 19  2  0  0  0  0
 14 15  2  0  0  0  0
 15 16  1  0  0  0  0
 16 17  1  0  0  0  0
 16 18  2  0  0  0  0
 18 19  1  0  0  0  0
M  END
>  <name>
O=C(OCCCCCC)/N=C(\N)/c1ccc([N;amine])cc1

>  <apo>
1

>  <freq>
1

>  <freq0>
0

>  <freq1>
1

>  <freqA>
0.99887151

>  <a_count>
40

$$$$

  MOE2015           2D

 16 15  0  0  1  0  0  0  0  0999 V2000
    3.0550   -0.1320    0.0000 O   0  0  0  0  0  0  0  0  0  0  0  0
    3.0550    1.3680    0.0000 C   0  0  0  0  0  0  0  0  0  0  0  0
    4.3540    2.1180    0.0000 C   0  0  1  0  0  0  0  0  0  0  0  0
    5.6530    1.3680    0.0000 C   0  0  0  0  0  0  0  0  0  0  0  0
    6.9520    2.1180    0.0000 C   0  0  0  0  0  0  0  0  0  0  0  0
    8.2510    1.3680    0.0000 C   0  0  0  0  0  0  0  0  0  0  0  0
    4.3540    3.6180    0.0000 C   0  0  0  0  0  0  0  0  0  0  0  0
    1.7560    2.1180    0.0000 C   0  0  0  0  0  0  0  0  0  0  0  0
    0.4570    1.3680    0.0000 C   0  0  2  0  0  0  0  0  0  0  0  0
    0.4570   -0.1320    0.0000 O   0  0  0  0  0  0  0  0  0  0  0  0
   -0.8420    2.1180    0.0000 C   0  0  1  0  0  0  0  0  0  0  0  0
   -2.1410    1.3680    0.0000 C   0  0  1  0  0  0  0  0  0  0  0  0
   -3.4400    2.1180    0.0000 O   0  0  0  0  0  0  0  0  0  0  0  0
   -2.1410   -0.1320    0.0000 C   0  0  0  0  0  0  0  0  0  0  0  0
   -3.4400   -0.8820    0.0000 C   0  0  0  0  0  0  0  0  0  0  0  0
   -0.8420    3.6180    0.0000 C   0  0  0  0  0  0  0  0  0  0  0  0
  1  2  2  0  0  0  0
  2  3  1  0  0  0  0
  2  8  1  0  0  0  0
  3  4  1  0  0  0  0
  3  7  1  6  0  0  0
  4  5  1  0  0  0  0
  5  6  2  0  0  0  0
  8  9  1  0  0  0  0
  9 10  1  6  0  0  0
  9 11  1  0  0  0  0
 11 12  1  0  0  0  0
 11 16  1  1  0  0  0
 12 13  1  6  0  0  0
 12 14  1  0  0  0  0
 14 15  1  0  0  0  0
M  END
>  <name>
O=C([C@@H](CC=C)[C;olefin])C[C@H](O)[C@@H]([C@@H]([O;ester])[C;olefin]C)C

>  <apo>
3

>  <freq>
1

>  <freq0>
0

>  <freq1>
1

>  <freqA>
0.99887151

>  <a_count>
40

$$$$

  MOE2015           2D

 23 26  0  0  1  0  0  0  0  0999 V2000
    1.0330    3.8560    0.0000 O   0  0  0  0  0  0  0  0  0  0  0  0
    2.3320    3.1060    0.0000 C   0  0  0  0  0  0  0  0  0  0  0  0
    3.6310    3.8560    0.0000 O   0  5  0  0  0  0  0  0  0  0  0  0
    2.3320    1.6060    0.0000 C   0  0  0  0  0  0  0  0  0  0  0  0
    3.6310    0.8560    0.0000 C   0  0  0  0  0  0  0  0  0  0  0  0
    4.9300    1.6060    0.0000 C   0  0  0  0  0  0  0  0  0  0  0  0
    6.2290    0.8560    0.0000 N   0  3  0  0  0  0  0  0  0  0  0  0
    7.5280    1.6060    0.0000 C   0  0  0  0  0  0  0  0  0  0  0  0
    8.8270    0.8560    0.0000 C   0  0  0  0  0  0  0  0  0  0  0  0
    8.8270   -0.6440    0.0000 C   0  0  0  0  0  0  0  0  0  0  0  0
    7.5280   -1.3940    0.0000 C   0  0  0  0  0  0  0  0  0  0  0  0
    6.2290   -0.6440    0.0000 C   0  0  0  0  0  0  0  0  0  0  0  0
    9.9420    1.8600    0.0000 C   0  0  0  0  0  0  0  0  0  0  0  0
    9.3320    3.2300    0.0000 C   0  0  0  0  0  0  0  0  0  0  0  0
    7.8400    3.0730    0.0000 C   0  0  0  0  0  0  0  0  0  0  0  0
    3.6310   -0.6440    0.0000 C   0  0  0  0  0  0  0  0  0  0  0  0
    2.3320   -1.3940    0.0000 S   0  0  0  0  0  0  0  0  0  0  0  0
    1.0330   -0.6440    0.0000 C   0  0  2  0  0  0  0  0  0  0  0  0
   -0.4670   -0.6440    0.0000 C   0  0  2  0  0  0  0  0  0  0  0  0
   -1.5270   -1.7050    0.0000 N   0  0  0  0  0  0  0  0  0  0  0  0
   -0.4670    0.8560    0.0000 C   0  0  0  0  0  0  0  0  0  0  0  0
   -1.5270    1.9170    0.0000 O   0  0  0  0  0  0  0  0  0  0  0  0
    1.0330    0.8560    0.0000 N   0  0  0  0  0  0  0  0  0  0  0  0
  1  2  2  0  0  0  0
  2  3  1  0  0  0  0
  2  4  1  0  0  0  0
  4  5  2  0  0  0  0
  4 23  1  0  0  0  0
  5  6  1  0  0  0  0
  5 16  1  0  0  0  0
  6  7  1  0  0  0  0
  7  8  2  0  0  0  0
  7 12  1  0  0  0  0
  8  9  1  0  0  0  0
  8 15  1  0  0  0  0
  9 10  2  0  0  0  0
  9 13  1  0  0  0  0
 10 11  1  0  0  0  0
 11 12  2  0  0  0  0
 13 14  1  0  0  0  0
 14 15  1  0  0  0  0
 16 17  1  0  0  0  0
 18 17  1  6  0  0  0
 18 19  1  0  0  0  0
 18 23  1  0  0  0  0
 19 20  1  6  0  0  0
 19 21  1  0  0  0  0
 21 22  2  0  0  0  0
 21 23  1  0  0  0  0
M  CHG  1   3  -1
M  CHG  1   7   1
M  END
>  <name>
O=C([O-])C1=C(C[n+]2c3c(ccc2)CCC3)CS[C@@H]2[C@H]([N;amide])C(=O)N12

>  <apo>
1

>  <freq>
1

>  <freq0>
0

>  <freq1>
1

>  <freqA>
0.99887151

>  <a_count>
40

$$$$

  MOE2015           2D

 23 27  0  0  1  0  0  0  0  0999 V2000
    8.6330    4.9810    0.0000 O   0  0  0  0  0  0  0  0  0  0  0  0
    7.8820    3.6820    0.0000 C   0  0  0  0  0  0  0  0  0  0  0  0
    6.3820    3.6830    0.0000 C   0  0  0  0  0  0  0  0  0  0  0  0
    5.6650    2.4400    0.0000 C   0  0  0  0  0  0  0  0  0  0  0  0
    6.4150    1.1410    0.0000 O   0  0  0  0  0  0  0  0  0  0  0  0
    4.2330    2.4420    0.0000 C   0  0  2  0  0  0  0  0  0  0  0  0
    2.8220    1.3710    0.0000 O   0  0  0  0  0  0  0  0  0  0  0  0
    1.3740    2.4260    0.0000 C   0  0  0  0  0  0  0  0  0  0  0  0
   -0.0630    2.4230    0.0000 C   0  0  0  0  0  0  0  0  0  0  0  0
   -0.8090    1.1220    0.0000 O   0  0  0  0  0  0  0  0  0  0  0  0
   -0.7830    3.6610    0.0000 C   0  0  0  0  0  0  0  0  0  0  0  0
   -0.0680    4.9010    0.0000 C   0  0  0  0  0  0  0  0  0  0  0  0
    1.3580    4.9080    0.0000 C   0  0  0  0  0  0  0  0  0  0  0  0
    2.0790    3.6690    0.0000 C   0  0  0  0  0  0  0  0  0  0  0  0
    3.5190    3.6770    0.0000 C   0  0  2  0  0  0  0  0  0  0  0  0
    4.2360    4.9200    0.0000 C   0  0  2  0  0  0  0  0  0  0  0  0
    4.9770    6.2250    0.0000 O   0  0  0  0  0  0  0  0  0  0  0  0
    3.5120    6.1690    0.0000 C   0  0  2  0  0  0  0  0  0  0  0  0
    3.8660    7.5710    0.0000 N   0  0  0  0  0  0  0  0  0  0  0  0
    2.6220    6.8460    0.0000 C   0  0  0  0  0  0  0  0  0  0  0  0
    2.4790    4.6990    0.0000 C   0  0  0  0  0  0  0  0  0  0  0  0
    2.0750    6.1560    0.0000 C   0  0  0  0  0  0  0  0  0  0  0  0
    5.6660    4.9280    0.0000 C   0  0  0  0  0  0  0  0  0  0  0  0
  1  2  2  0  0  0  0
  2  3  1  0  0  0  0
  3  4  2  0  0  0  0
  3 23  1  0  0  0  0
  4  5  1  0  0  0  0
  4  6  1  0  0  0  0
  6  7  1  6  0  0  0
  6 15  1  0  0  0  0
  7  8  1  0  0  0  0
  8  9  1  0  0  0  0
  8 14  2  0  0  0  0
  9 10  1  0  0  0  0
  9 11  2  0  0  0  0
 11 12  1  0  0  0  0
 12 13  2  0  0  0  0
 13 14  1  0  0  0  0
 13 22  1  0  0  0  0
 14 15  1  0  0  0  0
 15 16  1  0  0  0  0
 15 21  1  1  0  0  0
 16 17  1  1  0  0  0
 16 18  1  0  0  0  0
 16 23  1  0  0  0  0
 18 19  1  1  0  0  0
 18 22  1  0  0  0  0
 19 20  1  0  0  0  0
 20 21  1  0  0  0  0
M  END
>  <name>
O=[C;amide]C1=C(O)[C@@H]2Oc3c(O)ccc4c3[C@@]32[C@](O)([C@H]([N;amine]CC3)C4)C1

>  <apo>
2

>  <freq>
1

>  <freq0>
0

>  <freq1>
1

>  <freqA>
0.99887151

>  <a_count>
40

$$$$

  MOE2015           2D

 16 15  0  0  1  0  0  0  0  0999 V2000
   13.9380    3.7350    0.0000 O   0  0  0  0  0  0  0  0  0  0  0  0
   12.6390    2.9850    0.0000 C   0  0  0  0  0  0  0  0  0  0  0  0
   11.3400    3.7350    0.0000 C   0  0  1  0  0  0  0  0  0  0  0  0
   11.3400    5.2350    0.0000 N   0  0  0  0  0  0  0  0  0  0  0  0
   10.0410    2.9850    0.0000 C   0  0  0  0  0  0  0  0  0  0  0  0
    8.7420    3.7350    0.0000 C   0  0  0  0  0  0  0  0  0  0  0  0
    7.4430    2.9850    0.0000 C   0  0  0  0  0  0  0  0  0  0  0  0
    6.1440    3.7350    0.0000 C   0  0  0  0  0  0  0  0  0  0  0  0
    4.8450    2.9850    0.0000 N   0  0  0  0  0  0  0  0  0  0  0  0
    3.5460    3.7350    0.0000 C   0  0  0  0  0  0  0  0  0  0  0  0
    3.5460    5.2350    0.0000 N   0  0  0  0  0  0  0  0  0  0  0  0
    2.2470    5.9850    0.0000 C   0  0  0  0  0  0  0  0  0  0  0  0
    2.2470    7.4850    0.0000 C   0  0  0  0  0  0  0  0  0  0  0  0
    2.2470    2.9850    0.0000 N   0  0  0  0  0  0  0  0  0  0  0  0
    2.2470    1.4850    0.0000 C   0  0  0  0  0  0  0  0  0  0  0  0
    0.9480    0.7350    0.0000 C   0  0  0  0  0  0  0  0  0  0  0  0
  1  2  2  0  0  0  0
  2  3  1  0  0  0  0
  3  4  1  6  0  0  0
  3  5  1  0  0  0  0
  5  6  1  0  0  0  0
  6  7  1  0  0  0  0
  7  8  1  0  0  0  0
  8  9  1  0  0  0  0
  9 10  2  0  0  0  0
 10 11  1  0  0  0  0
 10 14  1  0  0  0  0
 11 12  1  0  0  0  0
 12 13  1  0  0  0  0
 14 15  1  0  0  0  0
 15 16  1  0  0  0  0
M  END
>  <name>
O=[C;amide][C@@H]([N;amide])CCCC/N=C(\NCC)/NCC

>  <apo>
2

>  <freq>
1

>  <freq0>
0

>  <freq1>
1

>  <freqA>
0.99887151

>  <a_count>
40

$$$$

  MOE2015           2D

 16 15  0  0  1  0  0  0  0  0999 V2000
   13.9380    3.7350    0.0000 O   0  0  0  0  0  0  0  0  0  0  0  0
   12.6390    2.9850    0.0000 C   0  0  0  0  0  0  0  0  0  0  0  0
   11.3400    3.7350    0.0000 C   0  0  2  0  0  0  0  0  0  0  0  0
   11.3400    5.2350    0.0000 N   0  0  0  0  0  0  0  0  0  0  0  0
   10.0410    2.9850    0.0000 C   0  0  0  0  0  0  0  0  0  0  0  0
    8.7420    3.7350    0.0000 C   0  0  0  0  0  0  0  0  0  0  0  0
    7.4430    2.9850    0.0000 C   0  0  0  0  0  0  0  0  0  0  0  0
    6.1440    3.7350    0.0000 C   0  0  0  0  0  0  0  0  0  0  0  0
    4.8450    2.9850    0.0000 N   0  0  0  0  0  0  0  0  0  0  0  0
    3.5460    3.7350    0.0000 C   0  0  0  0  0  0  0  0  0  0  0  0
    3.5460    5.2350    0.0000 N   0  0  0  0  0  0  0  0  0  0  0  0
    2.2470    5.9850    0.0000 C   0  0  0  0  0  0  0  0  0  0  0  0
    2.2470    7.4850    0.0000 C   0  0  0  0  0  0  0  0  0  0  0  0
    2.2470    2.9850    0.0000 N   0  0  0  0  0  0  0  0  0  0  0  0
    2.2470    1.4850    0.0000 C   0  0  0  0  0  0  0  0  0  0  0  0
    0.9480    0.7350    0.0000 C   0  0  0  0  0  0  0  0  0  0  0  0
  1  2  2  0  0  0  0
  2  3  1  0  0  0  0
  3  4  1  1  0  0  0
  3  5  1  0  0  0  0
  5  6  1  0  0  0  0
  6  7  1  0  0  0  0
  7  8  1  0  0  0  0
  8  9  1  0  0  0  0
  9 10  2  0  0  0  0
 10 11  1  0  0  0  0
 10 14  1  0  0  0  0
 11 12  1  0  0  0  0
 12 13  1  0  0  0  0
 14 15  1  0  0  0  0
 15 16  1  0  0  0  0
M  END
>  <name>
O=[C;amide][C@H]([N;amide])CCCC/N=C(\NCC)/NCC

>  <apo>
2

>  <freq>
1

>  <freq0>
0

>  <freq1>
1

>  <freqA>
0.99887151

>  <a_count>
40

$$$$

  MOE2015           2D

 21 25  0  0  1  0  0  0  0  0999 V2000
    0.7910    1.3680    0.0000 O   0  0  0  0  0  0  0  0  0  0  0  0
    1.5400    0.0690    0.0000 C   0  0  2  0  0  0  0  0  0  0  0  0
    2.9720    0.0660    0.0000 C   0  0  2  0  0  0  0  0  0  0  0  0
    4.3830    1.1380    0.0000 O   0  0  0  0  0  0  0  0  0  0  0  0
    5.8310    0.0820    0.0000 C   0  0  0  0  0  0  0  0  0  0  0  0
    7.2680    0.0850    0.0000 C   0  0  0  0  0  0  0  0  0  0  0  0
    8.0140    1.3860    0.0000 O   0  0  0  0  0  0  0  0  0  0  0  0
    7.9880   -1.1530    0.0000 C   0  0  0  0  0  0  0  0  0  0  0  0
    7.2730   -2.3930    0.0000 C   0  0  0  0  0  0  0  0  0  0  0  0
    5.8470   -2.3980    0.0000 C   0  0  0  0  0  0  0  0  0  0  0  0
    5.1260   -1.1600    0.0000 C   0  0  0  0  0  0  0  0  0  0  0  0
    3.6860   -1.1690    0.0000 C   0  0  2  0  0  0  0  0  0  0  0  0
    2.9690   -2.4110    0.0000 C   0  0  2  0  0  0  0  0  0  0  0  0
    2.2280   -3.7160    0.0000 O   0  0  0  0  0  0  0  0  0  0  0  0
    3.6930   -3.6610    0.0000 C   0  0  2  0  0  0  0  0  0  0  0  0
    3.3400   -5.0620    0.0000 N   0  0  0  0  0  0  0  0  0  0  0  0
    4.5830   -4.3380    0.0000 C   0  0  0  0  0  0  0  0  0  0  0  0
    4.7250   -2.1900    0.0000 C   0  0  0  0  0  0  0  0  0  0  0  0
    5.1290   -3.6460    0.0000 C   0  0  0  0  0  0  0  0  0  0  0  0
    1.5390   -2.4190    0.0000 C   0  0  0  0  0  0  0  0  0  0  0  0
    0.8220   -1.1740    0.0000 C   0  0  0  0  0  0  0  0  0  0  0  0
  2  1  1  6  0  0  0
  2  3  1  0  0  0  0
  2 21  1  0  0  0  0
  3  4  1  6  0  0  0
  3 12  1  0  0  0  0
  4  5  1  0  0  0  0
  5  6  1  0  0  0  0
  5 11  2  0  0  0  0
  6  7  1  0  0  0  0
  6  8  2  0  0  0  0
  8  9  1  0  0  0  0
  9 10  2  0  0  0  0
 10 11  1  0  0  0  0
 10 19  1  0  0  0  0
 11 12  1  0  0  0  0
 12 13  1  0  0  0  0
 12 18  1  1  0  0  0
 13 14  1  1  0  0  0
 13 15  1  0  0  0  0
 13 20  1  0  0  0  0
 15 16  1  1  0  0  0
 15 19  1  0  0  0  0
 16 17  1  0  0  0  0
 17 18  1  0  0  0  0
 20 21  1  0  0  0  0
M  END
>  <name>
O[C@@H]1[C@@H]2Oc3c(O)ccc4c3[C@@]32[C@](O)([C@H]([N;amine]CC3)C4)CC1

>  <apo>
1

>  <freq>
1

>  <freq0>
0

>  <freq1>
1

>  <freqA>
0.99887151

>  <a_count>
40

$$$$

  MOE2015           2D

 21 25  0  0  1  0  0  0  0  0999 V2000
    2.8440    2.8670    0.0000 O   0  0  0  0  0  0  0  0  0  0  0  0
    2.8560    1.3670    0.0000 C   0  0  2  0  0  0  0  0  0  0  0  0
    4.1010    0.6590    0.0000 C   0  0  2  0  0  0  0  0  0  0  0  0
    5.8570    0.8970    0.0000 O   0  0  0  0  0  0  0  0  0  0  0  0
    6.5980   -0.7350    0.0000 C   0  0  0  0  0  0  0  0  0  0  0  0
    7.8490   -1.4400    0.0000 C   0  0  0  0  0  0  0  0  0  0  0  0
    9.1390   -0.6750    0.0000 O   0  0  0  0  0  0  0  0  0  0  0  0
    7.8670   -2.8720    0.0000 C   0  0  0  0  0  0  0  0  0  0  0  0
    6.6330   -3.5990    0.0000 C   0  0  0  0  0  0  0  0  0  0  0  0
    5.3890   -2.9010    0.0000 C   0  0  0  0  0  0  0  0  0  0  0  0
    5.3720   -1.4690    0.0000 C   0  0  0  0  0  0  0  0  0  0  0  0
    4.1140   -0.7670    0.0000 C   0  0  2  0  0  0  0  0  0  0  0  0
    2.8780   -1.4960    0.0000 C   0  0  2  0  0  0  0  0  0  0  0  0
    2.8930   -2.9400    0.0000 C   0  0  2  0  0  0  0  0  0  0  0  0
    1.8960   -3.9850    0.0000 N   0  0  0  0  0  0  0  0  0  0  0  0
    0.5200   -4.5830    0.0000 C   0  0  0  0  0  0  0  0  0  0  0  0
    3.3340   -3.9670    0.0000 C   0  0  0  0  0  0  0  0  0  0  0  0
    4.5160   -2.1680    0.0000 C   0  0  0  0  0  0  0  0  0  0  0  0
    4.1500   -3.6340    0.0000 C   0  0  0  0  0  0  0  0  0  0  0  0
    1.6300   -0.7980    0.0000 C   0  0  0  0  0  0  0  0  0  0  0  0
    1.6190    0.6380    0.0000 C   0  0  0  0  0  0  0  0  0  0  0  0
  2  1  1  6  0  0  0
  2  3  1  0  0  0  0
  2 21  1  0  0  0  0
  3  4  1  6  0  0  0
  3 12  1  0  0  0  0
  4  5  1  0  0  0  0
  5  6  1  0  0  0  0
  5 11  2  0  0  0  0
  6  7  1  0  0  0  0
  6  8  2  0  0  0  0
  8  9  1  0  0  0  0
  9 10  2  0  0  0  0
 10 11  1  0  0  0  0
 10 19  1  0  0  0  0
 11 12  1  0  0  0  0
 12 13  1  0  0  0  0
 12 18  1  1  0  0  0
 13 14  1  0  0  0  0
 13 20  1  6  0  0  0
 14 15  1  1  0  0  0
 14 19  1  0  0  0  0
 15 16  1  0  0  0  0
 15 17  1  0  0  0  0
 17 18  1  0  0  0  0
 20 21  2  0  0  0  0
M  END
>  <name>
O[C@@H]1[C@@H]2Oc3c([O;ether])ccc4c3[C@@]32[C@H]([C@H](N(C)CC3)C4)C=C1

>  <apo>
1

>  <freq>
1

>  <freq0>
0

>  <freq1>
1

>  <freqA>
0.99887151

>  <a_count>
40

$$$$

  MOE2015           2D

 21 25  0  0  1  0  0  0  0  0999 V2000
    8.1540    1.1630    0.0000 O   0  0  0  0  0  0  0  0  0  0  0  0
    7.4080   -0.1380    0.0000 C   0  0  0  0  0  0  0  0  0  0  0  0
    5.9720   -0.1410    0.0000 C   0  0  0  0  0  0  0  0  0  0  0  0
    4.5240    0.9150    0.0000 O   0  0  0  0  0  0  0  0  0  0  0  0
    3.1130   -0.1570    0.0000 C   0  0  1  0  0  0  0  0  0  0  0  0
    1.6800   -0.1540    0.0000 C   0  0  0  0  0  0  0  0  0  0  0  0
    0.9310    1.1450    0.0000 C   0  0  0  0  0  0  0  0  0  0  0  0
    0.9630   -1.3970    0.0000 C   0  0  0  0  0  0  0  0  0  0  0  0
    1.6790   -2.6420    0.0000 C   0  0  0  0  0  0  0  0  0  0  0  0
    3.1090   -2.6350    0.0000 C   0  0  1  0  0  0  0  0  0  0  0  0
    2.3680   -3.9390    0.0000 O   0  0  0  0  0  0  0  0  0  0  0  0
    3.8330   -3.8840    0.0000 C   0  0  2  0  0  0  0  0  0  0  0  0
    3.4800   -5.2850    0.0000 N   0  0  0  0  0  0  0  0  0  0  0  0
    4.7240   -4.5610    0.0000 C   0  0  0  0  0  0  0  0  0  0  0  0
    4.8660   -2.4130    0.0000 C   0  0  0  0  0  0  0  0  0  0  0  0
    3.8260   -1.3920    0.0000 C   0  0  2  0  0  0  0  0  0  0  0  0
    5.2660   -1.3830    0.0000 C   0  0  0  0  0  0  0  0  0  0  0  0
    5.9880   -2.6210    0.0000 C   0  0  0  0  0  0  0  0  0  0  0  0
    7.4130   -2.6160    0.0000 C   0  0  0  0  0  0  0  0  0  0  0  0
    8.1290   -1.3760    0.0000 C   0  0  0  0  0  0  0  0  0  0  0  0
    5.2700   -3.8700    0.0000 C   0  0  0  0  0  0  0  0  0  0  0  0
  1  2  1  0  0  0  0
  2  3  2  0  0  0  0
  2 20  1  0  0  0  0
  3  4  1  0  0  0  0
  3 17  1  0  0  0  0
  5  4  1  6  0  0  0
  5  6  1  0  0  0  0
  5 16  1  0  0  0  0
  6  7  2  0  0  0  0
  6  8  1  0  0  0  0
  8  9  1  0  0  0  0
  9 10  1  0  0  0  0
 10 11  1  1  0  0  0
 10 12  1  0  0  0  0
 16 10  1  6  0  0  0
 12 13  1  1  0  0  0
 12 21  1  0  0  0  0
 13 14  1  0  0  0  0
 14 15  1  0  0  0  0
 16 15  1  1  0  0  0
 16 17  1  0  0  0  0
 17 18  2  0  0  0  0
 18 19  1  0  0  0  0
 18 21  1  0  0  0  0
 19 20  2  0  0  0  0
M  END
>  <name>
Oc1c2O[C@H]3C(=C)CC[C@@]4(O)[C@@H]5[N;amine]CC[C@]34c2c(cc1)C5

>  <apo>
1

>  <freq>
1

>  <freq0>
0

>  <freq1>
1

>  <freqA>
0.99887151

>  <a_count>
40

$$$$

  MOE2015           2D

 19 22  0  0  1  0  0  0  0  0999 V2000
    9.6300   -0.5650    0.0000 O   0  0  0  0  0  0  0  0  0  0  0  0
    8.3210   -1.2980    0.0000 C   0  0  0  0  0  0  0  0  0  0  0  0
    7.0320   -0.5310    0.0000 C   0  0  0  0  0  0  0  0  0  0  0  0
    5.7150   -1.2950    0.0000 C   0  0  0  0  0  0  0  0  0  0  0  0
    5.7110   -2.7580    0.0000 C   0  0  0  0  0  0  0  0  0  0  0  0
    6.9920   -3.5300    0.0000 C   0  0  0  0  0  0  0  0  0  0  0  0
    8.3010   -2.7980    0.0000 C   0  0  0  0  0  0  0  0  0  0  0  0
    4.4550   -3.5080    0.0000 C   0  0  0  0  0  0  0  0  0  0  0  0
    3.1840   -2.7280    0.0000 C   0  0  2  0  0  0  0  0  0  0  0  0
    3.1630   -1.3070    0.0000 C   0  0  1  0  0  0  0  0  0  0  0  0
    1.8690   -2.0650    0.0000 O   0  0  0  0  0  0  0  0  0  0  0  0
    4.4410   -0.5690    0.0000 C   0  0  1  0  0  0  0  0  0  0  0  0
    4.4490   -2.0110    0.0000 C   0  0  0  0  0  0  0  0  0  0  0  0
    3.5320   -3.6750    0.0000 C   0  0  0  0  0  0  0  0  0  0  0  0
    1.9520   -3.4390    0.0000 N   0  0  0  0  0  0  0  0  0  0  0  0
    4.4250    0.9050    0.0000 C   0  0  0  0  0  0  0  0  0  0  0  0
    3.1500    1.6310    0.0000 C   0  0  0  0  0  0  0  0  0  0  0  0
    1.8730    0.8940    0.0000 C   0  0  0  0  0  0  0  0  0  0  0  0
    1.8890   -0.5810    0.0000 C   0  0  0  0  0  0  0  0  0  0  0  0
  1  2  1  0  0  0  0
  2  3  1  0  0  0  0
  2  7  2  0  0  0  0
  3  4  2  0  0  0  0
  4  5  1  0  0  0  0
  4 12  1  0  0  0  0
  5  6  2  0  0  0  0
  5  8  1  0  0  0  0
  6  7  1  0  0  0  0
  9  8  1  1  0  0  0
  9 10  1  0  0  0  0
  9 15  1  0  0  0  0
 10 11  1  1  0  0  0
 12 10  1  6  0  0  0
 10 19  1  0  0  0  0
 12 13  1  1  0  0  0
 12 16  1  0  0  0  0
 13 14  1  0  0  0  0
 14 15  1  0  0  0  0
 16 17  1  0  0  0  0
 17 18  1  0  0  0  0
 18 19  1  0  0  0  0
M  END
>  <name>
Oc1cc2c(cc1)C[C@@H]1[C@@]3(O)[C@]2(CC[N;amine]1)CCCC3

>  <apo>
1

>  <freq>
1

>  <freq0>
0

>  <freq1>
1

>  <freqA>
0.99887151

>  <a_count>
40

$$$$

  MOE2015           2D

 21 22  0  0  0  0  0  0  0  0999 V2000
   -7.1760    4.1430    0.0000 S   0  0  0  0  0  0  0  0  0  0  0  0
   -7.9260    5.4420    0.0000 O   0  0  0  0  0  0  0  0  0  0  0  0
   -6.4260    2.8440    0.0000 O   0  0  0  0  0  0  0  0  0  0  0  0
   -8.4750    3.3930    0.0000 O   0  5  0  0  0  0  0  0  0  0  0  0
   -5.8770    4.8930    0.0000 C   0  0  0  0  0  0  0  0  0  0  0  0
   -4.5780    4.1430    0.0000 C   0  0  0  0  0  0  0  0  0  0  0  0
   -3.2790    4.8930    0.0000 C   0  0  0  0  0  0  0  0  0  0  0  0
   -1.9790    4.1430    0.0000 C   0  0  0  0  0  0  0  0  0  0  0  0
   -0.6800    4.8930    0.0000 N   0  3  0  0  0  0  0  0  0  0  0  0
   -0.6800    6.3930    0.0000 C   0  0  0  0  0  0  0  0  0  0  0  0
    0.6190    7.1430    0.0000 C   0  0  0  0  0  0  0  0  0  0  0  0
    0.6190    4.1430    0.0000 C   0  0  0  0  0  0  0  0  0  0  0  0
    1.9180    4.8930    0.0000 C   0  0  0  0  0  0  0  0  0  0  0  0
    3.2170    4.1430    0.0000 C   0  0  0  0  0  0  0  0  0  0  0  0
    4.5160    4.8930    0.0000 C   0  0  0  0  0  0  0  0  0  0  0  0
    3.2170    2.6430    0.0000 C   0  0  0  0  0  0  0  0  0  0  0  0
    1.9180    1.8930    0.0000 C   0  0  0  0  0  0  0  0  0  0  0  0
    0.6190    2.6430    0.0000 C   0  0  0  0  0  0  0  0  0  0  0  0
   -3.2790    6.3930    0.0000 C   0  0  0  0  0  0  0  0  0  0  0  0
   -4.5780    7.1430    0.0000 C   0  0  0  0  0  0  0  0  0  0  0  0
   -5.8770    6.3930    0.0000 C   0  0  0  0  0  0  0  0  0  0  0  0
  1  2  2  0  0  0  0
  1  3  2  0  0  0  0
  1  4  1  0  0  0  0
  1  5  1  0  0  0  0
  5  6  2  0  0  0  0
  5 21  1  0  0  0  0
  6  7  1  0  0  0  0
  7  8  1  0  0  0  0
  7 19  2  0  0  0  0
  8  9  1  0  0  0  0
  9 10  1  0  0  0  0
  9 12  2  0  0  0  0
 10 11  1  0  0  0  0
 12 13  1  0  0  0  0
 12 18  1  0  0  0  0
 13 14  2  0  0  0  0
 14 15  1  0  0  0  0
 14 16  1  0  0  0  0
 16 17  1  0  0  0  0
 17 18  2  0  0  0  0
 19 20  1  0  0  0  0
 20 21  2  0  0  0  0
M  CHG  1   4  -1
M  CHG  1   9   1
M  END
>  <name>
S(=O)(=O)([O-])c1cc(C/[N+](/CC)=C\2/C=C(C)[C;olefin]C=C/2)ccc1

>  <apo>
1

>  <freq>
1

>  <freq0>
0

>  <freq1>
1

>  <freqA>
0.99887151

>  <a_count>
40

$$$$

  MOE2015           2D

 16 17  0  0  0  0  0  0  0  0999 V2000
    7.7190   -2.0680    0.0000 C   0  0  0  0  0  0  0  0  0  0  0  0
    6.4200   -1.3180    0.0000 C   0  0  0  0  0  0  0  0  0  0  0  0
    6.4200    0.1820    0.0000 C   0  0  0  0  0  0  0  0  0  0  0  0
    7.7190    0.9320    0.0000 C   0  0  0  0  0  0  0  0  0  0  0  0
    5.1210    0.9320    0.0000 C   0  0  0  0  0  0  0  0  0  0  0  0
    3.8220    0.1820    0.0000 C   0  0  0  0  0  0  0  0  0  0  0  0
    2.5230    0.9320    0.0000 C   0  0  0  0  0  0  0  0  0  0  0  0
    3.2730    2.2310    0.0000 C   0  0  0  0  0  0  0  0  0  0  0  0
    1.7730    2.2310    0.0000 C   0  0  0  0  0  0  0  0  0  0  0  0
    1.2240    0.1820    0.0000 C   0  0  0  0  0  0  0  0  0  0  0  0
    1.2240   -1.3180    0.0000 C   0  0  0  0  0  0  0  0  0  0  0  0
    2.5230   -2.0680    0.0000 C   0  0  0  0  0  0  0  0  0  0  0  0
    3.2730   -3.3670    0.0000 C   0  0  0  0  0  0  0  0  0  0  0  0
    1.7730   -3.3670    0.0000 C   0  0  0  0  0  0  0  0  0  0  0  0
    3.8220   -1.3180    0.0000 C   0  0  0  0  0  0  0  0  0  0  0  0
    5.1210   -2.0680    0.0000 C   0  0  0  0  0  0  0  0  0  0  0  0
  1  2  1  0  0  0  0
  2  3  1  0  0  0  0
  2 16  2  0  0  0  0
  3  4  1  0  0  0  0
  3  5  2  0  0  0  0
  5  6  1  0  0  0  0
  6  7  1  0  0  0  0
  6 15  2  0  0  0  0
  7  8  1  0  0  0  0
  7  9  1  0  0  0  0
  7 10  1  0  0  0  0
 10 11  1  0  0  0  0
 11 12  1  0  0  0  0
 12 13  1  0  0  0  0
 12 14  1  0  0  0  0
 12 15  1  0  0  0  0
 15 16  1  0  0  0  0
M  END
>  <name>
[C;olefin]c1c([C;NaroC])cc2C(C)(C)CCC(C)(C)c2c1

>  <apo>
2

>  <freq>
1

>  <freq0>
0

>  <freq1>
1

>  <freqA>
0.99887151

>  <a_count>
40

$$$$

  MOE2015           2D

 21 25  0  0  1  0  0  0  0  0999 V2000
    2.8440    2.8670    0.0000 O   0  0  0  0  0  0  0  0  0  0  0  0
    2.8560    1.3670    0.0000 C   0  0  2  0  0  0  0  0  0  0  0  0
    4.1010    0.6590    0.0000 C   0  0  2  0  0  0  0  0  0  0  0  0
    5.8570    0.8970    0.0000 O   0  0  0  0  0  0  0  0  0  0  0  0
    6.5980   -0.7350    0.0000 C   0  0  0  0  0  0  0  0  0  0  0  0
    7.8490   -1.4400    0.0000 C   0  0  0  0  0  0  0  0  0  0  0  0
    9.1390   -0.6750    0.0000 O   0  0  0  0  0  0  0  0  0  0  0  0
    7.8670   -2.8720    0.0000 C   0  0  0  0  0  0  0  0  0  0  0  0
    6.6330   -3.5990    0.0000 C   0  0  0  0  0  0  0  0  0  0  0  0
    5.3890   -2.9010    0.0000 C   0  0  0  0  0  0  0  0  0  0  0  0
    5.3720   -1.4690    0.0000 C   0  0  0  0  0  0  0  0  0  0  0  0
    4.1140   -0.7670    0.0000 C   0  0  2  0  0  0  0  0  0  0  0  0
    2.8780   -1.4960    0.0000 C   0  0  2  0  0  0  0  0  0  0  0  0
    2.8930   -2.9400    0.0000 C   0  0  2  0  0  0  0  0  0  0  0  0
    1.8960   -3.9850    0.0000 N   0  0  0  0  0  0  0  0  0  0  0  0
    0.5200   -4.5830    0.0000 C   0  0  0  0  0  0  0  0  0  0  0  0
    3.3340   -3.9670    0.0000 C   0  0  0  0  0  0  0  0  0  0  0  0
    4.5160   -2.1680    0.0000 C   0  0  0  0  0  0  0  0  0  0  0  0
    4.1500   -3.6340    0.0000 C   0  0  0  0  0  0  0  0  0  0  0  0
    1.6300   -0.7980    0.0000 C   0  0  0  0  0  0  0  0  0  0  0  0
    1.6190    0.6380    0.0000 C   0  0  0  0  0  0  0  0  0  0  0  0
  2  1  1  6  0  0  0
  2  3  1  0  0  0  0
  2 21  1  0  0  0  0
  3  4  1  6  0  0  0
  3 12  1  0  0  0  0
  4  5  1  0  0  0  0
  5  6  1  0  0  0  0
  5 11  2  0  0  0  0
  6  7  1  0  0  0  0
  6  8  2  0  0  0  0
  8  9  1  0  0  0  0
  9 10  2  0  0  0  0
 10 11  1  0  0  0  0
 10 19  1  0  0  0  0
 11 12  1  0  0  0  0
 12 13  1  0  0  0  0
 12 18  1  1  0  0  0
 13 14  1  0  0  0  0
 13 20  1  6  0  0  0
 14 15  1  1  0  0  0
 14 19  1  0  0  0  0
 15 16  1  0  0  0  0
 15 17  1  0  0  0  0
 17 18  1  0  0  0  0
 20 21  2  0  0  0  0
M  END
>  <name>
[O;ester][C@@H]1[C@@H]2Oc3c([O;ester])ccc4c3[C@@]32[C@H]([C@H](N(C)CC3)C4)C=C1

>  <apo>
2

>  <freq>
1

>  <freq0>
0

>  <freq1>
1

>  <freqA>
0.99887151

>  <a_count>
40

$$$$

  MOE2015           2D

 16 16  0  0  0  0  0  0  0  0999 V2000
    0.1180    3.6860    0.0000 O   0  0  0  0  0  0  0  0  0  0  0  0
    1.4170    2.9360    0.0000 C   0  0  0  0  0  0  0  0  0  0  0  0
    2.7160    3.6860    0.0000 C   0  0  0  0  0  0  0  0  0  0  0  0
    4.0150    2.9360    0.0000 C   0  0  0  0  0  0  0  0  0  0  0  0
    4.0150    1.4360    0.0000 C   0  0  0  0  0  0  0  0  0  0  0  0
    5.3140    0.6860    0.0000 C   0  0  0  0  0  0  0  0  0  0  0  0
    6.6130    1.4360    0.0000 C   0  0  0  0  0  0  0  0  0  0  0  0
    7.9120    0.6860    0.0000 C   0  0  0  0  0  0  0  0  0  0  0  0
    9.2110    1.4360    0.0000 C   0  0  0  0  0  0  0  0  0  0  0  0
   10.5100    0.6860    0.0000 C   0  0  0  0  0  0  0  0  0  0  0  0
   11.8090    1.4360    0.0000 C   0  0  0  0  0  0  0  0  0  0  0  0
   13.1080    0.6860    0.0000 C   0  0  0  0  0  0  0  0  0  0  0  0
   14.4070    1.4360    0.0000 C   0  0  0  0  0  0  0  0  0  0  0  0
   15.7060    0.6860    0.0000 C   0  0  0  0  0  0  0  0  0  0  0  0
    2.7160    0.6860    0.0000 C   0  0  0  0  0  0  0  0  0  0  0  0
    1.4170    1.4360    0.0000 C   0  0  0  0  0  0  0  0  0  0  0  0
  1  2  1  0  0  0  0
  2  3  1  0  0  0  0
  2 16  2  0  0  0  0
  3  4  2  0  0  0  0
  4  5  1  0  0  0  0
  5  6  1  0  0  0  0
  5 15  2  0  0  0  0
  6  7  1  0  0  0  0
  7  8  1  0  0  0  0
  8  9  1  0  0  0  0
  9 10  1  0  0  0  0
 10 11  1  0  0  0  0
 11 12  1  0  0  0  0
 12 13  1  0  0  0  0
 13 14  1  0  0  0  0
 15 16  1  0  0  0  0
M  END
>  <name>
[O;ether]c1ccc(CCCCCCCCC)cc1

>  <apo>
1

>  <freq>
1

>  <freq0>
0

>  <freq1>
1

>  <freqA>
0.99887151

>  <a_count>
40

$$$$

  MOE2015           2D

 24 26  0  0  0  0  0  0  0  0999 V2000
    0.0000    3.2920    0.0000 S   0  0  0  0  0  0  0  0  0  0  0  0
    1.5000    3.2920    0.0000 O   0  0  0  0  0  0  0  0  0  0  0  0
   -0.7500    4.5910    0.0000 O   0  0  0  0  0  0  0  0  0  0  0  0
   -0.7500    1.9930    0.0000 C   0  0  0  0  0  0  0  0  0  0  0  0
   -2.2500    1.9930    0.0000 C   0  0  0  0  0  0  0  0  0  0  0  0
   -3.0000    0.6940    0.0000 C   0  0  0  0  0  0  0  0  0  0  0  0
   -2.2500   -0.6050    0.0000 C   0  0  0  0  0  0  0  0  0  0  0  0
   -3.0000   -1.9040    0.0000 O   0  0  0  0  0  0  0  0  0  0  0  0
   -0.7500   -0.6050    0.0000 C   0  0  0  0  0  0  0  0  0  0  0  0
    0.0000    0.6940    0.0000 C   0  0  0  0  0  0  0  0  0  0  0  0
   -4.5000    0.6940    0.0000 C   0  0  0  0  0  0  0  0  0  0  0  0
   -5.2500   -0.6050    0.0000 N   0  0  0  0  0  0  0  0  0  0  0  0
   -6.7500   -0.6050    0.0000 C   0  0  0  0  0  0  0  0  0  0  0  0
   -7.5000   -1.9040    0.0000 O   0  0  0  0  0  0  0  0  0  0  0  0
   -7.5000    0.6940    0.0000 C   0  0  0  0  0  0  0  0  0  0  0  0
   -8.9670    1.0060    0.0000 C   0  0  0  0  0  0  0  0  0  0  0  0
  -10.0820    0.0020    0.0000 C   0  0  0  0  0  0  0  0  0  0  0  0
   -9.1240    2.4970    0.0000 N   0  0  0  0  0  0  0  0  0  0  0  0
   -7.7540    3.1070    0.0000 C   0  0  0  0  0  0  0  0  0  0  0  0
   -7.4420    4.5750    0.0000 C   0  0  0  0  0  0  0  0  0  0  0  0
   -8.5570    5.5780    0.0000 C   0  0  0  0  0  0  0  0  0  0  0  0
   -8.2450    7.0460    0.0000 C   0  0  0  0  0  0  0  0  0  0  0  0
   -6.7500    1.9930    0.0000 N   0  0  0  0  0  0  0  0  0  0  0  0
   -5.2500    1.9930    0.0000 N   0  0  0  0  0  0  0  0  0  0  0  0
  1  2  2  0  0  0  0
  1  3  2  0  0  0  0
  1  4  1  0  0  0  0
  4  5  1  0  0  0  0
  4 10  2  0  0  0  0
  5  6  2  0  0  0  0
  6  7  1  0  0  0  0
  6 11  1  0  0  0  0
  7  8  1  0  0  0  0
  7  9  2  0  0  0  0
  9 10  1  0  0  0  0
 11 12  2  0  0  0  0
 11 24  1  0  0  0  0
 12 13  1  0  0  0  0
 13 14  2  0  0  0  0
 13 15  1  0  0  0  0
 15 16  2  0  0  0  0
 15 23  1  0  0  0  0
 16 17  1  0  0  0  0
 16 18  1  0  0  0  0
 18 19  2  0  0  0  0
 19 20  1  0  0  0  0
 19 23  1  0  0  0  0
 20 21  1  0  0  0  0
 21 22  1  0  0  0  0
 23 24  1  0  0  0  0
M  END
>  <name>
[SH;so2amide](=O)(=O)c1cc(c([O;ether])cc1)C1=NC(=O)c2c(C)nc(CCC)n2N1

>  <apo>
2

>  <freq>
1

>  <freq0>
0

>  <freq1>
1

>  <freqA>
0.99887151

>  <a_count>
40

$$$$

  MOE2015           2D

 24 26  0  0  0  0  0  0  0  0999 V2000
    0.0000    3.2920    0.0000 S   0  0  0  0  0  0  0  0  0  0  0  0
    1.5000    3.2920    0.0000 O   0  0  0  0  0  0  0  0  0  0  0  0
   -0.7500    4.5910    0.0000 O   0  0  0  0  0  0  0  0  0  0  0  0
   -0.7500    1.9930    0.0000 C   0  0  0  0  0  0  0  0  0  0  0  0
   -2.2500    1.9930    0.0000 C   0  0  0  0  0  0  0  0  0  0  0  0
   -3.0000    0.6940    0.0000 C   0  0  0  0  0  0  0  0  0  0  0  0
   -2.2500   -0.6050    0.0000 C   0  0  0  0  0  0  0  0  0  0  0  0
   -3.0000   -1.9040    0.0000 O   0  0  0  0  0  0  0  0  0  0  0  0
   -0.7500   -0.6050    0.0000 C   0  0  0  0  0  0  0  0  0  0  0  0
    0.0000    0.6940    0.0000 C   0  0  0  0  0  0  0  0  0  0  0  0
   -4.5000    0.6940    0.0000 C   0  0  0  0  0  0  0  0  0  0  0  0
   -5.2500   -0.6050    0.0000 N   0  0  0  0  0  0  0  0  0  0  0  0
   -6.7500   -0.6050    0.0000 C   0  0  0  0  0  0  0  0  0  0  0  0
   -7.5000   -1.9040    0.0000 O   0  0  0  0  0  0  0  0  0  0  0  0
   -7.5000    0.6940    0.0000 C   0  0  0  0  0  0  0  0  0  0  0  0
   -8.9670    1.0060    0.0000 N   0  0  0  0  0  0  0  0  0  0  0  0
  -10.0820    0.0020    0.0000 C   0  0  0  0  0  0  0  0  0  0  0  0
   -9.1240    2.4970    0.0000 N   0  0  0  0  0  0  0  0  0  0  0  0
   -7.7540    3.1070    0.0000 C   0  0  0  0  0  0  0  0  0  0  0  0
   -7.4420    4.5750    0.0000 C   0  0  0  0  0  0  0  0  0  0  0  0
   -8.5570    5.5780    0.0000 C   0  0  0  0  0  0  0  0  0  0  0  0
   -8.2450    7.0460    0.0000 C   0  0  0  0  0  0  0  0  0  0  0  0
   -6.7500    1.9930    0.0000 C   0  0  0  0  0  0  0  0  0  0  0  0
   -5.2500    1.9930    0.0000 N   0  0  0  0  0  0  0  0  0  0  0  0
  1  2  2  0  0  0  0
  1  3  2  0  0  0  0
  1  4  1  0  0  0  0
  4  5  1  0  0  0  0
  4 10  2  0  0  0  0
  5  6  2  0  0  0  0
  6  7  1  0  0  0  0
  6 11  1  0  0  0  0
  7  8  1  0  0  0  0
  7  9  2  0  0  0  0
  9 10  1  0  0  0  0
 11 12  2  0  0  0  0
 11 24  1  0  0  0  0
 12 13  1  0  0  0  0
 13 14  2  0  0  0  0
 13 15  1  0  0  0  0
 15 16  1  0  0  0  0
 15 23  2  0  0  0  0
 16 17  1  0  0  0  0
 16 18  1  0  0  0  0
 18 19  2  0  0  0  0
 19 20  1  0  0  0  0
 19 23  1  0  0  0  0
 20 21  1  0  0  0  0
 21 22  1  0  0  0  0
 23 24  1  0  0  0  0
M  END
>  <name>
[SH;so2amide](=O)(=O)c1cc(c([O;ether])cc1)C1=NC(=O)c2n(C)nc(CCC)c2N1

>  <apo>
2

>  <freq>
1

>  <freq0>
0

>  <freq1>
1

>  <freqA>
0.99887151

>  <a_count>
40

$$$$

  MOE2015           2D

 24 26  0  0  0  0  0  0  0  0999 V2000
    5.7570   -3.3240    0.0000 S   0  0  0  0  0  0  0  0  0  0  0  0
    5.0070   -2.0250    0.0000 O   0  0  0  0  0  0  0  0  0  0  0  0
    7.2570   -3.3240    0.0000 O   0  0  0  0  0  0  0  0  0  0  0  0
    5.0070   -4.6230    0.0000 C   0  0  0  0  0  0  0  0  0  0  0  0
    3.5070   -4.6230    0.0000 C   0  0  0  0  0  0  0  0  0  0  0  0
    2.7570   -5.9220    0.0000 C   0  0  0  0  0  0  0  0  0  0  0  0
    3.5070   -7.2210    0.0000 C   0  0  0  0  0  0  0  0  0  0  0  0
    2.7570   -8.5200    0.0000 O   0  0  0  0  0  0  0  0  0  0  0  0
    5.0070   -7.2210    0.0000 C   0  0  0  0  0  0  0  0  0  0  0  0
    5.7570   -5.9220    0.0000 C   0  0  0  0  0  0  0  0  0  0  0  0
    1.2570   -5.9220    0.0000 C   0  0  0  0  0  0  0  0  0  0  0  0
    0.5070   -4.6230    0.0000 N   0  0  0  0  0  0  0  0  0  0  0  0
   -0.9930   -4.6230    0.0000 C   0  0  0  0  0  0  0  0  0  0  0  0
   -1.9970   -3.5080    0.0000 C   0  0  0  0  0  0  0  0  0  0  0  0
   -1.6850   -2.0410    0.0000 C   0  0  0  0  0  0  0  0  0  0  0  0
   -2.7990   -1.0370    0.0000 C   0  0  0  0  0  0  0  0  0  0  0  0
   -2.4880    0.4300    0.0000 C   0  0  0  0  0  0  0  0  0  0  0  0
   -3.3670   -4.1180    0.0000 N   0  0  0  0  0  0  0  0  0  0  0  0
   -3.2100   -5.6100    0.0000 N   0  0  0  0  0  0  0  0  0  0  0  0
   -4.3250   -6.6140    0.0000 C   0  0  0  0  0  0  0  0  0  0  0  0
   -1.7430   -5.9220    0.0000 C   0  0  0  0  0  0  0  0  0  0  0  0
   -0.9930   -7.2210    0.0000 C   0  0  0  0  0  0  0  0  0  0  0  0
   -1.7430   -8.5200    0.0000 O   0  0  0  0  0  0  0  0  0  0  0  0
    0.5070   -7.2210    0.0000 N   0  0  0  0  0  0  0  0  0  0  0  0
  1  2  2  0  0  0  0
  1  3  2  0  0  0  0
  1  4  1  0  0  0  0
  4  5  1  0  0  0  0
  4 10  2  0  0  0  0
  5  6  2  0  0  0  0
  6  7  1  0  0  0  0
  6 11  1  0  0  0  0
  7  8  1  0  0  0  0
  7  9  2  0  0  0  0
  9 10  1  0  0  0  0
 11 12  2  0  0  0  0
 11 24  1  0  0  0  0
 12 13  1  0  0  0  0
 13 14  1  0  0  0  0
 13 21  2  0  0  0  0
 14 15  1  0  0  0  0
 14 18  2  0  0  0  0
 15 16  1  0  0  0  0
 16 17  1  0  0  0  0
 18 19  1  0  0  0  0
 19 20  1  0  0  0  0
 19 21  1  0  0  0  0
 21 22  1  0  0  0  0
 22 23  2  0  0  0  0
 22 24  1  0  0  0  0
M  END
>  <name>
[SH;so2amide](=O)(=O)c1cc(c([O;ether])cc1)C1=Nc2c(CCC)nn(C)c2C(=O)N1

>  <apo>
2

>  <freq>
1

>  <freq0>
0

>  <freq1>
1

>  <freqA>
0.99887151

>  <a_count>
40

$$$$

  MOE2015           2D

 15 15  0  0  0  0  0  0  0  0999 V2000
   -5.5000    0.0000    0.0000 C   0  0  0  0  0  0  0  0  0  0  0  0
   -7.0000    0.0000    0.0000 C   0  0  0  0  0  0  0  0  0  0  0  0
   -7.7500   -1.2990    0.0000 C   0  0  0  0  0  0  0  0  0  0  0  0
   -5.5000   -1.5000    0.0000 C   0  0  0  0  0  0  0  0  0  0  0  0
   -5.5000    1.5000    0.0000 C   0  0  0  0  0  0  0  0  0  0  0  0
   -4.0000    0.0000    0.0000 C   0  0  0  0  0  0  0  0  0  0  0  0
   -3.2500   -1.2990    0.0000 C   0  0  0  0  0  0  0  0  0  0  0  0
   -1.7500   -1.2990    0.0000 C   0  0  0  0  0  0  0  0  0  0  0  0
   -1.0000    0.0000    0.0000 C   0  0  0  0  0  0  0  0  0  0  0  0
    0.5000    0.0000    0.0000 C   0  0  0  0  0  0  0  0  0  0  0  0
    1.2500    1.2990    0.0000 C   0  0  0  0  0  0  0  0  0  0  0  0
    0.5000    2.5980    0.0000 C   0  0  0  0  0  0  0  0  0  0  0  0
    2.7500    1.2990    0.0000 C   0  0  0  0  0  0  0  0  0  0  0  0
   -1.7500    1.2990    0.0000 C   0  0  0  0  0  0  0  0  0  0  0  0
   -3.2500    1.2990    0.0000 C   0  0  0  0  0  0  0  0  0  0  0  0
  1  2  1  0  0  0  0
  1  4  1  0  0  0  0
  1  5  1  0  0  0  0
  1  6  1  0  0  0  0
  2  3  1  0  0  0  0
  6  7  1  0  0  0  0
  6 15  2  0  0  0  0
  7  8  2  0  0  0  0
  8  9  1  0  0  0  0
  9 10  1  0  0  0  0
  9 14  2  0  0  0  0
 10 11  1  0  0  0  0
 11 12  1  0  0  0  0
 11 13  1  0  0  0  0
 14 15  1  0  0  0  0
M  END
>  <name>
C(CC)(C)(C)c1ccc(CC(C)[C;amine])cc1

>  <apo>
1

>  <freq>
1

>  <freq0>
0

>  <freq1>
1

>  <freqA>
0.99887151

>  <a_count>
39

$$$$

  MOE2015           2D

 19 22  0  0  0  0  0  0  0  0999 V2000
    1.6130    1.4620    0.0000 C   0  0  0  0  0  0  0  0  0  0  0  0
    1.4670   -0.0300    0.0000 C   0  0  0  0  0  0  0  0  0  0  0  0
    2.6860   -0.9040    0.0000 C   0  0  0  0  0  0  0  0  0  0  0  0
    4.7050   -1.6360    0.0000 C   0  0  0  0  0  0  0  0  0  0  0  0
    4.7190   -3.0260    0.0000 C   0  0  0  0  0  0  0  0  0  0  0  0
    5.9300   -3.7060    0.0000 C   0  0  0  0  0  0  0  0  0  0  0  0
    7.1210   -3.0020    0.0000 C   0  0  0  0  0  0  0  0  0  0  0  0
    7.1090   -1.6120    0.0000 C   0  0  0  0  0  0  0  0  0  0  0  0
    5.9040   -0.9240    0.0000 C   0  0  0  0  0  0  0  0  0  0  0  0
    3.2690   -2.5790    0.0000 C   0  0  0  0  0  0  0  0  0  0  0  0
    1.4970   -3.0310    0.0000 C   0  0  0  0  0  0  0  0  0  0  0  0
    1.4830   -1.6410    0.0000 C   0  0  0  0  0  0  0  0  0  0  0  0
    0.2790   -0.9540    0.0000 C   0  0  0  0  0  0  0  0  0  0  0  0
   -0.9210   -1.6630    0.0000 C   0  0  0  0  0  0  0  0  0  0  0  0
   -0.9040   -3.0540    0.0000 C   0  0  0  0  0  0  0  0  0  0  0  0
    0.3070   -3.7340    0.0000 C   0  0  0  0  0  0  0  0  0  0  0  0
    3.2610   -0.1560    0.0000 C   0  0  0  0  0  0  0  0  0  0  0  0
    2.6810    0.6280    0.0000 C   0  0  0  0  0  0  0  0  0  0  0  0
    0.3940    2.3360    0.0000 C   0  0  0  0  0  0  0  0  0  0  0  0
  1  2  1  0  0  0  0
  1 19  1  0  0  0  0
  2  3  1  0  0  0  0
  3  4  1  0  0  0  0
  3 12  1  0  0  0  0
  3 18  1  0  0  0  0
  4  5  1  0  0  0  0
  4  9  2  0  0  0  0
  5  6  2  0  0  0  0
  5 10  1  0  0  0  0
  6  7  1  0  0  0  0
  7  8  2  0  0  0  0
  8  9  1  0  0  0  0
 10 11  1  0  0  0  0
 10 17  1  0  0  0  0
 11 12  1  0  0  0  0
 11 16  2  0  0  0  0
 12 13  2  0  0  0  0
 13 14  1  0  0  0  0
 14 15  2  0  0  0  0
 15 16  1  0  0  0  0
 17 18  1  0  0  0  0
M  END
>  <name>
C(CC12c3c(cccc3)C(c3c1cccc3)CC2)[C;amine]

>  <apo>
1

>  <freq>
1

>  <freq0>
0

>  <freq1>
1

>  <freqA>
0.99887151

>  <a_count>
39

$$$$

  MOE2015           2D

 26 28  0  0  0  0  0  0  0  0999 V2000
    0.0000    0.0000    0.0000 Cl  0  0  0  0  0  0  0  0  0  0  0  0
    1.5000    0.0000    0.0000 C   0  0  0  0  0  0  0  0  0  0  0  0
    2.2500   -1.2990    0.0000 C   0  0  0  0  0  0  0  0  0  0  0  0
    1.5000   -2.5980    0.0000 O   0  0  0  0  0  0  0  0  0  0  0  0
    0.0000   -2.5980    0.0000 C   0  0  0  0  0  0  0  0  0  0  0  0
    3.7500   -1.2990    0.0000 C   0  0  0  0  0  0  0  0  0  0  0  0
    4.5000    0.0000    0.0000 C   0  0  0  0  0  0  0  0  0  0  0  0
    6.0000    0.0000    0.0000 N   0  0  0  0  0  0  0  0  0  0  0  0
    6.7500   -1.2990    0.0000 C   0  0  0  0  0  0  0  0  0  0  0  0
    6.0000   -2.5980    0.0000 C   0  0  0  0  0  0  0  0  0  0  0  0
    4.5000   -2.5980    0.0000 C   0  0  0  0  0  0  0  0  0  0  0  0
    3.0000   -2.5980    0.0000 N   0  0  0  0  0  0  0  0  0  0  0  0
    6.7500   -3.8970    0.0000 C   0  0  0  0  0  0  0  0  0  0  0  0
    8.2500   -3.8970    0.0000 N   0  0  0  0  0  0  0  0  0  0  0  0
    9.0000   -2.5980    0.0000 C   0  0  0  0  0  0  0  0  0  0  0  0
    8.2500   -1.2990    0.0000 C   0  0  0  0  0  0  0  0  0  0  0  0
    9.0000    0.0000    0.0000 C   0  0  0  0  0  0  0  0  0  0  0  0
   10.5000    0.0000    0.0000 C   0  0  0  0  0  0  0  0  0  0  0  0
   11.2500    1.2990    0.0000 O   0  0  0  0  0  0  0  0  0  0  0  0
   10.5000    2.5980    0.0000 C   0  0  0  0  0  0  0  0  0  0  0  0
   11.2500   -1.2990    0.0000 C   0  0  0  0  0  0  0  0  0  0  0  0
   12.7500   -1.2990    0.0000 O   0  0  0  0  0  0  0  0  0  0  0  0
   10.5000   -2.5980    0.0000 C   0  0  0  0  0  0  0  0  0  0  0  0
    3.7500    1.2990    0.0000 C   0  0  0  0  0  0  0  0  0  0  0  0
    4.5000    2.5980    0.0000 Cl  0  0  0  0  0  0  0  0  0  0  0  0
    2.2500    1.2990    0.0000 C   0  0  0  0  0  0  0  0  0  0  0  0
  1  2  1  0  0  0  0
  2  3  1  0  0  0  0
  2 26  2  0  0  0  0
  3  4  1  0  0  0  0
  3  6  2  0  0  0  0
  4  5  1  0  0  0  0
  6  7  1  0  0  0  0
  7  8  1  0  0  0  0
  7 24  2  0  0  0  0
  8  9  1  0  0  0  0
  9 10  2  0  0  0  0
  9 16  1  0  0  0  0
 10 11  1  0  0  0  0
 10 13  1  0  0  0  0
 11 12  3  0  0  0  0
 13 14  2  0  0  0  0
 14 15  1  0  0  0  0
 15 16  1  0  0  0  0
 15 23  2  0  0  0  0
 16 17  2  0  0  0  0
 17 18  1  0  0  0  0
 18 19  1  0  0  0  0
 18 21  2  0  0  0  0
 19 20  1  0  0  0  0
 21 22  1  0  0  0  0
 21 23  1  0  0  0  0
 24 25  1  0  0  0  0
 24 26  1  0  0  0  0
M  END
>  <name>
Clc1c(OC)cc(Nc2c(C#N)cnc3c2cc(OC)c([O;ether])c3)c(Cl)c1

>  <apo>
1

>  <freq>
1

>  <freq0>
0

>  <freq1>
1

>  <freqA>
0.99887151

>  <a_count>
39

$$$$

  MOE2015           2D

 20 20  0  0  0  0  0  0  0  0999 V2000
    6.5470   -6.5470    0.0000 F   0  0  0  0  0  0  0  0  0  0  0  0
    6.5470   -5.0470    0.0000 C   0  0  0  0  0  0  0  0  0  0  0  0
    6.5470   -3.5470    0.0000 F   0  0  0  0  0  0  0  0  0  0  0  0
    8.0470   -5.0470    0.0000 F   0  0  0  0  0  0  0  0  0  0  0  0
    5.0470   -5.0470    0.0000 C   0  0  0  0  0  0  0  0  0  0  0  0
    4.2970   -3.7480    0.0000 C   0  0  0  0  0  0  0  0  0  0  0  0
    2.7970   -3.7480    0.0000 C   0  0  0  0  0  0  0  0  0  0  0  0
    2.0470   -5.0470    0.0000 C   0  0  0  0  0  0  0  0  0  0  0  0
    0.5470   -5.0470    0.0000 C   0  0  0  0  0  0  0  0  0  0  0  0
   -0.2030   -3.7480    0.0000 N   0  0  0  0  0  0  0  0  0  0  0  0
    0.5470   -2.4490    0.0000 O   0  0  0  0  0  0  0  0  0  0  0  0
   -0.2030   -1.1500    0.0000 C   0  0  0  0  0  0  0  0  0  0  0  0
    0.5470    0.1490    0.0000 C   0  0  0  0  0  0  0  0  0  0  0  0
   -0.2030    1.4480    0.0000 N   0  0  0  0  0  0  0  0  0  0  0  0
   -0.2030   -6.3460    0.0000 C   0  0  0  0  0  0  0  0  0  0  0  0
   -1.7030   -6.3460    0.0000 C   0  0  0  0  0  0  0  0  0  0  0  0
   -2.4530   -7.6450    0.0000 C   0  0  0  0  0  0  0  0  0  0  0  0
   -3.9530   -7.6450    0.0000 C   0  0  0  0  0  0  0  0  0  0  0  0
    2.7970   -6.3460    0.0000 C   0  0  0  0  0  0  0  0  0  0  0  0
    4.2970   -6.3460    0.0000 C   0  0  0  0  0  0  0  0  0  0  0  0
  1  2  1  0  0  0  0
  2  3  1  0  0  0  0
  2  4  1  0  0  0  0
  2  5  1  0  0  0  0
  5  6  1  0  0  0  0
  5 20  2  0  0  0  0
  6  7  2  0  0  0  0
  7  8  1  0  0  0  0
  8  9  1  0  0  0  0
  8 19  2  0  0  0  0
  9 10  2  0  0  0  0
  9 15  1  0  0  0  0
 10 11  1  0  0  0  0
 11 12  1  0  0  0  0
 12 13  1  0  0  0  0
 13 14  1  0  0  0  0
 15 16  1  0  0  0  0
 16 17  1  0  0  0  0
 17 18  1  0  0  0  0
 19 20  1  0  0  0  0
M  END
>  <name>
FC(F)(F)c1ccc(/C(=N\OCCN)/CCC[C;ether])cc1

>  <apo>
1

>  <freq>
1

>  <freq0>
0

>  <freq1>
1

>  <freqA>
0.99887151

>  <a_count>
39

$$$$

  MOE2015           2D

 21 23  0  0  1  0  0  0  0  0999 V2000
    1.1600   -2.9960    0.0000 F   0  0  0  0  0  0  0  0  0  0  0  0
    1.8980   -1.6900    0.0000 C   0  0  0  0  0  0  0  0  0  0  0  0
    1.1360   -0.3980    0.0000 C   0  0  0  0  0  0  0  0  0  0  0  0
   -0.3640   -0.4120    0.0000 N   0  0  0  0  0  0  0  0  0  0  0  0
   -1.1260    0.8800    0.0000 C   0  0  0  0  0  0  0  0  0  0  0  0
   -2.6260    0.8670    0.0000 C   0  0  0  0  0  0  0  0  0  0  0  0
   -3.3640   -0.4390    0.0000 O   0  0  0  0  0  0  0  0  0  0  0  0
   -2.6020   -1.7310    0.0000 C   0  0  0  0  0  0  0  0  0  0  0  0
   -1.1020   -1.7180    0.0000 C   0  0  0  0  0  0  0  0  0  0  0  0
    1.8740    0.9080    0.0000 C   0  0  0  0  0  0  0  0  0  0  0  0
    3.3740    0.9220    0.0000 C   0  0  0  0  0  0  0  0  0  0  0  0
    4.1360   -0.3710    0.0000 C   0  0  0  0  0  0  0  0  0  0  0  0
    5.6360   -0.3570    0.0000 N   0  0  0  0  0  0  0  0  0  0  0  0
    6.5070    0.8650    0.0000 C   0  0  0  0  0  0  0  0  0  0  0  0
    6.0300    2.2870    0.0000 O   0  0  0  0  0  0  0  0  0  0  0  0
    7.9370    0.4140    0.0000 O   0  0  0  0  0  0  0  0  0  0  0  0
    7.9510   -1.0860    0.0000 C   0  0  1  0  0  0  0  0  0  0  0  0
    9.1730   -1.9560    0.0000 C   0  0  0  0  0  0  0  0  0  0  0  0
   10.5370   -1.3340    0.0000 N   0  0  0  0  0  0  0  0  0  0  0  0
    6.5290   -1.5620    0.0000 C   0  0  0  0  0  0  0  0  0  0  0  0
    3.3980   -1.6760    0.0000 C   0  0  0  0  0  0  0  0  0  0  0  0
  1  2  1  0  0  0  0
  2  3  1  0  0  0  0
  2 21  2  0  0  0  0
  3  4  1  0  0  0  0
  3 10  2  0  0  0  0
  4  5  1  0  0  0  0
  4  9  1  0  0  0  0
  5  6  1  0  0  0  0
  6  7  1  0  0  0  0
  7  8  1  0  0  0  0
  8  9  1  0  0  0  0
 10 11  1  0  0  0  0
 11 12  2  0  0  0  0
 12 13  1  0  0  0  0
 12 21  1  0  0  0  0
 13 14  1  0  0  0  0
 13 20  1  0  0  0  0
 14 15  2  0  0  0  0
 14 16  1  0  0  0  0
 16 17  1  0  0  0  0
 17 18  1  1  0  0  0
 17 20  1  0  0  0  0
 18 19  1  0  0  0  0
M  END
>  <name>
Fc1c(N2CCOCC2)ccc(N2C(=O)O[C@@H](C[N;amide])C2)c1

>  <apo>
1

>  <freq>
1

>  <freq0>
0

>  <freq1>
1

>  <freqA>
0.99887151

>  <a_count>
39

$$$$

  MOE2015           2D

 17 18  0  0  1  0  0  0  0  0999 V2000
    1.3740    1.9850    0.0000 O   0  0  0  0  0  0  0  0  0  0  0  0
    2.6730    2.7350    0.0000 C   0  0  0  0  0  0  0  0  0  0  0  0
    0.0750    2.7350    0.0000 C   0  0  0  0  0  0  0  0  0  0  0  0
   -1.2240    1.9850    0.0000 C   0  0  0  0  0  0  0  0  0  0  0  0
   -2.5230    2.7350    0.0000 C   0  0  0  0  0  0  0  0  0  0  0  0
   -2.5230    4.2350    0.0000 C   0  0  0  0  0  0  0  0  0  0  0  0
   -3.8220    4.9850    0.0000 C   0  0  3  0  0  0  0  0  0  0  0  0
   -3.8220    6.4850    0.0000 C   0  0  0  0  0  0  0  0  0  0  0  0
   -5.1210    4.2350    0.0000 C   0  0  0  0  0  0  0  0  0  0  0  0
   -5.1210    5.7350    0.0000 O   0  0  0  0  0  0  0  0  0  0  0  0
   -4.3710    2.9360    0.0000 C   0  0  0  0  0  0  0  0  0  0  0  0
   -5.1210    1.6370    0.0000 C   0  0  0  0  0  0  0  0  0  0  0  0
   -6.6210    1.6370    0.0000 C   0  0  0  0  0  0  0  0  0  0  0  0
   -7.3710    2.9360    0.0000 C   0  0  0  0  0  0  0  0  0  0  0  0
   -6.6210    4.2350    0.0000 C   0  0  0  0  0  0  0  0  0  0  0  0
   -1.2240    4.9850    0.0000 C   0  0  0  0  0  0  0  0  0  0  0  0
    0.0750    4.2350    0.0000 C   0  0  0  0  0  0  0  0  0  0  0  0
  1  2  1  0  0  0  0
  1  3  1  0  0  0  0
  3  4  1  0  0  0  0
  3 17  2  0  0  0  0
  4  5  2  0  0  0  0
  5  6  1  0  0  0  0
  6  7  1  0  0  0  0
  6 16  2  0  0  0  0
  7  8  1  0  0  0  0
  7  9  1  0  0  0  0
  9 10  1  0  0  0  0
  9 11  1  0  0  0  0
  9 15  1  0  0  0  0
 11 12  1  0  0  0  0
 12 13  1  0  0  0  0
 13 14  1  0  0  0  0
 14 15  1  0  0  0  0
 16 17  1  0  0  0  0
M  END
>  <name>
O(C)c1ccc(C([C;amine])C2(O)CCCCC2)cc1

>  <apo>
1

>  <freq>
1

>  <freq0>
0

>  <freq1>
1

>  <freqA>
0.99887151

>  <a_count>
39

$$$$

  MOE2015           2D

 19 20  0  0  0  0  0  0  0  0999 V2000
    3.3910    0.9090    0.0000 O   0  0  0  0  0  0  0  0  0  0  0  0
    2.0920    0.1590    0.0000 C   0  0  0  0  0  0  0  0  0  0  0  0
    2.0920   -1.3410    0.0000 C   0  0  0  0  0  0  0  0  0  0  0  0
    2.0920   -2.8410    0.0000 C   0  0  0  0  0  0  0  0  0  0  0  0
    3.3910   -3.5910    0.0000 C   0  0  0  0  0  0  0  0  0  0  0  0
    3.5920   -1.3410    0.0000 C   0  0  0  0  0  0  0  0  0  0  0  0
    4.3420   -0.0420    0.0000 C   0  0  0  0  0  0  0  0  0  0  0  0
    5.8420   -0.0420    0.0000 C   0  0  0  0  0  0  0  0  0  0  0  0
    6.5920   -1.3410    0.0000 C   0  0  0  0  0  0  0  0  0  0  0  0
    5.8420   -2.6400    0.0000 C   0  0  0  0  0  0  0  0  0  0  0  0
    4.3420   -2.6400    0.0000 C   0  0  0  0  0  0  0  0  0  0  0  0
    0.5920   -1.3410    0.0000 C   0  0  0  0  0  0  0  0  0  0  0  0
   -0.1580   -2.6400    0.0000 C   0  0  0  0  0  0  0  0  0  0  0  0
   -1.6580   -2.6400    0.0000 C   0  0  0  0  0  0  0  0  0  0  0  0
   -2.4080   -1.3410    0.0000 C   0  0  0  0  0  0  0  0  0  0  0  0
   -1.6580   -0.0420    0.0000 C   0  0  0  0  0  0  0  0  0  0  0  0
   -0.1580   -0.0420    0.0000 C   0  0  0  0  0  0  0  0  0  0  0  0
    0.7930    0.9090    0.0000 C   0  0  0  0  0  0  0  0  0  0  0  0
    0.7930    2.4090    0.0000 C   0  0  0  0  0  0  0  0  0  0  0  0
  1  2  2  0  0  0  0
  2  3  1  0  0  0  0
  2 18  1  0  0  0  0
  3  4  1  0  0  0  0
  3  6  1  0  0  0  0
  3 12  1  0  0  0  0
  4  5  1  0  0  0  0
  6  7  1  0  0  0  0
  6 11  2  0  0  0  0
  7  8  2  0  0  0  0
  8  9  1  0  0  0  0
  9 10  2  0  0  0  0
 10 11  1  0  0  0  0
 12 13  1  0  0  0  0
 12 17  2  0  0  0  0
 13 14  2  0  0  0  0
 14 15  1  0  0  0  0
 15 16  2  0  0  0  0
 16 17  1  0  0  0  0
 18 19  1  0  0  0  0
M  END
>  <name>
O=C(C(C[C;amine])(c1ccccc1)c1ccccc1)CC

>  <apo>
1

>  <freq>
1

>  <freq0>
0

>  <freq1>
1

>  <freqA>
0.99887151

>  <a_count>
39

$$$$

  MOE2015           2D

 17 17  0  0  1  0  0  0  0  0999 V2000
   14.4100   -3.8050    0.0000 O   0  0  0  0  0  0  0  0  0  0  0  0
   13.1050   -3.0650    0.0000 C   0  0  0  0  0  0  0  0  0  0  0  0
   13.0940   -1.5650    0.0000 O   0  0  0  0  0  0  0  0  0  0  0  0
   11.8120   -3.8240    0.0000 C   0  0  0  0  0  0  0  0  0  0  0  0
   10.5070   -3.0830    0.0000 C   0  0  0  0  0  0  0  0  0  0  0  0
    9.2140   -3.8430    0.0000 C   0  0  0  0  0  0  0  0  0  0  0  0
    7.9090   -3.1020    0.0000 C   0  0  0  0  0  0  0  0  0  0  0  0
    6.6160   -3.8620    0.0000 C   0  0  0  0  0  0  0  0  0  0  0  0
    5.3110   -3.1210    0.0000 C   0  0  0  0  0  0  0  0  0  0  0  0
    4.0180   -3.8800    0.0000 C   0  0  2  0  0  0  0  0  0  0  0  0
    2.6430   -3.2800    0.0000 C   0  0  1  0  0  0  0  0  0  0  0  0
    2.3200   -1.8150    0.0000 C   0  0  0  0  0  0  0  0  0  0  0  0
    1.6470   -4.4020    0.0000 C   0  0  2  0  0  0  0  0  0  0  0  0
    0.1540   -4.2560    0.0000 O   0  0  0  0  0  0  0  0  0  0  0  0
    2.4070   -5.6960    0.0000 C   0  0  0  0  0  0  0  0  0  0  0  0
    3.8720   -5.3730    0.0000 C   0  0  0  0  0  0  0  0  0  0  0  0
    4.9940   -6.3690    0.0000 O   0  0  0  0  0  0  0  0  0  0  0  0
  1  2  2  0  0  0  0
  2  3  1  0  0  0  0
  2  4  1  0  0  0  0
  4  5  1  0  0  0  0
  5  6  1  0  0  0  0
  6  7  1  0  0  0  0
  7  8  1  0  0  0  0
  8  9  1  0  0  0  0
 10  9  1  1  0  0  0
 10 11  1  0  0  0  0
 10 16  1  0  0  0  0
 11 12  1  6  0  0  0
 11 13  1  0  0  0  0
 13 14  1  1  0  0  0
 13 15  1  0  0  0  0
 15 16  1  0  0  0  0
 16 17  2  0  0  0  0
M  END
>  <name>
O=C(O)CCCCCC[C@@H]1[C@@H]([C;olefin])[C@H](O)CC1=O

>  <apo>
1

>  <freq>
1

>  <freq0>
0

>  <freq1>
1

>  <freqA>
0.99887151

>  <a_count>
39

$$$$

  MOE2015           2D

 18 18  0  0  1  0  0  0  0  0999 V2000
    4.1510    4.1510    0.0000 O   0  0  0  0  0  0  0  0  0  0  0  0
    4.1510    2.6510    0.0000 C   0  0  0  0  0  0  0  0  0  0  0  0
    5.4500    1.9010    0.0000 O   0  0  0  0  0  0  0  0  0  0  0  0
    6.7490    2.6510    0.0000 C   0  0  3  0  0  0  0  0  0  0  0  0
    6.7490    4.1510    0.0000 O   0  0  0  0  0  0  0  0  0  0  0  0
    8.0480    1.9010    0.0000 C   0  0  0  0  0  0  0  0  0  0  0  0
    2.8520    1.9010    0.0000 N   0  0  0  0  0  0  0  0  0  0  0  0
    1.5530    2.6510    0.0000 C   0  0  0  0  0  0  0  0  0  0  0  0
    0.2540    1.9010    0.0000 C   0  0  0  0  0  0  0  0  0  0  0  0
    0.2540    3.4010    0.0000 C   0  0  0  0  0  0  0  0  0  0  0  0
   -1.0450    4.1510    0.0000 C   0  0  0  0  0  0  0  0  0  0  0  0
   -2.3440    3.4010    0.0000 O   0  0  0  0  0  0  0  0  0  0  0  0
   -1.0450    5.6510    0.0000 O   0  0  0  0  0  0  0  0  0  0  0  0
   -1.2460    1.9010    0.0000 C   0  0  0  0  0  0  0  0  0  0  0  0
   -1.9960    0.6020    0.0000 C   0  0  0  0  0  0  0  0  0  0  0  0
   -1.2460   -0.6970    0.0000 C   0  0  0  0  0  0  0  0  0  0  0  0
    0.2540   -0.6970    0.0000 C   0  0  0  0  0  0  0  0  0  0  0  0
    1.0040    0.6020    0.0000 C   0  0  0  0  0  0  0  0  0  0  0  0
  1  2  2  0  0  0  0
  2  3  1  0  0  0  0
  2  7  1  0  0  0  0
  3  4  1  0  0  0  0
  4  5  1  0  0  0  0
  4  6  1  0  0  0  0
  7  8  1  0  0  0  0
  8  9  1  0  0  0  0
  9 10  1  0  0  0  0
  9 14  1  0  0  0  0
  9 18  1  0  0  0  0
 10 11  1  0  0  0  0
 11 12  2  0  0  0  0
 11 13  1  0  0  0  0
 14 15  1  0  0  0  0
 15 16  1  0  0  0  0
 16 17  1  0  0  0  0
 17 18  1  0  0  0  0
M  END
>  <name>
O=C(OC([O;ester])C)NCC1(CC(=O)O)CCCCC1

>  <apo>
1

>  <freq>
1

>  <freq0>
0

>  <freq1>
1

>  <freqA>
0.99887151

>  <a_count>
39

$$$$

  MOE2015           2D

 15 14  0  0  1  0  0  0  0  0999 V2000
    3.7420    0.2420    0.0000 O   0  0  0  0  0  0  0  0  0  0  0  0
    3.7420    1.7420    0.0000 C   0  0  0  0  0  0  0  0  0  0  0  0
    5.0410    2.4920    0.0000 C   0  0  1  0  0  0  0  0  0  0  0  0
    5.0410    3.9920    0.0000 C   0  0  0  0  0  0  0  0  0  0  0  0
    6.3400    4.7420    0.0000 C   0  0  0  0  0  0  0  0  0  0  0  0
    6.3400    1.7420    0.0000 C   0  0  0  0  0  0  0  0  0  0  0  0
    2.4430    2.4920    0.0000 C   0  0  0  0  0  0  0  0  0  0  0  0
    1.1440    1.7420    0.0000 C   0  0  2  0  0  0  0  0  0  0  0  0
    1.1440    0.2420    0.0000 O   0  0  0  0  0  0  0  0  0  0  0  0
   -0.1550    2.4920    0.0000 C   0  0  1  0  0  0  0  0  0  0  0  0
   -1.4540    1.7420    0.0000 C   0  0  1  0  0  0  0  0  0  0  0  0
   -2.7530    2.4920    0.0000 O   0  0  0  0  0  0  0  0  0  0  0  0
   -1.4540    0.2420    0.0000 C   0  0  0  0  0  0  0  0  0  0  0  0
   -2.7530   -0.5080    0.0000 C   0  0  0  0  0  0  0  0  0  0  0  0
   -0.1550    3.9920    0.0000 C   0  0  0  0  0  0  0  0  0  0  0  0
  1  2  2  0  0  0  0
  2  3  1  0  0  0  0
  2  7  1  0  0  0  0
  3  4  1  0  0  0  0
  3  6  1  1  0  0  0
  4  5  1  0  0  0  0
  7  8  1  0  0  0  0
  8  9  1  6  0  0  0
  8 10  1  0  0  0  0
 10 11  1  0  0  0  0
 10 15  1  1  0  0  0
 11 12  1  6  0  0  0
 11 13  1  0  0  0  0
 13 14  1  0  0  0  0
M  END
>  <name>
O=C([C@@H](CC)[C;olefin])C[C@H](O)[C@@H]([C@@H]([O;ester])[C;olefin]C)C

>  <apo>
3

>  <freq>
1

>  <freq0>
0

>  <freq1>
1

>  <freqA>
0.99887151

>  <a_count>
39

$$$$

  MOE2015           2D

 24 27  0  0  0  0  0  0  0  0999 V2000
    3.7660   -1.0090    0.0000 O   0  0  0  0  0  0  0  0  0  0  0  0
    2.4670   -0.2590    0.0000 C   0  0  0  0  0  0  0  0  0  0  0  0
    2.3100    1.2330    0.0000 C   0  0  0  0  0  0  0  0  0  0  0  0
    2.2840    2.7320    0.0000 C   0  0  0  0  0  0  0  0  0  0  0  0
    3.5700    3.5050    0.0000 C   0  0  0  0  0  0  0  0  0  0  0  0
    3.5440    5.0050    0.0000 C   0  0  0  0  0  0  0  0  0  0  0  0
    2.2320    5.7320    0.0000 C   0  0  0  0  0  0  0  0  0  0  0  0
    2.2060    7.2320    0.0000 O   0  0  0  0  0  0  0  0  0  0  0  0
    0.9460    4.9590    0.0000 C   0  0  0  0  0  0  0  0  0  0  0  0
    0.9720    3.4600    0.0000 C   0  0  0  0  0  0  0  0  0  0  0  0
    3.8100    1.2060    0.0000 C   0  0  0  0  0  0  0  0  0  0  0  0
    4.5370   -0.1050    0.0000 C   0  0  0  0  0  0  0  0  0  0  0  0
    6.0370   -0.1320    0.0000 C   0  0  0  0  0  0  0  0  0  0  0  0
    6.8100    1.1540    0.0000 C   0  0  0  0  0  0  0  0  0  0  0  0
    8.3090    1.1280    0.0000 O   0  0  0  0  0  0  0  0  0  0  0  0
    6.0820    2.4660    0.0000 C   0  0  0  0  0  0  0  0  0  0  0  0
    4.5830    2.4920    0.0000 C   0  0  0  0  0  0  0  0  0  0  0  0
    0.8430    1.5450    0.0000 C   0  0  0  0  0  0  0  0  0  0  0  0
    0.0930    0.2450    0.0000 C   0  0  0  0  0  0  0  0  0  0  0  0
    1.0970   -0.8690    0.0000 N   0  0  0  0  0  0  0  0  0  0  0  0
   -1.4070    0.2450    0.0000 C   0  0  0  0  0  0  0  0  0  0  0  0
   -2.1570    1.5450    0.0000 C   0  0  0  0  0  0  0  0  0  0  0  0
   -1.4070    2.8440    0.0000 C   0  0  0  0  0  0  0  0  0  0  0  0
    0.0930    2.8440    0.0000 C   0  0  0  0  0  0  0  0  0  0  0  0
  1  2  2  0  0  0  0
  2  3  1  0  0  0  0
  2 20  1  0  0  0  0
  3  4  1  0  0  0  0
  3 11  1  0  0  0  0
  3 18  1  0  0  0  0
  4  5  1  0  0  0  0
  4 10  2  0  0  0  0
  5  6  2  0  0  0  0
  6  7  1  0  0  0  0
  7  8  1  0  0  0  0
  7  9  2  0  0  0  0
  9 10  1  0  0  0  0
 11 12  1  0  0  0  0
 11 17  2  0  0  0  0
 12 13  2  0  0  0  0
 13 14  1  0  0  0  0
 14 15  1  0  0  0  0
 14 16  2  0  0  0  0
 16 17  1  0  0  0  0
 18 19  1  0  0  0  0
 18 24  2  0  0  0  0
 19 20  1  0  0  0  0
 19 21  2  0  0  0  0
 21 22  1  0  0  0  0
 22 23  2  0  0  0  0
 23 24  1  0  0  0  0
M  END
>  <name>
O=C1C(c2ccc([O;ester])cc2)(c2ccc([O;ester])cc2)c2c(N1)cccc2

>  <apo>
2

>  <freq>
1

>  <freq0>
0

>  <freq1>
1

>  <freqA>
0.99887151

>  <a_count>
39

$$$$

  MOE2015           2D

 20 22  0  0  1  0  0  0  0  0999 V2000
    4.8600   -3.6890    0.0000 O   0  0  0  0  0  0  0  0  0  0  0  0
    3.3870   -3.9680    0.0000 C   0  0  0  0  0  0  0  0  0  0  0  0
    2.2950   -2.9400    0.0000 C   0  0  0  0  0  0  0  0  0  0  0  0
    1.2340   -1.8780    0.0000 C   0  0  0  0  0  0  0  0  0  0  0  0
    2.0950   -0.6500    0.0000 C   0  0  0  0  0  0  0  0  0  0  0  0
    1.4620    0.7100    0.0000 C   0  0  0  0  0  0  0  0  0  0  0  0
   -0.0320    0.8410    0.0000 C   0  0  0  0  0  0  0  0  0  0  0  0
   -0.8930   -0.3870    0.0000 C   0  0  0  0  0  0  0  0  0  0  0  0
   -0.2600   -1.7470    0.0000 C   0  0  0  0  0  0  0  0  0  0  0  0
    3.4010   -1.9270    0.0000 C   0  0  0  0  0  0  0  0  0  0  0  0
    4.7310   -2.6200    0.0000 C   0  0  0  0  0  0  0  0  0  0  0  0
    5.9970   -1.8150    0.0000 C   0  0  0  0  0  0  0  0  0  0  0  0
    5.9320   -0.3160    0.0000 C   0  0  0  0  0  0  0  0  0  0  0  0
    4.6020    0.3770    0.0000 C   0  0  0  0  0  0  0  0  0  0  0  0
    3.3360   -0.4280    0.0000 C   0  0  0  0  0  0  0  0  0  0  0  0
    0.9790   -3.6600    0.0000 C   0  0  3  0  0  0  0  0  0  0  0  0
   -0.3770   -3.0200    0.0000 C   0  0  0  0  0  0  0  0  0  0  0  0
   -1.6100   -3.8740    0.0000 C   0  0  0  0  0  0  0  0  0  0  0  0
    1.2580   -5.1340    0.0000 C   0  0  0  0  0  0  0  0  0  0  0  0
    2.7460   -5.3240    0.0000 N   0  0  0  0  0  0  0  0  0  0  0  0
  1  2  2  0  0  0  0
  2  3  1  0  0  0  0
  2 20  1  0  0  0  0
  3  4  1  0  0  0  0
  3 10  1  0  0  0  0
  3 16  1  0  0  0  0
  4  5  1  0  0  0  0
  4  9  2  0  0  0  0
  5  6  2  0  0  0  0
  6  7  1  0  0  0  0
  7  8  2  0  0  0  0
  8  9  1  0  0  0  0
 10 11  1  0  0  0  0
 10 15  2  0  0  0  0
 11 12  2  0  0  0  0
 12 13  1  0  0  0  0
 13 14  2  0  0  0  0
 14 15  1  0  0  0  0
 16 17  1  0  0  0  0
 16 19  1  0  0  0  0
 17 18  1  0  0  0  0
 19 20  1  0  0  0  0
M  END
>  <name>
O=C1C(c2ccccc2)(c2ccccc2)C(C[C;amine])C[N;lactam]1

>  <apo>
2

>  <freq>
1

>  <freq0>
0

>  <freq1>
1

>  <freqA>
0.99887151

>  <a_count>
39

$$$$

  MOE2015           2D

 23 24  0  0  1  0  0  0  0  0999 V2000
   14.3480    0.0000    0.0000 O   0  0  0  0  0  0  0  0  0  0  0  0
   12.8480    0.0000    0.0000 C   0  0  0  0  0  0  0  0  0  0  0  0
   12.0980    1.2990    0.0000 C   0  0  1  0  0  0  0  0  0  0  0  0
   12.8480    2.5980    0.0000 N   0  0  0  0  0  0  0  0  0  0  0  0
   10.5980    1.2990    0.0000 C   0  0  0  0  0  0  0  0  0  0  0  0
    9.8480    2.5980    0.0000 C   0  0  0  0  0  0  0  0  0  0  0  0
    8.3480    2.5980    0.0000 C   0  0  0  0  0  0  0  0  0  0  0  0
    7.5980    3.8970    0.0000 O   0  0  0  0  0  0  0  0  0  0  0  0
    6.0980    3.8970    0.0000 C   0  0  0  0  0  0  0  0  0  0  0  0
    5.3480    5.1960    0.0000 C   0  0  0  0  0  0  0  0  0  0  0  0
    6.0980    6.4950    0.0000 O   0  0  0  0  0  0  0  0  0  0  0  0
    3.8480    5.1960    0.0000 C   0  0  0  0  0  0  0  0  0  0  0  0
    3.0980    3.8970    0.0000 C   0  0  0  0  0  0  0  0  0  0  0  0
    3.8480    2.5980    0.0000 C   0  0  0  0  0  0  0  0  0  0  0  0
    3.0980    1.2990    0.0000 C   0  0  1  0  0  0  0  0  0  0  0  0
    3.8480    0.0000    0.0000 N   0  0  0  0  0  0  0  0  0  0  0  0
    1.5980    1.2990    0.0000 C   0  0  0  0  0  0  0  0  0  0  0  0
    0.8480    0.0000    0.0000 O   0  0  0  0  0  0  0  0  0  0  0  0
    5.3480    2.5980    0.0000 C   0  0  0  0  0  0  0  0  0  0  0  0
    7.5980    1.2990    0.0000 C   0  0  0  0  0  0  0  0  0  0  0  0
    8.3480    0.0000    0.0000 C   0  0  0  0  0  0  0  0  0  0  0  0
    7.5980   -1.2990    0.0000 O   0  0  0  0  0  0  0  0  0  0  0  0
    9.8480    0.0000    0.0000 C   0  0  0  0  0  0  0  0  0  0  0  0
  1  2  2  0  0  0  0
  2  3  1  0  0  0  0
  3  4  1  6  0  0  0
  3  5  1  0  0  0  0
  5  6  1  0  0  0  0
  5 23  2  0  0  0  0
  6  7  2  0  0  0  0
  7  8  1  0  0  0  0
  7 20  1  0  0  0  0
  8  9  1  0  0  0  0
  9 10  1  0  0  0  0
  9 19  2  0  0  0  0
 10 11  1  0  0  0  0
 10 12  2  0  0  0  0
 12 13  1  0  0  0  0
 13 14  2  0  0  0  0
 14 15  1  0  0  0  0
 14 19  1  0  0  0  0
 15 16  1  1  0  0  0
 15 17  1  0  0  0  0
 17 18  2  0  0  0  0
 20 21  2  0  0  0  0
 21 22  1  0  0  0  0
 21 23  1  0  0  0  0
M  END
>  <name>
O=[C;amide][C@@H]([N;amide])c1cc(Oc2c(O)ccc([C@@H](N)[C;amide]=O)c2)cc(O)c1

>  <apo>
3

>  <freq>
1

>  <freq0>
0

>  <freq1>
1

>  <freqA>
0.99887151

>  <a_count>
39

$$$$

  MOE2015           2D

 22 24  0  0  0  0  0  0  0  0999 V2000
   14.3180    4.5190    0.0000 O   0  0  0  0  0  0  0  0  0  0  0  0
   13.5680    5.8180    0.0000 C   0  0  0  0  0  0  0  0  0  0  0  0
   12.0680    5.8180    0.0000 C   0  0  0  0  0  0  0  0  0  0  0  0
   11.3180    7.1170    0.0000 C   0  0  0  0  0  0  0  0  0  0  0  0
    9.8180    7.1170    0.0000 N   0  0  0  0  0  0  0  0  0  0  0  0
    9.0680    5.8180    0.0000 C   0  0  0  0  0  0  0  0  0  0  0  0
    7.5680    5.8180    0.0000 C   0  0  0  0  0  0  0  0  0  0  0  0
    6.0680    5.8180    0.0000 C   0  0  0  0  0  0  0  0  0  0  0  0
    4.5680    5.8180    0.0000 C   0  0  0  0  0  0  0  0  0  0  0  0
    3.8180    7.1170    0.0000 C   0  0  0  0  0  0  0  0  0  0  0  0
    2.3180    7.1170    0.0000 C   0  0  0  0  0  0  0  0  0  0  0  0
    1.5680    8.4160    0.0000 C   0  0  0  0  0  0  0  0  0  0  0  0
    1.5680    9.9160    0.0000 C   0  0  0  0  0  0  0  0  0  0  0  0
    2.8670    9.1660    0.0000 C   0  0  0  0  0  0  0  0  0  0  0  0
    0.0680    8.4160    0.0000 C   0  0  0  0  0  0  0  0  0  0  0  0
   -0.6820    7.1170    0.0000 C   0  0  0  0  0  0  0  0  0  0  0  0
    0.0680    5.8180    0.0000 S   0  0  0  0  0  0  0  0  0  0  0  0
    1.5680    5.8180    0.0000 C   0  0  0  0  0  0  0  0  0  0  0  0
    2.3180    4.5190    0.0000 C   0  0  0  0  0  0  0  0  0  0  0  0
    3.8180    4.5190    0.0000 C   0  0  0  0  0  0  0  0  0  0  0  0
    9.8180    4.5190    0.0000 C   0  0  0  0  0  0  0  0  0  0  0  0
   11.3180    4.5190    0.0000 C   0  0  0  0  0  0  0  0  0  0  0  0
  1  2  2  0  0  0  0
  2  3  1  0  0  0  0
  3  4  1  0  0  0  0
  3 22  2  0  0  0  0
  4  5  2  0  0  0  0
  5  6  1  0  0  0  0
  6  7  1  0  0  0  0
  6 21  2  0  0  0  0
  7  8  3  0  0  0  0
  8  9  1  0  0  0  0
  9 10  1  0  0  0  0
  9 20  2  0  0  0  0
 10 11  2  0  0  0  0
 11 12  1  0  0  0  0
 11 18  1  0  0  0  0
 12 13  1  0  0  0  0
 12 14  1  0  0  0  0
 12 15  1  0  0  0  0
 15 16  1  0  0  0  0
 16 17  1  0  0  0  0
 17 18  1  0  0  0  0
 18 19  2  0  0  0  0
 19 20  1  0  0  0  0
 21 22  1  0  0  0  0
M  END
>  <name>
O=[C;ester]c1cnc(C#Cc2cc3C(C)(C)CCSc3cc2)cc1

>  <apo>
1

>  <freq>
1

>  <freq0>
0

>  <freq1>
1

>  <freqA>
0.99887151

>  <a_count>
39

$$$$

  MOE2015           2D

 23 24  0  0  1  0  0  0  0  0999 V2000
    5.8520   -3.4340    0.0000 O   0  0  0  0  0  0  0  0  0  0  0  0
    5.5910   -1.9560    0.0000 N   0  3  0  0  0  0  0  0  0  0  0  0
    6.7410   -0.9920    0.0000 O   0  5  0  0  0  0  0  0  0  0  0  0
    4.1820   -1.4430    0.0000 C   0  0  0  0  0  0  0  0  0  0  0  0
    3.6690   -0.0340    0.0000 C   0  0  0  0  0  0  0  0  0  0  0  0
    4.6330    1.1150    0.0000 C   0  0  3  0  0  0  0  0  0  0  0  0
    3.8830    2.4140    0.0000 C   0  0  0  0  0  0  0  0  0  0  0  0
    2.3830    2.4140    0.0000 C   0  0  0  0  0  0  0  0  0  0  0  0
    1.6330    3.7130    0.0000 O   0  0  0  0  0  0  0  0  0  0  0  0
    1.6330    1.1150    0.0000 O   0  0  0  0  0  0  0  0  0  0  0  0
    0.1330    1.1150    0.0000 C   0  0  0  0  0  0  0  0  0  0  0  0
    4.6330    3.7130    0.0000 C   0  0  0  0  0  0  0  0  0  0  0  0
    3.8830    5.0120    0.0000 C   0  0  0  0  0  0  0  0  0  0  0  0
    6.1330    3.7130    0.0000 N   0  0  0  0  0  0  0  0  0  0  0  0
    6.8830    2.4140    0.0000 C   0  0  0  0  0  0  0  0  0  0  0  0
    8.3830    2.4140    0.0000 C   0  0  0  0  0  0  0  0  0  0  0  0
    6.1330    1.1150    0.0000 C   0  0  0  0  0  0  0  0  0  0  0  0
    7.0970   -0.0340    0.0000 C   0  0  0  0  0  0  0  0  0  0  0  0
    8.5740    0.2270    0.0000 O   0  0  0  0  0  0  0  0  0  0  0  0
    2.1920    0.2270    0.0000 C   0  0  0  0  0  0  0  0  0  0  0  0
    1.2280   -0.9220    0.0000 C   0  0  0  0  0  0  0  0  0  0  0  0
    1.7410   -2.3320    0.0000 C   0  0  0  0  0  0  0  0  0  0  0  0
    3.2180   -2.5930    0.0000 C   0  0  0  0  0  0  0  0  0  0  0  0
  1  2  2  0  0  0  0
  2  3  1  0  0  0  0
  2  4  1  0  0  0  0
  4  5  1  0  0  0  0
  4 23  2  0  0  0  0
  5  6  1  0  0  0  0
  5 20  2  0  0  0  0
  6  7  1  0  0  0  0
  6 17  1  0  0  0  0
  7  8  1  0  0  0  0
  7 12  2  0  0  0  0
  8  9  2  0  0  0  0
  8 10  1  0  0  0  0
 10 11  1  0  0  0  0
 12 13  1  0  0  0  0
 12 14  1  0  0  0  0
 14 15  1  0  0  0  0
 15 16  1  0  0  0  0
 15 17  2  0  0  0  0
 17 18  1  0  0  0  0
 18 19  2  0  0  0  0
 20 21  1  0  0  0  0
 21 22  2  0  0  0  0
 22 23  1  0  0  0  0
M  CHG  1   2   1
M  CHG  1   3  -1
M  END
>  <name>
O=[N+]([O-])c1c(C2C(C(=O)OC)=C(C)NC(C)=C2[C;ester]=O)cccc1

>  <apo>
1

>  <freq>
1

>  <freq0>
0

>  <freq1>
1

>  <freqA>
0.99887151

>  <a_count>
39

$$$$

  MOE2015           2D

 16 16  0  0  0  0  0  0  0  0999 V2000
    0.7300    2.7250    0.0000 O   0  0  0  0  0  0  0  0  0  0  0  0
    2.0290    1.9750    0.0000 C   0  0  0  0  0  0  0  0  0  0  0  0
    2.0290    0.4750    0.0000 C   0  0  0  0  0  0  0  0  0  0  0  0
    0.7300   -0.2750    0.0000 C   0  0  0  0  0  0  0  0  0  0  0  0
    1.4800   -1.5740    0.0000 C   0  0  0  0  0  0  0  0  0  0  0  0
   -0.0200    1.0240    0.0000 C   0  0  0  0  0  0  0  0  0  0  0  0
   -0.5690   -1.0250    0.0000 C   0  0  0  0  0  0  0  0  0  0  0  0
    3.3280   -0.2750    0.0000 C   0  0  0  0  0  0  0  0  0  0  0  0
    4.6270    0.4750    0.0000 C   0  0  0  0  0  0  0  0  0  0  0  0
    5.9260   -0.2750    0.0000 C   0  0  0  0  0  0  0  0  0  0  0  0
    5.1760   -1.5740    0.0000 C   0  0  0  0  0  0  0  0  0  0  0  0
    7.2250   -1.0250    0.0000 C   0  0  0  0  0  0  0  0  0  0  0  0
    6.6760    1.0240    0.0000 C   0  0  0  0  0  0  0  0  0  0  0  0
    4.6270    1.9750    0.0000 C   0  0  0  0  0  0  0  0  0  0  0  0
    5.9260    2.7250    0.0000 N   0  0  0  0  0  0  0  0  0  0  0  0
    3.3280    2.7250    0.0000 C   0  0  0  0  0  0  0  0  0  0  0  0
  1  2  1  0  0  0  0
  2  3  1  0  0  0  0
  2 16  2  0  0  0  0
  3  4  1  0  0  0  0
  3  8  2  0  0  0  0
  4  5  1  0  0  0  0
  4  6  1  0  0  0  0
  4  7  1  0  0  0  0
  8  9  1  0  0  0  0
  9 10  1  0  0  0  0
  9 14  2  0  0  0  0
 10 11  1  0  0  0  0
 10 12  1  0  0  0  0
 10 13  1  0  0  0  0
 14 15  1  0  0  0  0
 14 16  1  0  0  0  0
M  END
>  <name>
Oc1c(C(C)(C)C)cc(C(C)(C)C)c([N;amide])c1

>  <apo>
1

>  <freq>
1

>  <freq0>
0

>  <freq1>
1

>  <freqA>
0.99887151

>  <a_count>
39

$$$$

  MOE2015           2D

 20 24  0  0  1  0  0  0  0  0999 V2000
    9.0870   -0.6640    0.0000 O   0  0  0  0  0  0  0  0  0  0  0  0
    7.7900   -1.4170    0.0000 C   0  0  0  0  0  0  0  0  0  0  0  0
    6.5450   -0.7020    0.0000 C   0  0  0  0  0  0  0  0  0  0  0  0
    5.8190    0.9370    0.0000 O   0  0  0  0  0  0  0  0  0  0  0  0
    4.0610    0.7140    0.0000 C   0  0  1  0  0  0  0  0  0  0  0  0
    4.0610   -0.7120    0.0000 C   0  0  2  0  0  0  0  0  0  0  0  0
    2.8190   -1.4300    0.0000 C   0  0  2  0  0  0  0  0  0  0  0  0
    1.5250   -2.1890    0.0000 O   0  0  0  0  0  0  0  0  0  0  0  0
    2.8230   -2.8730    0.0000 C   0  0  2  0  0  0  0  0  0  0  0  0
    1.8150   -3.9100    0.0000 N   0  0  0  0  0  0  0  0  0  0  0  0
    3.2540   -3.9050    0.0000 C   0  0  0  0  0  0  0  0  0  0  0  0
    4.4510   -2.1170    0.0000 C   0  0  0  0  0  0  0  0  0  0  0  0
    4.0730   -3.5800    0.0000 C   0  0  0  0  0  0  0  0  0  0  0  0
    5.3190   -2.8580    0.0000 C   0  0  0  0  0  0  0  0  0  0  0  0
    5.3130   -1.4250    0.0000 C   0  0  0  0  0  0  0  0  0  0  0  0
    6.5550   -3.5660    0.0000 C   0  0  0  0  0  0  0  0  0  0  0  0
    7.7960   -2.8500    0.0000 C   0  0  0  0  0  0  0  0  0  0  0  0
    1.5770   -0.7220    0.0000 C   0  0  0  0  0  0  0  0  0  0  0  0
    1.5790    0.7150    0.0000 C   0  0  0  0  0  0  0  0  0  0  0  0
    2.8220    1.4320    0.0000 C   0  0  0  0  0  0  0  0  0  0  0  0
  1  2  1  0  0  0  0
  2  3  1  0  0  0  0
  2 17  2  0  0  0  0
  3  4  1  0  0  0  0
  3 15  2  0  0  0  0
  5  4  1  1  0  0  0
  5  6  1  0  0  0  0
  5 20  1  0  0  0  0
  6  7  1  0  0  0  0
  6 12  1  1  0  0  0
  6 15  1  0  0  0  0
  7  8  1  1  0  0  0
  7  9  1  0  0  0  0
  7 18  1  0  0  0  0
  9 10  1  1  0  0  0
  9 13  1  0  0  0  0
 10 11  1  0  0  0  0
 11 12  1  0  0  0  0
 13 14  1  0  0  0  0
 14 15  1  0  0  0  0
 14 16  2  0  0  0  0
 16 17  1  0  0  0  0
 18 19  1  0  0  0  0
 19 20  1  0  0  0  0
M  END
>  <name>
Oc1c2O[C@H]3[C@]45[C@](O)([C@H]([N;amine]CC4)Cc(c25)cc1)CC[C;ether]3

>  <apo>
2

>  <freq>
1

>  <freq0>
0

>  <freq1>
1

>  <freqA>
0.99887151

>  <a_count>
39

$$$$

  MOE2015           2D

 18 21  0  0  1  0  0  0  0  0999 V2000
    9.3160   -0.5410    0.0000 O   0  0  0  0  0  0  0  0  0  0  0  0
    8.0080   -1.2740    0.0000 C   0  0  0  0  0  0  0  0  0  0  0  0
    6.7190   -0.5070    0.0000 C   0  0  0  0  0  0  0  0  0  0  0  0
    5.4020   -1.2710    0.0000 C   0  0  0  0  0  0  0  0  0  0  0  0
    5.3980   -2.7350    0.0000 C   0  0  0  0  0  0  0  0  0  0  0  0
    6.6790   -3.5060    0.0000 C   0  0  0  0  0  0  0  0  0  0  0  0
    7.9880   -2.7740    0.0000 C   0  0  0  0  0  0  0  0  0  0  0  0
    4.1420   -3.4850    0.0000 C   0  0  0  0  0  0  0  0  0  0  0  0
    2.8710   -2.7050    0.0000 C   0  0  1  0  0  0  0  0  0  0  0  0
    1.6390   -3.4170    0.0000 N   0  0  0  0  0  0  0  0  0  0  0  0
    3.2200   -3.6520    0.0000 C   0  0  0  0  0  0  0  0  0  0  0  0
    4.1360   -1.9880    0.0000 C   0  0  0  0  0  0  0  0  0  0  0  0
    4.1270   -0.5460    0.0000 C   0  0  2  0  0  0  0  0  0  0  0  0
    2.8500   -1.2840    0.0000 C   0  0  1  0  0  0  0  0  0  0  0  0
    1.5750   -0.5590    0.0000 C   0  0  0  0  0  0  0  0  0  0  0  0
    1.5600    0.9160    0.0000 C   0  0  0  0  0  0  0  0  0  0  0  0
    2.8360    1.6540    0.0000 C   0  0  0  0  0  0  0  0  0  0  0  0
    4.1110    0.9280    0.0000 C   0  0  0  0  0  0  0  0  0  0  0  0
  1  2  1  0  0  0  0
  2  3  1  0  0  0  0
  2  7  2  0  0  0  0
  3  4  2  0  0  0  0
  4  5  1  0  0  0  0
  4 13  1  0  0  0  0
  5  6  2  0  0  0  0
  5  8  1  0  0  0  0
  6  7  1  0  0  0  0
  9  8  1  1  0  0  0
  9 10  1  0  0  0  0
  9 14  1  0  0  0  0
 10 11  1  0  0  0  0
 11 12  1  0  0  0  0
 13 12  1  1  0  0  0
 13 14  1  0  0  0  0
 13 18  1  0  0  0  0
 14 15  1  6  0  0  0
 15 16  1  0  0  0  0
 16 17  1  0  0  0  0
 17 18  1  0  0  0  0
M  END
>  <name>
Oc1cc2c(cc1)C[C@H]1[N;amine]CC[C@@]32[C@H]1CCCC3

>  <apo>
1

>  <freq>
1

>  <freq0>
0

>  <freq1>
1

>  <freqA>
0.99887151

>  <a_count>
39

$$$$

  MOE2015           2D

 13 12  0  0  0  0  0  0  0  0999 V2000
   14.7170    3.2510    0.0000 O   0  0  0  0  0  0  0  0  0  0  0  0
   13.4180    4.0010    0.0000 C   0  0  0  0  0  0  0  0  0  0  0  0
   12.1190    3.2510    0.0000 C   0  0  0  0  0  0  0  0  0  0  0  0
   10.8200    4.0010    0.0000 C   0  0  0  0  0  0  0  0  0  0  0  0
    9.5210    3.2510    0.0000 C   0  0  0  0  0  0  0  0  0  0  0  0
    8.2220    4.0010    0.0000 C   0  0  0  0  0  0  0  0  0  0  0  0
    6.9230    3.2510    0.0000 C   0  0  0  0  0  0  0  0  0  0  0  0
    5.6240    4.0010    0.0000 C   0  0  0  0  0  0  0  0  0  0  0  0
    4.3250    3.2510    0.0000 C   0  0  0  0  0  0  0  0  0  0  0  0
    3.0260    4.0010    0.0000 C   0  0  0  0  0  0  0  0  0  0  0  0
    1.7270    3.2510    0.0000 C   0  0  0  0  0  0  0  0  0  0  0  0
    0.4280    4.0010    0.0000 C   0  0  0  0  0  0  0  0  0  0  0  0
   -0.8710    3.2510    0.0000 C   0  0  0  0  0  0  0  0  0  0  0  0
  1  2  1  0  0  0  0
  2  3  1  0  0  0  0
  3  4  1  0  0  0  0
  4  5  1  0  0  0  0
  5  6  1  0  0  0  0
  6  7  1  0  0  0  0
  7  8  1  0  0  0  0
  8  9  1  0  0  0  0
  9 10  1  0  0  0  0
 10 11  1  0  0  0  0
 11 12  1  0  0  0  0
 12 13  1  0  0  0  0
M  END
>  <name>
[O;ester]CCCCCCCCCCCC

>  <apo>
1

>  <freq>
1

>  <freq0>
0

>  <freq1>
1

>  <freqA>
0.99887151

>  <a_count>
39

$$$$

  MOE2015           2D

 19 21  0  0  1  0  0  0  0  0999 V2000
   -1.8800   -1.8950    0.0000 C   0  0  3  0  0  0  0  0  0  0  0  0
   -1.8690   -3.3940    0.0000 C   0  0  0  0  0  0  0  0  0  0  0  0
   -3.1850   -1.1550    0.0000 C   0  0  0  0  0  0  0  0  0  0  0  0
   -3.1960    0.3450    0.0000 N   0  0  0  0  0  0  0  0  0  0  0  0
   -4.5010    1.0850    0.0000 C   0  0  0  0  0  0  0  0  0  0  0  0
   -5.7940    0.3260    0.0000 C   0  0  0  0  0  0  0  0  0  0  0  0
   -5.7830   -1.1740    0.0000 C   0  0  0  0  0  0  0  0  0  0  0  0
   -4.4780   -1.9140    0.0000 C   0  0  0  0  0  0  0  0  0  0  0  0
   -0.5870   -1.1350    0.0000 C   0  0  0  0  0  0  0  0  0  0  0  0
   -0.4410    0.3580    0.0000 C   0  0  0  0  0  0  0  0  0  0  0  0
   -1.5640    1.3530    0.0000 C   0  0  0  0  0  0  0  0  0  0  0  0
   -1.2630    2.8230    0.0000 C   0  0  0  0  0  0  0  0  0  0  0  0
    1.0230    0.6810    0.0000 C   0  0  0  0  0  0  0  0  0  0  0  0
    1.7830   -0.6120    0.0000 C   0  0  0  0  0  0  0  0  0  0  0  0
    0.7880   -1.7340    0.0000 C   0  0  0  0  0  0  0  0  0  0  0  0
    1.2630   -3.1570    0.0000 C   0  0  0  0  0  0  0  0  0  0  0  0
    2.7320   -3.4580    0.0000 C   0  0  0  0  0  0  0  0  0  0  0  0
    3.7270   -2.3350    0.0000 C   0  0  0  0  0  0  0  0  0  0  0  0
    3.2530   -0.9120    0.0000 C   0  0  0  0  0  0  0  0  0  0  0  0
  1  2  1  0  0  0  0
  1  3  1  0  0  0  0
  1  9  1  0  0  0  0
  3  4  1  0  0  0  0
  3  8  2  0  0  0  0
  4  5  2  0  0  0  0
  5  6  1  0  0  0  0
  6  7  2  0  0  0  0
  7  8  1  0  0  0  0
  9 10  2  0  0  0  0
  9 15  1  0  0  0  0
 10 11  1  0  0  0  0
 10 13  1  0  0  0  0
 11 12  1  0  0  0  0
 13 14  1  0  0  0  0
 14 15  1  0  0  0  0
 14 19  2  0  0  0  0
 15 16  2  0  0  0  0
 16 17  1  0  0  0  0
 17 18  2  0  0  0  0
 18 19  1  0  0  0  0
M  END
>  <name>
C(C)(c1ncccc1)C1=C(C[C;amine])Cc2c1cccc2

>  <apo>
1

>  <freq>
1

>  <freq0>
0

>  <freq1>
1

>  <freqA>
0.99887151

>  <a_count>
38

$$$$

  MOE2015           2D

 12 11  0  0  0  0  0  0  0  0999 V2000
    0.1000   -0.3750    0.0000 C   0  0  0  0  0  0  0  0  0  0  0  0
    1.4000    0.3750    0.0000 C   0  0  0  0  0  0  0  0  0  0  0  0
    2.6990   -0.3750    0.0000 C   0  0  0  0  0  0  0  0  0  0  0  0
    3.9980    0.3750    0.0000 C   0  0  0  0  0  0  0  0  0  0  0  0
    5.2970   -0.3750    0.0000 C   0  0  0  0  0  0  0  0  0  0  0  0
    6.5960    0.3750    0.0000 C   0  0  0  0  0  0  0  0  0  0  0  0
    7.8950   -0.3750    0.0000 C   0  0  0  0  0  0  0  0  0  0  0  0
   -1.1990    0.3750    0.0000 C   0  0  0  0  0  0  0  0  0  0  0  0
   -2.4980   -0.3750    0.0000 C   0  0  0  0  0  0  0  0  0  0  0  0
   -3.7970    0.3750    0.0000 C   0  0  0  0  0  0  0  0  0  0  0  0
   -5.0960   -0.3750    0.0000 C   0  0  0  0  0  0  0  0  0  0  0  0
   -6.3950    0.3750    0.0000 C   0  0  0  0  0  0  0  0  0  0  0  0
  1  2  1  0  0  0  0
  1  8  1  0  0  0  0
  2  3  1  0  0  0  0
  3  4  1  0  0  0  0
  4  5  1  0  0  0  0
  5  6  1  0  0  0  0
  6  7  1  0  0  0  0
  8  9  1  0  0  0  0
  9 10  1  0  0  0  0
 10 11  1  0  0  0  0
 11 12  1  0  0  0  0
M  END
>  <name>
C(CCCCCC)CCCC[C;quatN]

>  <apo>
1

>  <freq>
1

>  <freq0>
0

>  <freq1>
1

>  <freqA>
0.99887151

>  <a_count>
38

$$$$

  MOE2015           2D

 12 11  0  0  0  0  0  0  0  0999 V2000
    0.1000   -0.3750    0.0000 C   0  0  0  0  0  0  0  0  0  0  0  0
    1.4000    0.3750    0.0000 C   0  0  0  0  0  0  0  0  0  0  0  0
    2.6990   -0.3750    0.0000 C   0  0  0  0  0  0  0  0  0  0  0  0
    3.9980    0.3750    0.0000 C   0  0  0  0  0  0  0  0  0  0  0  0
    5.2970   -0.3750    0.0000 C   0  0  0  0  0  0  0  0  0  0  0  0
    6.5960    0.3750    0.0000 C   0  0  0  0  0  0  0  0  0  0  0  0
    7.8950   -0.3750    0.0000 C   0  0  0  0  0  0  0  0  0  0  0  0
   -1.1990    0.3750    0.0000 C   0  0  0  0  0  0  0  0  0  0  0  0
   -2.4980   -0.3750    0.0000 C   0  0  0  0  0  0  0  0  0  0  0  0
   -3.7970    0.3750    0.0000 C   0  0  0  0  0  0  0  0  0  0  0  0
   -5.0960   -0.3750    0.0000 C   0  0  0  0  0  0  0  0  0  0  0  0
   -6.3950    0.3750    0.0000 C   0  0  0  0  0  0  0  0  0  0  0  0
  1  2  1  0  0  0  0
  1  8  1  0  0  0  0
  2  3  1  0  0  0  0
  3  4  1  0  0  0  0
  4  5  1  0  0  0  0
  5  6  1  0  0  0  0
  6  7  1  0  0  0  0
  8  9  1  0  0  0  0
  9 10  1  0  0  0  0
 10 11  1  0  0  0  0
 11 12  1  0  0  0  0
M  END
>  <name>
C(CCCCC[C;ether])CCCCC

>  <apo>
1

>  <freq>
1

>  <freq0>
0

>  <freq1>
1

>  <freqA>
0.99887151

>  <a_count>
38

$$$$

  MOE2015           2D

 12 11  0  0  0  0  0  0  0  0999 V2000
    0.1000   -0.3750    0.0000 C   0  0  0  0  0  0  0  0  0  0  0  0
    1.4000    0.3750    0.0000 C   0  0  0  0  0  0  0  0  0  0  0  0
    2.6990   -0.3750    0.0000 C   0  0  0  0  0  0  0  0  0  0  0  0
    3.9980    0.3750    0.0000 C   0  0  0  0  0  0  0  0  0  0  0  0
    5.2970   -0.3750    0.0000 C   0  0  0  0  0  0  0  0  0  0  0  0
    6.5960    0.3750    0.0000 C   0  0  0  0  0  0  0  0  0  0  0  0
    7.8950   -0.3750    0.0000 C   0  0  0  0  0  0  0  0  0  0  0  0
   -1.1990    0.3750    0.0000 C   0  0  0  0  0  0  0  0  0  0  0  0
   -2.4980   -0.3750    0.0000 C   0  0  0  0  0  0  0  0  0  0  0  0
   -3.7970    0.3750    0.0000 C   0  0  0  0  0  0  0  0  0  0  0  0
   -5.0960   -0.3750    0.0000 C   0  0  0  0  0  0  0  0  0  0  0  0
   -6.3950    0.3750    0.0000 C   0  0  0  0  0  0  0  0  0  0  0  0
  1  2  1  0  0  0  0
  1  8  1  0  0  0  0
  2  3  1  0  0  0  0
  3  4  1  0  0  0  0
  4  5  1  0  0  0  0
  5  6  1  0  0  0  0
  6  7  1  0  0  0  0
  8  9  1  0  0  0  0
  9 10  1  0  0  0  0
 10 11  1  0  0  0  0
 11 12  1  0  0  0  0
M  END
>  <name>
C(CCCCC[C;lactam])CCCCC

>  <apo>
1

>  <freq>
1

>  <freq0>
0

>  <freq1>
1

>  <freqA>
0.99887151

>  <a_count>
38

$$$$

  MOE2015           2D

 24 26  0  0  0  0  0  0  0  0999 V2000
   11.3440    6.5490    0.0000 Cl  0  0  0  0  0  0  0  0  0  0  0  0
   10.5940    5.2500    0.0000 C   0  0  0  0  0  0  0  0  0  0  0  0
   11.3440    3.9510    0.0000 C   0  0  0  0  0  0  0  0  0  0  0  0
   12.8440    3.9510    0.0000 N   0  0  0  0  0  0  0  0  0  0  0  0
   10.5940    2.6520    0.0000 C   0  0  0  0  0  0  0  0  0  0  0  0
    9.0940    2.6520    0.0000 C   0  0  0  0  0  0  0  0  0  0  0  0
    8.3440    3.9510    0.0000 C   0  0  0  0  0  0  0  0  0  0  0  0
    6.8440    3.9510    0.0000 O   0  0  0  0  0  0  0  0  0  0  0  0
    6.0940    2.6520    0.0000 C   0  0  0  0  0  0  0  0  0  0  0  0
    4.5940    2.6520    0.0000 C   0  0  0  0  0  0  0  0  0  0  0  0
    3.8440    1.3530    0.0000 C   0  0  0  0  0  0  0  0  0  0  0  0
    4.5940    0.0540    0.0000 N   0  0  0  0  0  0  0  0  0  0  0  0
    6.0940    0.0540    0.0000 C   0  0  0  0  0  0  0  0  0  0  0  0
    6.8440    1.3530    0.0000 C   0  0  0  0  0  0  0  0  0  0  0  0
    2.3440    1.3530    0.0000 C   0  0  0  0  0  0  0  0  0  0  0  0
    1.5940    2.6520    0.0000 C   0  0  0  0  0  0  0  0  0  0  0  0
    0.0940    2.6520    0.0000 O   0  0  0  0  0  0  0  0  0  0  0  0
   -0.6560    1.3530    0.0000 C   0  0  0  0  0  0  0  0  0  0  0  0
    2.3440    3.9510    0.0000 C   0  0  0  0  0  0  0  0  0  0  0  0
    1.5940    5.2500    0.0000 C   0  0  0  0  0  0  0  0  0  0  0  0
    0.0940    5.2500    0.0000 O   0  0  0  0  0  0  0  0  0  0  0  0
    2.3440    6.5490    0.0000 N   0  0  0  0  0  0  0  0  0  0  0  0
    3.8440    3.9510    0.0000 C   0  0  0  0  0  0  0  0  0  0  0  0
    9.0940    5.2500    0.0000 C   0  0  0  0  0  0  0  0  0  0  0  0
  1  2  1  0  0  0  0
  2  3  1  0  0  0  0
  2 24  2  0  0  0  0
  3  4  1  0  0  0  0
  3  5  2  0  0  0  0
  5  6  1  0  0  0  0
  6  7  2  0  0  0  0
  7  8  1  0  0  0  0
  7 24  1  0  0  0  0
  8  9  1  0  0  0  0
  9 10  1  0  0  0  0
  9 14  2  0  0  0  0
 10 11  1  0  0  0  0
 10 23  2  0  0  0  0
 11 12  1  0  0  0  0
 11 15  2  0  0  0  0
 12 13  2  0  0  0  0
 13 14  1  0  0  0  0
 15 16  1  0  0  0  0
 16 17  1  0  0  0  0
 16 19  2  0  0  0  0
 17 18  1  0  0  0  0
 19 20  1  0  0  0  0
 19 23  1  0  0  0  0
 20 21  2  0  0  0  0
 20 22  1  0  0  0  0
M  END
>  <name>
Clc1c([N;urea])ccc(Oc2c3c(ncc2)cc(OC)c(C(=O)N)c3)c1

>  <apo>
1

>  <freq>
1

>  <freq0>
0

>  <freq1>
1

>  <freqA>
0.99887151

>  <a_count>
38

$$$$

  MOE2015           2D

 23 25  0  0  0  0  0  0  0  0999 V2000
   11.0540    6.3820    0.0000 Cl  0  0  0  0  0  0  0  0  0  0  0  0
   10.3040    5.0830    0.0000 C   0  0  0  0  0  0  0  0  0  0  0  0
   11.0540    3.7840    0.0000 C   0  0  0  0  0  0  0  0  0  0  0  0
   12.5540    3.7840    0.0000 N   0  0  0  0  0  0  0  0  0  0  0  0
   10.3040    2.4850    0.0000 C   0  0  0  0  0  0  0  0  0  0  0  0
    8.8040    2.4850    0.0000 C   0  0  0  0  0  0  0  0  0  0  0  0
    8.0540    3.7840    0.0000 C   0  0  0  0  0  0  0  0  0  0  0  0
    6.5540    3.7840    0.0000 O   0  0  0  0  0  0  0  0  0  0  0  0
    5.8040    2.4850    0.0000 C   0  0  0  0  0  0  0  0  0  0  0  0
    4.3040    2.4850    0.0000 C   0  0  0  0  0  0  0  0  0  0  0  0
    3.5540    1.1860    0.0000 C   0  0  0  0  0  0  0  0  0  0  0  0
    4.3040   -0.1130    0.0000 N   0  0  0  0  0  0  0  0  0  0  0  0
    5.8040   -0.1130    0.0000 C   0  0  0  0  0  0  0  0  0  0  0  0
    6.5540    1.1860    0.0000 C   0  0  0  0  0  0  0  0  0  0  0  0
    2.0540    1.1860    0.0000 C   0  0  0  0  0  0  0  0  0  0  0  0
    1.3040    2.4850    0.0000 C   0  0  0  0  0  0  0  0  0  0  0  0
   -0.1960    2.4850    0.0000 O   0  0  0  0  0  0  0  0  0  0  0  0
   -0.9460    1.1860    0.0000 C   0  0  0  0  0  0  0  0  0  0  0  0
    2.0540    3.7840    0.0000 C   0  0  0  0  0  0  0  0  0  0  0  0
    1.3040    5.0830    0.0000 O   0  0  0  0  0  0  0  0  0  0  0  0
    2.0540    6.3820    0.0000 C   0  0  0  0  0  0  0  0  0  0  0  0
    3.5540    3.7840    0.0000 C   0  0  0  0  0  0  0  0  0  0  0  0
    8.8040    5.0830    0.0000 C   0  0  0  0  0  0  0  0  0  0  0  0
  1  2  1  0  0  0  0
  2  3  1  0  0  0  0
  2 23  2  0  0  0  0
  3  4  1  0  0  0  0
  3  5  2  0  0  0  0
  5  6  1  0  0  0  0
  6  7  2  0  0  0  0
  7  8  1  0  0  0  0
  7 23  1  0  0  0  0
  8  9  1  0  0  0  0
  9 10  1  0  0  0  0
  9 14  2  0  0  0  0
 10 11  1  0  0  0  0
 10 22  2  0  0  0  0
 11 12  1  0  0  0  0
 11 15  2  0  0  0  0
 12 13  2  0  0  0  0
 13 14  1  0  0  0  0
 15 16  1  0  0  0  0
 16 17  1  0  0  0  0
 16 19  2  0  0  0  0
 17 18  1  0  0  0  0
 19 20  1  0  0  0  0
 19 22  1  0  0  0  0
 20 21  1  0  0  0  0
M  END
>  <name>
Clc1c([N;urea])ccc(Oc2c3c(ncc2)cc(OC)c(OC)c3)c1

>  <apo>
1

>  <freq>
1

>  <freq0>
0

>  <freq1>
1

>  <freqA>
0.99887151

>  <a_count>
38

$$$$

  MOE2015           2D

 23 26  0  0  1  0  0  0  0  0999 V2000
   -0.9150    4.9260    0.0000 F   0  0  0  0  0  0  0  0  0  0  0  0
   -0.1820    3.6170    0.0000 C   0  0  0  0  0  0  0  0  0  0  0  0
    1.3170    3.5970    0.0000 C   0  0  0  0  0  0  0  0  0  0  0  0
    2.0850    4.8860    0.0000 C   0  0  2  0  0  0  0  0  0  0  0  0
    3.5790    5.0220    0.0000 N   0  0  0  0  0  0  0  0  0  0  0  0
    4.5670    3.8940    0.0000 C   0  0  0  0  0  0  0  0  0  0  0  0
    6.0380    4.1860    0.0000 N   0  0  0  0  0  0  0  0  0  0  0  0
    7.0270    3.0580    0.0000 C   0  0  0  0  0  0  0  0  0  0  0  0
    8.5270    3.0380    0.0000 C   0  0  0  0  0  0  0  0  0  0  0  0
    9.4250    4.2390    0.0000 N   0  0  0  0  0  0  0  0  0  0  0  0
    8.9710    1.6050    0.0000 C   0  0  0  0  0  0  0  0  0  0  0  0
    7.7460    0.7400    0.0000 N   0  0  0  0  0  0  0  0  0  0  0  0
    6.5440    1.6380    0.0000 N   0  0  0  0  0  0  0  0  0  0  0  0
    5.0730    1.3460    0.0000 C   0  0  0  0  0  0  0  0  0  0  0  0
    4.0840    2.4740    0.0000 C   0  0  0  0  0  0  0  0  0  0  0  0
    3.9100    6.4850    0.0000 C   0  0  0  0  0  0  0  0  0  0  0  0
    2.6220    7.2530    0.0000 C   0  0  0  0  0  0  0  0  0  0  0  0
    1.4930    6.2640    0.0000 C   0  0  0  0  0  0  0  0  0  0  0  0
    2.0500    2.2880    0.0000 C   0  0  0  0  0  0  0  0  0  0  0  0
    1.2820    0.9990    0.0000 C   0  0  0  0  0  0  0  0  0  0  0  0
    2.0150   -0.3100    0.0000 F   0  0  0  0  0  0  0  0  0  0  0  0
   -0.2180    1.0190    0.0000 C   0  0  0  0  0  0  0  0  0  0  0  0
   -0.9500    2.3290    0.0000 C   0  0  0  0  0  0  0  0  0  0  0  0
  1  2  1  0  0  0  0
  2  3  1  0  0  0  0
  2 23  2  0  0  0  0
  4  3  1  1  0  0  0
  3 19  2  0  0  0  0
  4  5  1  0  0  0  0
  4 18  1  0  0  0  0
  5  6  1  0  0  0  0
  5 16  1  0  0  0  0
  6  7  2  0  0  0  0
  6 15  1  0  0  0  0
  7  8  1  0  0  0  0
  8  9  2  0  0  0  0
  8 13  1  0  0  0  0
  9 10  1  0  0  0  0
  9 11  1  0  0  0  0
 11 12  2  0  0  0  0
 12 13  1  0  0  0  0
 13 14  1  0  0  0  0
 14 15  2  0  0  0  0
 16 17  1  0  0  0  0
 17 18  1  0  0  0  0
 19 20  1  0  0  0  0
 20 21  1  0  0  0  0
 20 22  2  0  0  0  0
 22 23  1  0  0  0  0
M  END
>  <name>
Fc1c([C@@H]2N(C3=Nc4c([N;urea])cnn4C=C3)CCC2)cc(F)cc1

>  <apo>
1

>  <freq>
1

>  <freq0>
0

>  <freq1>
1

>  <freqA>
0.99887151

>  <a_count>
38

$$$$

  MOE2015           2D

 21 24  0  0  0  0  0  0  0  0999 V2000
   -0.9560   -2.8960    0.0000 N   0  0  0  0  0  0  0  0  0  0  0  0
    0.4200   -2.2980    0.0000 C   0  0  0  0  0  0  0  0  0  0  0  0
    1.5560   -3.2780    0.0000 N   0  0  0  0  0  0  0  0  0  0  0  0
    3.0300   -3.0010    0.0000 C   0  0  0  0  0  0  0  0  0  0  0  0
    3.7340   -1.6770    0.0000 C   0  0  0  0  0  0  0  0  0  0  0  0
    3.1380   -0.3000    0.0000 S   0  0  0  0  0  0  0  0  0  0  0  0
    1.6880    0.0890    0.0000 C   0  0  0  0  0  0  0  0  0  0  0  0
    0.4800   -0.8000    0.0000 C   0  0  0  0  0  0  0  0  0  0  0  0
   -0.8940   -0.1970    0.0000 C   0  0  0  0  0  0  0  0  0  0  0  0
   -1.0590    1.2930    0.0000 C   0  0  0  0  0  0  0  0  0  0  0  0
    0.1490    2.1820    0.0000 C   0  0  0  0  0  0  0  0  0  0  0  0
    1.5230    1.5800    0.0000 C   0  0  0  0  0  0  0  0  0  0  0  0
    5.2330   -1.6240    0.0000 C   0  0  0  0  0  0  0  0  0  0  0  0
    6.0290   -2.8950    0.0000 C   0  0  0  0  0  0  0  0  0  0  0  0
    5.3250   -4.2200    0.0000 C   0  0  0  0  0  0  0  0  0  0  0  0
    3.8260   -4.2730    0.0000 C   0  0  0  0  0  0  0  0  0  0  0  0
   -2.1610   -2.0030    0.0000 C   0  0  0  0  0  0  0  0  0  0  0  0
   -3.5370   -2.6010    0.0000 C   0  0  0  0  0  0  0  0  0  0  0  0
   -3.7070   -4.0910    0.0000 N   0  0  0  0  0  0  0  0  0  0  0  0
   -2.5020   -4.9840    0.0000 C   0  0  0  0  0  0  0  0  0  0  0  0
   -1.1260   -4.3860    0.0000 C   0  0  0  0  0  0  0  0  0  0  0  0
  1  2  1  0  0  0  0
  1 17  1  0  0  0  0
  1 21  1  0  0  0  0
  2  3  2  0  0  0  0
  2  8  1  0  0  0  0
  3  4  1  0  0  0  0
  4  5  1  0  0  0  0
  4 16  2  0  0  0  0
  5  6  1  0  0  0  0
  5 13  2  0  0  0  0
  6  7  1  0  0  0  0
  7  8  1  0  0  0  0
  7 12  2  0  0  0  0
  8  9  2  0  0  0  0
  9 10  1  0  0  0  0
 10 11  2  0  0  0  0
 11 12  1  0  0  0  0
 13 14  1  0  0  0  0
 14 15  2  0  0  0  0
 15 16  1  0  0  0  0
 17 18  1  0  0  0  0
 18 19  1  0  0  0  0
 19 20  1  0  0  0  0
 20 21  1  0  0  0  0
M  END
>  <name>
N1(C2=Nc3c(Sc4c2cccc4)cccc3)CC[N;amine]CC1

>  <apo>
1

>  <freq>
1

>  <freq0>
0

>  <freq1>
1

>  <freqA>
0.99887151

>  <a_count>
38

$$$$

  MOE2015           2D

 20 21  0  0  0  0  0  0  0  0999 V2000
   -6.6370    3.0530    0.0000 O   0  0  0  0  0  0  0  0  0  0  0  0
   -7.3870    1.7540    0.0000 C   0  0  0  0  0  0  0  0  0  0  0  0
   -5.1370    3.0530    0.0000 C   0  0  0  0  0  0  0  0  0  0  0  0
   -4.3880    4.3520    0.0000 C   0  0  0  0  0  0  0  0  0  0  0  0
   -5.1380    5.6510    0.0000 C   0  0  0  0  0  0  0  0  0  0  0  0
   -6.4370    4.9010    0.0000 C   0  0  0  0  0  0  0  0  0  0  0  0
   -3.8380    6.4010    0.0000 C   0  0  0  0  0  0  0  0  0  0  0  0
   -5.8870    6.9500    0.0000 C   0  0  0  0  0  0  0  0  0  0  0  0
   -2.8880    4.3520    0.0000 C   0  0  0  0  0  0  0  0  0  0  0  0
   -2.1370    3.0530    0.0000 C   0  0  0  0  0  0  0  0  0  0  0  0
   -0.6370    3.0530    0.0000 N   0  0  0  0  0  0  0  0  0  0  0  0
    0.1130    1.7540    0.0000 C   0  0  0  0  0  0  0  0  0  0  0  0
   -0.6370    0.4550    0.0000 O   0  0  0  0  0  0  0  0  0  0  0  0
    1.6130    1.7540    0.0000 N   0  0  0  0  0  0  0  0  0  0  0  0
    2.3620    3.0530    0.0000 C   0  0  0  0  0  0  0  0  0  0  0  0
    3.8620    3.0530    0.0000 O   0  0  0  0  0  0  0  0  0  0  0  0
    1.6130    4.3520    0.0000 C   0  0  0  0  0  0  0  0  0  0  0  0
    0.1130    4.3520    0.0000 C   0  0  0  0  0  0  0  0  0  0  0  0
   -2.8870    1.7540    0.0000 C   0  0  0  0  0  0  0  0  0  0  0  0
   -4.3870    1.7540    0.0000 C   0  0  0  0  0  0  0  0  0  0  0  0
  1  2  1  0  0  0  0
  1  3  1  0  0  0  0
  3  4  1  0  0  0  0
  3 20  2  0  0  0  0
  4  5  1  0  0  0  0
  4  9  2  0  0  0  0
  5  6  1  0  0  0  0
  5  7  1  0  0  0  0
  5  8  1  0  0  0  0
  9 10  1  0  0  0  0
 10 11  1  0  0  0  0
 10 19  2  0  0  0  0
 11 12  1  0  0  0  0
 11 18  1  0  0  0  0
 12 13  2  0  0  0  0
 12 14  1  0  0  0  0
 14 15  1  0  0  0  0
 15 16  2  0  0  0  0
 15 17  1  0  0  0  0
 17 18  2  0  0  0  0
 19 20  1  0  0  0  0
M  END
>  <name>
O(C)c1c(C(C)(C)C)cc(N2C(=O)NC(=O)C=C2)c[c;biphenyl]1

>  <apo>
1

>  <freq>
1

>  <freq0>
0

>  <freq1>
1

>  <freqA>
0.99887151

>  <a_count>
38

$$$$

  MOE2015           2D

 22 24  0  0  0  0  0  0  0  0999 V2000
   -3.9200    6.7900    0.0000 O   0  0  0  0  0  0  0  0  0  0  0  0
   -3.1700    8.0890    0.0000 C   0  0  0  0  0  0  0  0  0  0  0  0
   -3.1700    5.4910    0.0000 C   0  0  0  0  0  0  0  0  0  0  0  0
   -3.9200    4.1920    0.0000 C   0  0  0  0  0  0  0  0  0  0  0  0
   -5.4200    4.1920    0.0000 O   0  0  0  0  0  0  0  0  0  0  0  0
   -6.1700    2.8930    0.0000 C   0  0  0  0  0  0  0  0  0  0  0  0
   -3.1700    2.8930    0.0000 C   0  0  0  0  0  0  0  0  0  0  0  0
   -1.6700    2.8930    0.0000 C   0  0  0  0  0  0  0  0  0  0  0  0
   -0.9200    1.5940    0.0000 N   0  0  0  0  0  0  0  0  0  0  0  0
    0.5800    1.5940    0.0000 C   0  0  0  0  0  0  0  0  0  0  0  0
    1.3300    2.8930    0.0000 C   0  0  0  0  0  0  0  0  0  0  0  0
    0.5800    4.1920    0.0000 C   0  0  0  0  0  0  0  0  0  0  0  0
    1.3300    5.4910    0.0000 O   0  0  0  0  0  0  0  0  0  0  0  0
    2.8300    5.4910    0.0000 C   0  0  0  0  0  0  0  0  0  0  0  0
    3.5800    4.1920    0.0000 C   0  0  0  0  0  0  0  0  0  0  0  0
    5.0800    4.1920    0.0000 C   0  0  0  0  0  0  0  0  0  0  0  0
    5.8300    5.4910    0.0000 C   0  0  0  0  0  0  0  0  0  0  0  0
    7.3300    5.4910    0.0000 N   0  0  0  0  0  0  0  0  0  0  0  0
    5.0800    6.7900    0.0000 C   0  0  0  0  0  0  0  0  0  0  0  0
    3.5800    6.7900    0.0000 C   0  0  0  0  0  0  0  0  0  0  0  0
   -0.9200    4.1920    0.0000 C   0  0  0  0  0  0  0  0  0  0  0  0
   -1.6700    5.4910    0.0000 C   0  0  0  0  0  0  0  0  0  0  0  0
  1  2  1  0  0  0  0
  1  3  1  0  0  0  0
  3  4  1  0  0  0  0
  3 22  2  0  0  0  0
  4  5  1  0  0  0  0
  4  7  2  0  0  0  0
  5  6  1  0  0  0  0
  7  8  1  0  0  0  0
  8  9  1  0  0  0  0
  8 21  2  0  0  0  0
  9 10  2  0  0  0  0
 10 11  1  0  0  0  0
 11 12  2  0  0  0  0
 12 13  1  0  0  0  0
 12 21  1  0  0  0  0
 13 14  1  0  0  0  0
 14 15  1  0  0  0  0
 14 20  2  0  0  0  0
 15 16  2  0  0  0  0
 16 17  1  0  0  0  0
 17 18  1  0  0  0  0
 17 19  2  0  0  0  0
 19 20  1  0  0  0  0
 21 22  1  0  0  0  0
M  END
>  <name>
O(C)c1c(OC)cc2nccc(Oc3ccc([N;amide])cc3)c2c1

>  <apo>
1

>  <freq>
1

>  <freq0>
0

>  <freq1>
1

>  <freqA>
0.99887151

>  <a_count>
38

$$$$

  MOE2015           2D

 20 20  0  0  1  0  0  0  0  0999 V2000
    3.5070    0.9400    0.0000 O   0  0  0  0  0  0  0  0  0  0  0  0
    2.2080    0.1900    0.0000 C   0  0  0  0  0  0  0  0  0  0  0  0
    0.9090    0.9400    0.0000 O   0  0  0  0  0  0  0  0  0  0  0  0
    2.2080   -1.3100    0.0000 C   0  0  0  0  0  0  0  0  0  0  0  0
    3.5070   -2.0600    0.0000 O   0  0  0  0  0  0  0  0  0  0  0  0
    3.5070   -3.5600    0.0000 C   0  0  1  0  0  0  0  0  0  0  0  0
    4.8060   -4.3100    0.0000 C   0  0  2  0  0  0  0  0  0  0  0  0
    4.8060   -5.8100    0.0000 O   0  0  0  0  0  0  0  0  0  0  0  0
    6.1050   -3.5600    0.0000 C   0  0  2  0  0  0  0  0  0  0  0  0
    6.1050   -2.0600    0.0000 O   0  0  0  0  0  0  0  0  0  0  0  0
    7.4040   -4.3100    0.0000 C   0  0  0  0  0  0  0  0  0  0  0  0
    8.7030   -3.5600    0.0000 O   0  0  0  0  0  0  0  0  0  0  0  0
    2.2080   -4.3100    0.0000 C   0  0  2  0  0  0  0  0  0  0  0  0
    2.2080   -5.8100    0.0000 N   0  0  0  0  0  0  0  0  0  0  0  0
    0.9090   -3.5600    0.0000 C   0  0  1  0  0  0  0  0  0  0  0  0
   -0.3900   -4.3100    0.0000 N   0  0  0  0  0  0  0  0  0  0  0  0
   -1.6890   -3.5600    0.0000 C   0  0  0  0  0  0  0  0  0  0  0  0
   -1.6890   -2.0600    0.0000 N   0  0  0  0  0  0  0  0  0  0  0  0
   -2.9880   -4.3100    0.0000 N   0  0  0  0  0  0  0  0  0  0  0  0
    0.9090   -2.0600    0.0000 C   0  0  0  0  0  0  0  0  0  0  0  0
  1  2  2  0  0  0  0
  2  3  1  0  0  0  0
  2  4  1  0  0  0  0
  4  5  1  0  0  0  0
  4 20  2  0  0  0  0
  6  5  1  1  0  0  0
  6  7  1  0  0  0  0
  6 13  1  0  0  0  0
  7  8  1  1  0  0  0
  7  9  1  0  0  0  0
  9 10  1  6  0  0  0
  9 11  1  0  0  0  0
 11 12  1  0  0  0  0
 13 14  1  6  0  0  0
 13 15  1  0  0  0  0
 15 16  1  1  0  0  0
 15 20  1  0  0  0  0
 16 17  2  0  0  0  0
 17 18  1  0  0  0  0
 17 19  1  0  0  0  0
M  END
>  <name>
O=C(O)C=1O[C@@H]([C@H](O)[C@H](O)CO)[C@H]([N;amide])[C@@H](/N=C(\N)/N)C=1

>  <apo>
1

>  <freq>
1

>  <freq0>
0

>  <freq1>
1

>  <freqA>
0.99887151

>  <a_count>
38

$$$$

  MOE2015           2D

 23 25  0  0  1  0  0  0  0  0999 V2000
    2.7870   -4.8270    0.0000 O   0  0  0  0  0  0  0  0  0  0  0  0
    3.5370   -3.5280    0.0000 C   0  0  0  0  0  0  0  0  0  0  0  0
    5.0370   -3.5280    0.0000 O   0  0  0  0  0  0  0  0  0  0  0  0
    5.7870   -4.8270    0.0000 C   0  0  0  0  0  0  0  0  0  0  0  0
    2.7870   -2.2290    0.0000 C   0  0  0  0  0  0  0  0  0  0  0  0
    3.5370   -0.9300    0.0000 C   0  0  0  0  0  0  0  0  0  0  0  0
    5.0370   -0.9300    0.0000 C   0  0  0  0  0  0  0  0  0  0  0  0
    2.7870    0.3690    0.0000 N   0  0  0  0  0  0  0  0  0  0  0  0
    1.2870    0.3690    0.0000 C   0  0  0  0  0  0  0  0  0  0  0  0
    0.5370    1.6680    0.0000 C   0  0  0  0  0  0  0  0  0  0  0  0
    0.5370   -0.9300    0.0000 C   0  0  0  0  0  0  0  0  0  0  0  0
   -0.9630   -0.9300    0.0000 C   0  0  0  0  0  0  0  0  0  0  0  0
   -1.7130    0.3690    0.0000 O   0  0  0  0  0  0  0  0  0  0  0  0
    1.2870   -2.2290    0.0000 C   0  0  3  0  0  0  0  0  0  0  0  0
    0.5370   -3.5280    0.0000 C   0  0  0  0  0  0  0  0  0  0  0  0
   -0.9630   -3.5280    0.0000 C   0  0  0  0  0  0  0  0  0  0  0  0
   -1.9670   -2.4130    0.0000 N   0  0  0  0  0  0  0  0  0  0  0  0
   -3.3370   -3.0230    0.0000 O   0  0  0  0  0  0  0  0  0  0  0  0
   -3.1800   -4.5150    0.0000 N   0  0  0  0  0  0  0  0  0  0  0  0
   -1.7130   -4.8270    0.0000 C   0  0  0  0  0  0  0  0  0  0  0  0
   -0.9630   -6.1260    0.0000 C   0  0  0  0  0  0  0  0  0  0  0  0
    0.5370   -6.1260    0.0000 C   0  0  0  0  0  0  0  0  0  0  0  0
    1.2870   -4.8270    0.0000 C   0  0  0  0  0  0  0  0  0  0  0  0
  1  2  2  0  0  0  0
  2  3  1  0  0  0  0
  2  5  1  0  0  0  0
  3  4  1  0  0  0  0
  5  6  2  0  0  0  0
  5 14  1  0  0  0  0
  6  7  1  0  0  0  0
  6  8  1  0  0  0  0
  8  9  1  0  0  0  0
  9 10  1  0  0  0  0
  9 11  2  0  0  0  0
 11 12  1  0  0  0  0
 11 14  1  0  0  0  0
 12 13  2  0  0  0  0
 14 15  1  0  0  0  0
 15 16  1  0  0  0  0
 15 23  2  0  0  0  0
 16 17  2  0  0  0  0
 16 20  1  0  0  0  0
 17 18  1  0  0  0  0
 18 19  1  0  0  0  0
 19 20  2  0  0  0  0
 20 21  1  0  0  0  0
 21 22  2  0  0  0  0
 22 23  1  0  0  0  0
M  END
>  <name>
O=C(OC)C1=C(C)NC(C)=C([C;ester]=O)C1c1c2nonc2ccc1

>  <apo>
1

>  <freq>
1

>  <freq0>
0

>  <freq1>
1

>  <freqA>
0.99887151

>  <a_count>
38

$$$$

  MOE2015           2D

 22 25  0  0  1  0  0  0  0  0999 V2000
   11.0440    1.8150    0.0000 O   0  0  0  0  0  0  0  0  0  0  0  0
    9.6230    1.3350    0.0000 C   0  0  0  0  0  0  0  0  0  0  0  0
    8.4970    2.3260    0.0000 O   0  0  0  0  0  0  0  0  0  0  0  0
    7.0760    1.8460    0.0000 C   0  0  0  0  0  0  0  0  0  0  0  0
    5.9500    2.8360    0.0000 C   0  0  2  0  0  0  0  0  0  0  0  0
    6.0890    4.3300    0.0000 C   0  0  1  0  0  0  0  0  0  0  0  0
    4.7120    4.9240    0.0000 N   0  0  0  0  0  0  0  0  0  0  0  0
    3.7210    3.7980    0.0000 C   0  0  0  0  0  0  0  0  0  0  0  0
    2.2210    3.7800    0.0000 C   0  0  0  0  0  0  0  0  0  0  0  0
    1.4560    5.0710    0.0000 O   0  0  0  0  0  0  0  0  0  0  0  0
    1.4860    2.4730    0.0000 C   0  0  0  0  0  0  0  0  0  0  0  0
   -0.0130    2.4550    0.0000 C   0  0  0  0  0  0  0  0  0  0  0  0
    2.2510    1.1830    0.0000 C   0  0  0  0  0  0  0  0  0  0  0  0
    1.5160   -0.1250    0.0000 N   0  0  0  0  0  0  0  0  0  0  0  0
    3.7510    1.2000    0.0000 C   0  0  0  0  0  0  0  0  0  0  0  0
    4.5160   -0.0900    0.0000 O   0  0  0  0  0  0  0  0  0  0  0  0
    4.4860    2.5070    0.0000 C   0  0  0  0  0  0  0  0  0  0  0  0
    4.8510    6.4170    0.0000 C   0  0  0  0  0  0  0  0  0  0  0  0
    6.3150    6.7460    0.0000 C   0  0  2  0  0  0  0  0  0  0  0  0
    7.8150    6.7640    0.0000 N   0  0  0  0  0  0  0  0  0  0  0  0
    7.0800    5.4560    0.0000 C   0  0  2  0  0  0  0  0  0  0  0  0
    9.3280   -0.1360    0.0000 N   0  0  0  0  0  0  0  0  0  0  0  0
  1  2  2  0  0  0  0
  2  3  1  0  0  0  0
  2 22  1  0  0  0  0
  3  4  1  0  0  0  0
  5  4  1  1  0  0  0
  5  6  1  0  0  0  0
  5 17  1  0  0  0  0
  6  7  1  1  0  0  0
  6 21  1  0  0  0  0
  7  8  1  0  0  0  0
  7 18  1  0  0  0  0
  8  9  1  0  0  0  0
  8 17  2  0  0  0  0
  9 10  2  0  0  0  0
  9 11  1  0  0  0  0
 11 12  1  0  0  0  0
 11 13  2  0  0  0  0
 13 14  1  0  0  0  0
 13 15  1  0  0  0  0
 15 16  2  0  0  0  0
 15 17  1  0  0  0  0
 19 18  1  6  0  0  0
 19 20  1  0  0  0  0
 19 21  1  0  0  0  0
 21 20  1  6  0  0  0
M  END
>  <name>
O=C(OC[C@@H]1[C@H;ether]2N(C=3C(=O)C(C)=C(N)C(=O)C1=3)C[C@@H]1N[C@H]21)N

>  <apo>
1

>  <freq>
1

>  <freq0>
0

>  <freq1>
1

>  <freqA>
0.99887151

>  <a_count>
38

$$$$

  MOE2015           2D

 22 24  0  0  1  0  0  0  0  0999 V2000
    1.1310    5.9820    0.0000 O   0  0  0  0  0  0  0  0  0  0  0  0
   -0.1680    5.2320    0.0000 C   0  0  0  0  0  0  0  0  0  0  0  0
   -1.4670    5.9820    0.0000 O   0  5  0  0  0  0  0  0  0  0  0  0
   -0.1680    3.7320    0.0000 C   0  0  0  0  0  0  0  0  0  0  0  0
    1.1310    2.9820    0.0000 C   0  0  0  0  0  0  0  0  0  0  0  0
    2.4300    3.7320    0.0000 C   0  0  0  0  0  0  0  0  0  0  0  0
    3.7290    2.9820    0.0000 N   0  3  0  0  0  0  0  0  0  0  0  0
    5.1000    3.5920    0.0000 N   0  0  0  0  0  0  0  0  0  0  0  0
    5.4120    5.0590    0.0000 C   0  0  0  0  0  0  0  0  0  0  0  0
    6.1030    2.4770    0.0000 C   0  0  0  0  0  0  0  0  0  0  0  0
    7.5950    2.6340    0.0000 N   0  0  0  0  0  0  0  0  0  0  0  0
    5.3530    1.1780    0.0000 C   0  0  0  0  0  0  0  0  0  0  0  0
    5.9640   -0.1920    0.0000 N   0  0  0  0  0  0  0  0  0  0  0  0
    3.8860    1.4900    0.0000 C   0  0  0  0  0  0  0  0  0  0  0  0
    1.1310    1.4820    0.0000 C   0  0  0  0  0  0  0  0  0  0  0  0
   -0.1680    0.7320    0.0000 S   0  0  0  0  0  0  0  0  0  0  0  0
   -1.4670    1.4820    0.0000 C   0  0  2  0  0  0  0  0  0  0  0  0
   -2.9670    1.4820    0.0000 C   0  0  2  0  0  0  0  0  0  0  0  0
   -4.0270    0.4210    0.0000 N   0  0  0  0  0  0  0  0  0  0  0  0
   -2.9670    2.9820    0.0000 C   0  0  0  0  0  0  0  0  0  0  0  0
   -4.0270    4.0420    0.0000 O   0  0  0  0  0  0  0  0  0  0  0  0
   -1.4670    2.9820    0.0000 N   0  0  0  0  0  0  0  0  0  0  0  0
  1  2  2  0  0  0  0
  2  3  1  0  0  0  0
  2  4  1  0  0  0  0
  4  5  2  0  0  0  0
  4 22  1  0  0  0  0
  5  6  1  0  0  0  0
  5 15  1  0  0  0  0
  6  7  1  0  0  0  0
  7  8  1  0  0  0  0
  7 14  2  0  0  0  0
  8  9  1  0  0  0  0
  8 10  1  0  0  0  0
 10 11  1  0  0  0  0
 10 12  2  0  0  0  0
 12 13  1  0  0  0  0
 12 14  1  0  0  0  0
 15 16  1  0  0  0  0
 17 16  1  6  0  0  0
 17 18  1  0  0  0  0
 17 22  1  0  0  0  0
 18 19  1  6  0  0  0
 18 20  1  0  0  0  0
 20 21  2  0  0  0  0
 20 22  1  0  0  0  0
M  CHG  1   3  -1
M  CHG  1   7   1
M  END
>  <name>
O=C([O-])C1=C(C[n+]2n(C)c(N)c([N;urea])c2)CS[C@@H]2[C@H]([N;amide])C(=O)N12

>  <apo>
2

>  <freq>
1

>  <freq0>
0

>  <freq1>
1

>  <freqA>
0.99887151

>  <a_count>
38

$$$$

  MOE2015           2D

 21 23  0  0  1  0  0  0  0  0999 V2000
    4.6620    6.4800    0.0000 O   0  0  0  0  0  0  0  0  0  0  0  0
    5.1390    5.0570    0.0000 C   0  0  0  0  0  0  0  0  0  0  0  0
    4.2690    3.8360    0.0000 N   0  0  0  0  0  0  0  0  0  0  0  0
    2.7690    3.8220    0.0000 C   0  0  0  0  0  0  0  0  0  0  0  0
    2.0070    5.1140    0.0000 C   0  0  0  0  0  0  0  0  0  0  0  0
    0.5070    5.1000    0.0000 C   0  0  0  0  0  0  0  0  0  0  0  0
   -0.2310    3.7950    0.0000 C   0  0  0  0  0  0  0  0  0  0  0  0
   -1.7310    3.7810    0.0000 N   0  0  0  0  0  0  0  0  0  0  0  0
   -2.4690    2.4750    0.0000 C   0  0  0  0  0  0  0  0  0  0  0  0
   -1.7070    1.1830    0.0000 O   0  0  0  0  0  0  0  0  0  0  0  0
   -3.9690    2.4610    0.0000 C   0  0  0  0  0  0  0  0  0  0  0  0
   -4.7310    3.7530    0.0000 O   0  0  0  0  0  0  0  0  0  0  0  0
   -3.9930    5.0590    0.0000 C   0  0  0  0  0  0  0  0  0  0  0  0
   -2.4930    5.0730    0.0000 C   0  0  0  0  0  0  0  0  0  0  0  0
    0.5310    2.5020    0.0000 C   0  0  0  0  0  0  0  0  0  0  0  0
    2.0310    2.5160    0.0000 C   0  0  0  0  0  0  0  0  0  0  0  0
    5.1610    2.6300    0.0000 C   0  0  0  0  0  0  0  0  0  0  0  0
    6.5840    3.1070    0.0000 C   0  0  2  0  0  0  0  0  0  0  0  0
    7.8050    2.2360    0.0000 C   0  0  0  0  0  0  0  0  0  0  0  0
    9.1700    2.8590    0.0000 N   0  0  0  0  0  0  0  0  0  0  0  0
    6.5700    4.6070    0.0000 O   0  0  0  0  0  0  0  0  0  0  0  0
  1  2  2  0  0  0  0
  2  3  1  0  0  0  0
  2 21  1  0  0  0  0
  3  4  1  0  0  0  0
  3 17  1  0  0  0  0
  4  5  1  0  0  0  0
  4 16  2  0  0  0  0
  5  6  2  0  0  0  0
  6  7  1  0  0  0  0
  7  8  1  0  0  0  0
  7 15  2  0  0  0  0
  8  9  1  0  0  0  0
  8 14  1  0  0  0  0
  9 10  2  0  0  0  0
  9 11  1  0  0  0  0
 11 12  1  0  0  0  0
 12 13  1  0  0  0  0
 13 14  1  0  0  0  0
 15 16  1  0  0  0  0
 17 18  1  0  0  0  0
 18 19  1  1  0  0  0
 18 21  1  0  0  0  0
 19 20  1  0  0  0  0
M  END
>  <name>
O=C1N(c2ccc(N3C(=O)COCC3)cc2)C[C@H](C[N;amide])O1

>  <apo>
1

>  <freq>
1

>  <freq0>
0

>  <freq1>
1

>  <freqA>
0.99887151

>  <a_count>
38

$$$$

  MOE2015           2D

 18 20  0  0  1  0  0  0  0  0999 V2000
   11.2730   -3.6320    0.0000 O   0  0  0  0  0  0  0  0  0  0  0  0
   10.0550   -2.7560    0.0000 C   0  0  0  0  0  0  0  0  0  0  0  0
    8.6310   -3.2270    0.0000 N   0  0  0  0  0  0  0  0  0  0  0  0
    7.7430   -2.0180    0.0000 C   0  0  1  0  0  0  0  0  0  0  0  0
    7.0000   -3.3210    0.0000 C   0  0  0  0  0  0  0  0  0  0  0  0
    5.5000   -3.3280    0.0000 N   0  0  0  0  0  0  0  0  0  0  0  0
    4.7430   -2.0330    0.0000 C   0  0  2  0  0  0  0  0  0  0  0  0
    3.4480   -2.7890    0.0000 C   0  0  0  0  0  0  0  0  0  0  0  0
    3.4410   -1.2890    0.0000 C   0  0  0  0  0  0  0  0  0  0  0  0
    3.4330    0.2110    0.0000 C   0  0  0  0  0  0  0  0  0  0  0  0
    2.1300    0.9540    0.0000 C   0  0  0  0  0  0  0  0  0  0  0  0
    0.8350    0.1980    0.0000 C   0  0  0  0  0  0  0  0  0  0  0  0
    0.8430   -1.3020    0.0000 C   0  0  0  0  0  0  0  0  0  0  0  0
    2.1450   -2.0460    0.0000 C   0  0  0  0  0  0  0  0  0  0  0  0
    5.4870   -0.7300    0.0000 C   0  0  0  0  0  0  0  0  0  0  0  0
    6.9870   -0.7220    0.0000 C   0  0  0  0  0  0  0  0  0  0  0  0
    8.6190   -0.8000    0.0000 C   0  0  0  0  0  0  0  0  0  0  0  0
   10.0480   -1.2560    0.0000 C   0  0  0  0  0  0  0  0  0  0  0  0
  1  2  2  0  0  0  0
  2  3  1  0  0  0  0
  2 18  1  0  0  0  0
  4  3  1  1  0  0  0
  4  5  1  0  0  0  0
  4 16  1  0  0  0  0
  4 17  1  6  0  0  0
  5  6  1  0  0  0  0
  6  7  1  0  0  0  0
  7  8  1  1  0  0  0
  7  9  1  6  0  0  0
  7 15  1  0  0  0  0
  9 10  1  0  0  0  0
  9 14  2  0  0  0  0
 10 11  2  0  0  0  0
 11 12  1  0  0  0  0
 12 13  2  0  0  0  0
 13 14  1  0  0  0  0
 15 16  1  0  0  0  0
 17 18  1  0  0  0  0
M  END
>  <name>
O=C1N[C@]2(CN[C@]([C;ether])(c3ccccc3)CC2)CC1

>  <apo>
1

>  <freq>
1

>  <freq0>
0

>  <freq1>
1

>  <freqA>
0.99887151

>  <a_count>
38

$$$$

  MOE2015           2D

 20 23  0  0  1  0  0  0  0  0999 V2000
   11.0920   -3.4520    0.0000 O   0  0  0  0  0  0  0  0  0  0  0  0
    9.7970   -4.2070    0.0000 C   0  0  0  0  0  0  0  0  0  0  0  0
    8.4940   -3.4630    0.0000 C   0  0  2  0  0  0  0  0  0  0  0  0
    7.1990   -4.2180    0.0000 C   0  0  0  0  0  0  0  0  0  0  0  0
    5.8880   -3.4420    0.0000 C   0  0  0  0  0  0  0  0  0  0  0  0
    5.8980   -1.9780    0.0000 C   0  0  2  0  0  0  0  0  0  0  0  0
    7.1860   -1.2180    0.0000 N   0  0  0  0  0  0  0  0  0  0  0  0
    7.1760    0.2820    0.0000 C   0  0  0  0  0  0  0  0  0  0  0  0
    8.4880   -1.9630    0.0000 C   0  0  0  0  0  0  0  0  0  0  0  0
    4.6280   -1.2400    0.0000 C   0  0  0  0  0  0  0  0  0  0  0  0
    3.3500   -1.9730    0.0000 C   0  0  0  0  0  0  0  0  0  0  0  0
    3.3510   -3.4410    0.0000 C   0  0  0  0  0  0  0  0  0  0  0  0
    2.0770   -4.1720    0.0000 C   0  0  0  0  0  0  0  0  0  0  0  0
    0.9510   -3.1860    0.0000 N   0  0  0  0  0  0  0  0  0  0  0  0
   -0.5300   -3.4260    0.0000 C   0  0  0  0  0  0  0  0  0  0  0  0
    1.8940   -1.5760    0.0000 C   0  0  0  0  0  0  0  0  0  0  0  0
    2.0770   -5.6360    0.0000 C   0  0  0  0  0  0  0  0  0  0  0  0
    3.3470   -6.3710    0.0000 C   0  0  0  0  0  0  0  0  0  0  0  0
    4.6130   -5.6390    0.0000 C   0  0  0  0  0  0  0  0  0  0  0  0
    4.6220   -4.1740    0.0000 C   0  0  0  0  0  0  0  0  0  0  0  0
  1  2  2  0  0  0  0
  3  2  1  6  0  0  0
  3  4  1  0  0  0  0
  3  9  1  0  0  0  0
  4  5  2  0  0  0  0
  6  5  1  1  0  0  0
  5 20  1  0  0  0  0
  6  7  1  0  0  0  0
  6 10  1  0  0  0  0
  7  8  1  0  0  0  0
  7  9  1  0  0  0  0
 10 11  1  0  0  0  0
 11 12  1  0  0  0  0
 11 16  2  0  0  0  0
 12 13  2  0  0  0  0
 12 20  1  0  0  0  0
 13 14  1  0  0  0  0
 13 17  1  0  0  0  0
 14 15  1  0  0  0  0
 14 16  1  0  0  0  0
 17 18  2  0  0  0  0
 18 19  1  0  0  0  0
 19 20  2  0  0  0  0
M  END
>  <name>
O=[C;amide][C@@H]1C=C2[C@H](N(C)C1)Cc1c3c(n(C)c1)cccc23

>  <apo>
1

>  <freq>
1

>  <freq0>
0

>  <freq1>
1

>  <freqA>
0.99887151

>  <a_count>
38

$$$$

  MOE2015           2D

 23 27  0  0  1  0  0  0  0  0999 V2000
   -0.9580   -1.5240    0.0000 C   0  0  2  0  0  0  0  0  0  0  0  0
   -2.2710   -2.2490    0.0000 C   0  0  0  0  0  0  0  0  0  0  0  0
   -2.3000   -3.7480    0.0000 C   0  0  0  0  0  0  0  0  0  0  0  0
   -3.6130   -4.4730    0.0000 C   0  0  0  0  0  0  0  0  0  0  0  0
   -4.8980   -3.6980    0.0000 C   0  0  0  0  0  0  0  0  0  0  0  0
   -4.8690   -2.1980    0.0000 C   0  0  0  0  0  0  0  0  0  0  0  0
   -3.5550   -1.4740    0.0000 C   0  0  0  0  0  0  0  0  0  0  0  0
    0.3260   -2.2990    0.0000 O   0  0  0  0  0  0  0  0  0  0  0  0
    1.6400   -1.5740    0.0000 C   0  0  0  0  0  0  0  0  0  0  0  0
    1.6690   -0.0740    0.0000 C   0  0  0  0  0  0  0  0  0  0  0  0
    0.3840    0.7010    0.0000 C   0  0  0  0  0  0  0  0  0  0  0  0
   -0.9290   -0.0240    0.0000 N   0  0  0  0  0  0  0  0  0  0  0  0
   -2.0240    1.0010    0.0000 C   0  0  0  0  0  0  0  0  0  0  0  0
   -1.3880    2.3590    0.0000 C   0  0  0  0  0  0  0  0  0  0  0  0
    0.1010    2.1740    0.0000 C   0  0  0  0  0  0  0  0  0  0  0  0
   -2.2460    3.5900    0.0000 C   0  0  0  0  0  0  0  0  0  0  0  0
   -3.7400    3.4620    0.0000 C   0  0  0  0  0  0  0  0  0  0  0  0
   -4.3770    2.1030    0.0000 C   0  0  0  0  0  0  0  0  0  0  0  0
   -3.5190    0.8730    0.0000 C   0  0  0  0  0  0  0  0  0  0  0  0
    2.9820    0.6510    0.0000 C   0  0  0  0  0  0  0  0  0  0  0  0
    4.2660   -0.1240    0.0000 C   0  0  0  0  0  0  0  0  0  0  0  0
    4.2370   -1.6240    0.0000 C   0  0  0  0  0  0  0  0  0  0  0  0
    2.9240   -2.3490    0.0000 C   0  0  0  0  0  0  0  0  0  0  0  0
  1  2  1  1  0  0  0
  1  8  1  0  0  0  0
  1 12  1  0  0  0  0
  2  3  1  0  0  0  0
  2  7  2  0  0  0  0
  3  4  2  0  0  0  0
  4  5  1  0  0  0  0
  5  6  2  0  0  0  0
  6  7  1  0  0  0  0
  8  9  1  0  0  0  0
  9 10  2  0  0  0  0
  9 23  1  0  0  0  0
 10 11  1  0  0  0  0
 10 20  1  0  0  0  0
 11 12  1  0  0  0  0
 11 15  2  0  0  0  0
 12 13  1  0  0  0  0
 13 14  2  0  0  0  0
 13 19  1  0  0  0  0
 14 15  1  0  0  0  0
 14 16  1  0  0  0  0
 16 17  2  0  0  0  0
 17 18  1  0  0  0  0
 18 19  2  0  0  0  0
 20 21  2  0  0  0  0
 21 22  1  0  0  0  0
 22 23  2  0  0  0  0
M  END
>  <name>
[C@@H]1(c2ccccc2)Oc2c(-c3n1c1c(c3)c[c;biphenyl]cc1)cc[c;biphenyl]c2

>  <apo>
2

>  <freq>
1

>  <freq0>
0

>  <freq1>
1

>  <freqA>
0.99887151

>  <a_count>
38

$$$$

  MOE2015           2D

 16 17  0  0  1  0  0  0  0  0999 V2000
    5.1230   -5.1230    0.0000 N   0  0  0  0  0  0  0  0  0  0  0  0
    5.1230   -3.6230    0.0000 C   0  0  0  0  0  0  0  0  0  0  0  0
    3.8240   -2.8730    0.0000 C   0  0  0  0  0  0  0  0  0  0  0  0
    2.5250   -3.6230    0.0000 C   0  0  0  0  0  0  0  0  0  0  0  0
    1.2250   -2.8730    0.0000 C   0  0  0  0  0  0  0  0  0  0  0  0
   -0.0740   -3.6230    0.0000 C   0  0  3  0  0  0  0  0  0  0  0  0
   -1.3730   -2.8730    0.0000 N   0  0  0  0  0  0  0  0  0  0  0  0
   -1.3730   -1.3730    0.0000 C   0  0  0  0  0  0  0  0  0  0  0  0
   -2.6720   -3.6230    0.0000 C   0  0  0  0  0  0  0  0  0  0  0  0
   -2.6720   -5.1230    0.0000 C   0  0  0  0  0  0  0  0  0  0  0  0
   -1.3730   -5.8730    0.0000 C   0  0  0  0  0  0  0  0  0  0  0  0
   -0.0740   -5.1230    0.0000 C   0  0  0  0  0  0  0  0  0  0  0  0
    3.8240   -1.3730    0.0000 C   0  0  0  0  0  0  0  0  0  0  0  0
    5.1230   -0.6230    0.0000 C   0  0  0  0  0  0  0  0  0  0  0  0
    6.4220   -1.3730    0.0000 C   0  0  0  0  0  0  0  0  0  0  0  0
    6.4220   -2.8730    0.0000 C   0  0  0  0  0  0  0  0  0  0  0  0
  1  2  1  0  0  0  0
  2  3  1  0  0  0  0
  2 16  2  0  0  0  0
  3  4  1  0  0  0  0
  3 13  2  0  0  0  0
  4  5  1  0  0  0  0
  5  6  1  0  0  0  0
  6  7  1  0  0  0  0
  6 12  1  0  0  0  0
  7  8  1  0  0  0  0
  7  9  1  0  0  0  0
  9 10  1  0  0  0  0
 10 11  1  0  0  0  0
 11 12  1  0  0  0  0
 13 14  1  0  0  0  0
 14 15  2  0  0  0  0
 15 16  1  0  0  0  0
M  END
>  <name>
[N;amide]c1c(CCC2N(C)CCCC2)cccc1

>  <apo>
1

>  <freq>
1

>  <freq0>
0

>  <freq1>
1

>  <freqA>
0.99887151

>  <a_count>
38

$$$$

  MOE2015           2D

 21 23  0  0  0  0  0  0  0  0999 V2000
   -0.3040   -1.1330    0.0000 N   0  0  0  0  0  0  0  0  0  0  0  0
    0.9960   -1.8830    0.0000 C   0  0  0  0  0  0  0  0  0  0  0  0
    2.2950   -1.1330    0.0000 C   0  0  0  0  0  0  0  0  0  0  0  0
    3.5940   -1.8830    0.0000 N   0  0  0  0  0  0  0  0  0  0  0  0
    4.8930   -1.1330    0.0000 C   0  0  0  0  0  0  0  0  0  0  0  0
    6.1920   -1.8830    0.0000 N   0  0  0  0  0  0  0  0  0  0  0  0
    4.8930    0.3670    0.0000 C   0  0  0  0  0  0  0  0  0  0  0  0
    3.5940    1.1170    0.0000 C   0  0  0  0  0  0  0  0  0  0  0  0
    2.2950    0.3670    0.0000 C   0  0  0  0  0  0  0  0  0  0  0  0
   -1.6030   -1.8830    0.0000 C   0  0  0  0  0  0  0  0  0  0  0  0
   -2.9020   -1.1330    0.0000 C   0  0  0  0  0  0  0  0  0  0  0  0
   -2.9020    0.3670    0.0000 C   0  0  0  0  0  0  0  0  0  0  0  0
   -4.2010    1.1170    0.0000 C   0  0  0  0  0  0  0  0  0  0  0  0
   -5.5000    0.3670    0.0000 C   0  0  0  0  0  0  0  0  0  0  0  0
   -6.7990    1.1170    0.0000 N   0  0  0  0  0  0  0  0  0  0  0  0
   -8.1690    0.5070    0.0000 N   0  0  0  0  0  0  0  0  0  0  0  0
   -9.1730    1.6220    0.0000 C   0  0  0  0  0  0  0  0  0  0  0  0
   -8.4230    2.9210    0.0000 C   0  0  0  0  0  0  0  0  0  0  0  0
   -6.9560    2.6090    0.0000 C   0  0  0  0  0  0  0  0  0  0  0  0
   -5.5000   -1.1330    0.0000 C   0  0  0  0  0  0  0  0  0  0  0  0
   -4.2010   -1.8830    0.0000 C   0  0  0  0  0  0  0  0  0  0  0  0
  1  2  1  0  0  0  0
  1 10  1  0  0  0  0
  2  3  1  0  0  0  0
  3  4  1  0  0  0  0
  3  9  2  0  0  0  0
  4  5  2  0  0  0  0
  5  6  1  0  0  0  0
  5  7  1  0  0  0  0
  7  8  2  0  0  0  0
  8  9  1  0  0  0  0
 10 11  1  0  0  0  0
 11 12  1  0  0  0  0
 11 21  2  0  0  0  0
 12 13  2  0  0  0  0
 13 14  1  0  0  0  0
 14 15  1  0  0  0  0
 14 20  2  0  0  0  0
 15 16  1  0  0  0  0
 15 19  1  0  0  0  0
 16 17  2  0  0  0  0
 17 18  1  0  0  0  0
 18 19  2  0  0  0  0
 20 21  1  0  0  0  0
M  END
>  <name>
[N;so2amide](Cc1nc([N;amine])ccc1)Cc1ccc(-n2nccc2)cc1

>  <apo>
2

>  <freq>
1

>  <freq0>
0

>  <freq1>
1

>  <freqA>
0.99887151

>  <a_count>
38

$$$$

  MOE2015           2D

 18 19  0  0  1  0  0  0  0  0999 V2000
    1.2540   -0.8910    0.0000 O   0  0  0  0  0  0  0  0  0  0  0  0
    0.5040    0.4080    0.0000 C   0  0  2  0  0  0  0  0  0  0  0  0
   -0.2460    1.7080    0.0000 C   0  0  0  0  0  0  0  0  0  0  0  0
    0.5040    3.0070    0.0000 C   0  0  0  0  0  0  0  0  0  0  0  0
   -1.7460    1.7080    0.0000 C   0  0  0  0  0  0  0  0  0  0  0  0
    1.8030    1.1580    0.0000 C   0  0  0  0  0  0  0  0  0  0  0  0
    3.1020    0.4080    0.0000 C   0  0  0  0  0  0  0  0  0  0  0  0
    3.1020   -1.0920    0.0000 C   0  0  0  0  0  0  0  0  0  0  0  0
    4.4010   -1.8420    0.0000 C   0  0  0  0  0  0  0  0  0  0  0  0
    5.7000   -1.0920    0.0000 C   0  0  0  0  0  0  0  0  0  0  0  0
    5.7000    0.4080    0.0000 C   0  0  0  0  0  0  0  0  0  0  0  0
    4.4010    1.1580    0.0000 C   0  0  0  0  0  0  0  0  0  0  0  0
   -0.7950   -0.3420    0.0000 C   0  0  0  0  0  0  0  0  0  0  0  0
   -0.7950   -1.8420    0.0000 C   0  0  0  0  0  0  0  0  0  0  0  0
   -2.0940   -2.5920    0.0000 C   0  0  0  0  0  0  0  0  0  0  0  0
   -3.3930   -1.8420    0.0000 C   0  0  0  0  0  0  0  0  0  0  0  0
   -3.3930   -0.3420    0.0000 C   0  0  0  0  0  0  0  0  0  0  0  0
   -2.0940    0.4080    0.0000 C   0  0  0  0  0  0  0  0  0  0  0  0
  2  1  1  6  0  0  0
  2  3  1  0  0  0  0
  2  6  1  0  0  0  0
  2 13  1  1  0  0  0
  3  4  1  0  0  0  0
  3  5  1  0  0  0  0
  6  7  1  0  0  0  0
  7  8  1  0  0  0  0
  7 12  2  0  0  0  0
  8  9  2  0  0  0  0
  9 10  1  0  0  0  0
 10 11  2  0  0  0  0
 11 12  1  0  0  0  0
 13 14  1  0  0  0  0
 13 18  2  0  0  0  0
 14 15  2  0  0  0  0
 15 16  1  0  0  0  0
 16 17  2  0  0  0  0
 17 18  1  0  0  0  0
M  END
>  <name>
[O;ester][C@](C([C;amine])C)(Cc1ccccc1)c1ccccc1

>  <apo>
2

>  <freq>
1

>  <freq0>
0

>  <freq1>
1

>  <freqA>
0.99887151

>  <a_count>
38

$$$$

  MOE2015           2D

 23 25  0  0  0  0  0  0  0  0999 V2000
   -0.5690   -0.5690    0.0000 S   0  0  0  0  0  0  0  0  0  0  0  0
   -0.5690   -2.0690    0.0000 O   0  0  0  0  0  0  0  0  0  0  0  0
   -1.8680    0.1810    0.0000 C   0  0  0  0  0  0  0  0  0  0  0  0
   -3.1670   -0.5690    0.0000 C   0  0  0  0  0  0  0  0  0  0  0  0
   -4.4660    0.1810    0.0000 C   0  0  0  0  0  0  0  0  0  0  0  0
   -4.4660    1.6810    0.0000 O   0  0  0  0  0  0  0  0  0  0  0  0
   -5.7650    2.4310    0.0000 C   0  0  0  0  0  0  0  0  0  0  0  0
   -5.7650   -0.5690    0.0000 C   0  0  0  0  0  0  0  0  0  0  0  0
   -7.0640    0.1810    0.0000 O   0  0  0  0  0  0  0  0  0  0  0  0
   -8.3630   -0.5690    0.0000 C   0  0  0  0  0  0  0  0  0  0  0  0
   -5.7650   -2.0690    0.0000 C   0  0  0  0  0  0  0  0  0  0  0  0
   -4.4660   -2.8190    0.0000 C   0  0  0  0  0  0  0  0  0  0  0  0
   -3.1670   -2.0690    0.0000 N   0  0  0  0  0  0  0  0  0  0  0  0
    0.7300    0.1810    0.0000 C   0  0  0  0  0  0  0  0  0  0  0  0
    2.1010   -0.4290    0.0000 N   0  0  0  0  0  0  0  0  0  0  0  0
    3.1040    0.6860    0.0000 C   0  0  0  0  0  0  0  0  0  0  0  0
    2.3540    1.9850    0.0000 C   0  0  0  0  0  0  0  0  0  0  0  0
    0.8870    1.6730    0.0000 N   0  0  0  0  0  0  0  0  0  0  0  0
    3.1040    3.2840    0.0000 C   0  0  0  0  0  0  0  0  0  0  0  0
    4.6040    3.2840    0.0000 C   0  0  0  0  0  0  0  0  0  0  0  0
    5.3540    1.9850    0.0000 C   0  0  0  0  0  0  0  0  0  0  0  0
    6.8540    1.9850    0.0000 O   0  0  0  0  0  0  0  0  0  0  0  0
    4.6040    0.6860    0.0000 C   0  0  0  0  0  0  0  0  0  0  0  0
  1  2  2  0  0  0  0
  1  3  1  0  0  0  0
  1 14  1  0  0  0  0
  3  4  1  0  0  0  0
  4  5  1  0  0  0  0
  4 13  2  0  0  0  0
  5  6  1  0  0  0  0
  5  8  2  0  0  0  0
  6  7  1  0  0  0  0
  8  9  1  0  0  0  0
  8 11  1  0  0  0  0
  9 10  1  0  0  0  0
 11 12  2  0  0  0  0
 12 13  1  0  0  0  0
 14 15  1  0  0  0  0
 14 18  2  0  0  0  0
 15 16  1  0  0  0  0
 16 17  1  0  0  0  0
 16 23  2  0  0  0  0
 17 18  1  0  0  0  0
 17 19  2  0  0  0  0
 19 20  1  0  0  0  0
 20 21  2  0  0  0  0
 21 22  1  0  0  0  0
 21 23  1  0  0  0  0
M  END
>  <name>
[SH0](=O)(Cc1c(OC)c(OC)ccn1)c1[nH]c2c(n1)ccc([O;ether])c2

>  <apo>
1

>  <freq>
1

>  <freq0>
0

>  <freq1>
1

>  <freqA>
0.99887151

>  <a_count>
38

$$$$

  MOE2015           2D

 13 14  0  0  1  0  0  0  0  0999 V2000
    0.3230   -2.1070    0.0000 C   0  0  0  0  0  0  0  0  0  0  0  0
    1.7540   -1.6580    0.0000 C   0  0  0  0  0  0  0  0  0  0  0  0
   -0.0040   -3.5710    0.0000 C   0  0  0  0  0  0  0  0  0  0  0  0
   -0.7820   -1.0920    0.0000 C   0  0  2  0  0  0  0  0  0  0  0  0
   -2.2520   -1.3890    0.0000 C   0  0  1  0  0  0  0  0  0  0  0  0
   -1.4040   -2.6270    0.0000 C   0  0  0  0  0  0  0  0  0  0  0  0
   -2.9890   -0.0830    0.0000 C   0  0  2  0  0  0  0  0  0  0  0  0
   -1.9740    1.0220    0.0000 C   0  0  0  0  0  0  0  0  0  0  0  0
   -0.6100    0.3980    0.0000 C   0  0  0  0  0  0  0  0  0  0  0  0
   -4.4890   -0.0680    0.0000 C   0  0  0  0  0  0  0  0  0  0  0  0
   -5.2520   -1.3590    0.0000 C   0  0  0  0  0  0  0  0  0  0  0  0
   -4.5150   -2.6660    0.0000 C   0  0  0  0  0  0  0  0  0  0  0  0
   -3.0150   -2.6810    0.0000 C   0  0  0  0  0  0  0  0  0  0  0  0
  1  2  1  0  0  0  0
  1  3  1  0  0  0  0
  4  1  1  6  0  0  0
  4  5  1  0  0  0  0
  4  9  1  0  0  0  0
  5  6  1  1  0  0  0
  5  7  1  0  0  0  0
  5 13  1  0  0  0  0
  7  8  1  1  0  0  0
  7 10  1  0  0  0  0
  8  9  1  0  0  0  0
 10 11  1  0  0  0  0
 11 12  1  0  0  0  0
 12 13  1  0  0  0  0
M  END
>  <name>
C([C;olefin])(C)[C@@H]1[C@@]2(C)[C@H](CC1)[C;olefin]CCC2

>  <apo>
2

>  <freq>
1

>  <freq0>
0

>  <freq1>
1

>  <freqA>
0.99887151

>  <a_count>
37

$$$$

  MOE2015           2D

 22 24  0  0  0  0  0  0  0  0999 V2000
    2.9660   -1.7120    0.0000 Cl  0  0  0  0  0  0  0  0  0  0  0  0
    2.2160   -0.4130    0.0000 C   0  0  0  0  0  0  0  0  0  0  0  0
    2.9660    0.8860    0.0000 C   0  0  0  0  0  0  0  0  0  0  0  0
    4.4660    0.8860    0.0000 C   0  0  0  0  0  0  0  0  0  0  0  0
    5.2160   -0.4130    0.0000 C   0  0  0  0  0  0  0  0  0  0  0  0
    6.7160   -0.4130    0.0000 C   0  0  0  0  0  0  0  0  0  0  0  0
    7.4660    0.8860    0.0000 C   0  0  0  0  0  0  0  0  0  0  0  0
    8.9660    0.8860    0.0000 O   0  0  0  0  0  0  0  0  0  0  0  0
    6.7160    2.1850    0.0000 C   0  0  0  0  0  0  0  0  0  0  0  0
    5.2160    2.1850    0.0000 C   0  0  0  0  0  0  0  0  0  0  0  0
    2.2160    2.1850    0.0000 C   0  0  0  0  0  0  0  0  0  0  0  0
    2.9660    3.4840    0.0000 C   0  0  0  0  0  0  0  0  0  0  0  0
    2.2160    4.7830    0.0000 C   0  0  0  0  0  0  0  0  0  0  0  0
    0.7160    4.7830    0.0000 C   0  0  0  0  0  0  0  0  0  0  0  0
   -0.0340    3.4840    0.0000 C   0  0  0  0  0  0  0  0  0  0  0  0
    0.7160    2.1850    0.0000 C   0  0  0  0  0  0  0  0  0  0  0  0
    0.7160   -0.4130    0.0000 C   0  0  0  0  0  0  0  0  0  0  0  0
   -0.0340    0.8860    0.0000 C   0  0  0  0  0  0  0  0  0  0  0  0
   -1.5340    0.8860    0.0000 C   0  0  0  0  0  0  0  0  0  0  0  0
   -2.2840   -0.4130    0.0000 C   0  0  0  0  0  0  0  0  0  0  0  0
   -1.5340   -1.7120    0.0000 C   0  0  0  0  0  0  0  0  0  0  0  0
   -0.0340   -1.7120    0.0000 C   0  0  0  0  0  0  0  0  0  0  0  0
  1  2  1  0  0  0  0
  2  3  2  0  0  0  0
  2 17  1  0  0  0  0
  3  4  1  0  0  0  0
  3 11  1  0  0  0  0
  4  5  1  0  0  0  0
  4 10  2  0  0  0  0
  5  6  2  0  0  0  0
  6  7  1  0  0  0  0
  7  8  1  0  0  0  0
  7  9  2  0  0  0  0
  9 10  1  0  0  0  0
 11 12  1  0  0  0  0
 11 16  2  0  0  0  0
 12 13  2  0  0  0  0
 13 14  1  0  0  0  0
 14 15  2  0  0  0  0
 15 16  1  0  0  0  0
 17 18  1  0  0  0  0
 17 22  2  0  0  0  0
 18 19  2  0  0  0  0
 19 20  1  0  0  0  0
 20 21  2  0  0  0  0
 21 22  1  0  0  0  0
M  END
>  <name>
ClC(=C(c1ccc([O;ether])cc1)c1ccccc1)c1ccccc1

>  <apo>
1

>  <freq>
1

>  <freq0>
0

>  <freq1>
1

>  <freqA>
0.99887151

>  <a_count>
37

$$$$

  MOE2015           2D

 21 22  0  0  1  0  0  0  0  0999 V2000
   -1.0240   -1.2510    0.0000 Cl  0  0  0  0  0  0  0  0  0  0  0  0
    0.2750   -0.5010    0.0000 C   0  0  0  0  0  0  0  0  0  0  0  0
    1.5740   -1.2510    0.0000 C   0  0  0  0  0  0  0  0  0  0  0  0
    1.5740   -2.7510    0.0000 C   0  0  3  0  0  0  0  0  0  0  0  0
    2.8730   -3.5010    0.0000 C   0  0  0  0  0  0  0  0  0  0  0  0
    4.1720   -2.7510    0.0000 C   0  0  0  0  0  0  0  0  0  0  0  0
    4.1720   -1.2510    0.0000 O   0  0  0  0  0  0  0  0  0  0  0  0
    5.4710   -3.5010    0.0000 O   0  0  0  0  0  0  0  0  0  0  0  0
    6.7700   -2.7510    0.0000 C   0  0  0  0  0  0  0  0  0  0  0  0
    2.8730   -5.0010    0.0000 C   0  0  0  0  0  0  0  0  0  0  0  0
    4.1720   -5.7510    0.0000 C   0  0  0  0  0  0  0  0  0  0  0  0
    1.5740   -5.7510    0.0000 N   0  0  0  0  0  0  0  0  0  0  0  0
    0.2750   -5.0010    0.0000 C   0  0  0  0  0  0  0  0  0  0  0  0
   -1.0240   -5.7510    0.0000 C   0  0  0  0  0  0  0  0  0  0  0  0
    0.2750   -3.5010    0.0000 C   0  0  0  0  0  0  0  0  0  0  0  0
   -1.0240   -2.7510    0.0000 C   0  0  0  0  0  0  0  0  0  0  0  0
   -2.3230   -3.5010    0.0000 O   0  0  0  0  0  0  0  0  0  0  0  0
    2.8730   -0.5010    0.0000 C   0  0  0  0  0  0  0  0  0  0  0  0
    2.8730    0.9990    0.0000 C   0  0  0  0  0  0  0  0  0  0  0  0
    1.5740    1.7490    0.0000 C   0  0  0  0  0  0  0  0  0  0  0  0
    0.2750    0.9990    0.0000 C   0  0  0  0  0  0  0  0  0  0  0  0
  1  2  1  0  0  0  0
  2  3  1  0  0  0  0
  2 21  2  0  0  0  0
  3  4  1  0  0  0  0
  3 18  2  0  0  0  0
  4  5  1  0  0  0  0
  4 15  1  0  0  0  0
  5  6  1  0  0  0  0
  5 10  2  0  0  0  0
  6  7  2  0  0  0  0
  6  8  1  0  0  0  0
  8  9  1  0  0  0  0
 10 11  1  0  0  0  0
 10 12  1  0  0  0  0
 12 13  1  0  0  0  0
 13 14  1  0  0  0  0
 13 15  2  0  0  0  0
 15 16  1  0  0  0  0
 16 17  2  0  0  0  0
 18 19  1  0  0  0  0
 19 20  2  0  0  0  0
 20 21  1  0  0  0  0
M  END
>  <name>
Clc1c(C2C(C(=O)OC)=C(C)NC([C;ether])=C2[C;ester]=O)cccc1

>  <apo>
2

>  <freq>
1

>  <freq0>
0

>  <freq1>
1

>  <freqA>
0.99887151

>  <a_count>
37

$$$$

  MOE2015           2D

 21 22  0  0  1  0  0  0  0  0999 V2000
   -1.0240   -1.2510    0.0000 Cl  0  0  0  0  0  0  0  0  0  0  0  0
    0.2750   -0.5010    0.0000 C   0  0  0  0  0  0  0  0  0  0  0  0
    1.5740   -1.2510    0.0000 C   0  0  0  0  0  0  0  0  0  0  0  0
    1.5740   -2.7510    0.0000 C   0  0  2  0  0  0  0  0  0  0  0  0
    2.8730   -3.5010    0.0000 C   0  0  0  0  0  0  0  0  0  0  0  0
    4.1720   -2.7510    0.0000 C   0  0  0  0  0  0  0  0  0  0  0  0
    4.1720   -1.2510    0.0000 O   0  0  0  0  0  0  0  0  0  0  0  0
    5.4710   -3.5010    0.0000 O   0  0  0  0  0  0  0  0  0  0  0  0
    6.7700   -2.7510    0.0000 C   0  0  0  0  0  0  0  0  0  0  0  0
    2.8730   -5.0010    0.0000 C   0  0  0  0  0  0  0  0  0  0  0  0
    4.1720   -5.7510    0.0000 C   0  0  0  0  0  0  0  0  0  0  0  0
    1.5740   -5.7510    0.0000 N   0  0  0  0  0  0  0  0  0  0  0  0
    0.2750   -5.0010    0.0000 C   0  0  0  0  0  0  0  0  0  0  0  0
   -1.0240   -5.7510    0.0000 C   0  0  0  0  0  0  0  0  0  0  0  0
    0.2750   -3.5010    0.0000 C   0  0  0  0  0  0  0  0  0  0  0  0
   -1.0240   -2.7510    0.0000 C   0  0  0  0  0  0  0  0  0  0  0  0
   -2.3230   -3.5010    0.0000 O   0  0  0  0  0  0  0  0  0  0  0  0
    2.8730   -0.5010    0.0000 C   0  0  0  0  0  0  0  0  0  0  0  0
    2.8730    0.9990    0.0000 C   0  0  0  0  0  0  0  0  0  0  0  0
    1.5740    1.7490    0.0000 C   0  0  0  0  0  0  0  0  0  0  0  0
    0.2750    0.9990    0.0000 C   0  0  0  0  0  0  0  0  0  0  0  0
  1  2  1  0  0  0  0
  2  3  2  0  0  0  0
  2 21  1  0  0  0  0
  4  3  1  6  0  0  0
  3 18  1  0  0  0  0
  4  5  1  0  0  0  0
  4 15  1  0  0  0  0
  5  6  1  0  0  0  0
  5 10  2  0  0  0  0
  6  7  2  0  0  0  0
  6  8  1  0  0  0  0
  8  9  1  0  0  0  0
 10 11  1  0  0  0  0
 10 12  1  0  0  0  0
 12 13  1  0  0  0  0
 13 14  1  0  0  0  0
 13 15  2  0  0  0  0
 15 16  1  0  0  0  0
 16 17  2  0  0  0  0
 18 19  2  0  0  0  0
 19 20  1  0  0  0  0
 20 21  2  0  0  0  0
M  END
>  <name>
Clc1c([C@@H]2C(C(=O)OC)=C(C)NC([C;ether])=C2[C;ester]=O)cccc1

>  <apo>
2

>  <freq>
1

>  <freq0>
0

>  <freq1>
1

>  <freqA>
0.99887151

>  <a_count>
37

$$$$

  MOE2015           2D

 24 26  0  0  1  0  0  0  0  0999 V2000
   -0.8490    2.3540    0.0000 Cl  0  0  0  0  0  0  0  0  0  0  0  0
    0.4510    1.6040    0.0000 C   0  0  0  0  0  0  0  0  0  0  0  0
    1.7500    2.3540    0.0000 C   0  0  0  0  0  0  0  0  0  0  0  0
    3.0490    1.6040    0.0000 C   0  0  0  0  0  0  0  0  0  0  0  0
    4.3480    2.3540    0.0000 C   0  0  0  0  0  0  0  0  0  0  0  0
    4.3480    3.8540    0.0000 C   0  0  0  0  0  0  0  0  0  0  0  0
    3.0490    4.6040    0.0000 C   0  0  0  0  0  0  0  0  0  0  0  0
    3.0490    6.1040    0.0000 C   0  0  3  0  0  0  0  0  0  0  0  0
    4.3480    6.8540    0.0000 O   0  0  0  0  0  0  0  0  0  0  0  0
    1.7500    6.8540    0.0000 C   0  0  0  0  0  0  0  0  0  0  0  0
    1.7500    8.3540    0.0000 C   0  0  0  0  0  0  0  0  0  0  0  0
    1.7500    3.8540    0.0000 C   0  0  0  0  0  0  0  0  0  0  0  0
    5.6470    4.6040    0.0000 C   0  0  0  0  0  0  0  0  0  0  0  0
    6.9460    3.8540    0.0000 C   0  0  0  0  0  0  0  0  0  0  0  0
    6.9460    2.3540    0.0000 C   0  0  0  0  0  0  0  0  0  0  0  0
    8.2450    1.6040    0.0000 C   0  0  0  0  0  0  0  0  0  0  0  0
    9.5440    0.8540    0.0000 F   0  0  0  0  0  0  0  0  0  0  0  0
    7.4950    0.3050    0.0000 F   0  0  0  0  0  0  0  0  0  0  0  0
    8.9950    2.9030    0.0000 F   0  0  0  0  0  0  0  0  0  0  0  0
    5.6470    1.6040    0.0000 C   0  0  0  0  0  0  0  0  0  0  0  0
    3.0490    0.1040    0.0000 C   0  0  0  0  0  0  0  0  0  0  0  0
    1.7500   -0.6460    0.0000 C   0  0  0  0  0  0  0  0  0  0  0  0
    1.7500   -2.1460    0.0000 Cl  0  0  0  0  0  0  0  0  0  0  0  0
    0.4510    0.1040    0.0000 C   0  0  0  0  0  0  0  0  0  0  0  0
  1  2  1  0  0  0  0
  2  3  1  0  0  0  0
  2 24  2  0  0  0  0
  3  4  1  0  0  0  0
  3 12  2  0  0  0  0
  4  5  2  0  0  0  0
  4 21  1  0  0  0  0
  5  6  1  0  0  0  0
  5 20  1  0  0  0  0
  6  7  2  0  0  0  0
  6 13  1  0  0  0  0
  7  8  1  0  0  0  0
  7 12  1  0  0  0  0
  8  9  1  0  0  0  0
  8 10  1  0  0  0  0
 10 11  1  0  0  0  0
 13 14  2  0  0  0  0
 14 15  1  0  0  0  0
 15 16  1  0  0  0  0
 15 20  2  0  0  0  0
 16 17  1  0  0  0  0
 16 18  1  0  0  0  0
 16 19  1  0  0  0  0
 21 22  2  0  0  0  0
 22 23  1  0  0  0  0
 22 24  1  0  0  0  0
M  END
>  <name>
Clc1c2c(c3c(c(C(O)C[C;amine])c2)ccc(C(F)(F)F)c3)cc(Cl)c1

>  <apo>
1

>  <freq>
1

>  <freq0>
0

>  <freq1>
1

>  <freqA>
0.99887151

>  <a_count>
37

$$$$

  MOE2015           2D

 16 17  0  0  0  0  0  0  0  0999 V2000
    9.1620   -2.2280    0.0000 Cl  0  0  0  0  0  0  0  0  0  0  0  0
    7.8300   -1.5390    0.0000 C   0  0  0  0  0  0  0  0  0  0  0  0
    7.7600   -0.0410    0.0000 C   0  0  0  0  0  0  0  0  0  0  0  0
    6.4270    0.6480    0.0000 C   0  0  0  0  0  0  0  0  0  0  0  0
    5.1650   -0.1620    0.0000 C   0  0  0  0  0  0  0  0  0  0  0  0
    3.8320    0.5270    0.0000 C   0  0  0  0  0  0  0  0  0  0  0  0
    3.7060   -0.9680    0.0000 C   0  0  0  0  0  0  0  0  0  0  0  0
    2.3480   -1.6050    0.0000 C   0  0  0  0  0  0  0  0  0  0  0  0
    2.2220   -3.1000    0.0000 C   0  0  0  0  0  0  0  0  0  0  0  0
    3.4530   -3.9570    0.0000 C   0  0  0  0  0  0  0  0  0  0  0  0
    0.8640   -3.7380    0.0000 C   0  0  0  0  0  0  0  0  0  0  0  0
    2.3910    0.9430    0.0000 C   0  0  0  0  0  0  0  0  0  0  0  0
    2.8060    2.3840    0.0000 C   0  0  0  0  0  0  0  0  0  0  0  0
    4.2480    1.9680    0.0000 C   0  0  0  0  0  0  0  0  0  0  0  0
    5.2340   -1.6600    0.0000 C   0  0  0  0  0  0  0  0  0  0  0  0
    6.5670   -2.3490    0.0000 C   0  0  0  0  0  0  0  0  0  0  0  0
  1  2  1  0  0  0  0
  2  3  1  0  0  0  0
  2 16  2  0  0  0  0
  3  4  2  0  0  0  0
  4  5  1  0  0  0  0
  5  6  1  0  0  0  0
  5 15  2  0  0  0  0
  6  7  1  0  0  0  0
  6 12  1  0  0  0  0
  6 14  1  0  0  0  0
  7  8  1  0  0  0  0
  8  9  1  0  0  0  0
  9 10  1  0  0  0  0
  9 11  1  0  0  0  0
 12 13  1  0  0  0  0
 13 14  1  0  0  0  0
 15 16  1  0  0  0  0
M  END
>  <name>
Clc1ccc(C2([C;amine]CC(C)C)CCC2)cc1

>  <apo>
1

>  <freq>
1

>  <freq0>
0

>  <freq1>
1

>  <freqA>
0.99887151

>  <a_count>
37

$$$$

  MOE2015           2D

 21 23  0  0  1  0  0  0  0  0999 V2000
   -0.0200    0.3030    0.0000 F   0  0  0  0  0  0  0  0  0  0  0  0
    1.4790    0.2310    0.0000 C   0  0  0  0  0  0  0  0  0  0  0  0
    2.1660   -1.1020    0.0000 C   0  0  0  0  0  0  0  0  0  0  0  0
    3.6640   -1.1740    0.0000 C   0  0  0  0  0  0  0  0  0  0  0  0
    4.4750    0.0880    0.0000 C   0  0  0  0  0  0  0  0  0  0  0  0
    5.9740    0.0160    0.0000 C   0  0  3  0  0  0  0  0  0  0  0  0
    5.3330    1.3730    0.0000 C   0  0  0  0  0  0  0  0  0  0  0  0
    6.1880    2.6050    0.0000 C   0  0  0  0  0  0  0  0  0  0  0  0
    5.5480    3.9620    0.0000 C   0  0  0  0  0  0  0  0  0  0  0  0
    5.9800   -1.4840    0.0000 O   0  0  0  0  0  0  0  0  0  0  0  0
    7.4090   -1.9410    0.0000 C   0  0  0  0  0  0  0  0  0  0  0  0
    8.2850   -0.7230    0.0000 C   0  0  0  0  0  0  0  0  0  0  0  0
    7.3980    0.4860    0.0000 C   0  0  0  0  0  0  0  0  0  0  0  0
    8.0020    1.8590    0.0000 C   0  0  0  0  0  0  0  0  0  0  0  0
    9.4930    2.0230    0.0000 C   0  0  0  0  0  0  0  0  0  0  0  0
   10.3800    0.8130    0.0000 C   0  0  0  0  0  0  0  0  0  0  0  0
   11.8710    0.9770    0.0000 C   0  0  0  0  0  0  0  0  0  0  0  0
   13.3620    1.1410    0.0000 N   0  0  0  0  0  0  0  0  0  0  0  0
    9.7760   -0.5600    0.0000 C   0  0  0  0  0  0  0  0  0  0  0  0
    3.7880    1.4210    0.0000 C   0  0  0  0  0  0  0  0  0  0  0  0
    2.2900    1.4930    0.0000 C   0  0  0  0  0  0  0  0  0  0  0  0
  1  2  1  0  0  0  0
  2  3  1  0  0  0  0
  2 21  2  0  0  0  0
  3  4  2  0  0  0  0
  4  5  1  0  0  0  0
  5  6  1  0  0  0  0
  5 20  2  0  0  0  0
  6  7  1  0  0  0  0
  6 10  1  0  0  0  0
  6 13  1  0  0  0  0
  7  8  1  0  0  0  0
  8  9  1  0  0  0  0
 10 11  1  0  0  0  0
 11 12  1  0  0  0  0
 12 13  1  0  0  0  0
 12 19  2  0  0  0  0
 13 14  2  0  0  0  0
 14 15  1  0  0  0  0
 15 16  2  0  0  0  0
 16 17  1  0  0  0  0
 16 19  1  0  0  0  0
 17 18  3  0  0  0  0
 20 21  1  0  0  0  0
M  END
>  <name>
Fc1ccc(C2(CC[C;amine])OCc3c2ccc(C#N)c3)cc1

>  <apo>
1

>  <freq>
1

>  <freq0>
0

>  <freq1>
1

>  <freqA>
0.99887151

>  <a_count>
37

$$$$

  MOE2015           2D

 21 23  0  0  1  0  0  0  0  0999 V2000
   -0.0200    0.3030    0.0000 F   0  0  0  0  0  0  0  0  0  0  0  0
    1.4790    0.2310    0.0000 C   0  0  0  0  0  0  0  0  0  0  0  0
    2.1660   -1.1020    0.0000 C   0  0  0  0  0  0  0  0  0  0  0  0
    3.6640   -1.1740    0.0000 C   0  0  0  0  0  0  0  0  0  0  0  0
    4.4750    0.0880    0.0000 C   0  0  0  0  0  0  0  0  0  0  0  0
    5.9740    0.0160    0.0000 C   0  0  2  0  0  0  0  0  0  0  0  0
    5.3330    1.3730    0.0000 C   0  0  0  0  0  0  0  0  0  0  0  0
    6.1880    2.6050    0.0000 C   0  0  0  0  0  0  0  0  0  0  0  0
    5.5480    3.9620    0.0000 C   0  0  0  0  0  0  0  0  0  0  0  0
    5.9800   -1.4840    0.0000 O   0  0  0  0  0  0  0  0  0  0  0  0
    7.4090   -1.9410    0.0000 C   0  0  0  0  0  0  0  0  0  0  0  0
    8.2850   -0.7230    0.0000 C   0  0  0  0  0  0  0  0  0  0  0  0
    7.3980    0.4860    0.0000 C   0  0  0  0  0  0  0  0  0  0  0  0
    8.0020    1.8590    0.0000 C   0  0  0  0  0  0  0  0  0  0  0  0
    9.4930    2.0230    0.0000 C   0  0  0  0  0  0  0  0  0  0  0  0
   10.3800    0.8130    0.0000 C   0  0  0  0  0  0  0  0  0  0  0  0
   11.8710    0.9770    0.0000 C   0  0  0  0  0  0  0  0  0  0  0  0
   13.3620    1.1410    0.0000 N   0  0  0  0  0  0  0  0  0  0  0  0
    9.7760   -0.5600    0.0000 C   0  0  0  0  0  0  0  0  0  0  0  0
    3.7880    1.4210    0.0000 C   0  0  0  0  0  0  0  0  0  0  0  0
    2.2900    1.4930    0.0000 C   0  0  0  0  0  0  0  0  0  0  0  0
  1  2  1  0  0  0  0
  2  3  1  0  0  0  0
  2 21  2  0  0  0  0
  3  4  2  0  0  0  0
  4  5  1  0  0  0  0
  6  5  1  1  0  0  0
  5 20  2  0  0  0  0
  6  7  1  6  0  0  0
  6 10  1  0  0  0  0
  6 13  1  0  0  0  0
  7  8  1  0  0  0  0
  8  9  1  0  0  0  0
 10 11  1  0  0  0  0
 11 12  1  0  0  0  0
 12 13  1  0  0  0  0
 12 19  2  0  0  0  0
 13 14  2  0  0  0  0
 14 15  1  0  0  0  0
 15 16  2  0  0  0  0
 16 17  1  0  0  0  0
 16 19  1  0  0  0  0
 17 18  3  0  0  0  0
 20 21  1  0  0  0  0
M  END
>  <name>
Fc1ccc([C@]2(CC[C;amine])OCc3c2ccc(C#N)c3)cc1

>  <apo>
1

>  <freq>
1

>  <freq0>
0

>  <freq1>
1

>  <freqA>
0.99887151

>  <a_count>
37

$$$$

  MOE2015           2D

 19 21  0  0  1  0  0  0  0  0999 V2000
   10.5680    2.9280    0.0000 I   0  0  0  0  0  0  0  0  0  0  0  0
    9.2820    2.1560    0.0000 C   0  0  0  0  0  0  0  0  0  0  0  0
    9.3070    0.6560    0.0000 C   0  0  0  0  0  0  0  0  0  0  0  0
    8.0210   -0.1160    0.0000 C   0  0  0  0  0  0  0  0  0  0  0  0
    6.7090    0.6120    0.0000 C   0  0  0  0  0  0  0  0  0  0  0  0
    5.4230   -0.1600    0.0000 C   0  0  2  0  0  0  0  0  0  0  0  0
    4.2040   -0.3900    0.0000 C   0  0  2  0  0  0  0  0  0  0  0  0
    4.4430    1.0910    0.0000 C   0  0  0  0  0  0  0  0  0  0  0  0
    5.8450    1.6240    0.0000 O   0  0  0  0  0  0  0  0  0  0  0  0
    3.2800    2.0390    0.0000 O   0  0  0  0  0  0  0  0  0  0  0  0
    3.5190    3.5190    0.0000 C   0  0  0  0  0  0  0  0  0  0  0  0
    2.6360    0.4810    0.0000 C   0  0  2  0  0  0  0  0  0  0  0  0
    1.6910   -0.7090    0.0000 N   0  0  0  0  0  0  0  0  0  0  0  0
    2.9890   -0.4990    0.0000 C   0  0  2  0  0  0  0  0  0  0  0  0
    4.4690   -1.3500    0.0000 C   0  0  0  0  0  0  0  0  0  0  0  0
    3.1030    0.9360    0.0000 C   0  0  0  0  0  0  0  0  0  0  0  0
    2.4410    2.0940    0.0000 C   0  0  0  0  0  0  0  0  0  0  0  0
    6.6840    2.1120    0.0000 C   0  0  0  0  0  0  0  0  0  0  0  0
    7.9700    2.8840    0.0000 C   0  0  0  0  0  0  0  0  0  0  0  0
  1  2  1  0  0  0  0
  2  3  1  0  0  0  0
  2 19  2  0  0  0  0
  3  4  2  0  0  0  0
  4  5  1  0  0  0  0
  6  5  1  1  0  0  0
  5 18  2  0  0  0  0
  6  7  1  0  0  0  0
  6 15  1  0  0  0  0
  7  8  1  1  0  0  0
  7 12  1  0  0  0  0
  8  9  2  0  0  0  0
  8 10  1  0  0  0  0
 10 11  1  0  0  0  0
 12 13  1  0  0  0  0
 12 17  1  6  0  0  0
 14 13  1  1  0  0  0
 14 15  1  0  0  0  0
 14 16  1  0  0  0  0
 16 17  1  0  0  0  0
 18 19  1  0  0  0  0
M  END
>  <name>
Ic1ccc([C@@H]2[C@H](C(=O)OC)[C@@H]3[N;amine][C@H](C2)CC3)cc1

>  <apo>
1

>  <freq>
1

>  <freq0>
0

>  <freq1>
1

>  <freqA>
0.99887151

>  <a_count>
37

$$$$

  MOE2015           2D

 18 20  0  0  1  0  0  0  0  0999 V2000
   -0.8690    1.9510    0.0000 O   0  0  0  0  0  0  0  0  0  0  0  0
    0.1350    3.0660    0.0000 C   0  0  0  0  0  0  0  0  0  0  0  0
   -0.3290    4.4930    0.0000 N   0  0  0  0  0  0  0  0  0  0  0  0
    1.6020    2.7540    0.0000 C   0  0  0  0  0  0  0  0  0  0  0  0
    2.7170    3.7580    0.0000 C   0  0  0  0  0  0  0  0  0  0  0  0
    4.0160    3.0080    0.0000 N   0  0  0  0  0  0  0  0  0  0  0  0
    5.3150    3.7580    0.0000 C   0  0  2  0  0  0  0  0  0  0  0  0
    6.6140    3.0080    0.0000 C   0  0  0  0  0  0  0  0  0  0  0  0
    6.6140    1.5080    0.0000 C   0  0  0  0  0  0  0  0  0  0  0  0
    7.9130    0.7580    0.0000 C   0  0  0  0  0  0  0  0  0  0  0  0
    9.2120    1.5080    0.0000 N   0  0  0  0  0  0  0  0  0  0  0  0
    9.2120    3.0080    0.0000 C   0  0  0  0  0  0  0  0  0  0  0  0
    7.9130    3.7580    0.0000 C   0  0  0  0  0  0  0  0  0  0  0  0
    5.3150    5.2580    0.0000 C   0  0  0  0  0  0  0  0  0  0  0  0
    4.0160    6.0080    0.0000 C   0  0  0  0  0  0  0  0  0  0  0  0
    2.7170    5.2580    0.0000 N   0  0  0  0  0  0  0  0  0  0  0  0
    3.7040    1.5410    0.0000 N   0  0  0  0  0  0  0  0  0  0  0  0
    2.2120    1.3840    0.0000 C   0  0  0  0  0  0  0  0  0  0  0  0
  1  2  2  0  0  0  0
  2  3  1  0  0  0  0
  2  4  1  0  0  0  0
  4  5  2  0  0  0  0
  4 18  1  0  0  0  0
  5  6  1  0  0  0  0
  5 16  1  0  0  0  0
  6  7  1  0  0  0  0
  6 17  1  0  0  0  0
  7  8  1  1  0  0  0
  7 14  1  0  0  0  0
  8  9  1  0  0  0  0
  8 13  1  0  0  0  0
  9 10  1  0  0  0  0
 10 11  1  0  0  0  0
 11 12  1  0  0  0  0
 12 13  1  0  0  0  0
 14 15  1  0  0  0  0
 15 16  1  0  0  0  0
 17 18  2  0  0  0  0
M  END
>  <name>
O=C(N)c1c2n([C@H](C3CC[N;amide]CC3)CCN2)n[c;biphenyl]1

>  <apo>
2

>  <freq>
1

>  <freq0>
0

>  <freq1>
1

>  <freqA>
0.99887151

>  <a_count>
37

$$$$

  MOE2015           2D

 17 17  0  0  1  0  0  0  0  0999 V2000
   -1.6320    2.8270    0.0000 O   0  0  0  0  0  0  0  0  0  0  0  0
   -0.8820    4.1260    0.0000 C   0  0  0  0  0  0  0  0  0  0  0  0
   -1.6320    5.4250    0.0000 O   0  0  0  0  0  0  0  0  0  0  0  0
    0.6180    4.1260    0.0000 C   0  0  0  0  0  0  0  0  0  0  0  0
    0.6180    2.6260    0.0000 C   0  0  0  0  0  0  0  0  0  0  0  0
    0.6180    5.6260    0.0000 C   0  0  0  0  0  0  0  0  0  0  0  0
    2.1180    4.1260    0.0000 C   0  0  0  0  0  0  0  0  0  0  0  0
    2.8680    2.8270    0.0000 C   0  0  0  0  0  0  0  0  0  0  0  0
    4.3680    2.8270    0.0000 C   0  0  0  0  0  0  0  0  0  0  0  0
    5.1180    4.1260    0.0000 C   0  0  0  0  0  0  0  0  0  0  0  0
    6.6180    4.1260    0.0000 C   0  0  3  0  0  0  0  0  0  0  0  0
    7.3680    5.4250    0.0000 O   0  0  0  0  0  0  0  0  0  0  0  0
    7.3680    2.8270    0.0000 C   0  0  0  0  0  0  0  0  0  0  0  0
    8.8680    2.8270    0.0000 C   0  0  0  0  0  0  0  0  0  0  0  0
    9.6180    1.5280    0.0000 C   0  0  0  0  0  0  0  0  0  0  0  0
    4.3680    5.4250    0.0000 C   0  0  0  0  0  0  0  0  0  0  0  0
    2.8680    5.4250    0.0000 C   0  0  0  0  0  0  0  0  0  0  0  0
  1  2  2  0  0  0  0
  2  3  1  0  0  0  0
  2  4  1  0  0  0  0
  4  5  1  0  0  0  0
  4  6  1  0  0  0  0
  4  7  1  0  0  0  0
  7  8  1  0  0  0  0
  7 17  2  0  0  0  0
  8  9  2  0  0  0  0
  9 10  1  0  0  0  0
 10 11  1  0  0  0  0
 10 16  2  0  0  0  0
 11 12  1  0  0  0  0
 11 13  1  0  0  0  0
 13 14  1  0  0  0  0
 14 15  1  0  0  0  0
 16 17  1  0  0  0  0
M  END
>  <name>
O=C(O)C(C)(C)c1ccc(C(O)CC[C;amine])cc1

>  <apo>
1

>  <freq>
1

>  <freq0>
0

>  <freq1>
1

>  <freqA>
0.99887151

>  <a_count>
37

$$$$

  MOE2015           2D

 17 18  0  0  1  0  0  0  0  0999 V2000
   12.4640    7.1960    0.0000 O   0  0  0  0  0  0  0  0  0  0  0  0
   11.7140    5.8970    0.0000 C   0  0  0  0  0  0  0  0  0  0  0  0
   12.4640    4.5980    0.0000 O   0  0  0  0  0  0  0  0  0  0  0  0
   10.2140    5.8970    0.0000 C   0  0  0  0  0  0  0  0  0  0  0  0
    9.4640    4.5980    0.0000 C   0  0  0  0  0  0  0  0  0  0  0  0
    7.9640    4.5980    0.0000 C   0  0  0  0  0  0  0  0  0  0  0  0
    7.2140    3.2990    0.0000 C   0  0  0  0  0  0  0  0  0  0  0  0
    5.7140    3.2990    0.0000 C   0  0  0  0  0  0  0  0  0  0  0  0
    4.8320    2.0850    0.0000 O   0  0  0  0  0  0  0  0  0  0  0  0
    3.4060    2.5490    0.0000 C   0  0  2  0  0  0  0  0  0  0  0  0
    3.4060    4.0490    0.0000 C   0  0  1  0  0  0  0  0  0  0  0  0
    1.9790    4.5120    0.0000 C   0  0  1  0  0  0  0  0  0  0  0  0
    1.5150    5.9390    0.0000 C   0  0  0  0  0  0  0  0  0  0  0  0
    1.0970    3.2990    0.0000 C   0  0  2  0  0  0  0  0  0  0  0  0
   -0.4030    3.2990    0.0000 O   0  0  0  0  0  0  0  0  0  0  0  0
    1.9790    2.0850    0.0000 C   0  0  0  0  0  0  0  0  0  0  0  0
    4.8320    4.5120    0.0000 C   0  0  0  0  0  0  0  0  0  0  0  0
  1  2  2  0  0  0  0
  2  3  1  0  0  0  0
  2  4  1  0  0  0  0
  4  5  1  0  0  0  0
  5  6  1  0  0  0  0
  6  7  1  0  0  0  0
  7  8  2  0  0  0  0
  8  9  1  0  0  0  0
  8 17  1  0  0  0  0
 10  9  1  1  0  0  0
 10 11  1  0  0  0  0
 10 16  1  0  0  0  0
 11 12  1  0  0  0  0
 11 17  1  1  0  0  0
 12 13  1  6  0  0  0
 12 14  1  0  0  0  0
 14 15  1  1  0  0  0
 14 16  1  0  0  0  0
M  END
>  <name>
O=C(O)CCC/C=C\1/O[C@@H]2[C@@H]([C@@H]([C;olefin])[C@H](O)C2)C/1

>  <apo>
1

>  <freq>
1

>  <freq0>
0

>  <freq1>
1

>  <freqA>
0.99887151

>  <a_count>
37

$$$$

  MOE2015           2D

 20 21  0  0  1  0  0  0  0  0999 V2000
   -0.9680   -3.6110    0.0000 O   0  0  0  0  0  0  0  0  0  0  0  0
    0.3310   -4.3610    0.0000 C   0  0  0  0  0  0  0  0  0  0  0  0
    0.3310   -5.8610    0.0000 O   0  0  0  0  0  0  0  0  0  0  0  0
    1.6310   -3.6110    0.0000 C   0  0  0  0  0  0  0  0  0  0  0  0
    1.6310   -2.1110    0.0000 C   0  0  0  0  0  0  0  0  0  0  0  0
    0.3310   -1.3610    0.0000 O   0  0  0  0  0  0  0  0  0  0  0  0
    0.3310    0.1390    0.0000 C   0  0  0  0  0  0  0  0  0  0  0  0
    2.9300   -1.3610    0.0000 C   0  0  0  0  0  0  0  0  0  0  0  0
    4.2290   -2.1110    0.0000 C   0  0  0  0  0  0  0  0  0  0  0  0
    4.2290   -3.6110    0.0000 C   0  0  0  0  0  0  0  0  0  0  0  0
    5.5280   -4.3610    0.0000 C   0  0  0  0  0  0  0  0  0  0  0  0
    6.8270   -3.6110    0.0000 N   0  0  0  0  0  0  0  0  0  0  0  0
    8.1260   -4.3610    0.0000 C   0  0  1  0  0  0  0  0  0  0  0  0
    8.1260   -5.8610    0.0000 C   0  0  0  0  0  0  0  0  0  0  0  0
    9.4250   -3.6110    0.0000 C   0  0  0  0  0  0  0  0  0  0  0  0
    9.5820   -2.1190    0.0000 N   0  0  0  0  0  0  0  0  0  0  0  0
   11.0490   -1.8070    0.0000 C   0  0  0  0  0  0  0  0  0  0  0  0
   11.7990   -3.1060    0.0000 C   0  0  0  0  0  0  0  0  0  0  0  0
   10.7950   -4.2210    0.0000 N   0  0  0  0  0  0  0  0  0  0  0  0
    2.9300   -4.3610    0.0000 C   0  0  0  0  0  0  0  0  0  0  0  0
  1  2  2  0  0  0  0
  2  3  1  0  0  0  0
  2  4  1  0  0  0  0
  4  5  1  0  0  0  0
  4 20  2  0  0  0  0
  5  6  1  0  0  0  0
  5  8  2  0  0  0  0
  6  7  1  0  0  0  0
  8  9  1  0  0  0  0
  9 10  2  0  0  0  0
 10 11  1  0  0  0  0
 10 20  1  0  0  0  0
 11 12  1  0  0  0  0
 12 13  1  0  0  0  0
 13 14  1  6  0  0  0
 13 15  1  0  0  0  0
 15 16  1  0  0  0  0
 15 19  2  0  0  0  0
 16 17  1  0  0  0  0
 17 18  2  0  0  0  0
 18 19  1  0  0  0  0
M  END
>  <name>
O=C(O)c1c(OC)ccc(C[N;amide][C@@H](C)c2[nH]c[c;biphenyl]n2)c1

>  <apo>
2

>  <freq>
1

>  <freq0>
0

>  <freq1>
1

>  <freqA>
0.99887151

>  <a_count>
37

$$$$

  MOE2015           2D

 16 16  0  0  1  0  0  0  0  0999 V2000
    1.7670    1.7670    0.0000 O   0  0  0  0  0  0  0  0  0  0  0  0
    1.7670    0.2670    0.0000 C   0  0  0  0  0  0  0  0  0  0  0  0
    3.0660   -0.4830    0.0000 O   0  0  0  0  0  0  0  0  0  0  0  0
    4.3650    0.2670    0.0000 C   0  0  0  0  0  0  0  0  0  0  0  0
    4.5220    1.7590    0.0000 C   0  0  0  0  0  0  0  0  0  0  0  0
    5.9890    2.0710    0.0000 C   0  0  0  0  0  0  0  0  0  0  0  0
    6.7390    0.7720    0.0000 C   0  0  0  0  0  0  0  0  0  0  0  0
    5.7360   -0.3430    0.0000 C   0  0  0  0  0  0  0  0  0  0  0  0
    0.4680   -0.4830    0.0000 N   0  0  0  0  0  0  0  0  0  0  0  0
   -0.8310    0.2670    0.0000 C   0  0  1  0  0  0  0  0  0  0  0  0
   -2.1300   -0.4830    0.0000 C   0  0  0  0  0  0  0  0  0  0  0  0
   -3.4290   -1.2330    0.0000 C   0  0  0  0  0  0  0  0  0  0  0  0
   -2.8800    0.8160    0.0000 C   0  0  0  0  0  0  0  0  0  0  0  0
   -1.3800   -1.7820    0.0000 C   0  0  0  0  0  0  0  0  0  0  0  0
   -0.8310    1.7670    0.0000 C   0  0  0  0  0  0  0  0  0  0  0  0
   -2.1300    2.5170    0.0000 O   0  0  0  0  0  0  0  0  0  0  0  0
  1  2  2  0  0  0  0
  2  3  1  0  0  0  0
  2  9  1  0  0  0  0
  3  4  1  0  0  0  0
  4  5  1  0  0  0  0
  4  8  1  0  0  0  0
  5  6  1  0  0  0  0
  6  7  1  0  0  0  0
  7  8  1  0  0  0  0
 10  9  1  1  0  0  0
 10 11  1  0  0  0  0
 10 15  1  0  0  0  0
 11 12  1  0  0  0  0
 11 13  1  0  0  0  0
 11 14  1  0  0  0  0
 15 16  2  0  0  0  0
M  END
>  <name>
O=C(OC1[C;ether]CCC1)N[C@@H](C(C)(C)C)[C;amide]=O

>  <apo>
2

>  <freq>
1

>  <freq0>
0

>  <freq1>
1

>  <freqA>
0.99887151

>  <a_count>
37

$$$$

  MOE2015           2D

 16 17  0  0  0  0  0  0  0  0999 V2000
    3.4110   -1.9690    0.0000 O   0  0  0  0  0  0  0  0  0  0  0  0
    2.6610   -0.6700    0.0000 C   0  0  0  0  0  0  0  0  0  0  0  0
    3.4110    0.6290    0.0000 N   0  0  0  0  0  0  0  0  0  0  0  0
    4.9110    0.6290    0.0000 C   0  0  0  0  0  0  0  0  0  0  0  0
    5.6610   -0.6700    0.0000 C   0  0  0  0  0  0  0  0  0  0  0  0
    7.1610   -0.6700    0.0000 C   0  0  0  0  0  0  0  0  0  0  0  0
    7.9110   -1.9690    0.0000 C   0  0  0  0  0  0  0  0  0  0  0  0
    2.6610    1.9280    0.0000 C   0  0  0  0  0  0  0  0  0  0  0  0
    3.4110    3.2270    0.0000 O   0  0  0  0  0  0  0  0  0  0  0  0
    1.1610    1.9280    0.0000 C   0  0  0  0  0  0  0  0  0  0  0  0
    0.4110    0.6290    0.0000 C   0  0  0  0  0  0  0  0  0  0  0  0
    1.1610   -0.6700    0.0000 C   0  0  0  0  0  0  0  0  0  0  0  0
   -0.4710    1.8420    0.0000 C   0  0  0  0  0  0  0  0  0  0  0  0
   -1.8980    1.3790    0.0000 C   0  0  0  0  0  0  0  0  0  0  0  0
   -1.8980   -0.1210    0.0000 C   0  0  0  0  0  0  0  0  0  0  0  0
   -0.4710   -0.5850    0.0000 C   0  0  0  0  0  0  0  0  0  0  0  0
  1  2  2  0  0  0  0
  2  3  1  0  0  0  0
  2 12  1  0  0  0  0
  3  4  1  0  0  0  0
  3  8  1  0  0  0  0
  4  5  1  0  0  0  0
  5  6  1  0  0  0  0
  6  7  1  0  0  0  0
  8  9  2  0  0  0  0
  8 10  1  0  0  0  0
 10 11  1  0  0  0  0
 11 12  1  0  0  0  0
 11 13  1  0  0  0  0
 11 16  1  0  0  0  0
 13 14  1  0  0  0  0
 14 15  1  0  0  0  0
 15 16  1  0  0  0  0
M  END
>  <name>
O=C1N(CCC[C;amine])C(=O)CC2(C1)CCCC2

>  <apo>
1

>  <freq>
1

>  <freq0>
0

>  <freq1>
1

>  <freqA>
0.99887151

>  <a_count>
37

$$$$

  MOE2015           2D

 19 21  0  0  1  0  0  0  0  0999 V2000
    0.3520   -5.4110    0.0000 O   0  0  0  0  0  0  0  0  0  0  0  0
    0.3520   -3.9110    0.0000 C   0  0  0  0  0  0  0  0  0  0  0  0
    1.6510   -3.1610    0.0000 C   0  0  2  0  0  0  0  0  0  0  0  0
    1.6510   -4.6610    0.0000 O   0  0  0  0  0  0  0  0  0  0  0  0
    2.9500   -3.9110    0.0000 O   0  0  0  0  0  0  0  0  0  0  0  0
    4.2490   -3.1610    0.0000 C   0  0  1  0  0  0  0  0  0  0  0  0
    4.2490   -1.6610    0.0000 C   0  0  1  0  0  0  0  0  0  0  0  0
    5.5480   -0.9110    0.0000 C   0  0  1  0  0  0  0  0  0  0  0  0
    5.5480    0.5890    0.0000 O   0  0  0  0  0  0  0  0  0  0  0  0
    6.8470   -1.6610    0.0000 C   0  0  0  0  0  0  0  0  0  0  0  0
    6.8470   -3.1610    0.0000 C   0  0  2  0  0  0  0  0  0  0  0  0
    8.1460   -3.9110    0.0000 O   0  0  0  0  0  0  0  0  0  0  0  0
    5.5480   -3.9110    0.0000 C   0  0  0  0  0  0  0  0  0  0  0  0
    2.9500   -0.9110    0.0000 O   0  0  0  0  0  0  0  0  0  0  0  0
    1.6510   -1.6610    0.0000 C   0  0  2  0  0  0  0  0  0  0  0  0
    0.3520   -0.9110    0.0000 O   0  0  0  0  0  0  0  0  0  0  0  0
   -0.9470   -1.6610    0.0000 C   0  0  2  0  0  0  0  0  0  0  0  0
   -2.2460   -0.9110    0.0000 C   0  0  0  0  0  0  0  0  0  0  0  0
   -0.9470   -3.1610    0.0000 C   0  0  0  0  0  0  0  0  0  0  0  0
  1  2  2  0  0  0  0
  2  3  1  0  0  0  0
  2 19  1  0  0  0  0
  3  4  1  6  0  0  0
  3  5  1  0  0  0  0
  3 15  1  0  0  0  0
  6  5  1  1  0  0  0
  6  7  1  0  0  0  0
  6 13  1  0  0  0  0
  7  8  1  0  0  0  0
  7 14  1  6  0  0  0
  8  9  1  1  0  0  0
  8 10  1  0  0  0  0
 10 11  1  0  0  0  0
 11 12  1  6  0  0  0
 11 13  1  0  0  0  0
 15 14  1  1  0  0  0
 15 16  1  0  0  0  0
 16 17  1  0  0  0  0
 17 18  1  1  0  0  0
 17 19  1  0  0  0  0
M  END
>  <name>
O=C1[C@]2(O)O[C@H]3[C@@H]([C@@H](O)[C;amine][C@H](O)[C;amine]3)O[C@@H]2O[C@H](C)C1

>  <apo>
2

>  <freq>
1

>  <freq0>
0

>  <freq1>
1

>  <freqA>
0.99887151

>  <a_count>
37

$$$$

  MOE2015           2D

 19 21  0  0  0  0  0  0  0  0999 V2000
    3.3930   -4.3050    0.0000 O   0  0  0  0  0  0  0  0  0  0  0  0
    3.7430   -2.8470    0.0000 C   0  0  0  0  0  0  0  0  0  0  0  0
    2.6560   -1.8140    0.0000 C   0  0  0  0  0  0  0  0  0  0  0  0
    4.0780   -1.3380    0.0000 C   0  0  0  0  0  0  0  0  0  0  0  0
    5.2010   -2.3330    0.0000 C   0  0  0  0  0  0  0  0  0  0  0  0
    6.6240   -1.8570    0.0000 C   0  0  0  0  0  0  0  0  0  0  0  0
    7.7470   -2.8510    0.0000 C   0  0  0  0  0  0  0  0  0  0  0  0
    2.1060   -0.4180    0.0000 C   0  0  0  0  0  0  0  0  0  0  0  0
    0.6090   -0.5090    0.0000 C   0  0  0  0  0  0  0  0  0  0  0  0
    0.2330   -1.9610    0.0000 C   0  0  0  0  0  0  0  0  0  0  0  0
    1.4980   -2.7680    0.0000 C   0  0  0  0  0  0  0  0  0  0  0  0
    1.4320   -4.2660    0.0000 C   0  0  0  0  0  0  0  0  0  0  0  0
    0.1010   -4.9580    0.0000 C   0  0  0  0  0  0  0  0  0  0  0  0
   -1.1630   -4.1520    0.0000 C   0  0  0  0  0  0  0  0  0  0  0  0
   -1.0980   -2.6530    0.0000 C   0  0  0  0  0  0  0  0  0  0  0  0
   -0.2180    0.7420    0.0000 C   0  0  0  0  0  0  0  0  0  0  0  0
    0.4510    2.0840    0.0000 C   0  0  0  0  0  0  0  0  0  0  0  0
    1.9490    2.1750    0.0000 C   0  0  0  0  0  0  0  0  0  0  0  0
    2.7760    0.9240    0.0000 C   0  0  0  0  0  0  0  0  0  0  0  0
  1  2  2  0  0  0  0
  2  3  1  0  0  0  0
  3  4  1  0  0  0  0
  3  8  1  0  0  0  0
  3 11  1  0  0  0  0
  4  5  1  0  0  0  0
  5  6  1  0  0  0  0
  6  7  1  0  0  0  0
  8  9  1  0  0  0  0
  8 19  2  0  0  0  0
  9 10  1  0  0  0  0
  9 16  2  0  0  0  0
 10 11  1  0  0  0  0
 10 15  2  0  0  0  0
 11 12  2  0  0  0  0
 12 13  1  0  0  0  0
 13 14  2  0  0  0  0
 14 15  1  0  0  0  0
 16 17  1  0  0  0  0
 17 18  2  0  0  0  0
 18 19  1  0  0  0  0
M  END
>  <name>
O=[C;amide]C1(CCC[C;amine])c2c(-c3c1cccc3)cccc2

>  <apo>
2

>  <freq>
1

>  <freq0>
0

>  <freq1>
1

>  <freqA>
0.99887151

>  <a_count>
37

$$$$

  MOE2015           2D

 21 23  0  0  0  0  0  0  0  0999 V2000
   13.2780   -3.9250    0.0000 O   0  0  0  0  0  0  0  0  0  0  0  0
   12.4070   -5.1470    0.0000 C   0  0  0  0  0  0  0  0  0  0  0  0
   10.9140   -5.0030    0.0000 C   0  0  0  0  0  0  0  0  0  0  0  0
    9.9200   -6.1260    0.0000 S   0  0  0  0  0  0  0  0  0  0  0  0
    8.5440   -5.5280    0.0000 C   0  0  0  0  0  0  0  0  0  0  0  0
    7.2520   -6.2890    0.0000 N   0  0  0  0  0  0  0  0  0  0  0  0
    5.9460   -5.5500    0.0000 C   0  0  0  0  0  0  0  0  0  0  0  0
    5.9330   -4.0500    0.0000 N   0  0  0  0  0  0  0  0  0  0  0  0
    4.6280   -3.3120    0.0000 C   0  0  0  0  0  0  0  0  0  0  0  0
    4.6150   -1.8120    0.0000 C   0  0  0  0  0  0  0  0  0  0  0  0
    3.3350   -4.0730    0.0000 N   0  0  0  0  0  0  0  0  0  0  0  0
    3.3480   -5.5730    0.0000 C   0  0  0  0  0  0  0  0  0  0  0  0
    2.0560   -6.3340    0.0000 N   0  0  0  0  0  0  0  0  0  0  0  0
    0.7500   -5.5950    0.0000 C   0  0  0  0  0  0  0  0  0  0  0  0
   -0.5420   -6.3570    0.0000 C   0  0  0  0  0  0  0  0  0  0  0  0
   -0.5290   -7.8570    0.0000 N   0  0  0  0  0  0  0  0  0  0  0  0
    0.7760   -8.5950    0.0000 C   0  0  0  0  0  0  0  0  0  0  0  0
    2.0690   -7.8340    0.0000 C   0  0  0  0  0  0  0  0  0  0  0  0
    4.6540   -6.3120    0.0000 C   0  0  0  0  0  0  0  0  0  0  0  0
    8.6880   -4.0350    0.0000 N   0  0  0  0  0  0  0  0  0  0  0  0
   10.1520   -3.7100    0.0000 C   0  0  0  0  0  0  0  0  0  0  0  0
  1  2  2  0  0  0  0
  2  3  1  0  0  0  0
  3  4  1  0  0  0  0
  3 21  2  0  0  0  0
  4  5  1  0  0  0  0
  5  6  1  0  0  0  0
  5 20  2  0  0  0  0
  6  7  1  0  0  0  0
  7  8  1  0  0  0  0
  7 19  2  0  0  0  0
  8  9  2  0  0  0  0
  9 10  1  0  0  0  0
  9 11  1  0  0  0  0
 11 12  2  0  0  0  0
 12 13  1  0  0  0  0
 12 19  1  0  0  0  0
 13 14  1  0  0  0  0
 13 18  1  0  0  0  0
 14 15  1  0  0  0  0
 15 16  1  0  0  0  0
 16 17  1  0  0  0  0
 17 18  1  0  0  0  0
 20 21  1  0  0  0  0
M  END
>  <name>
O=[C;amide]c1sc(Nc2nc(C)nc(N3CC[N;amine]CC3)c2)nc1

>  <apo>
2

>  <freq>
1

>  <freq0>
0

>  <freq1>
1

>  <freqA>
0.99887151

>  <a_count>
37

$$$$

  MOE2015           2D

 24 25  0  0  1  0  0  0  0  0999 V2000
    6.6380   -2.8880    0.0000 O   0  0  0  0  0  0  0  0  0  0  0  0
    6.6380   -4.3880    0.0000 N   0  3  0  0  0  0  0  0  0  0  0  0
    7.9370   -5.1380    0.0000 O   0  5  0  0  0  0  0  0  0  0  0  0
    5.3390   -5.1380    0.0000 C   0  0  0  0  0  0  0  0  0  0  0  0
    4.0400   -4.3880    0.0000 C   0  0  0  0  0  0  0  0  0  0  0  0
    2.7410   -5.1380    0.0000 C   0  0  0  0  0  0  0  0  0  0  0  0
    1.4420   -4.3880    0.0000 C   0  0  3  0  0  0  0  0  0  0  0  0
    0.1430   -5.1380    0.0000 C   0  0  0  0  0  0  0  0  0  0  0  0
    0.1430   -6.6380    0.0000 C   0  0  0  0  0  0  0  0  0  0  0  0
    1.4420   -7.3880    0.0000 O   0  0  0  0  0  0  0  0  0  0  0  0
   -1.1560   -7.3880    0.0000 O   0  0  0  0  0  0  0  0  0  0  0  0
   -1.1560   -8.8880    0.0000 C   0  0  0  0  0  0  0  0  0  0  0  0
   -1.1560   -4.3880    0.0000 C   0  0  0  0  0  0  0  0  0  0  0  0
   -2.4550   -5.1380    0.0000 C   0  0  0  0  0  0  0  0  0  0  0  0
   -3.7540   -5.8880    0.0000 N   0  0  0  0  0  0  0  0  0  0  0  0
   -1.1560   -2.8880    0.0000 N   0  0  0  0  0  0  0  0  0  0  0  0
    0.1430   -2.1380    0.0000 C   0  0  0  0  0  0  0  0  0  0  0  0
    0.1430   -0.6380    0.0000 C   0  0  0  0  0  0  0  0  0  0  0  0
    1.4420   -2.8880    0.0000 C   0  0  0  0  0  0  0  0  0  0  0  0
    2.7410   -2.1380    0.0000 C   0  0  0  0  0  0  0  0  0  0  0  0
    2.7410   -0.6380    0.0000 O   0  0  0  0  0  0  0  0  0  0  0  0
    2.7410   -6.6380    0.0000 C   0  0  0  0  0  0  0  0  0  0  0  0
    4.0400   -7.3880    0.0000 C   0  0  0  0  0  0  0  0  0  0  0  0
    5.3390   -6.6380    0.0000 C   0  0  0  0  0  0  0  0  0  0  0  0
  1  2  2  0  0  0  0
  2  3  1  0  0  0  0
  2  4  1  0  0  0  0
  4  5  1  0  0  0  0
  4 24  2  0  0  0  0
  5  6  2  0  0  0  0
  6  7  1  0  0  0  0
  6 22  1  0  0  0  0
  7  8  1  0  0  0  0
  7 19  1  0  0  0  0
  8  9  1  0  0  0  0
  8 13  2  0  0  0  0
  9 10  2  0  0  0  0
  9 11  1  0  0  0  0
 11 12  1  0  0  0  0
 13 14  1  0  0  0  0
 13 16  1  0  0  0  0
 14 15  3  0  0  0  0
 16 17  1  0  0  0  0
 17 18  1  0  0  0  0
 17 19  2  0  0  0  0
 19 20  1  0  0  0  0
 20 21  2  0  0  0  0
 22 23  2  0  0  0  0
 23 24  1  0  0  0  0
M  CHG  1   2   1
M  CHG  1   3  -1
M  END
>  <name>
O=[N+]([O-])c1cc(C2C(C(=O)OC)=C(C#N)NC(C)=C2[C;ester]=O)ccc1

>  <apo>
1

>  <freq>
1

>  <freq0>
0

>  <freq1>
1

>  <freqA>
0.99887151

>  <a_count>
37

$$$$

  MOE2015           2D

 15 15  0  0  1  0  0  0  0  0999 V2000
    6.1500    3.5510    0.0000 O   0  0  0  0  0  0  0  0  0  0  0  0
    5.4000    2.2520    0.0000 C   0  0  3  0  0  0  0  0  0  0  0  0
    6.1500    0.9530    0.0000 C   0  0  0  0  0  0  0  0  0  0  0  0
    7.6500    0.9530    0.0000 C   0  0  0  0  0  0  0  0  0  0  0  0
    8.4000   -0.3460    0.0000 C   0  0  0  0  0  0  0  0  0  0  0  0
    3.9000    2.2520    0.0000 C   0  0  0  0  0  0  0  0  0  0  0  0
    3.1500    0.9530    0.0000 C   0  0  0  0  0  0  0  0  0  0  0  0
    1.6500    0.9530    0.0000 C   0  0  0  0  0  0  0  0  0  0  0  0
    0.9000    2.2520    0.0000 C   0  0  0  0  0  0  0  0  0  0  0  0
   -0.6000    2.2520    0.0000 C   0  0  0  0  0  0  0  0  0  0  0  0
   -0.6000    0.7520    0.0000 C   0  0  0  0  0  0  0  0  0  0  0  0
   -0.6000    3.7520    0.0000 C   0  0  0  0  0  0  0  0  0  0  0  0
   -2.1000    2.2520    0.0000 C   0  0  0  0  0  0  0  0  0  0  0  0
    1.6500    3.5510    0.0000 C   0  0  0  0  0  0  0  0  0  0  0  0
    3.1500    3.5510    0.0000 C   0  0  0  0  0  0  0  0  0  0  0  0
  1  2  1  0  0  0  0
  2  3  1  0  0  0  0
  2  6  1  0  0  0  0
  3  4  1  0  0  0  0
  4  5  1  0  0  0  0
  6  7  1  0  0  0  0
  6 15  2  0  0  0  0
  7  8  2  0  0  0  0
  8  9  1  0  0  0  0
  9 10  1  0  0  0  0
  9 14  2  0  0  0  0
 10 11  1  0  0  0  0
 10 12  1  0  0  0  0
 10 13  1  0  0  0  0
 14 15  1  0  0  0  0
M  END
>  <name>
OC(CC[C;amine])c1ccc(C(C)(C)C)cc1

>  <apo>
1

>  <freq>
1

>  <freq0>
0

>  <freq1>
1

>  <freqA>
0.99887151

>  <a_count>
37

$$$$

  MOE2015           2D

 17 19  0  0  1  0  0  0  0  0999 V2000
    1.6360   -1.2100    0.0000 O   0  0  0  0  0  0  0  0  0  0  0  0
    1.6470    0.2900    0.0000 C   0  0  3  0  0  0  0  0  0  0  0  0
    1.6570    1.7900    0.0000 C   0  0  0  0  0  0  0  0  0  0  0  0
    0.3640    2.5490    0.0000 C   0  0  0  0  0  0  0  0  0  0  0  0
    3.1470    0.2790    0.0000 C   0  0  0  0  0  0  0  0  0  0  0  0
    3.9060    1.5730    0.0000 C   0  0  0  0  0  0  0  0  0  0  0  0
    5.4060    1.5620    0.0000 C   0  0  0  0  0  0  0  0  0  0  0  0
    6.1470    0.2580    0.0000 C   0  0  0  0  0  0  0  0  0  0  0  0
    5.3870   -1.0360    0.0000 C   0  0  0  0  0  0  0  0  0  0  0  0
    3.8870   -1.0250    0.0000 C   0  0  0  0  0  0  0  0  0  0  0  0
    0.1470    0.3010    0.0000 C   0  0  3  0  0  0  0  0  0  0  0  0
   -0.8970   -0.8240    0.0000 C   0  0  3  0  0  0  0  0  0  0  0  0
   -2.1360   -0.4150    0.0000 C   0  0  0  0  0  0  0  0  0  0  0  0
   -3.0350    0.4600    0.0000 C   0  0  0  0  0  0  0  0  0  0  0  0
   -1.6150    0.2080    0.0000 C   0  0  3  0  0  0  0  0  0  0  0  0
   -0.6270    1.1590    0.0000 C   0  0  0  0  0  0  0  0  0  0  0  0
   -0.7560   -2.1990    0.0000 C   0  0  0  0  0  0  0  0  0  0  0  0
  1  2  1  0  0  0  0
  2  3  1  0  0  0  0
  2  5  1  0  0  0  0
  2 11  1  0  0  0  0
  3  4  1  0  0  0  0
  5  6  1  0  0  0  0
  5 10  2  0  0  0  0
  6  7  2  0  0  0  0
  7  8  1  0  0  0  0
  8  9  2  0  0  0  0
  9 10  1  0  0  0  0
 11 12  1  0  0  0  0
 11 16  1  0  0  0  0
 12 13  1  0  0  0  0
 12 17  1  0  0  0  0
 13 14  2  0  0  0  0
 14 15  1  0  0  0  0
 15 16  1  0  0  0  0
 15 17  1  0  0  0  0
M  END
>  <name>
OC(C[C;amine])(c1ccccc1)C1C2C=CC(C1)C2

>  <apo>
1

>  <freq>
1

>  <freq0>
0

>  <freq1>
1

>  <freqA>
0.99887151

>  <a_count>
37

$$$$

  MOE2015           2D

 20 21  0  0  0  0  0  0  0  0999 V2000
   -6.6900    3.8630    0.0000 S   0  0  0  0  0  0  0  0  0  0  0  0
   -7.4400    5.1620    0.0000 O   0  0  0  0  0  0  0  0  0  0  0  0
   -5.9400    2.5630    0.0000 O   0  0  0  0  0  0  0  0  0  0  0  0
   -7.9890    3.1130    0.0000 O   0  5  0  0  0  0  0  0  0  0  0  0
   -5.3910    4.6130    0.0000 C   0  0  0  0  0  0  0  0  0  0  0  0
   -4.0920    3.8630    0.0000 C   0  0  0  0  0  0  0  0  0  0  0  0
   -2.7930    4.6130    0.0000 C   0  0  0  0  0  0  0  0  0  0  0  0
   -1.4940    3.8620    0.0000 C   0  0  0  0  0  0  0  0  0  0  0  0
   -0.1950    4.6130    0.0000 N   0  3  0  0  0  0  0  0  0  0  0  0
   -0.1950    6.1120    0.0000 C   0  0  0  0  0  0  0  0  0  0  0  0
    1.1040    6.8630    0.0000 C   0  0  0  0  0  0  0  0  0  0  0  0
    1.1040    3.8620    0.0000 C   0  0  0  0  0  0  0  0  0  0  0  0
    1.1040    2.3630    0.0000 C   0  0  0  0  0  0  0  0  0  0  0  0
    2.4030    1.6120    0.0000 C   0  0  0  0  0  0  0  0  0  0  0  0
    3.7020    2.3620    0.0000 C   0  0  0  0  0  0  0  0  0  0  0  0
    3.7020    3.8620    0.0000 C   0  0  0  0  0  0  0  0  0  0  0  0
    2.4030    4.6120    0.0000 C   0  0  0  0  0  0  0  0  0  0  0  0
   -2.7930    6.1130    0.0000 C   0  0  0  0  0  0  0  0  0  0  0  0
   -4.0920    6.8630    0.0000 C   0  0  0  0  0  0  0  0  0  0  0  0
   -5.3910    6.1130    0.0000 C   0  0  0  0  0  0  0  0  0  0  0  0
  1  2  2  0  0  0  0
  1  3  2  0  0  0  0
  1  4  1  0  0  0  0
  1  5  1  0  0  0  0
  5  6  2  0  0  0  0
  5 20  1  0  0  0  0
  6  7  1  0  0  0  0
  7  8  1  0  0  0  0
  7 18  2  0  0  0  0
  8  9  1  0  0  0  0
  9 10  1  0  0  0  0
  9 12  2  0  0  0  0
 10 11  1  0  0  0  0
 12 13  1  0  0  0  0
 12 17  1  0  0  0  0
 13 14  2  0  0  0  0
 14 15  1  0  0  0  0
 15 16  1  0  0  0  0
 16 17  2  0  0  0  0
 18 19  1  0  0  0  0
 19 20  2  0  0  0  0
M  CHG  1   4  -1
M  CHG  1   9   1
M  END
>  <name>
S(=O)(=O)([O-])c1cc(C/[N+](/CC)=C/2\C=C[C;olefin]C=C\2)ccc1

>  <apo>
1

>  <freq>
1

>  <freq0>
0

>  <freq1>
1

>  <freqA>
0.99887151

>  <a_count>
37

$$$$

  MOE2015           2D

 24 26  0  0  1  0  0  0  0  0999 V2000
    3.3990   -0.9110    0.0000 S   0  0  0  0  0  0  0  0  0  0  0  0
    2.1000   -0.1610    0.0000 C   0  0  0  0  0  0  0  0  0  0  0  0
    0.8010   -0.9110    0.0000 C   0  0  0  0  0  0  0  0  0  0  0  0
   -0.4980   -0.1610    0.0000 C   0  0  0  0  0  0  0  0  0  0  0  0
   -0.4980    1.3390    0.0000 C   0  0  0  0  0  0  0  0  0  0  0  0
   -1.7970    2.0890    0.0000 O   0  0  0  0  0  0  0  0  0  0  0  0
    0.8010    2.0890    0.0000 O   0  0  0  0  0  0  0  0  0  0  0  0
   -1.7970   -0.9110    0.0000 N   0  0  0  0  0  0  0  0  0  0  0  0
   -3.2970   -0.9110    0.0000 C   0  0  0  0  0  0  0  0  0  0  0  0
   -4.3580    0.1500    0.0000 O   0  0  0  0  0  0  0  0  0  0  0  0
   -3.2970   -2.4110    0.0000 C   0  0  1  0  0  0  0  0  0  0  0  0
   -4.3580   -3.4710    0.0000 N   0  0  0  0  0  0  0  0  0  0  0  0
   -1.7970   -2.4110    0.0000 C   0  0  1  0  0  0  0  0  0  0  0  0
   -0.4980   -3.1610    0.0000 S   0  0  0  0  0  0  0  0  0  0  0  0
    0.8010   -2.4110    0.0000 C   0  0  0  0  0  0  0  0  0  0  0  0
    4.6980   -0.1610    0.0000 C   0  0  0  0  0  0  0  0  0  0  0  0
    5.9970   -0.9110    0.0000 N   0  0  0  0  0  0  0  0  0  0  0  0
    5.9970   -2.4110    0.0000 C   0  0  0  0  0  0  0  0  0  0  0  0
    7.2960   -0.1610    0.0000 N   0  0  0  0  0  0  0  0  0  0  0  0
    7.2960    1.3390    0.0000 C   0  0  0  0  0  0  0  0  0  0  0  0
    8.5950    2.0890    0.0000 O   0  0  0  0  0  0  0  0  0  0  0  0
    5.9970    2.0890    0.0000 C   0  0  0  0  0  0  0  0  0  0  0  0
    5.9970    3.5890    0.0000 O   0  0  0  0  0  0  0  0  0  0  0  0
    4.6980    1.3390    0.0000 N   0  0  0  0  0  0  0  0  0  0  0  0
  1  2  1  0  0  0  0
  1 16  1  0  0  0  0
  2  3  1  0  0  0  0
  3  4  2  0  0  0  0
  3 15  1  0  0  0  0
  4  5  1  0  0  0  0
  4  8  1  0  0  0  0
  5  6  2  0  0  0  0
  5  7  1  0  0  0  0
  8  9  1  0  0  0  0
 13  8  1  6  0  0  0
  9 10  2  0  0  0  0
  9 11  1  0  0  0  0
 11 12  1  6  0  0  0
 11 13  1  0  0  0  0
 13 14  1  0  0  0  0
 14 15  1  0  0  0  0
 16 17  1  0  0  0  0
 16 24  2  0  0  0  0
 17 18  1  0  0  0  0
 17 19  1  0  0  0  0
 19 20  1  0  0  0  0
 20 21  2  0  0  0  0
 20 22  1  0  0  0  0
 22 23  2  0  0  0  0
 22 24  1  0  0  0  0
M  END
>  <name>
S(CC1=C(C(=O)O)N2C(=O)[C@@H]([N;amide])[C@H]2SC1)C=1N(C)NC(=O)C(=O)N=1

>  <apo>
1

>  <freq>
1

>  <freq0>
0

>  <freq1>
1

>  <freqA>
0.99887151

>  <a_count>
37

$$$$

  MOE2015           2D

 15 15  0  0  0  0  0  0  0  0999 V2000
   10.4000    0.0000    0.0000 O   0  0  0  0  0  0  0  0  0  0  0  0
    8.9000    0.0000    0.0000 C   0  0  0  0  0  0  0  0  0  0  0  0
    8.1500    1.2990    0.0000 C   0  0  0  0  0  0  0  0  0  0  0  0
    6.6500    1.2990    0.0000 C   0  0  0  0  0  0  0  0  0  0  0  0
    5.9000    0.0000    0.0000 C   0  0  0  0  0  0  0  0  0  0  0  0
    4.4000    0.0000    0.0000 C   0  0  0  0  0  0  0  0  0  0  0  0
    2.9000    0.0000    0.0000 C   0  0  0  0  0  0  0  0  0  0  0  0
    2.1500   -1.2990    0.0000 C   0  0  0  0  0  0  0  0  0  0  0  0
    2.9000   -2.5980    0.0000 C   0  0  0  0  0  0  0  0  0  0  0  0
    0.6500   -1.2990    0.0000 C   0  0  0  0  0  0  0  0  0  0  0  0
    1.4000    0.0000    0.0000 C   0  0  0  0  0  0  0  0  0  0  0  0
    4.4000   -1.5000    0.0000 C   0  0  0  0  0  0  0  0  0  0  0  0
    4.4000    1.5000    0.0000 C   0  0  0  0  0  0  0  0  0  0  0  0
    6.6500   -1.2990    0.0000 C   0  0  0  0  0  0  0  0  0  0  0  0
    8.1500   -1.2990    0.0000 C   0  0  0  0  0  0  0  0  0  0  0  0
  1  2  1  0  0  0  0
  2  3  1  0  0  0  0
  2 15  2  0  0  0  0
  3  4  2  0  0  0  0
  4  5  1  0  0  0  0
  5  6  1  0  0  0  0
  5 14  2  0  0  0  0
  6  7  1  0  0  0  0
  6 12  1  0  0  0  0
  6 13  1  0  0  0  0
  7  8  1  0  0  0  0
  8  9  1  0  0  0  0
  8 10  1  0  0  0  0
  8 11  1  0  0  0  0
 14 15  1  0  0  0  0
M  END
>  <name>
[O;ether]c1ccc(C(CC(C)(C)C)(C)C)cc1

>  <apo>
1

>  <freq>
1

>  <freq0>
0

>  <freq1>
1

>  <freqA>
0.99887151

>  <a_count>
37

$$$$

  MOE2015           2D

 19 19  0  0  0  0  0  0  0  0999 V2000
    0.0000    0.0000    0.0000 S   0  0  0  0  0  0  0  0  0  0  0  0
    1.5000    0.0000    0.0000 C   0  0  0  0  0  0  0  0  0  0  0  0
    2.2500   -1.2990    0.0000 C   0  0  0  0  0  0  0  0  0  0  0  0
    3.7500   -1.2990    0.0000 N   0  0  0  0  0  0  0  0  0  0  0  0
    4.5000   -2.5980    0.0000 C   0  0  0  0  0  0  0  0  0  0  0  0
    3.7500   -3.8970    0.0000 O   0  0  0  0  0  0  0  0  0  0  0  0
    4.5000    0.0000    0.0000 C   0  0  0  0  0  0  0  0  0  0  0  0
    6.0000    0.0000    0.0000 C   0  0  0  0  0  0  0  0  0  0  0  0
    6.7500    1.2990    0.0000 C   0  0  0  0  0  0  0  0  0  0  0  0
    6.0000    2.5980    0.0000 N   0  0  0  0  0  0  0  0  0  0  0  0
    8.2500    1.2990    0.0000 N   0  0  0  0  0  0  0  0  0  0  0  0
    9.0000    0.0000    0.0000 C   0  0  0  0  0  0  0  0  0  0  0  0
   10.5000    0.0000    0.0000 C   0  0  0  0  0  0  0  0  0  0  0  0
    8.2500   -1.2990    0.0000 N   0  0  0  0  0  0  0  0  0  0  0  0
    6.7500   -1.2990    0.0000 C   0  0  0  0  0  0  0  0  0  0  0  0
    1.5000   -2.5980    0.0000 C   0  0  0  0  0  0  0  0  0  0  0  0
    2.2500    1.2990    0.0000 C   0  0  0  0  0  0  0  0  0  0  0  0
    1.5000    2.5980    0.0000 C   0  0  0  0  0  0  0  0  0  0  0  0
    2.2500    3.8970    0.0000 O   0  0  0  0  0  0  0  0  0  0  0  0
  1  2  1  0  0  0  0
  2  3  2  0  0  0  0
  2 17  1  0  0  0  0
  3  4  1  0  0  0  0
  3 16  1  0  0  0  0
  4  5  1  0  0  0  0
  4  7  1  0  0  0  0
  5  6  2  0  0  0  0
  7  8  1  0  0  0  0
  8  9  1  0  0  0  0
  8 15  2  0  0  0  0
  9 10  1  0  0  0  0
  9 11  2  0  0  0  0
 11 12  1  0  0  0  0
 12 13  1  0  0  0  0
 12 14  2  0  0  0  0
 14 15  1  0  0  0  0
 17 18  1  0  0  0  0
 18 19  1  0  0  0  0
M  END
>  <name>
[S;disulfide]/C(=C(/N(C=O)Cc1c(N)nc(C)nc1)\C)/CCO

>  <apo>
1

>  <freq>
1

>  <freq0>
0

>  <freq1>
1

>  <freqA>
0.99887151

>  <a_count>
37

$$$$

  MOE2015           2D

 15 16  0  0  0  0  0  0  0  0999 V2000
   -1.6100    3.2060    0.0000 C   0  0  0  0  0  0  0  0  0  0  0  0
   -2.9090    3.9560    0.0000 C   0  0  0  0  0  0  0  0  0  0  0  0
   -0.8600    4.5050    0.0000 C   0  0  0  0  0  0  0  0  0  0  0  0
   -0.3110    2.4560    0.0000 C   0  0  0  0  0  0  0  0  0  0  0  0
   -2.3600    1.9070    0.0000 C   0  0  0  0  0  0  0  0  0  0  0  0
   -1.6100    0.6080    0.0000 C   0  0  0  0  0  0  0  0  0  0  0  0
   -0.1100    0.6080    0.0000 N   0  0  0  0  0  0  0  0  0  0  0  0
    0.7720    1.8210    0.0000 C   0  0  0  0  0  0  0  0  0  0  0  0
    2.1990    1.3580    0.0000 C   0  0  0  0  0  0  0  0  0  0  0  0
    2.1990   -0.1420    0.0000 C   0  0  0  0  0  0  0  0  0  0  0  0
    0.7720   -0.6060    0.0000 C   0  0  0  0  0  0  0  0  0  0  0  0
   -2.3600   -0.6910    0.0000 C   0  0  0  0  0  0  0  0  0  0  0  0
   -3.8600   -0.6910    0.0000 C   0  0  0  0  0  0  0  0  0  0  0  0
   -4.6100    0.6080    0.0000 C   0  0  0  0  0  0  0  0  0  0  0  0
   -3.8600    1.9070    0.0000 C   0  0  0  0  0  0  0  0  0  0  0  0
  1  2  1  0  0  0  0
  1  3  1  0  0  0  0
  1  4  1  0  0  0  0
  1  5  1  0  0  0  0
  5  6  1  0  0  0  0
  5 15  2  0  0  0  0
  6  7  1  0  0  0  0
  6 12  2  0  0  0  0
  7  8  1  0  0  0  0
  7 11  1  0  0  0  0
  8  9  1  0  0  0  0
  9 10  1  0  0  0  0
 10 11  1  0  0  0  0
 12 13  1  0  0  0  0
 13 14  2  0  0  0  0
 14 15  1  0  0  0  0
M  END
>  <name>
C(C)(C)(C)c1c(N2CCCC2)cc[c;biphenyl]c1

>  <apo>
1

>  <freq>
1

>  <freq0>
0

>  <freq1>
1

>  <freqA>
0.99887151

>  <a_count>
36

$$$$

  MOE2015           2D

 14 14  0  0  0  0  0  0  0  0999 V2000
   -2.7360   -2.7360    0.0000 C   0  0  0  0  0  0  0  0  0  0  0  0
   -2.7360   -4.2360    0.0000 C   0  0  0  0  0  0  0  0  0  0  0  0
   -2.7360   -1.2360    0.0000 C   0  0  0  0  0  0  0  0  0  0  0  0
   -4.2360   -2.7360    0.0000 C   0  0  0  0  0  0  0  0  0  0  0  0
   -1.2360   -2.7360    0.0000 C   0  0  0  0  0  0  0  0  0  0  0  0
   -0.4860   -4.0350    0.0000 C   0  0  0  0  0  0  0  0  0  0  0  0
    1.0140   -4.0350    0.0000 C   0  0  0  0  0  0  0  0  0  0  0  0
    1.7640   -2.7360    0.0000 C   0  0  0  0  0  0  0  0  0  0  0  0
    3.2640   -2.7360    0.0000 C   0  0  0  0  0  0  0  0  0  0  0  0
    4.0140   -4.0350    0.0000 C   0  0  0  0  0  0  0  0  0  0  0  0
    5.5140   -4.0350    0.0000 C   0  0  0  0  0  0  0  0  0  0  0  0
    3.2640   -5.3340    0.0000 C   0  0  0  0  0  0  0  0  0  0  0  0
    1.0140   -1.4370    0.0000 C   0  0  0  0  0  0  0  0  0  0  0  0
   -0.4860   -1.4370    0.0000 C   0  0  0  0  0  0  0  0  0  0  0  0
  1  2  1  0  0  0  0
  1  3  1  0  0  0  0
  1  4  1  0  0  0  0
  1  5  1  0  0  0  0
  5  6  1  0  0  0  0
  5 14  2  0  0  0  0
  6  7  2  0  0  0  0
  7  8  1  0  0  0  0
  8  9  1  0  0  0  0
  8 13  2  0  0  0  0
  9 10  1  0  0  0  0
 10 11  1  0  0  0  0
 10 12  1  0  0  0  0
 13 14  1  0  0  0  0
M  END
>  <name>
C(C)(C)(C)c1ccc(CC(C)[C;amine])cc1

>  <apo>
1

>  <freq>
1

>  <freq0>
0

>  <freq1>
1

>  <freqA>
0.99887151

>  <a_count>
36

$$$$

  MOE2015           2D

 19 22  0  0  1  0  0  0  0  0999 V2000
   -0.0780    2.4940    0.0000 C   0  0  0  0  0  0  0  0  0  0  0  0
    1.4190    2.5870    0.0000 C   0  0  0  0  0  0  0  0  0  0  0  0
   -0.7450    1.1500    0.0000 C   0  0  1  0  0  0  0  0  0  0  0  0
   -2.2240    0.9010    0.0000 C   0  0  1  0  0  0  0  0  0  0  0  0
   -3.2960    1.9510    0.0000 C   0  0  0  0  0  0  0  0  0  0  0  0
   -4.7750    1.7010    0.0000 N   0  0  0  0  0  0  0  0  0  0  0  0
   -5.5790    0.4350    0.0000 C   0  0  0  0  0  0  0  0  0  0  0  0
   -7.0780    0.4990    0.0000 C   0  0  0  0  0  0  0  0  0  0  0  0
   -7.6010   -0.9070    0.0000 N   0  0  0  0  0  0  0  0  0  0  0  0
   -6.4260   -1.8390    0.0000 C   0  0  0  0  0  0  0  0  0  0  0  0
   -5.1760   -1.0100    0.0000 C   0  0  0  0  0  0  0  0  0  0  0  0
   -7.7720    1.8280    0.0000 N   0  0  0  0  0  0  0  0  0  0  0  0
   -6.9680    3.0940    0.0000 C   0  0  0  0  0  0  0  0  0  0  0  0
   -5.4690    3.0310    0.0000 C   0  0  0  0  0  0  0  0  0  0  0  0
   -4.4190    4.1020    0.0000 N   0  0  0  0  0  0  0  0  0  0  0  0
   -3.0760    3.4350    0.0000 C   0  0  0  0  0  0  0  0  0  0  0  0
   -2.4440   -0.5830    0.0000 C   0  0  0  0  0  0  0  0  0  0  0  0
   -1.1010   -1.2510    0.0000 N   0  0  0  0  0  0  0  0  0  0  0  0
   -0.0510   -0.1790    0.0000 C   0  0  0  0  0  0  0  0  0  0  0  0
  1  2  1  0  0  0  0
  3  1  1  6  0  0  0
  3  4  1  0  0  0  0
  3 19  1  0  0  0  0
  4  5  1  6  0  0  0
  4 17  1  0  0  0  0
  5  6  1  0  0  0  0
  5 16  2  0  0  0  0
  6  7  1  0  0  0  0
  6 14  1  0  0  0  0
  7  8  2  0  0  0  0
  7 11  1  0  0  0  0
  8  9  1  0  0  0  0
  8 12  1  0  0  0  0
  9 10  1  0  0  0  0
 10 11  2  0  0  0  0
 12 13  2  0  0  0  0
 13 14  1  0  0  0  0
 14 15  2  0  0  0  0
 15 16  1  0  0  0  0
 17 18  1  0  0  0  0
 18 19  1  0  0  0  0
M  END
>  <name>
C(C)[C@H]1[C@@H](c2n3-c4c([nH]cc4)N=Cc3nc2)C[N;urea]C1

>  <apo>
1

>  <freq>
1

>  <freq0>
0

>  <freq1>
1

>  <freqA>
0.99887151

>  <a_count>
36

$$$$

  MOE2015           2D

 18 20  0  0  0  0  0  0  0  0999 V2000
    0.5910    0.5710    0.0000 C   0  0  0  0  0  0  0  0  0  0  0  0
    2.0400    0.1830    0.0000 C   0  0  0  0  0  0  0  0  0  0  0  0
    2.4280   -1.2660    0.0000 C   0  0  0  0  0  0  0  0  0  0  0  0
    3.9020   -1.5460    0.0000 C   0  0  0  0  0  0  0  0  0  0  0  0
    4.6020   -2.8720    0.0000 C   0  0  0  0  0  0  0  0  0  0  0  0
    6.1010   -2.9280    0.0000 C   0  0  0  0  0  0  0  0  0  0  0  0
    6.8990   -1.6580    0.0000 C   0  0  0  0  0  0  0  0  0  0  0  0
    6.1990   -0.3320    0.0000 C   0  0  0  0  0  0  0  0  0  0  0  0
    4.7000   -0.2760    0.0000 C   0  0  0  0  0  0  0  0  0  0  0  0
    4.0030   -4.2470    0.0000 C   0  0  0  0  0  0  0  0  0  0  0  0
    2.5550   -4.6370    0.0000 C   0  0  0  0  0  0  0  0  0  0  0  0
    1.3480   -3.7440    0.0000 C   0  0  0  0  0  0  0  0  0  0  0  0
    1.2920   -2.2450    0.0000 C   0  0  0  0  0  0  0  0  0  0  0  0
   -0.0350   -1.5450    0.0000 C   0  0  0  0  0  0  0  0  0  0  0  0
   -1.3050   -2.3430    0.0000 C   0  0  0  0  0  0  0  0  0  0  0  0
   -1.2480   -3.8420    0.0000 C   0  0  0  0  0  0  0  0  0  0  0  0
    0.0780   -4.5420    0.0000 C   0  0  0  0  0  0  0  0  0  0  0  0
    0.2030    2.0200    0.0000 C   0  0  0  0  0  0  0  0  0  0  0  0
  1  2  1  0  0  0  0
  1 18  1  0  0  0  0
  2  3  1  0  0  0  0
  3  4  1  0  0  0  0
  3 13  1  0  0  0  0
  4  5  1  0  0  0  0
  4  9  2  0  0  0  0
  5  6  2  0  0  0  0
  5 10  1  0  0  0  0
  6  7  1  0  0  0  0
  7  8  2  0  0  0  0
  8  9  1  0  0  0  0
 10 11  2  0  0  0  0
 11 12  1  0  0  0  0
 12 13  1  0  0  0  0
 12 17  2  0  0  0  0
 13 14  2  0  0  0  0
 14 15  1  0  0  0  0
 15 16  2  0  0  0  0
 16 17  1  0  0  0  0
M  END
>  <name>
C(CC1c2c(cccc2)C=Cc2c1cccc2)[C;amine]

>  <apo>
1

>  <freq>
1

>  <freq0>
0

>  <freq1>
1

>  <freqA>
0.99887151

>  <a_count>
36

$$$$

  MOE2015           2D

 17 20  0  0  1  0  0  0  0  0999 V2000
    0.0130   -2.3730    0.0000 C   0  0  0  0  0  0  0  0  0  0  0  0
    1.5130   -2.3550    0.0000 N   0  0  0  0  0  0  0  0  0  0  0  0
    2.2270   -1.0760    0.0000 C   0  0  0  0  0  0  0  0  0  0  0  0
    3.6940   -1.0640    0.0000 C   0  0  0  0  0  0  0  0  0  0  0  0
    4.4440   -2.3280    0.0000 N   0  0  0  0  0  0  0  0  0  0  0  0
    5.9100   -2.0240    0.0000 C   0  0  2  0  0  0  0  0  0  0  0  0
    5.8820   -0.1580    0.0000 C   0  0  2  0  0  0  0  0  0  0  0  0
    4.4180    0.2130    0.0000 C   0  0  0  0  0  0  0  0  0  0  0  0
    3.6680    1.4790    0.0000 C   0  0  0  0  0  0  0  0  0  0  0  0
    2.1980    1.4620    0.0000 C   0  0  0  0  0  0  0  0  0  0  0  0
    1.4860    0.1850    0.0000 C   0  0  0  0  0  0  0  0  0  0  0  0
    7.3200    0.4250    0.0000 C   0  0  0  0  0  0  0  0  0  0  0  0
    8.5490   -0.4310    0.0000 N   0  0  0  0  0  0  0  0  0  0  0  0
    8.4250   -1.9250    0.0000 C   0  0  0  0  0  0  0  0  0  0  0  0
    7.0690   -2.5650    0.0000 C   0  0  0  0  0  0  0  0  0  0  0  0
    3.7220   -3.6020    0.0000 C   0  0  0  0  0  0  0  0  0  0  0  0
    2.2540   -3.6160    0.0000 C   0  0  0  0  0  0  0  0  0  0  0  0
  1  2  1  0  0  0  0
  2  3  1  0  0  0  0
  2 17  1  0  0  0  0
  3  4  2  0  0  0  0
  3 11  1  0  0  0  0
  4  5  1  0  0  0  0
  4  8  1  0  0  0  0
  6  5  1  6  0  0  0
  5 16  1  0  0  0  0
  6  7  1  0  0  0  0
  6 15  1  0  0  0  0
  7  8  1  0  0  0  0
  7 12  1  6  0  0  0
  8  9  2  0  0  0  0
  9 10  1  0  0  0  0
 10 11  2  0  0  0  0
 12 13  1  0  0  0  0
 13 14  1  0  0  0  0
 14 15  1  0  0  0  0
 16 17  1  0  0  0  0
M  END
>  <name>
CN1c2c3N([C@@H]4[C@H](c3ccc2)C[N;amine]CC4)CC1

>  <apo>
1

>  <freq>
1

>  <freq0>
0

>  <freq1>
1

>  <freqA>
0.99887151

>  <a_count>
36

$$$$

  MOE2015           2D

 23 23  0  0  1  0  0  0  0  0999 V2000
   -1.2380    4.6380    0.0000 Cl  0  0  0  0  0  0  0  0  0  0  0  0
   -0.4930    3.3350    0.0000 C   0  0  0  0  0  0  0  0  0  0  0  0
    0.2510    2.0330    0.0000 Cl  0  0  0  0  0  0  0  0  0  0  0  0
    0.8090    4.0800    0.0000 P   0  0  3  0  0  0  0  0  0  0  0  0
    2.1110    4.8240    0.0000 O   0  0  0  0  0  0  0  0  0  0  0  0
    3.4070    4.0680    0.0000 P   0  0  3  0  0  0  0  0  0  0  0  0
    4.1630    5.3640    0.0000 O   0  0  0  0  0  0  0  0  0  0  0  0
    4.7030    3.3120    0.0000 O   0  0  0  0  0  0  0  0  0  0  0  0
    6.0050    4.0570    0.0000 C   0  0  0  0  0  0  0  0  0  0  0  0
    7.3010    3.3010    0.0000 C   0  0  2  0  0  0  0  0  0  0  0  0
    8.6740    3.9050    0.0000 C   0  0  1  0  0  0  0  0  0  0  0  0
    8.9920    5.3710    0.0000 O   0  0  0  0  0  0  0  0  0  0  0  0
    9.6730    2.7860    0.0000 C   0  0  2  0  0  0  0  0  0  0  0  0
   11.1650    2.9360    0.0000 O   0  0  0  0  0  0  0  0  0  0  0  0
    8.9170    1.4900    0.0000 C   0  0  0  0  0  0  0  0  0  0  0  0
    7.4510    1.8080    0.0000 O   0  0  0  0  0  0  0  0  0  0  0  0
    2.6510    2.7720    0.0000 O   0  0  0  0  0  0  0  0  0  0  0  0
    1.5530    2.7770    0.0000 O   0  0  0  0  0  0  0  0  0  0  0  0
    0.0650    5.3820    0.0000 O   0  0  0  0  0  0  0  0  0  0  0  0
   -1.7960    2.5910    0.0000 P   0  0  0  0  0  0  0  0  0  0  0  0
   -1.0510    1.2890    0.0000 O   0  0  0  0  0  0  0  0  0  0  0  0
   -2.5400    3.8930    0.0000 O   0  0  0  0  0  0  0  0  0  0  0  0
   -3.0980    1.8470    0.0000 O   0  0  0  0  0  0  0  0  0  0  0  0
  1  2  1  0  0  0  0
  2  3  1  0  0  0  0
  2  4  1  0  0  0  0
  2 20  1  0  0  0  0
  4  5  1  0  0  0  0
  4 18  2  0  0  0  0
  4 19  1  0  0  0  0
  5  6  1  0  0  0  0
  6  7  2  0  0  0  0
  6  8  1  0  0  0  0
  6 17  1  0  0  0  0
  8  9  1  0  0  0  0
 10  9  1  6  0  0  0
 10 11  1  0  0  0  0
 10 16  1  0  0  0  0
 11 12  1  1  0  0  0
 11 13  1  0  0  0  0
 13 14  1  6  0  0  0
 13 15  1  0  0  0  0
 15 16  1  0  0  0  0
 20 21  2  0  0  0  0
 20 22  1  0  0  0  0
 20 23  1  0  0  0  0
M  END
>  <name>
ClC(Cl)(P(OP(=O)(OC[C@@H]1[C@@H](O)[C@H](O)[C;NaroC]O1)O)(=O)O)P(=O)(O)O

>  <apo>
1

>  <freq>
1

>  <freq0>
0

>  <freq1>
1

>  <freqA>
0.99887151

>  <a_count>
36

$$$$

  MOE2015           2D

 22 24  0  0  0  0  0  0  0  0999 V2000
    2.6490    6.0590    0.0000 Cl  0  0  0  0  0  0  0  0  0  0  0  0
    3.6680    4.9580    0.0000 C   0  0  0  0  0  0  0  0  0  0  0  0
    3.2230    3.5250    0.0000 C   0  0  0  0  0  0  0  0  0  0  0  0
    4.2420    2.4240    0.0000 C   0  0  0  0  0  0  0  0  0  0  0  0
    3.5880    1.0740    0.0000 C   0  0  0  0  0  0  0  0  0  0  0  0
    2.0880    1.0760    0.0000 C   0  0  0  0  0  0  0  0  0  0  0  0
    1.3360   -0.2220    0.0000 C   0  0  0  0  0  0  0  0  0  0  0  0
    2.0850   -1.5220    0.0000 F   0  0  0  0  0  0  0  0  0  0  0  0
   -0.1640   -0.2200    0.0000 C   0  0  0  0  0  0  0  0  0  0  0  0
   -0.9120    1.0800    0.0000 C   0  0  0  0  0  0  0  0  0  0  0  0
   -0.1600    2.3780    0.0000 C   0  0  0  0  0  0  0  0  0  0  0  0
    1.3400    2.3760    0.0000 C   0  0  0  0  0  0  0  0  0  0  0  0
    4.2380   -0.2780    0.0000 N   0  0  0  0  0  0  0  0  0  0  0  0
    5.7000   -0.6140    0.0000 C   0  0  0  0  0  0  0  0  0  0  0  0
    6.8740    0.3190    0.0000 C   0  0  0  0  0  0  0  0  0  0  0  0
    8.2250   -0.3330    0.0000 O   0  0  0  0  0  0  0  0  0  0  0  0
    6.8770    1.8190    0.0000 N   0  0  0  0  0  0  0  0  0  0  0  0
    8.2280    2.4690    0.0000 C   0  0  0  0  0  0  0  0  0  0  0  0
    9.4670    1.6230    0.0000 C   0  0  0  0  0  0  0  0  0  0  0  0
    5.7050    2.7550    0.0000 C   0  0  0  0  0  0  0  0  0  0  0  0
    6.1490    4.1880    0.0000 C   0  0  0  0  0  0  0  0  0  0  0  0
    5.1310    5.2890    0.0000 C   0  0  0  0  0  0  0  0  0  0  0  0
  1  2  1  0  0  0  0
  2  3  1  0  0  0  0
  2 22  2  0  0  0  0
  3  4  2  0  0  0  0
  4  5  1  0  0  0  0
  4 20  1  0  0  0  0
  5  6  1  0  0  0  0
  5 13  2  0  0  0  0
  6  7  1  0  0  0  0
  6 12  2  0  0  0  0
  7  8  1  0  0  0  0
  7  9  2  0  0  0  0
  9 10  1  0  0  0  0
 10 11  2  0  0  0  0
 11 12  1  0  0  0  0
 13 14  1  0  0  0  0
 14 15  1  0  0  0  0
 15 16  2  0  0  0  0
 15 17  1  0  0  0  0
 17 18  1  0  0  0  0
 17 20  1  0  0  0  0
 18 19  1  0  0  0  0
 20 21  2  0  0  0  0
 21 22  1  0  0  0  0
M  END
>  <name>
Clc1cc2C(c3c(F)cccc3)=NCC(=O)N(C[C;amine])c2cc1

>  <apo>
1

>  <freq>
1

>  <freq0>
0

>  <freq1>
1

>  <freqA>
0.99887151

>  <a_count>
36

$$$$

  MOE2015           2D

 21 23  0  0  0  0  0  0  0  0999 V2000
    5.8670   -5.8670    0.0000 F   0  0  0  0  0  0  0  0  0  0  0  0
    5.8670   -4.3670    0.0000 C   0  0  0  0  0  0  0  0  0  0  0  0
    4.5670   -3.6170    0.0000 C   0  0  0  0  0  0  0  0  0  0  0  0
    3.2680   -4.3670    0.0000 C   0  0  0  0  0  0  0  0  0  0  0  0
    3.2680   -5.8670    0.0000 O   0  0  0  0  0  0  0  0  0  0  0  0
    1.9690   -3.6170    0.0000 N   0  0  0  0  0  0  0  0  0  0  0  0
    0.6700   -4.3670    0.0000 C   0  0  0  0  0  0  0  0  0  0  0  0
   -0.6290   -3.6170    0.0000 C   0  0  0  0  0  0  0  0  0  0  0  0
   -1.9280   -4.3670    0.0000 C   0  0  0  0  0  0  0  0  0  0  0  0
   -1.9280   -5.8670    0.0000 C   0  0  0  0  0  0  0  0  0  0  0  0
   -0.6290   -6.6170    0.0000 C   0  0  0  0  0  0  0  0  0  0  0  0
    0.6700   -5.8670    0.0000 C   0  0  0  0  0  0  0  0  0  0  0  0
    1.9690   -2.1170    0.0000 C   0  0  0  0  0  0  0  0  0  0  0  0
    0.6700   -1.3670    0.0000 C   0  0  0  0  0  0  0  0  0  0  0  0
    0.6700    0.1330    0.0000 C   0  0  0  0  0  0  0  0  0  0  0  0
   -0.6290    0.8830    0.0000 C   0  0  0  0  0  0  0  0  0  0  0  0
    3.2680   -1.3670    0.0000 N   0  0  0  0  0  0  0  0  0  0  0  0
    4.5670   -2.1170    0.0000 C   0  0  0  0  0  0  0  0  0  0  0  0
    5.8670   -1.3670    0.0000 C   0  0  0  0  0  0  0  0  0  0  0  0
    7.1660   -2.1170    0.0000 C   0  0  0  0  0  0  0  0  0  0  0  0
    7.1660   -3.6170    0.0000 C   0  0  0  0  0  0  0  0  0  0  0  0
  1  2  1  0  0  0  0
  2  3  1  0  0  0  0
  2 21  2  0  0  0  0
  3  4  1  0  0  0  0
  3 18  2  0  0  0  0
  4  5  2  0  0  0  0
  4  6  1  0  0  0  0
  6  7  1  0  0  0  0
  6 13  1  0  0  0  0
  7  8  1  0  0  0  0
  7 12  2  0  0  0  0
  8  9  2  0  0  0  0
  9 10  1  0  0  0  0
 10 11  2  0  0  0  0
 11 12  1  0  0  0  0
 13 14  1  0  0  0  0
 13 17  2  0  0  0  0
 14 15  1  0  0  0  0
 15 16  1  0  0  0  0
 17 18  1  0  0  0  0
 18 19  1  0  0  0  0
 19 20  2  0  0  0  0
 20 21  1  0  0  0  0
M  END
>  <name>
Fc1c2C(=O)N(c3ccccc3)C([C;amine]CC)=Nc2ccc1

>  <apo>
1

>  <freq>
1

>  <freq0>
0

>  <freq1>
1

>  <freqA>
0.99887151

>  <a_count>
36

$$$$

  MOE2015           2D

 22 24  0  0  1  0  0  0  0  0999 V2000
    3.3070    5.7280    0.0000 O   0  0  0  0  0  0  0  0  0  0  0  0
    4.0570    4.4290    0.0000 C   0  0  0  0  0  0  0  0  0  0  0  0
    1.8070    5.7280    0.0000 C   0  0  0  0  0  0  0  0  0  0  0  0
    1.0570    7.0270    0.0000 C   0  0  0  0  0  0  0  0  0  0  0  0
    1.8070    8.3260    0.0000 O   0  0  0  0  0  0  0  0  0  0  0  0
   -0.4430    7.0270    0.0000 C   0  0  0  0  0  0  0  0  0  0  0  0
   -1.1930    5.7280    0.0000 C   0  0  0  0  0  0  0  0  0  0  0  0
   -2.6930    5.7280    0.0000 C   0  0  1  0  0  0  0  0  0  0  0  0
   -3.4430    4.4290    0.0000 O   0  0  0  0  0  0  0  0  0  0  0  0
   -4.9430    4.4290    0.0000 C   0  0  0  0  0  0  0  0  0  0  0  0
   -5.6930    5.7280    0.0000 C   0  0  0  0  0  0  0  0  0  0  0  0
   -7.1930    5.7280    0.0000 C   0  0  0  0  0  0  0  0  0  0  0  0
   -7.9430    7.0270    0.0000 O   0  0  0  0  0  0  0  0  0  0  0  0
   -7.9430    4.4290    0.0000 C   0  0  0  0  0  0  0  0  0  0  0  0
   -7.1930    3.1300    0.0000 C   0  0  0  0  0  0  0  0  0  0  0  0
   -7.9430    1.8300    0.0000 O   0  0  0  0  0  0  0  0  0  0  0  0
   -5.6930    3.1300    0.0000 C   0  0  0  0  0  0  0  0  0  0  0  0
   -4.9430    7.0270    0.0000 C   0  0  0  0  0  0  0  0  0  0  0  0
   -5.6930    8.3260    0.0000 O   0  0  0  0  0  0  0  0  0  0  0  0
   -3.4430    7.0270    0.0000 C   0  0  0  0  0  0  0  0  0  0  0  0
   -0.4430    4.4290    0.0000 C   0  0  0  0  0  0  0  0  0  0  0  0
    1.0570    4.4290    0.0000 C   0  0  0  0  0  0  0  0  0  0  0  0
  1  2  1  0  0  0  0
  1  3  1  0  0  0  0
  3  4  2  0  0  0  0
  3 22  1  0  0  0  0
  4  5  1  0  0  0  0
  4  6  1  0  0  0  0
  6  7  2  0  0  0  0
  8  7  1  1  0  0  0
  7 21  1  0  0  0  0
  8  9  1  0  0  0  0
  8 20  1  0  0  0  0
  9 10  1  0  0  0  0
 10 11  2  0  0  0  0
 10 17  1  0  0  0  0
 11 12  1  0  0  0  0
 11 18  1  0  0  0  0
 12 13  1  0  0  0  0
 12 14  2  0  0  0  0
 14 15  1  0  0  0  0
 15 16  1  0  0  0  0
 15 17  2  0  0  0  0
 18 19  2  0  0  0  0
 18 20  1  0  0  0  0
 21 22  2  0  0  0  0
M  END
>  <name>
O(C)c1c(O)cc([C@H]2Oc3c(c(O)cc([O;ether])c3)C(=O)C2)cc1

>  <apo>
1

>  <freq>
1

>  <freq0>
0

>  <freq1>
1

>  <freqA>
0.99887151

>  <a_count>
36

$$$$

  MOE2015           2D

 16 17  0  0  1  0  0  0  0  0999 V2000
    0.0000    0.0000    0.0000 O   0  0  0  0  0  0  0  0  0  0  0  0
    1.5000    0.0000    0.0000 C   0  0  0  0  0  0  0  0  0  0  0  0
   -0.7500    1.2990    0.0000 C   0  0  0  0  0  0  0  0  0  0  0  0
   -2.2500    1.2990    0.0000 C   0  0  0  0  0  0  0  0  0  0  0  0
   -3.0000    2.5980    0.0000 C   0  0  0  0  0  0  0  0  0  0  0  0
   -4.5000    2.5980    0.0000 C   0  0  3  0  0  0  0  0  0  0  0  0
   -3.7500    3.8970    0.0000 O   0  0  0  0  0  0  0  0  0  0  0  0
   -5.7990    3.3480    0.0000 C   0  0  3  0  0  0  0  0  0  0  0  0
   -5.7990    4.8480    0.0000 C   0  0  0  0  0  0  0  0  0  0  0  0
   -7.0980    2.5980    0.0000 C   0  0  0  0  0  0  0  0  0  0  0  0
   -7.0980    1.0980    0.0000 C   0  0  0  0  0  0  0  0  0  0  0  0
   -5.7990    0.3480    0.0000 C   0  0  0  0  0  0  0  0  0  0  0  0
   -4.5000    1.0980    0.0000 C   0  0  0  0  0  0  0  0  0  0  0  0
   -2.2500    3.8970    0.0000 C   0  0  0  0  0  0  0  0  0  0  0  0
   -0.7500    3.8970    0.0000 C   0  0  0  0  0  0  0  0  0  0  0  0
    0.0000    2.5980    0.0000 C   0  0  0  0  0  0  0  0  0  0  0  0
  1  2  1  0  0  0  0
  1  3  1  0  0  0  0
  3  4  1  0  0  0  0
  3 16  2  0  0  0  0
  4  5  2  0  0  0  0
  5  6  1  0  0  0  0
  5 14  1  0  0  0  0
  6  7  1  0  0  0  0
  6  8  1  0  0  0  0
  6 13  1  0  0  0  0
  8  9  1  0  0  0  0
  8 10  1  0  0  0  0
 10 11  1  0  0  0  0
 11 12  1  0  0  0  0
 12 13  1  0  0  0  0
 14 15  2  0  0  0  0
 15 16  1  0  0  0  0
M  END
>  <name>
O(C)c1cc(C2(O)C([C;amine])CCCC2)ccc1

>  <apo>
1

>  <freq>
1

>  <freq0>
0

>  <freq1>
1

>  <freqA>
0.99887151

>  <a_count>
36

$$$$

  MOE2015           2D

 21 23  0  0  0  0  0  0  0  0999 V2000
   -6.7380    1.8060    0.0000 O   0  0  0  0  0  0  0  0  0  0  0  0
   -8.0370    2.5560    0.0000 C   0  0  0  0  0  0  0  0  0  0  0  0
   -6.7380    0.3060    0.0000 C   0  0  0  0  0  0  0  0  0  0  0  0
   -8.0370   -0.4440    0.0000 C   0  0  0  0  0  0  0  0  0  0  0  0
   -8.0370   -1.9440    0.0000 C   0  0  0  0  0  0  0  0  0  0  0  0
   -9.3360   -2.6940    0.0000 O   0  0  0  0  0  0  0  0  0  0  0  0
  -10.6350   -1.9440    0.0000 C   0  0  0  0  0  0  0  0  0  0  0  0
   -6.7380   -2.6940    0.0000 C   0  0  0  0  0  0  0  0  0  0  0  0
   -5.4390   -1.9440    0.0000 C   0  0  0  0  0  0  0  0  0  0  0  0
   -4.1400   -2.6940    0.0000 N   0  0  0  0  0  0  0  0  0  0  0  0
   -2.8410   -1.9440    0.0000 C   0  0  0  0  0  0  0  0  0  0  0  0
   -1.5420   -2.6940    0.0000 C   0  0  0  0  0  0  0  0  0  0  0  0
   -0.2430   -1.9440    0.0000 C   0  0  0  0  0  0  0  0  0  0  0  0
    1.0560   -2.6940    0.0000 N   0  0  0  0  0  0  0  0  0  0  0  0
    2.3550   -1.9440    0.0000 C   0  0  0  0  0  0  0  0  0  0  0  0
    2.3550   -0.4440    0.0000 C   0  0  0  0  0  0  0  0  0  0  0  0
    1.0560    0.3060    0.0000 N   0  0  0  0  0  0  0  0  0  0  0  0
   -0.2430   -0.4440    0.0000 C   0  0  0  0  0  0  0  0  0  0  0  0
   -1.5420    0.3060    0.0000 C   0  0  0  0  0  0  0  0  0  0  0  0
   -2.8410   -0.4440    0.0000 C   0  0  0  0  0  0  0  0  0  0  0  0
   -5.4390   -0.4440    0.0000 C   0  0  0  0  0  0  0  0  0  0  0  0
  1  2  1  0  0  0  0
  1  3  1  0  0  0  0
  3  4  1  0  0  0  0
  3 21  2  0  0  0  0
  4  5  2  0  0  0  0
  5  6  1  0  0  0  0
  5  8  1  0  0  0  0
  6  7  1  0  0  0  0
  8  9  2  0  0  0  0
  9 10  1  0  0  0  0
  9 21  1  0  0  0  0
 10 11  1  0  0  0  0
 11 12  1  0  0  0  0
 11 20  2  0  0  0  0
 12 13  2  0  0  0  0
 13 14  1  0  0  0  0
 13 18  1  0  0  0  0
 14 15  2  0  0  0  0
 15 16  1  0  0  0  0
 16 17  2  0  0  0  0
 17 18  1  0  0  0  0
 18 19  2  0  0  0  0
 19 20  1  0  0  0  0
M  END
>  <name>
O(C)c1cc(OC)cc([N;amine]c2cc3n[c;biphenyl]cnc3cc2)c1

>  <apo>
2

>  <freq>
1

>  <freq0>
0

>  <freq1>
1

>  <freqA>
0.99887151

>  <a_count>
36

$$$$

  MOE2015           2D

 19 21  0  0  0  0  0  0  0  0999 V2000
    4.2510   -4.4740    0.0000 O   0  0  0  0  0  0  0  0  0  0  0  0
    2.7820   -4.1740    0.0000 C   0  0  0  0  0  0  0  0  0  0  0  0
    1.7870   -5.2970    0.0000 N   0  0  0  0  0  0  0  0  0  0  0  0
    2.3060   -2.7510    0.0000 C   0  0  0  0  0  0  0  0  0  0  0  0
    1.2730   -3.8390    0.0000 C   0  0  0  0  0  0  0  0  0  0  0  0
   -0.1850   -3.4890    0.0000 C   0  0  0  0  0  0  0  0  0  0  0  0
   -1.2180   -4.5760    0.0000 C   0  0  0  0  0  0  0  0  0  0  0  0
    3.7020   -2.2020    0.0000 C   0  0  0  0  0  0  0  0  0  0  0  0
    3.6110   -0.7050    0.0000 C   0  0  0  0  0  0  0  0  0  0  0  0
    2.1590   -0.3290    0.0000 C   0  0  0  0  0  0  0  0  0  0  0  0
    1.3520   -1.5940    0.0000 C   0  0  0  0  0  0  0  0  0  0  0  0
   -0.1460   -1.5280    0.0000 C   0  0  0  0  0  0  0  0  0  0  0  0
   -0.8380   -0.1970    0.0000 C   0  0  0  0  0  0  0  0  0  0  0  0
   -0.0320    1.0680    0.0000 C   0  0  0  0  0  0  0  0  0  0  0  0
    1.4660    1.0020    0.0000 C   0  0  0  0  0  0  0  0  0  0  0  0
    4.8620    0.1230    0.0000 C   0  0  0  0  0  0  0  0  0  0  0  0
    6.2040   -0.5470    0.0000 C   0  0  0  0  0  0  0  0  0  0  0  0
    6.2950   -2.0440    0.0000 C   0  0  0  0  0  0  0  0  0  0  0  0
    5.0440   -2.8720    0.0000 C   0  0  0  0  0  0  0  0  0  0  0  0
  1  2  2  0  0  0  0
  2  3  1  0  0  0  0
  2  4  1  0  0  0  0
  4  5  1  0  0  0  0
  4  8  1  0  0  0  0
  4 11  1  0  0  0  0
  5  6  1  0  0  0  0
  6  7  1  0  0  0  0
  8  9  1  0  0  0  0
  8 19  2  0  0  0  0
  9 10  1  0  0  0  0
  9 16  2  0  0  0  0
 10 11  1  0  0  0  0
 10 15  2  0  0  0  0
 11 12  2  0  0  0  0
 12 13  1  0  0  0  0
 13 14  2  0  0  0  0
 14 15  1  0  0  0  0
 16 17  1  0  0  0  0
 17 18  2  0  0  0  0
 18 19  1  0  0  0  0
M  END
>  <name>
O=C(N)C1(CC[C;amine])c2c(-c3c1cccc3)cccc2

>  <apo>
1

>  <freq>
1

>  <freq0>
0

>  <freq1>
1

>  <freqA>
0.99887151

>  <a_count>
36

$$$$

  MOE2015           2D

 15 14  0  0  1  0  0  0  0  0999 V2000
    2.4030    2.4030    0.0000 O   0  0  0  0  0  0  0  0  0  0  0  0
    2.4030    0.9030    0.0000 C   0  0  0  0  0  0  0  0  0  0  0  0
    3.7020    0.1530    0.0000 O   0  0  0  0  0  0  0  0  0  0  0  0
    5.0010    0.9030    0.0000 C   0  0  0  0  0  0  0  0  0  0  0  0
    5.7510   -0.3960    0.0000 C   0  0  0  0  0  0  0  0  0  0  0  0
    4.2510    2.2020    0.0000 C   0  0  0  0  0  0  0  0  0  0  0  0
    6.3000    1.6530    0.0000 C   0  0  0  0  0  0  0  0  0  0  0  0
    1.1040    0.1530    0.0000 N   0  0  0  0  0  0  0  0  0  0  0  0
   -0.1950    0.9030    0.0000 C   0  0  1  0  0  0  0  0  0  0  0  0
   -1.4940    0.1530    0.0000 C   0  0  0  0  0  0  0  0  0  0  0  0
   -0.7440   -1.1460    0.0000 C   0  0  0  0  0  0  0  0  0  0  0  0
   -2.2440    1.4520    0.0000 C   0  0  0  0  0  0  0  0  0  0  0  0
   -2.7940   -0.5970    0.0000 C   0  0  0  0  0  0  0  0  0  0  0  0
   -0.1950    2.4030    0.0000 C   0  0  0  0  0  0  0  0  0  0  0  0
   -1.4940    3.1530    0.0000 O   0  0  0  0  0  0  0  0  0  0  0  0
  1  2  2  0  0  0  0
  2  3  1  0  0  0  0
  2  8  1  0  0  0  0
  3  4  1  0  0  0  0
  4  5  1  0  0  0  0
  4  6  1  0  0  0  0
  4  7  1  0  0  0  0
  9  8  1  1  0  0  0
  9 10  1  0  0  0  0
  9 14  1  0  0  0  0
 10 11  1  0  0  0  0
 10 12  1  0  0  0  0
 10 13  1  0  0  0  0
 14 15  2  0  0  0  0
M  END
>  <name>
O=C(OC(C)(C)C)N[C@@H](C(C)(C)C)[C;amide]=O

>  <apo>
1

>  <freq>
1

>  <freq0>
0

>  <freq1>
1

>  <freqA>
0.99887151

>  <a_count>
36

$$$$

  MOE2015           2D

 20 21  0  0  1  0  0  0  0  0999 V2000
    2.1000   -1.7440    0.0000 O   0  0  0  0  0  0  0  0  0  0  0  0
    2.1000   -0.2440    0.0000 C   0  0  0  0  0  0  0  0  0  0  0  0
    3.3990    0.5060    0.0000 O   0  0  0  0  0  0  0  0  0  0  0  0
    4.6980   -0.2440    0.0000 C   0  0  3  0  0  0  0  0  0  0  0  0
    4.6980   -1.7440    0.0000 C   0  0  0  0  0  0  0  0  0  0  0  0
    5.9980    0.5060    0.0000 N   0  3  0  0  0  0  0  0  0  0  0  0
    6.1540    1.9980    0.0000 C   0  0  0  0  0  0  0  0  0  0  0  0
    7.6220    2.3100    0.0000 N   0  0  0  0  0  0  0  0  0  0  0  0
    8.3720    1.0110    0.0000 N   0  0  0  0  0  0  0  0  0  0  0  0
    7.3680   -0.1040    0.0000 C   0  0  0  0  0  0  0  0  0  0  0  0
    0.8010    0.5060    0.0000 N   0  0  0  0  0  0  0  0  0  0  0  0
    0.8010    2.0060    0.0000 C   0  0  0  0  0  0  0  0  0  0  0  0
   -0.4980   -0.2440    0.0000 C   0  0  0  0  0  0  0  0  0  0  0  0
   -1.7970    0.5060    0.0000 C   0  0  0  0  0  0  0  0  0  0  0  0
   -1.7970    2.0060    0.0000 C   0  0  0  0  0  0  0  0  0  0  0  0
   -3.0960    2.7560    0.0000 O   0  0  0  0  0  0  0  0  0  0  0  0
   -3.0960   -0.2440    0.0000 C   0  0  0  0  0  0  0  0  0  0  0  0
   -3.0960   -1.7440    0.0000 C   0  0  0  0  0  0  0  0  0  0  0  0
   -1.7970   -2.4940    0.0000 C   0  0  0  0  0  0  0  0  0  0  0  0
   -0.4980   -1.7440    0.0000 N   0  0  0  0  0  0  0  0  0  0  0  0
  1  2  2  0  0  0  0
  2  3  1  0  0  0  0
  2 11  1  0  0  0  0
  3  4  1  0  0  0  0
  4  5  1  0  0  0  0
  4  6  1  0  0  0  0
  6  7  2  0  0  0  0
  6 10  1  0  0  0  0
  7  8  1  0  0  0  0
  8  9  1  0  0  0  0
  9 10  2  0  0  0  0
 11 12  1  0  0  0  0
 11 13  1  0  0  0  0
 13 14  1  0  0  0  0
 13 20  2  0  0  0  0
 14 15  1  0  0  0  0
 14 17  2  0  0  0  0
 15 16  1  0  0  0  0
 17 18  1  0  0  0  0
 18 19  2  0  0  0  0
 19 20  1  0  0  0  0
M  CHG  1   6   1
M  END
>  <name>
O=C(OC(C)[n+]1c[nH;NaroC]nc1)N(C)c1c(C[O;ester])cccn1

>  <apo>
2

>  <freq>
1

>  <freq0>
0

>  <freq1>
1

>  <freqA>
0.99887151

>  <a_count>
36

$$$$

  MOE2015           2D

 16 15  0  0  1  0  0  0  0  0999 V2000
   -1.8760    1.8760    0.0000 O   0  0  0  0  0  0  0  0  0  0  0  0
   -1.8760    3.3760    0.0000 C   0  0  0  0  0  0  0  0  0  0  0  0
   -3.1750    4.1260    0.0000 O   0  0  0  0  0  0  0  0  0  0  0  0
   -4.4740    3.3760    0.0000 C   0  0  0  0  0  0  0  0  0  0  0  0
   -0.5770    4.1260    0.0000 C   0  0  0  0  0  0  0  0  0  0  0  0
    0.7220    3.3760    0.0000 C   0  0  1  0  0  0  0  0  0  0  0  0
   -0.0280    2.0770    0.0000 O   0  0  0  0  0  0  0  0  0  0  0  0
    1.4720    4.6750    0.0000 C   0  0  0  0  0  0  0  0  0  0  0  0
    0.7220    5.9740    0.0000 O   0  0  0  0  0  0  0  0  0  0  0  0
    2.0210    2.6260    0.0000 C   0  0  0  0  0  0  0  0  0  0  0  0
    3.3200    3.3760    0.0000 C   0  0  0  0  0  0  0  0  0  0  0  0
    4.6200    2.6260    0.0000 C   0  0  0  0  0  0  0  0  0  0  0  0
    5.9190    3.3760    0.0000 C   0  0  0  0  0  0  0  0  0  0  0  0
    5.1690    4.6750    0.0000 O   0  0  0  0  0  0  0  0  0  0  0  0
    6.6690    2.0770    0.0000 C   0  0  0  0  0  0  0  0  0  0  0  0
    7.2180    4.1260    0.0000 C   0  0  0  0  0  0  0  0  0  0  0  0
  1  2  2  0  0  0  0
  2  3  1  0  0  0  0
  2  5  1  0  0  0  0
  3  4  1  0  0  0  0
  6  5  1  1  0  0  0
  6  7  1  6  0  0  0
  6  8  1  0  0  0  0
  6 10  1  0  0  0  0
  8  9  2  0  0  0  0
 10 11  1  0  0  0  0
 11 12  1  0  0  0  0
 12 13  1  0  0  0  0
 13 14  1  0  0  0  0
 13 15  1  0  0  0  0
 13 16  1  0  0  0  0
M  END
>  <name>
O=C(OC)C[C@@](O)([C;ester]=O)CCCC(O)(C)C

>  <apo>
1

>  <freq>
1

>  <freq0>
0

>  <freq1>
1

>  <freqA>
0.99887151

>  <a_count>
36

$$$$

  MOE2015           2D

 14 15  0  0  0  0  0  0  0  0999 V2000
    1.8960    3.2840    0.0000 O   0  0  0  0  0  0  0  0  0  0  0  0
    2.6460    1.9850    0.0000 C   0  0  0  0  0  0  0  0  0  0  0  0
    1.8960    0.6860    0.0000 C   0  0  0  0  0  0  0  0  0  0  0  0
    3.3960    0.6860    0.0000 C   0  0  0  0  0  0  0  0  0  0  0  0
    4.1460    1.9850    0.0000 C   0  0  0  0  0  0  0  0  0  0  0  0
    5.6460    1.9850    0.0000 C   0  0  0  0  0  0  0  0  0  0  0  0
    6.3960    0.6860    0.0000 C   0  0  0  0  0  0  0  0  0  0  0  0
    5.6460   -0.6130    0.0000 C   0  0  0  0  0  0  0  0  0  0  0  0
    4.1460   -0.6130    0.0000 C   0  0  0  0  0  0  0  0  0  0  0  0
    0.5970    1.4360    0.0000 C   0  0  0  0  0  0  0  0  0  0  0  0
   -0.7020    0.6860    0.0000 C   0  0  0  0  0  0  0  0  0  0  0  0
   -0.7020   -0.8140    0.0000 C   0  0  0  0  0  0  0  0  0  0  0  0
    0.5970   -1.5640    0.0000 C   0  0  0  0  0  0  0  0  0  0  0  0
    1.8960   -0.8140    0.0000 C   0  0  0  0  0  0  0  0  0  0  0  0
  1  2  2  0  0  0  0
  2  3  1  0  0  0  0
  3  4  1  0  0  0  0
  3 10  1  0  0  0  0
  3 14  1  0  0  0  0
  4  5  1  0  0  0  0
  4  9  1  0  0  0  0
  5  6  1  0  0  0  0
  6  7  1  0  0  0  0
  7  8  1  0  0  0  0
  8  9  1  0  0  0  0
 10 11  1  0  0  0  0
 11 12  1  0  0  0  0
 12 13  1  0  0  0  0
 13 14  1  0  0  0  0
M  END
>  <name>
O=[C;ester]C1(C2CCCCC2)CCCCC1

>  <apo>
1

>  <freq>
1

>  <freq0>
0

>  <freq1>
1

>  <freqA>
0.99887151

>  <a_count>
36

$$$$

  MOE2015           2D

 19 20  0  0  0  0  0  0  0  0999 V2000
    2.8030    2.6660    0.0000 O   0  0  0  0  0  0  0  0  0  0  0  0
    3.5530    1.3670    0.0000 C   0  0  0  0  0  0  0  0  0  0  0  0
    2.8030    0.0680    0.0000 C   0  0  0  0  0  0  0  0  0  0  0  0
    1.3030    0.0680    0.0000 C   0  0  0  0  0  0  0  0  0  0  0  0
    0.5530    1.3670    0.0000 C   0  0  0  0  0  0  0  0  0  0  0  0
    0.5530   -1.2310    0.0000 N   0  0  0  0  0  0  0  0  0  0  0  0
    1.3030   -2.5300    0.0000 C   0  0  0  0  0  0  0  0  0  0  0  0
    0.5530   -3.8290    0.0000 C   0  0  0  0  0  0  0  0  0  0  0  0
    2.8030   -2.5300    0.0000 C   0  0  0  0  0  0  0  0  0  0  0  0
    3.5530   -3.8290    0.0000 C   0  0  0  0  0  0  0  0  0  0  0  0
    2.8030   -5.1280    0.0000 O   0  0  0  0  0  0  0  0  0  0  0  0
    3.5530   -1.2310    0.0000 C   0  0  0  0  0  0  0  0  0  0  0  0
    5.0530   -1.2310    0.0000 C   0  0  0  0  0  0  0  0  0  0  0  0
    5.8030    0.0680    0.0000 C   0  0  0  0  0  0  0  0  0  0  0  0
    5.0530    1.3670    0.0000 C   0  0  0  0  0  0  0  0  0  0  0  0
    7.3030    0.0680    0.0000 C   0  0  0  0  0  0  0  0  0  0  0  0
    8.0530   -1.2310    0.0000 C   0  0  0  0  0  0  0  0  0  0  0  0
    7.3030   -2.5300    0.0000 C   0  0  0  0  0  0  0  0  0  0  0  0
    5.8030   -2.5300    0.0000 C   0  0  0  0  0  0  0  0  0  0  0  0
  1  2  2  0  0  0  0
  2  3  1  0  0  0  0
  3  4  2  0  0  0  0
  3 12  1  0  0  0  0
  4  5  1  0  0  0  0
  4  6  1  0  0  0  0
  6  7  1  0  0  0  0
  7  8  1  0  0  0  0
  7  9  2  0  0  0  0
  9 10  1  0  0  0  0
  9 12  1  0  0  0  0
 10 11  2  0  0  0  0
 12 13  1  0  0  0  0
 13 14  1  0  0  0  0
 13 19  2  0  0  0  0
 14 15  1  0  0  0  0
 14 16  2  0  0  0  0
 16 17  1  0  0  0  0
 17 18  2  0  0  0  0
 18 19  1  0  0  0  0
M  END
>  <name>
O=[C;ester]C1=C(C)NC(C)=C([C;ester]=O)C1c1c([C;olefin])cccc1

>  <apo>
3

>  <freq>
1

>  <freq0>
0

>  <freq1>
1

>  <freqA>
0.99887151

>  <a_count>
36

$$$$

  MOE2015           2D

 20 21  0  0  0  0  0  0  0  0999 V2000
   -1.1170   -4.1700    0.0000 O   0  0  0  0  0  0  0  0  0  0  0  0
    0.1820   -4.9200    0.0000 N   0  3  0  0  0  0  0  0  0  0  0  0
    0.1820   -6.4200    0.0000 O   0  5  0  0  0  0  0  0  0  0  0  0
    1.4810   -4.1700    0.0000 C   0  0  0  0  0  0  0  0  0  0  0  0
    1.4810   -2.6700    0.0000 C   0  0  0  0  0  0  0  0  0  0  0  0
    2.7800   -1.9200    0.0000 C   0  0  0  0  0  0  0  0  0  0  0  0
    4.0790   -2.6700    0.0000 C   0  0  0  0  0  0  0  0  0  0  0  0
    5.3780   -1.9200    0.0000 O   0  0  0  0  0  0  0  0  0  0  0  0
    6.6770   -2.6700    0.0000 C   0  0  0  0  0  0  0  0  0  0  0  0
    6.6770   -4.1700    0.0000 C   0  0  0  0  0  0  0  0  0  0  0  0
    7.9760   -4.9200    0.0000 C   0  0  0  0  0  0  0  0  0  0  0  0
    9.2750   -4.1700    0.0000 C   0  0  0  0  0  0  0  0  0  0  0  0
   10.5740   -4.9200    0.0000 C   0  0  0  0  0  0  0  0  0  0  0  0
   11.8730   -4.1700    0.0000 N   0  0  0  0  0  0  0  0  0  0  0  0
   13.1720   -4.9200    0.0000 C   0  0  0  0  0  0  0  0  0  0  0  0
   14.4710   -4.1700    0.0000 C   0  0  0  0  0  0  0  0  0  0  0  0
    9.2750   -2.6700    0.0000 C   0  0  0  0  0  0  0  0  0  0  0  0
    7.9760   -1.9200    0.0000 C   0  0  0  0  0  0  0  0  0  0  0  0
    4.0790   -4.1700    0.0000 C   0  0  0  0  0  0  0  0  0  0  0  0
    2.7800   -4.9200    0.0000 C   0  0  0  0  0  0  0  0  0  0  0  0
  1  2  2  0  0  0  0
  2  3  1  0  0  0  0
  2  4  1  0  0  0  0
  4  5  1  0  0  0  0
  4 20  2  0  0  0  0
  5  6  2  0  0  0  0
  6  7  1  0  0  0  0
  7  8  1  0  0  0  0
  7 19  2  0  0  0  0
  8  9  1  0  0  0  0
  9 10  1  0  0  0  0
  9 18  2  0  0  0  0
 10 11  2  0  0  0  0
 11 12  1  0  0  0  0
 12 13  1  0  0  0  0
 12 17  2  0  0  0  0
 13 14  1  0  0  0  0
 14 15  1  0  0  0  0
 15 16  1  0  0  0  0
 17 18  1  0  0  0  0
 19 20  1  0  0  0  0
M  CHG  1   2   1
M  CHG  1   3  -1
M  END
>  <name>
O=[N+]([O-])c1ccc(Oc2ccc(C[N;amide]C[C;ether])cc2)cc1

>  <apo>
2

>  <freq>
1

>  <freq0>
0

>  <freq1>
1

>  <freqA>
0.99887151

>  <a_count>
36

$$$$

  MOE2015           2D

 18 19  0  0  1  0  0  0  0  0999 V2000
   10.0000   -3.4640    0.0000 O   0  0  0  0  0  0  0  0  0  0  0  0
    8.5000   -3.4640    0.0000 C   0  0  0  0  0  0  0  0  0  0  0  0
    7.7500   -2.1650    0.0000 C   0  0  0  0  0  0  0  0  0  0  0  0
    6.2500   -2.1650    0.0000 C   0  0  0  0  0  0  0  0  0  0  0  0
    5.5000   -0.8660    0.0000 C   0  0  0  0  0  0  0  0  0  0  0  0
    4.0000   -0.8660    0.0000 C   0  0  2  0  0  0  0  0  0  0  0  0
    3.2500    0.4330    0.0000 C   0  0  0  0  0  0  0  0  0  0  0  0
    1.7500    0.4330    0.0000 C   0  0  0  0  0  0  0  0  0  0  0  0
    3.2500   -2.1650    0.0000 C   0  0  0  0  0  0  0  0  0  0  0  0
    4.0000   -3.4640    0.0000 C   0  0  0  0  0  0  0  0  0  0  0  0
    3.2500   -4.7630    0.0000 C   0  0  0  0  0  0  0  0  0  0  0  0
    1.7500   -4.7630    0.0000 C   0  0  0  0  0  0  0  0  0  0  0  0
    1.0000   -3.4640    0.0000 C   0  0  0  0  0  0  0  0  0  0  0  0
    1.7500   -2.1650    0.0000 C   0  0  0  0  0  0  0  0  0  0  0  0
    6.2500    0.4330    0.0000 C   0  0  0  0  0  0  0  0  0  0  0  0
    5.5000    1.7320    0.0000 O   0  0  0  0  0  0  0  0  0  0  0  0
    7.7500    0.4330    0.0000 C   0  0  0  0  0  0  0  0  0  0  0  0
    8.5000   -0.8660    0.0000 C   0  0  0  0  0  0  0  0  0  0  0  0
  1  2  1  0  0  0  0
  2  3  1  0  0  0  0
  3  4  1  0  0  0  0
  3 18  2  0  0  0  0
  4  5  2  0  0  0  0
  6  5  1  1  0  0  0
  5 15  1  0  0  0  0
  6  7  1  0  0  0  0
  6  9  1  0  0  0  0
  7  8  1  0  0  0  0
  9 10  1  0  0  0  0
  9 14  2  0  0  0  0
 10 11  2  0  0  0  0
 11 12  1  0  0  0  0
 12 13  2  0  0  0  0
 13 14  1  0  0  0  0
 15 16  1  0  0  0  0
 15 17  2  0  0  0  0
 17 18  1  0  0  0  0
M  END
>  <name>
OCc1cc([C@H](C[C;amine])c2ccccc2)c([O;ester])cc1

>  <apo>
2

>  <freq>
1

>  <freq0>
0

>  <freq1>
1

>  <freqA>
0.99887151

>  <a_count>
36

$$$$

  MOE2015           2D

 16 17  0  0  1  0  0  0  0  0999 V2000
    9.6690   -0.6540    0.0000 O   0  0  0  0  0  0  0  0  0  0  0  0
    8.3700    0.0960    0.0000 C   0  0  0  0  0  0  0  0  0  0  0  0
    8.3700    1.5960    0.0000 C   0  0  0  0  0  0  0  0  0  0  0  0
    7.0700    2.3460    0.0000 C   0  0  0  0  0  0  0  0  0  0  0  0
    5.7710    1.5960    0.0000 C   0  0  0  0  0  0  0  0  0  0  0  0
    4.4720    2.3460    0.0000 C   0  0  3  0  0  0  0  0  0  0  0  0
    4.4720    3.8460    0.0000 C   0  0  0  0  0  0  0  0  0  0  0  0
    3.1730    1.5960    0.0000 C   0  0  0  0  0  0  0  0  0  0  0  0
    3.1730    3.0960    0.0000 O   0  0  0  0  0  0  0  0  0  0  0  0
    3.9230    0.2970    0.0000 C   0  0  0  0  0  0  0  0  0  0  0  0
    3.1730   -1.0020    0.0000 C   0  0  0  0  0  0  0  0  0  0  0  0
    1.6730   -1.0020    0.0000 C   0  0  0  0  0  0  0  0  0  0  0  0
    0.9230    0.2970    0.0000 C   0  0  0  0  0  0  0  0  0  0  0  0
    1.6730    1.5960    0.0000 C   0  0  0  0  0  0  0  0  0  0  0  0
    5.7710    0.0960    0.0000 C   0  0  0  0  0  0  0  0  0  0  0  0
    7.0700   -0.6540    0.0000 C   0  0  0  0  0  0  0  0  0  0  0  0
  1  2  1  0  0  0  0
  2  3  1  0  0  0  0
  2 16  2  0  0  0  0
  3  4  2  0  0  0  0
  4  5  1  0  0  0  0
  5  6  1  0  0  0  0
  5 15  2  0  0  0  0
  6  7  1  0  0  0  0
  6  8  1  0  0  0  0
  8  9  1  0  0  0  0
  8 10  1  0  0  0  0
  8 14  1  0  0  0  0
 10 11  1  0  0  0  0
 11 12  1  0  0  0  0
 12 13  1  0  0  0  0
 13 14  1  0  0  0  0
 15 16  1  0  0  0  0
M  END
>  <name>
Oc1ccc(C([C;amine])C2(O)CCCCC2)cc1

>  <apo>
1

>  <freq>
1

>  <freq0>
0

>  <freq1>
1

>  <freqA>
0.99887151

>  <a_count>
36

$$$$

  MOE2015           2D

 23 24  0  0  0  0  0  0  0  0999 V2000
   -3.3890   -5.8700    0.0000 S   0  0  0  0  0  0  0  0  0  0  0  0
   -2.6390   -7.1690    0.0000 O   0  0  0  0  0  0  0  0  0  0  0  0
   -4.1390   -4.5710    0.0000 O   0  0  0  0  0  0  0  0  0  0  0  0
   -4.6880   -6.6200    0.0000 O   0  0  0  0  0  0  0  0  0  0  0  0
   -2.0900   -5.1200    0.0000 C   0  0  0  0  0  0  0  0  0  0  0  0
   -0.7910   -5.8700    0.0000 C   0  0  0  0  0  0  0  0  0  0  0  0
   -0.7910   -7.3700    0.0000 O   0  0  0  0  0  0  0  0  0  0  0  0
    0.5080   -5.1200    0.0000 C   0  0  0  0  0  0  0  0  0  0  0  0
    0.5080   -3.6200    0.0000 C   0  0  0  0  0  0  0  0  0  0  0  0
    1.8070   -2.8700    0.0000 C   0  0  0  0  0  0  0  0  0  0  0  0
    3.1060   -3.6200    0.0000 C   0  0  0  0  0  0  0  0  0  0  0  0
    3.1060   -5.1200    0.0000 C   0  0  0  0  0  0  0  0  0  0  0  0
    4.4050   -5.8700    0.0000 C   0  0  0  0  0  0  0  0  0  0  0  0
    5.7040   -5.1200    0.0000 C   0  0  0  0  0  0  0  0  0  0  0  0
    7.0040   -5.8700    0.0000 N   0  0  0  0  0  0  0  0  0  0  0  0
    5.7040   -3.6200    0.0000 C   0  0  0  0  0  0  0  0  0  0  0  0
    4.4050   -2.8700    0.0000 C   0  0  0  0  0  0  0  0  0  0  0  0
   -0.7910   -2.8700    0.0000 C   0  0  0  0  0  0  0  0  0  0  0  0
   -0.7910   -1.3700    0.0000 S   0  0  0  0  0  0  0  0  0  0  0  0
    0.7090   -1.3700    0.0000 O   0  0  0  0  0  0  0  0  0  0  0  0
   -2.2910   -1.3700    0.0000 O   0  0  0  0  0  0  0  0  0  0  0  0
   -0.7910    0.1300    0.0000 O   0  0  0  0  0  0  0  0  0  0  0  0
   -2.0900   -3.6200    0.0000 C   0  0  0  0  0  0  0  0  0  0  0  0
  1  2  2  0  0  0  0
  1  3  2  0  0  0  0
  1  4  1  0  0  0  0
  1  5  1  0  0  0  0
  5  6  1  0  0  0  0
  5 23  2  0  0  0  0
  6  7  1  0  0  0  0
  6  8  2  0  0  0  0
  8  9  1  0  0  0  0
  9 10  1  0  0  0  0
  9 18  2  0  0  0  0
 10 11  1  0  0  0  0
 11 12  1  0  0  0  0
 11 17  2  0  0  0  0
 12 13  2  0  0  0  0
 13 14  1  0  0  0  0
 14 15  1  0  0  0  0
 14 16  2  0  0  0  0
 16 17  1  0  0  0  0
 18 19  1  0  0  0  0
 18 23  1  0  0  0  0
 19 20  2  0  0  0  0
 19 21  2  0  0  0  0
 19 22  1  0  0  0  0
M  END
>  <name>
S(=O)(=O)(O)c1c(O)cc([C;olefin]c2ccc([N;amine])cc2)c(S(=O)(=O)O)c1

>  <apo>
2

>  <freq>
1

>  <freq0>
0

>  <freq1>
1

>  <freqA>
0.99887151

>  <a_count>
36

$$$$

  MOE2015           2D

 21 23  0  0  0  0  0  0  0  0999 V2000
    0.6610   -2.4670    0.0000 O   0  0  0  0  0  0  0  0  0  0  0  0
    1.9600   -1.7170    0.0000 C   0  0  0  0  0  0  0  0  0  0  0  0
    3.2590   -2.4670    0.0000 C   0  0  0  0  0  0  0  0  0  0  0  0
    4.5580   -1.7170    0.0000 C   0  0  0  0  0  0  0  0  0  0  0  0
    4.5580   -0.2170    0.0000 C   0  0  0  0  0  0  0  0  0  0  0  0
    5.8570    0.5330    0.0000 C   0  0  0  0  0  0  0  0  0  0  0  0
    5.8570    2.0330    0.0000 C   0  0  0  0  0  0  0  0  0  0  0  0
    4.5580    2.7830    0.0000 N   0  0  0  0  0  0  0  0  0  0  0  0
    4.5580    4.2830    0.0000 C   0  0  0  0  0  0  0  0  0  0  0  0
    5.8570    5.0330    0.0000 C   0  0  0  0  0  0  0  0  0  0  0  0
    7.1560    4.2830    0.0000 C   0  0  0  0  0  0  0  0  0  0  0  0
    7.1560    2.7830    0.0000 C   0  0  0  0  0  0  0  0  0  0  0  0
    7.1560   -0.2170    0.0000 C   0  0  0  0  0  0  0  0  0  0  0  0
    7.1560   -1.7170    0.0000 C   0  0  0  0  0  0  0  0  0  0  0  0
    8.4550   -2.4670    0.0000 C   0  0  0  0  0  0  0  0  0  0  0  0
    9.7540   -1.7170    0.0000 C   0  0  0  0  0  0  0  0  0  0  0  0
   11.0530   -2.4670    0.0000 O   0  0  0  0  0  0  0  0  0  0  0  0
    9.7540   -0.2170    0.0000 C   0  0  0  0  0  0  0  0  0  0  0  0
    8.4550    0.5330    0.0000 C   0  0  0  0  0  0  0  0  0  0  0  0
    3.2590    0.5330    0.0000 C   0  0  0  0  0  0  0  0  0  0  0  0
    1.9600   -0.2170    0.0000 C   0  0  0  0  0  0  0  0  0  0  0  0
  1  2  1  0  0  0  0
  2  3  1  0  0  0  0
  2 21  2  0  0  0  0
  3  4  2  0  0  0  0
  4  5  1  0  0  0  0
  5  6  1  0  0  0  0
  5 20  2  0  0  0  0
  6  7  1  0  0  0  0
  6 13  1  0  0  0  0
  7  8  1  0  0  0  0
  7 12  2  0  0  0  0
  8  9  2  0  0  0  0
  9 10  1  0  0  0  0
 10 11  2  0  0  0  0
 11 12  1  0  0  0  0
 13 14  1  0  0  0  0
 13 19  2  0  0  0  0
 14 15  2  0  0  0  0
 15 16  1  0  0  0  0
 16 17  1  0  0  0  0
 16 18  2  0  0  0  0
 18 19  1  0  0  0  0
 20 21  1  0  0  0  0
M  END
>  <name>
[O;ester]c1ccc(C(c2ncccc2)c2ccc([O;ester])cc2)cc1

>  <apo>
2

>  <freq>
1

>  <freq0>
0

>  <freq1>
1

>  <freqA>
0.99887151

>  <a_count>
36

$$$$

  MOE2015           2D

 21 23  0  0  0  0  0  0  0  0999 V2000
   10.3150   -2.0220    0.0000 O   0  0  0  0  0  0  0  0  0  0  0  0
    9.0160   -1.2720    0.0000 C   0  0  0  0  0  0  0  0  0  0  0  0
    9.0160    0.2280    0.0000 C   0  0  0  0  0  0  0  0  0  0  0  0
   10.3150    0.9780    0.0000 O   0  0  0  0  0  0  0  0  0  0  0  0
    7.7170    0.9780    0.0000 C   0  0  0  0  0  0  0  0  0  0  0  0
    6.4180    0.2280    0.0000 C   0  0  0  0  0  0  0  0  0  0  0  0
    6.4180   -1.2720    0.0000 C   0  0  0  0  0  0  0  0  0  0  0  0
    5.1190   -2.0220    0.0000 C   0  0  0  0  0  0  0  0  0  0  0  0
    3.8200   -1.2720    0.0000 C   0  0  0  0  0  0  0  0  0  0  0  0
    2.5210   -2.0220    0.0000 N   0  0  0  0  0  0  0  0  0  0  0  0
    1.2220   -1.2720    0.0000 C   0  0  0  0  0  0  0  0  0  0  0  0
    1.2220    0.2280    0.0000 C   0  0  0  0  0  0  0  0  0  0  0  0
    2.5210    0.9780    0.0000 C   0  0  0  0  0  0  0  0  0  0  0  0
    3.8200    0.2280    0.0000 C   0  0  0  0  0  0  0  0  0  0  0  0
    5.1190    0.9780    0.0000 C   0  0  0  0  0  0  0  0  0  0  0  0
    5.1190    2.4780    0.0000 C   0  0  0  0  0  0  0  0  0  0  0  0
    6.4180    3.2280    0.0000 O   0  0  0  0  0  0  0  0  0  0  0  0
    3.8200    3.2280    0.0000 C   0  0  0  0  0  0  0  0  0  0  0  0
    3.8200    4.7280    0.0000 O   0  0  0  0  0  0  0  0  0  0  0  0
    2.5210    2.4780    0.0000 C   0  0  0  0  0  0  0  0  0  0  0  0
    7.7170   -2.0220    0.0000 C   0  0  0  0  0  0  0  0  0  0  0  0
  1  2  1  0  0  0  0
  2  3  1  0  0  0  0
  2 21  2  0  0  0  0
  3  4  1  0  0  0  0
  3  5  2  0  0  0  0
  5  6  1  0  0  0  0
  6  7  2  0  0  0  0
  7  8  1  0  0  0  0
  7 21  1  0  0  0  0
  8  9  2  0  0  0  0
  9 10  1  0  0  0  0
  9 14  1  0  0  0  0
 10 11  1  0  0  0  0
 11 12  1  0  0  0  0
 12 13  1  0  0  0  0
 13 14  2  0  0  0  0
 13 20  1  0  0  0  0
 14 15  1  0  0  0  0
 15 16  2  0  0  0  0
 16 17  1  0  0  0  0
 16 18  1  0  0  0  0
 18 19  1  0  0  0  0
 18 20  2  0  0  0  0
M  END
>  <name>
[O;ether]c1c([O;ether])ccc(/C=C\2/NCCc3c/2cc([O;ether])c([O;ether])c3)c1

>  <apo>
4

>  <freq>
1

>  <freq0>
0

>  <freq1>
1

>  <freqA>
0.99887151

>  <a_count>
36

$$$$

  MOE2015           2D

 17 17  0  0  1  0  0  0  0  0999 V2000
    0.0390    0.0530    0.0000 S   0  3  0  0  0  0  0  0  0  0  0  0
    1.3330    0.8110    0.0000 C   0  0  0  0  0  0  0  0  0  0  0  0
    2.6370    0.0700    0.0000 C   0  0  0  0  0  0  0  0  0  0  0  0
    3.9310    0.8290    0.0000 C   0  0  2  0  0  0  0  0  0  0  0  0
    3.9210    2.3290    0.0000 N   0  0  0  0  0  0  0  0  0  0  0  0
    5.2350    0.0870    0.0000 C   0  0  0  0  0  0  0  0  0  0  0  0
    5.2450   -1.4130    0.0000 O   0  0  0  0  0  0  0  0  0  0  0  0
    6.5290    0.8460    0.0000 O   0  5  0  0  0  0  0  0  0  0  0  0
   -1.2650    0.7940    0.0000 C   0  0  0  0  0  0  0  0  0  0  0  0
   -2.5590    0.0360    0.0000 C   0  0  2  0  0  0  0  0  0  0  0  0
   -3.9330    0.6370    0.0000 C   0  0  1  0  0  0  0  0  0  0  0  0
   -4.2550    2.1020    0.0000 O   0  0  0  0  0  0  0  0  0  0  0  0
   -4.9300   -0.4850    0.0000 C   0  0  2  0  0  0  0  0  0  0  0  0
   -6.4220   -0.3380    0.0000 O   0  0  0  0  0  0  0  0  0  0  0  0
   -4.1710   -1.7790    0.0000 C   0  0  0  0  0  0  0  0  0  0  0  0
   -2.7060   -1.4570    0.0000 O   0  0  0  0  0  0  0  0  0  0  0  0
    0.0490   -1.4470    0.0000 C   0  0  0  0  0  0  0  0  0  0  0  0
  1  2  1  0  0  0  0
  1  9  1  0  0  0  0
  1 17  1  0  0  0  0
  2  3  1  0  0  0  0
  3  4  1  0  0  0  0
  4  5  1  6  0  0  0
  4  6  1  0  0  0  0
  6  7  2  0  0  0  0
  6  8  1  0  0  0  0
 10  9  1  1  0  0  0
 10 11  1  0  0  0  0
 10 16  1  0  0  0  0
 11 12  1  6  0  0  0
 11 13  1  0  0  0  0
 13 14  1  1  0  0  0
 13 15  1  0  0  0  0
 15 16  1  0  0  0  0
M  CHG  1   1   1
M  CHG  1   8  -1
M  END
>  <name>
[S+](CC[C@H](N)C(=O)[O-])(C[C@@H]1[C@@H](O)[C@H](O)[C;NaroC]O1)C

>  <apo>
1

>  <freq>
1

>  <freq0>
0

>  <freq1>
1

>  <freqA>
0.99887151

>  <a_count>
36

$$$$

  MOE2015           2D

 20 23  0  0  1  0  0  0  0  0999 V2000
    0.3380    0.4870    0.0000 Br  0  0  0  0  0  0  0  0  0  0  0  0
    0.8640   -0.9170    0.0000 C   0  0  0  0  0  0  0  0  0  0  0  0
   -0.0660   -2.5350    0.0000 N   0  0  0  0  0  0  0  0  0  0  0  0
    1.0000   -3.6020    0.0000 C   0  0  0  0  0  0  0  0  0  0  0  0
    2.2760   -2.8750    0.0000 C   0  0  0  0  0  0  0  0  0  0  0  0
    3.5430   -3.6150    0.0000 C   0  0  0  0  0  0  0  0  0  0  0  0
    3.5340   -5.0770    0.0000 C   0  0  0  0  0  0  0  0  0  0  0  0
    2.2690   -5.8100    0.0000 C   0  0  0  0  0  0  0  0  0  0  0  0
    0.9980   -5.0730    0.0000 C   0  0  0  0  0  0  0  0  0  0  0  0
    4.8120   -2.8800    0.0000 C   0  0  0  0  0  0  0  0  0  0  0  0
    4.8200   -1.4180    0.0000 C   0  0  2  0  0  0  0  0  0  0  0  0
    6.1070   -0.6570    0.0000 N   0  0  0  0  0  0  0  0  0  0  0  0
    6.0950    0.8430    0.0000 C   0  0  0  0  0  0  0  0  0  0  0  0
    7.4100   -1.4000    0.0000 C   0  0  0  0  0  0  0  0  0  0  0  0
    7.4170   -2.9000    0.0000 C   0  0  2  0  0  0  0  0  0  0  0  0
    8.7200   -3.6440    0.0000 C   0  0  0  0  0  0  0  0  0  0  0  0
   10.0150   -2.8870    0.0000 O   0  0  0  0  0  0  0  0  0  0  0  0
    6.1230   -3.6560    0.0000 C   0  0  0  0  0  0  0  0  0  0  0  0
    3.5520   -0.6800    0.0000 C   0  0  0  0  0  0  0  0  0  0  0  0
    2.2800   -1.4050    0.0000 C   0  0  0  0  0  0  0  0  0  0  0  0
  1  2  1  0  0  0  0
  2  3  1  0  0  0  0
  2 20  2  0  0  0  0
  3  4  1  0  0  0  0
  4  5  2  0  0  0  0
  4  9  1  0  0  0  0
  5  6  1  0  0  0  0
  5 20  1  0  0  0  0
  6  7  2  0  0  0  0
  6 10  1  0  0  0  0
  7  8  1  0  0  0  0
  8  9  2  0  0  0  0
 11 10  1  1  0  0  0
 10 18  2  0  0  0  0
 11 12  1  0  0  0  0
 11 19  1  0  0  0  0
 12 13  1  0  0  0  0
 12 14  1  0  0  0  0
 14 15  1  0  0  0  0
 15 16  1  6  0  0  0
 15 18  1  0  0  0  0
 16 17  2  0  0  0  0
 19 20  1  0  0  0  0
M  END
>  <name>
Brc1[nH]c2c3c(ccc2)C=2[C@H](N(C)C[C@H]([C;amide]=O)C=2)Cc13

>  <apo>
1

>  <freq>
1

>  <freq0>
0

>  <freq1>
1

>  <freqA>
0.99887151

>  <a_count>
35

$$$$

  MOE2015           2D

 14 14  0  0  0  0  0  0  0  0999 V2000
   -4.3660   -1.1700    0.0000 C   0  0  0  0  0  0  0  0  0  0  0  0
   -5.6650   -1.9200    0.0000 C   0  0  0  0  0  0  0  0  0  0  0  0
   -4.3660    0.3300    0.0000 C   0  0  0  0  0  0  0  0  0  0  0  0
   -3.0670   -1.9200    0.0000 C   0  0  0  0  0  0  0  0  0  0  0  0
   -3.0670   -3.4200    0.0000 C   0  0  0  0  0  0  0  0  0  0  0  0
   -4.3660   -4.1700    0.0000 C   0  0  0  0  0  0  0  0  0  0  0  0
   -1.7680   -4.1700    0.0000 C   0  0  0  0  0  0  0  0  0  0  0  0
   -0.4690   -3.4200    0.0000 C   0  0  0  0  0  0  0  0  0  0  0  0
    0.8300   -4.1700    0.0000 C   0  0  0  0  0  0  0  0  0  0  0  0
   -0.4690   -1.9200    0.0000 C   0  0  0  0  0  0  0  0  0  0  0  0
    0.8300   -1.1700    0.0000 C   0  0  0  0  0  0  0  0  0  0  0  0
    2.1290   -1.9200    0.0000 C   0  0  0  0  0  0  0  0  0  0  0  0
    0.8300    0.3300    0.0000 C   0  0  0  0  0  0  0  0  0  0  0  0
   -1.7680   -1.1700    0.0000 N   0  0  0  0  0  0  0  0  0  0  0  0
  1  2  1  0  0  0  0
  1  3  1  0  0  0  0
  1  4  1  0  0  0  0
  4  5  1  0  0  0  0
  4 14  2  0  0  0  0
  5  6  1  0  0  0  0
  5  7  2  0  0  0  0
  7  8  1  0  0  0  0
  8  9  1  0  0  0  0
  8 10  2  0  0  0  0
 10 11  1  0  0  0  0
 10 14  1  0  0  0  0
 11 12  1  0  0  0  0
 11 13  1  0  0  0  0
M  END
>  <name>
C(C)(C)c1c([C;olefin])[c;biphenyl]c([C;ether])c(C(C)C)n1

>  <apo>
3

>  <freq>
1

>  <freq0>
0

>  <freq1>
1

>  <freqA>
0.99887151

>  <a_count>
35

$$$$

  MOE2015           2D

 17 19  0  0  0  0  0  0  0  0999 V2000
   11.6340   -0.0180    0.0000 C   0  0  0  0  0  0  0  0  0  0  0  0
   10.2860    0.6410    0.0000 N   0  0  0  0  0  0  0  0  0  0  0  0
    9.1080   -0.2870    0.0000 C   0  0  0  0  0  0  0  0  0  0  0  0
    7.6480    0.0570    0.0000 C   0  0  0  0  0  0  0  0  0  0  0  0
    7.0060    1.4120    0.0000 N   0  0  0  0  0  0  0  0  0  0  0  0
    5.5060    1.4220    0.0000 C   0  0  0  0  0  0  0  0  0  0  0  0
    4.6320    2.6410    0.0000 N   0  0  0  0  0  0  0  0  0  0  0  0
    3.2030    2.1860    0.0000 C   0  0  0  0  0  0  0  0  0  0  0  0
    3.1930    0.6860    0.0000 C   0  0  0  0  0  0  0  0  0  0  0  0
    4.6170    0.2140    0.0000 N   0  0  0  0  0  0  0  0  0  0  0  0
    1.8900   -0.0560    0.0000 C   0  0  0  0  0  0  0  0  0  0  0  0
    0.5950    0.7020    0.0000 C   0  0  0  0  0  0  0  0  0  0  0  0
    0.6050    2.2020    0.0000 C   0  0  0  0  0  0  0  0  0  0  0  0
    1.9080    2.9440    0.0000 C   0  0  0  0  0  0  0  0  0  0  0  0
    7.6650    2.7600    0.0000 C   0  0  0  0  0  0  0  0  0  0  0  0
    9.1290    3.0840    0.0000 C   0  0  0  0  0  0  0  0  0  0  0  0
   10.2960    2.1410    0.0000 C   0  0  0  0  0  0  0  0  0  0  0  0
  1  2  1  0  0  0  0
  2  3  1  0  0  0  0
  2 17  1  0  0  0  0
  3  4  1  0  0  0  0
  4  5  1  0  0  0  0
  5  6  1  0  0  0  0
  5 15  1  0  0  0  0
  6  7  1  0  0  0  0
  6 10  2  0  0  0  0
  7  8  1  0  0  0  0
  8  9  1  0  0  0  0
  8 14  2  0  0  0  0
  9 10  1  0  0  0  0
  9 11  2  0  0  0  0
 11 12  1  0  0  0  0
 12 13  2  0  0  0  0
 13 14  1  0  0  0  0
 15 16  1  0  0  0  0
 16 17  1  0  0  0  0
M  END
>  <name>
CN1CCN(c2[nH;NaroC]c3c(n2)cccc3)CCC1

>  <apo>
1

>  <freq>
1

>  <freq0>
0

>  <freq1>
1

>  <freqA>
0.99887151

>  <a_count>
35

$$$$

  MOE2015           2D

 20 22  0  0  0  0  0  0  0  0999 V2000
   -1.4250    2.4680    0.0000 Cl  0  0  0  0  0  0  0  0  0  0  0  0
   -0.6750    3.7670    0.0000 C   0  0  0  0  0  0  0  0  0  0  0  0
    0.8250    3.7670    0.0000 C   0  0  0  0  0  0  0  0  0  0  0  0
    1.5750    2.4680    0.0000 C   0  0  0  0  0  0  0  0  0  0  0  0
    3.0750    2.4680    0.0000 C   0  0  0  0  0  0  0  0  0  0  0  0
    3.8250    1.1690    0.0000 C   0  0  0  0  0  0  0  0  0  0  0  0
    5.3250    1.1690    0.0000 C   0  0  0  0  0  0  0  0  0  0  0  0
    6.0750    2.4680    0.0000 C   0  0  0  0  0  0  0  0  0  0  0  0
    5.3250    3.7670    0.0000 C   0  0  0  0  0  0  0  0  0  0  0  0
    3.8250    3.7670    0.0000 C   0  0  0  0  0  0  0  0  0  0  0  0
    0.8250    1.1690    0.0000 C   0  0  0  0  0  0  0  0  0  0  0  0
    1.5750   -0.1300    0.0000 C   0  0  0  0  0  0  0  0  0  0  0  0
    0.8250   -1.4290    0.0000 C   0  0  0  0  0  0  0  0  0  0  0  0
   -0.6750   -1.4290    0.0000 C   0  0  0  0  0  0  0  0  0  0  0  0
   -1.4250   -0.1300    0.0000 C   0  0  0  0  0  0  0  0  0  0  0  0
   -0.6750    1.1690    0.0000 C   0  0  0  0  0  0  0  0  0  0  0  0
    1.5750    5.0660    0.0000 C   0  0  0  0  0  0  0  0  0  0  0  0
    0.8250    6.3650    0.0000 C   0  0  0  0  0  0  0  0  0  0  0  0
   -0.6750    6.3650    0.0000 C   0  0  0  0  0  0  0  0  0  0  0  0
   -1.4250    5.0660    0.0000 C   0  0  0  0  0  0  0  0  0  0  0  0
  1  2  1  0  0  0  0
  2  3  1  0  0  0  0
  2 20  2  0  0  0  0
  3  4  1  0  0  0  0
  3 17  2  0  0  0  0
  4  5  1  0  0  0  0
  4 11  1  0  0  0  0
  5  6  1  0  0  0  0
  5 10  2  0  0  0  0
  6  7  2  0  0  0  0
  7  8  1  0  0  0  0
  8  9  2  0  0  0  0
  9 10  1  0  0  0  0
 11 12  1  0  0  0  0
 11 16  2  0  0  0  0
 12 13  2  0  0  0  0
 13 14  1  0  0  0  0
 14 15  2  0  0  0  0
 15 16  1  0  0  0  0
 17 18  1  0  0  0  0
 18 19  2  0  0  0  0
 19 20  1  0  0  0  0
M  END
>  <name>
Clc1c([C;NaroC](c2ccccc2)c2ccccc2)cccc1

>  <apo>
1

>  <freq>
1

>  <freq0>
0

>  <freq1>
1

>  <freqA>
0.99887151

>  <a_count>
35

$$$$

  MOE2015           2D

 16 17  0  0  0  0  0  0  0  0999 V2000
   10.8500    0.2810    0.0000 Cl  0  0  0  0  0  0  0  0  0  0  0  0
    9.3500    0.2810    0.0000 C   0  0  0  0  0  0  0  0  0  0  0  0
    8.6000   -1.0180    0.0000 C   0  0  0  0  0  0  0  0  0  0  0  0
    7.1000   -1.0180    0.0000 C   0  0  0  0  0  0  0  0  0  0  0  0
    6.3500    0.2810    0.0000 C   0  0  0  0  0  0  0  0  0  0  0  0
    4.8500    0.2810    0.0000 C   0  0  0  0  0  0  0  0  0  0  0  0
    4.1000    1.5800    0.0000 C   0  0  0  0  0  0  0  0  0  0  0  0
    4.8500    2.8790    0.0000 C   0  0  0  0  0  0  0  0  0  0  0  0
    2.6000    1.5800    0.0000 C   0  0  0  0  0  0  0  0  0  0  0  0
    1.8500    0.2810    0.0000 C   0  0  0  0  0  0  0  0  0  0  0  0
    2.6000   -1.0180    0.0000 C   0  0  0  0  0  0  0  0  0  0  0  0
    1.3010   -1.7680    0.0000 C   0  0  0  0  0  0  0  0  0  0  0  0
    2.6000   -2.5180    0.0000 C   0  0  0  0  0  0  0  0  0  0  0  0
    4.1000   -1.0180    0.0000 C   0  0  0  0  0  0  0  0  0  0  0  0
    7.1000    1.5800    0.0000 C   0  0  0  0  0  0  0  0  0  0  0  0
    8.6000    1.5800    0.0000 C   0  0  0  0  0  0  0  0  0  0  0  0
  1  2  1  0  0  0  0
  2  3  1  0  0  0  0
  2 16  2  0  0  0  0
  3  4  2  0  0  0  0
  4  5  1  0  0  0  0
  5  6  1  0  0  0  0
  5 15  2  0  0  0  0
  6  7  2  0  0  0  0
  6 14  1  0  0  0  0
  7  8  1  0  0  0  0
  7  9  1  0  0  0  0
  9 10  1  0  0  0  0
 10 11  1  0  0  0  0
 11 12  1  0  0  0  0
 11 13  1  0  0  0  0
 11 14  1  0  0  0  0
 15 16  1  0  0  0  0
M  END
>  <name>
Clc1ccc(C2=C([C;amine])CCC(C)(C)C2)cc1

>  <apo>
1

>  <freq>
1

>  <freq0>
0

>  <freq1>
1

>  <freqA>
0.99887151

>  <a_count>
35

$$$$

  MOE2015           2D

 16 17  0  0  0  0  0  0  0  0999 V2000
    0.0000    0.0000    0.0000 F   0  0  0  0  0  0  0  0  0  0  0  0
    1.5000    0.0000    0.0000 C   0  0  0  0  0  0  0  0  0  0  0  0
    2.2500    1.2990    0.0000 C   0  0  0  0  0  0  0  0  0  0  0  0
    3.7500    1.2990    0.0000 C   0  0  0  0  0  0  0  0  0  0  0  0
    4.5000    0.0000    0.0000 C   0  0  0  0  0  0  0  0  0  0  0  0
    6.0000    0.0000    0.0000 C   0  0  0  0  0  0  0  0  0  0  0  0
    6.7500   -1.2990    0.0000 N   0  0  0  0  0  0  0  0  0  0  0  0
    8.2500   -1.2990    0.0000 C   0  0  0  0  0  0  0  0  0  0  0  0
    9.0000   -2.5980    0.0000 C   0  0  0  0  0  0  0  0  0  0  0  0
   10.5000   -2.5980    0.0000 C   0  0  0  0  0  0  0  0  0  0  0  0
   11.2500   -1.2990    0.0000 N   0  0  0  0  0  0  0  0  0  0  0  0
   12.7500   -1.2990    0.0000 C   0  0  0  0  0  0  0  0  0  0  0  0
   10.5000    0.0000    0.0000 C   0  0  0  0  0  0  0  0  0  0  0  0
    9.0000    0.0000    0.0000 C   0  0  0  0  0  0  0  0  0  0  0  0
    3.7500   -1.2990    0.0000 C   0  0  0  0  0  0  0  0  0  0  0  0
    2.2500   -1.2990    0.0000 C   0  0  0  0  0  0  0  0  0  0  0  0
  1  2  1  0  0  0  0
  2  3  1  0  0  0  0
  2 16  2  0  0  0  0
  3  4  2  0  0  0  0
  4  5  1  0  0  0  0
  5  6  1  0  0  0  0
  5 15  2  0  0  0  0
  6  7  1  0  0  0  0
  7  8  1  0  0  0  0
  8  9  1  0  0  0  0
  8 14  1  0  0  0  0
  9 10  1  0  0  0  0
 10 11  1  0  0  0  0
 11 12  1  0  0  0  0
 11 13  1  0  0  0  0
 13 14  1  0  0  0  0
 15 16  1  0  0  0  0
M  END
>  <name>
Fc1ccc(C[N;urea]C2CCN(C)CC2)cc1

>  <apo>
1

>  <freq>
1

>  <freq0>
0

>  <freq1>
1

>  <freqA>
0.99887151

>  <a_count>
35

$$$$

  MOE2015           2D

 17 17  0  0  0  0  0  0  0  0999 V2000
    0.3190   -1.1890    0.0000 N   0  0  0  0  0  0  0  0  0  0  0  0
    1.6180   -0.4390    0.0000 C   0  0  0  0  0  0  0  0  0  0  0  0
    2.9170    0.3110    0.0000 C   0  0  0  0  0  0  0  0  0  0  0  0
    2.1670    1.6100    0.0000 C   0  0  0  0  0  0  0  0  0  0  0  0
    3.6670   -0.9880    0.0000 C   0  0  0  0  0  0  0  0  0  0  0  0
    4.2160    1.0610    0.0000 C   0  0  0  0  0  0  0  0  0  0  0  0
    5.5150    0.3110    0.0000 C   0  0  0  0  0  0  0  0  0  0  0  0
    6.8140    1.0610    0.0000 C   0  0  0  0  0  0  0  0  0  0  0  0
    8.1130    0.3110    0.0000 C   0  0  0  0  0  0  0  0  0  0  0  0
    9.4120   -0.4390    0.0000 C   0  0  0  0  0  0  0  0  0  0  0  0
   10.7110   -1.1890    0.0000 N   0  0  0  0  0  0  0  0  0  0  0  0
    8.8630    1.6100    0.0000 C   0  0  0  0  0  0  0  0  0  0  0  0
    7.3630   -0.9880    0.0000 C   0  0  0  0  0  0  0  0  0  0  0  0
    6.8140    2.5610    0.0000 C   0  0  0  0  0  0  0  0  0  0  0  0
    5.5150    3.3110    0.0000 C   0  0  0  0  0  0  0  0  0  0  0  0
    5.5150    4.8110    0.0000 C   0  0  0  0  0  0  0  0  0  0  0  0
    4.2160    2.5610    0.0000 C   0  0  0  0  0  0  0  0  0  0  0  0
  1  2  3  0  0  0  0
  2  3  1  0  0  0  0
  3  4  1  0  0  0  0
  3  5  1  0  0  0  0
  3  6  1  0  0  0  0
  6  7  1  0  0  0  0
  6 17  2  0  0  0  0
  7  8  2  0  0  0  0
  8  9  1  0  0  0  0
  8 14  1  0  0  0  0
  9 10  1  0  0  0  0
  9 12  1  0  0  0  0
  9 13  1  0  0  0  0
 10 11  3  0  0  0  0
 14 15  2  0  0  0  0
 15 16  1  0  0  0  0
 15 17  1  0  0  0  0
M  END
>  <name>
N#CC(C)(C)c1cc(C(C#N)(C)C)cc([C;NaroC])c1

>  <apo>
1

>  <freq>
1

>  <freq0>
0

>  <freq1>
1

>  <freqA>
0.99887151

>  <a_count>
35

$$$$

  MOE2015           2D

 22 24  0  0  0  0  0  0  0  0999 V2000
   -0.0110    3.9060    0.0000 O   0  0  0  0  0  0  0  0  0  0  0  0
    1.4890    3.9140    0.0000 C   0  0  0  0  0  0  0  0  0  0  0  0
   -0.7540    2.6030    0.0000 C   0  0  0  0  0  0  0  0  0  0  0  0
    0.0040    1.3080    0.0000 C   0  0  0  0  0  0  0  0  0  0  0  0
   -0.7390    0.0050    0.0000 C   0  0  0  0  0  0  0  0  0  0  0  0
    0.0180   -1.2900    0.0000 O   0  0  0  0  0  0  0  0  0  0  0  0
    1.5180   -1.2820    0.0000 C   0  0  0  0  0  0  0  0  0  0  0  0
   -2.2390   -0.0040    0.0000 C   0  0  0  0  0  0  0  0  0  0  0  0
   -2.9960    1.2910    0.0000 C   0  0  0  0  0  0  0  0  0  0  0  0
   -4.4960    1.2830    0.0000 C   0  0  0  0  0  0  0  0  0  0  0  0
   -5.9960    1.2750    0.0000 C   0  0  0  0  0  0  0  0  0  0  0  0
   -7.4960    1.2660    0.0000 C   0  0  0  0  0  0  0  0  0  0  0  0
   -8.3710    0.0480    0.0000 N   0  0  0  0  0  0  0  0  0  0  0  0
   -9.8000    0.5040    0.0000 N   0  0  0  0  0  0  0  0  0  0  0  0
   -9.8090    2.0040    0.0000 C   0  0  0  0  0  0  0  0  0  0  0  0
  -10.9290    3.0010    0.0000 N   0  0  0  0  0  0  0  0  0  0  0  0
  -10.6250    4.4700    0.0000 C   0  0  0  0  0  0  0  0  0  0  0  0
   -9.2010    4.9420    0.0000 N   0  0  0  0  0  0  0  0  0  0  0  0
   -8.0810    3.9440    0.0000 C   0  0  0  0  0  0  0  0  0  0  0  0
   -6.6570    4.4150    0.0000 N   0  0  0  0  0  0  0  0  0  0  0  0
   -8.3850    2.4750    0.0000 C   0  0  0  0  0  0  0  0  0  0  0  0
   -2.2540    2.5950    0.0000 C   0  0  0  0  0  0  0  0  0  0  0  0
  1  2  1  0  0  0  0
  1  3  1  0  0  0  0
  3  4  1  0  0  0  0
  3 22  2  0  0  0  0
  4  5  2  0  0  0  0
  5  6  1  0  0  0  0
  5  8  1  0  0  0  0
  6  7  1  0  0  0  0
  8  9  2  0  0  0  0
  9 10  1  0  0  0  0
  9 22  1  0  0  0  0
 10 11  3  0  0  0  0
 11 12  1  0  0  0  0
 12 13  2  0  0  0  0
 12 21  1  0  0  0  0
 13 14  1  0  0  0  0
 14 15  1  0  0  0  0
 15 16  1  0  0  0  0
 15 21  2  0  0  0  0
 16 17  2  0  0  0  0
 17 18  1  0  0  0  0
 18 19  2  0  0  0  0
 19 20  1  0  0  0  0
 19 21  1  0  0  0  0
M  END
>  <name>
O(C)c1cc(OC)cc(C#Cc2n[nH;NaroC]c3ncnc(N)c23)c1

>  <apo>
1

>  <freq>
1

>  <freq0>
0

>  <freq1>
1

>  <freqA>
0.99887151

>  <a_count>
35

$$$$

  MOE2015           2D

 15 15  0  0  0  0  0  0  0  0999 V2000
    6.1500    3.5510    0.0000 O   0  0  0  0  0  0  0  0  0  0  0  0
    5.4000    2.2520    0.0000 C   0  0  0  0  0  0  0  0  0  0  0  0
    6.1500    0.9530    0.0000 C   0  0  0  0  0  0  0  0  0  0  0  0
    7.6500    0.9530    0.0000 C   0  0  0  0  0  0  0  0  0  0  0  0
    8.4000   -0.3460    0.0000 C   0  0  0  0  0  0  0  0  0  0  0  0
    3.9000    2.2520    0.0000 C   0  0  0  0  0  0  0  0  0  0  0  0
    3.1500    0.9530    0.0000 C   0  0  0  0  0  0  0  0  0  0  0  0
    1.6500    0.9530    0.0000 C   0  0  0  0  0  0  0  0  0  0  0  0
    0.9000    2.2520    0.0000 C   0  0  0  0  0  0  0  0  0  0  0  0
   -0.6000    2.2520    0.0000 C   0  0  0  0  0  0  0  0  0  0  0  0
   -0.6000    0.7520    0.0000 C   0  0  0  0  0  0  0  0  0  0  0  0
   -0.6000    3.7520    0.0000 C   0  0  0  0  0  0  0  0  0  0  0  0
   -2.1000    2.2520    0.0000 C   0  0  0  0  0  0  0  0  0  0  0  0
    1.6500    3.5510    0.0000 C   0  0  0  0  0  0  0  0  0  0  0  0
    3.1500    3.5510    0.0000 C   0  0  0  0  0  0  0  0  0  0  0  0
  1  2  2  0  0  0  0
  2  3  1  0  0  0  0
  2  6  1  0  0  0  0
  3  4  1  0  0  0  0
  4  5  1  0  0  0  0
  6  7  1  0  0  0  0
  6 15  2  0  0  0  0
  7  8  2  0  0  0  0
  8  9  1  0  0  0  0
  9 10  1  0  0  0  0
  9 14  2  0  0  0  0
 10 11  1  0  0  0  0
 10 12  1  0  0  0  0
 10 13  1  0  0  0  0
 14 15  1  0  0  0  0
M  END
>  <name>
O=C(CC[C;amine])c1ccc(C(C)(C)C)cc1

>  <apo>
1

>  <freq>
1

>  <freq0>
0

>  <freq1>
1

>  <freqA>
0.99887151

>  <a_count>
35

$$$$

  MOE2015           2D

 18 19  0  0  0  0  0  0  0  0999 V2000
    3.6210   -3.2800    0.0000 O   0  0  0  0  0  0  0  0  0  0  0  0
    2.3220   -2.5300    0.0000 C   0  0  0  0  0  0  0  0  0  0  0  0
    1.0230   -3.2800    0.0000 N   0  0  0  0  0  0  0  0  0  0  0  0
    2.3220   -1.0300    0.0000 C   0  0  0  0  0  0  0  0  0  0  0  0
    2.3220    0.4700    0.0000 C   0  0  0  0  0  0  0  0  0  0  0  0
    1.0230    1.2200    0.0000 C   0  0  0  0  0  0  0  0  0  0  0  0
    0.8220   -1.0300    0.0000 C   0  0  0  0  0  0  0  0  0  0  0  0
    0.0720    0.2690    0.0000 C   0  0  0  0  0  0  0  0  0  0  0  0
   -1.4280    0.2690    0.0000 C   0  0  0  0  0  0  0  0  0  0  0  0
   -2.1780   -1.0300    0.0000 C   0  0  0  0  0  0  0  0  0  0  0  0
   -1.4280   -2.3290    0.0000 C   0  0  0  0  0  0  0  0  0  0  0  0
    0.0720   -2.3290    0.0000 C   0  0  0  0  0  0  0  0  0  0  0  0
    3.8220   -1.0300    0.0000 C   0  0  0  0  0  0  0  0  0  0  0  0
    4.5720   -2.3290    0.0000 C   0  0  0  0  0  0  0  0  0  0  0  0
    6.0720   -2.3290    0.0000 C   0  0  0  0  0  0  0  0  0  0  0  0
    6.8220   -1.0300    0.0000 C   0  0  0  0  0  0  0  0  0  0  0  0
    6.0720    0.2690    0.0000 C   0  0  0  0  0  0  0  0  0  0  0  0
    4.5720    0.2690    0.0000 C   0  0  0  0  0  0  0  0  0  0  0  0
  1  2  2  0  0  0  0
  2  3  1  0  0  0  0
  2  4  1  0  0  0  0
  4  5  1  0  0  0  0
  4  7  1  0  0  0  0
  4 13  1  0  0  0  0
  5  6  1  0  0  0  0
  7  8  1  0  0  0  0
  7 12  2  0  0  0  0
  8  9  2  0  0  0  0
  9 10  1  0  0  0  0
 10 11  2  0  0  0  0
 11 12  1  0  0  0  0
 13 14  1  0  0  0  0
 13 18  2  0  0  0  0
 14 15  2  0  0  0  0
 15 16  1  0  0  0  0
 16 17  2  0  0  0  0
 17 18  1  0  0  0  0
M  END
>  <name>
O=C(N)C(C[C;quatN])(c1ccccc1)c1ccccc1

>  <apo>
1

>  <freq>
1

>  <freq0>
0

>  <freq1>
1

>  <freqA>
0.99887151

>  <a_count>
35

$$$$

  MOE2015           2D

 17 18  0  0  0  0  0  0  0  0999 V2000
    0.3260   -4.0800    0.0000 O   0  0  0  0  0  0  0  0  0  0  0  0
   -0.4240   -2.7810    0.0000 C   0  0  0  0  0  0  0  0  0  0  0  0
   -1.9240   -2.7810    0.0000 O   0  0  0  0  0  0  0  0  0  0  0  0
   -2.6740   -4.0800    0.0000 C   0  0  0  0  0  0  0  0  0  0  0  0
    0.3260   -1.4820    0.0000 C   0  0  0  0  0  0  0  0  0  0  0  0
    1.0760   -2.7810    0.0000 N   0  0  0  0  0  0  0  0  0  0  0  0
    2.5760   -2.7810    0.0000 C   0  0  0  0  0  0  0  0  0  0  0  0
    3.3260   -4.0800    0.0000 C   0  0  0  0  0  0  0  0  0  0  0  0
    4.8260   -4.0800    0.0000 C   0  0  0  0  0  0  0  0  0  0  0  0
    5.5760   -2.7810    0.0000 C   0  0  0  0  0  0  0  0  0  0  0  0
    4.8260   -1.4820    0.0000 C   0  0  0  0  0  0  0  0  0  0  0  0
    3.3260   -1.4820    0.0000 C   0  0  0  0  0  0  0  0  0  0  0  0
   -0.9730   -0.7320    0.0000 C   0  0  0  0  0  0  0  0  0  0  0  0
   -0.9730    0.7680    0.0000 C   0  0  0  0  0  0  0  0  0  0  0  0
    0.3260    1.5180    0.0000 N   0  0  0  0  0  0  0  0  0  0  0  0
    1.6250    0.7680    0.0000 C   0  0  0  0  0  0  0  0  0  0  0  0
    1.6250   -0.7320    0.0000 C   0  0  0  0  0  0  0  0  0  0  0  0
  1  2  2  0  0  0  0
  2  3  1  0  0  0  0
  2  5  1  0  0  0  0
  3  4  1  0  0  0  0
  5  6  1  0  0  0  0
  5 13  1  0  0  0  0
  5 17  1  0  0  0  0
  6  7  1  0  0  0  0
  7  8  1  0  0  0  0
  7 12  2  0  0  0  0
  8  9  2  0  0  0  0
  9 10  1  0  0  0  0
 10 11  2  0  0  0  0
 11 12  1  0  0  0  0
 13 14  1  0  0  0  0
 14 15  1  0  0  0  0
 15 16  1  0  0  0  0
 16 17  1  0  0  0  0
M  END
>  <name>
O=C(OC)C1([N;amide]c2ccccc2)CC[N;amine]CC1

>  <apo>
2

>  <freq>
1

>  <freq0>
0

>  <freq1>
1

>  <freqA>
0.99887151

>  <a_count>
35

$$$$

  MOE2015           2D

 19 21  0  0  0  0  0  0  0  0999 V2000
    3.8530    3.1940    0.0000 O   0  0  0  0  0  0  0  0  0  0  0  0
    3.5750    1.7200    0.0000 C   0  0  0  0  0  0  0  0  0  0  0  0
    2.1260    1.3300    0.0000 N   0  0  0  0  0  0  0  0  0  0  0  0
    1.1470    2.4660    0.0000 C   0  0  0  0  0  0  0  0  0  0  0  0
    1.6420    3.8830    0.0000 C   0  0  0  0  0  0  0  0  0  0  0  0
    1.5270   -0.0450    0.0000 C   0  0  0  0  0  0  0  0  0  0  0  0
    2.2280   -1.3710    0.0000 C   0  0  0  0  0  0  0  0  0  0  0  0
    3.7020   -1.6510    0.0000 N   0  0  0  0  0  0  0  0  0  0  0  0
    4.0900   -3.1000    0.0000 C   0  0  0  0  0  0  0  0  0  0  0  0
    4.8380   -0.6700    0.0000 C   0  0  0  0  0  0  0  0  0  0  0  0
    4.7820    0.8280    0.0000 C   0  0  0  0  0  0  0  0  0  0  0  0
    6.0520    1.6270    0.0000 C   0  0  0  0  0  0  0  0  0  0  0  0
    7.3780    0.9260    0.0000 C   0  0  0  0  0  0  0  0  0  0  0  0
    7.4340   -0.5730    0.0000 C   0  0  0  0  0  0  0  0  0  0  0  0
    6.1640   -1.3710    0.0000 C   0  0  0  0  0  0  0  0  0  0  0  0
    1.4300   -2.6410    0.0000 C   0  0  0  0  0  0  0  0  0  0  0  0
   -0.0690   -2.5850    0.0000 C   0  0  0  0  0  0  0  0  0  0  0  0
   -0.7700   -1.2590    0.0000 C   0  0  0  0  0  0  0  0  0  0  0  0
    0.0280    0.0110    0.0000 C   0  0  0  0  0  0  0  0  0  0  0  0
  1  2  2  0  0  0  0
  2  3  1  0  0  0  0
  2 11  1  0  0  0  0
  3  4  1  0  0  0  0
  3  6  1  0  0  0  0
  4  5  1  0  0  0  0
  6  7  1  0  0  0  0
  6 19  2  0  0  0  0
  7  8  1  0  0  0  0
  7 16  2  0  0  0  0
  8  9  1  0  0  0  0
  8 10  1  0  0  0  0
 10 11  1  0  0  0  0
 10 15  2  0  0  0  0
 11 12  2  0  0  0  0
 12 13  1  0  0  0  0
 13 14  2  0  0  0  0
 14 15  1  0  0  0  0
 16 17  1  0  0  0  0
 17 18  2  0  0  0  0
 18 19  1  0  0  0  0
M  END
>  <name>
O=C1N(C[C;amine])c2c(N(C)c3c1cccc3)cccc2

>  <apo>
1

>  <freq>
1

>  <freq0>
0

>  <freq1>
1

>  <freqA>
0.99887151

>  <a_count>
35

$$$$

  MOE2015           2D

 22 24  0  0  0  0  0  0  0  0999 V2000
    1.2370    4.6150    0.0000 O   0  0  0  0  0  0  0  0  0  0  0  0
    2.5360    3.8650    0.0000 C   0  0  0  0  0  0  0  0  0  0  0  0
    2.5360    2.3650    0.0000 N   0  0  0  0  0  0  0  0  0  0  0  0
    1.2370    1.6150    0.0000 C   0  0  0  0  0  0  0  0  0  0  0  0
    1.2370    0.1150    0.0000 C   0  0  0  0  0  0  0  0  0  0  0  0
   -0.0620   -0.6350    0.0000 C   0  0  0  0  0  0  0  0  0  0  0  0
   -0.0620   -2.1350    0.0000 C   0  0  0  0  0  0  0  0  0  0  0  0
    1.2370   -2.8850    0.0000 C   0  0  0  0  0  0  0  0  0  0  0  0
    2.5360   -2.1350    0.0000 C   0  0  0  0  0  0  0  0  0  0  0  0
    2.5360   -0.6350    0.0000 C   0  0  0  0  0  0  0  0  0  0  0  0
    3.8350    1.6150    0.0000 N   0  0  0  0  0  0  0  0  0  0  0  0
    5.1340    2.3650    0.0000 C   0  0  0  0  0  0  0  0  0  0  0  0
    6.4330    1.6150    0.0000 C   0  0  0  0  0  0  0  0  0  0  0  0
    7.7320    2.3650    0.0000 C   0  0  0  0  0  0  0  0  0  0  0  0
    9.0310    1.6150    0.0000 C   0  0  0  0  0  0  0  0  0  0  0  0
   10.3300    2.3650    0.0000 C   0  0  0  0  0  0  0  0  0  0  0  0
   11.6290    3.1150    0.0000 N   0  0  0  0  0  0  0  0  0  0  0  0
    9.0310    0.1150    0.0000 C   0  0  0  0  0  0  0  0  0  0  0  0
    7.7320   -0.6350    0.0000 C   0  0  0  0  0  0  0  0  0  0  0  0
    6.4330    0.1150    0.0000 C   0  0  0  0  0  0  0  0  0  0  0  0
    5.1340    3.8650    0.0000 C   0  0  0  0  0  0  0  0  0  0  0  0
    3.8350    4.6150    0.0000 C   0  0  0  0  0  0  0  0  0  0  0  0
  1  2  2  0  0  0  0
  2  3  1  0  0  0  0
  2 22  1  0  0  0  0
  3  4  1  0  0  0  0
  3 11  1  0  0  0  0
  4  5  1  0  0  0  0
  5  6  1  0  0  0  0
  5 10  2  0  0  0  0
  6  7  2  0  0  0  0
  7  8  1  0  0  0  0
  8  9  2  0  0  0  0
  9 10  1  0  0  0  0
 11 12  2  0  0  0  0
 12 13  1  0  0  0  0
 12 21  1  0  0  0  0
 13 14  1  0  0  0  0
 13 20  2  0  0  0  0
 14 15  2  0  0  0  0
 15 16  1  0  0  0  0
 15 18  1  0  0  0  0
 16 17  3  0  0  0  0
 18 19  2  0  0  0  0
 19 20  1  0  0  0  0
 21 22  2  0  0  0  0
M  END
>  <name>
O=C1N(Cc2c[c;biphenyl]ccc2)N=C(c2cc(C#N)ccc2)C=C1

>  <apo>
1

>  <freq>
1

>  <freq0>
0

>  <freq1>
1

>  <freqA>
0.99887151

>  <a_count>
35

$$$$

  MOE2015           2D

 21 24  0  0  1  0  0  0  0  0999 V2000
   -1.5210    1.5260    0.0000 O   0  0  0  0  0  0  0  0  0  0  0  0
   -1.5160    3.0260    0.0000 C   0  0  0  0  0  0  0  0  0  0  0  0
   -0.2150    3.7720    0.0000 C   0  0  0  0  0  0  0  0  0  0  0  0
   -0.2100    5.2720    0.0000 C   0  0  0  0  0  0  0  0  0  0  0  0
   -1.5060    6.0260    0.0000 O   0  0  0  0  0  0  0  0  0  0  0  0
    1.0920    6.0180    0.0000 C   0  0  0  0  0  0  0  0  0  0  0  0
    1.0970    7.5180    0.0000 O   0  0  0  0  0  0  0  0  0  0  0  0
    2.3880    5.2630    0.0000 C   0  0  0  0  0  0  0  0  0  0  0  0
    3.6900    6.0090    0.0000 C   0  0  0  0  0  0  0  0  0  0  0  0
    3.6900    7.5090    0.0000 O   0  0  0  0  0  0  0  0  0  0  0  0
    4.9820    5.2680    0.0000 N   0  0  0  0  0  0  0  0  0  0  0  0
    4.9840    3.7530    0.0000 C   0  0  2  0  0  0  0  0  0  0  0  0
    6.3060    3.0120    0.0000 O   0  0  0  0  0  0  0  0  0  0  0  0
    7.6290    3.8450    0.0000 C   0  0  1  0  0  0  0  0  0  0  0  0
    7.5020    5.2310    0.0000 C   0  0  0  0  0  0  0  0  0  0  0  0
    6.3540    6.0170    0.0000 C   0  0  2  0  0  0  0  0  0  0  0  0
    7.9430    6.4280    0.0000 C   0  0  0  0  0  0  0  0  0  0  0  0
    8.7630    5.0310    0.0000 C   0  0  0  0  0  0  0  0  0  0  0  0
    3.6800    3.0090    0.0000 C   0  0  0  0  0  0  0  0  0  0  0  0
    2.3830    3.7630    0.0000 N   0  0  0  0  0  0  0  0  0  0  0  0
    1.0820    3.0180    0.0000 C   0  0  0  0  0  0  0  0  0  0  0  0
  1  2  2  0  0  0  0
  2  3  1  0  0  0  0
  3  4  1  0  0  0  0
  3 21  2  0  0  0  0
  4  5  2  0  0  0  0
  4  6  1  0  0  0  0
  6  7  1  0  0  0  0
  6  8  2  0  0  0  0
  8  9  1  0  0  0  0
  8 20  1  0  0  0  0
  9 10  2  0  0  0  0
  9 11  1  0  0  0  0
 11 12  1  0  0  0  0
 11 16  1  0  0  0  0
 12 13  1  0  0  0  0
 12 19  1  6  0  0  0
 13 14  1  0  0  0  0
 14 15  1  0  0  0  0
 14 18  1  1  0  0  0
 15 16  1  0  0  0  0
 16 17  1  1  0  0  0
 17 18  1  0  0  0  0
 19 20  1  0  0  0  0
 20 21  1  0  0  0  0
M  END
>  <name>
O=[C;amide]C=1C(=O)C(O)=C2C(=O)N3[C@H](O[C@H]4C[C@@H]3CC4)CN2C=1

>  <apo>
1

>  <freq>
1

>  <freq0>
0

>  <freq1>
1

>  <freqA>
0.99887151

>  <a_count>
35

$$$$

  MOE2015           2D

 21 23  0  0  0  0  0  0  0  0999 V2000
   13.9980    3.7030    0.0000 O   0  0  0  0  0  0  0  0  0  0  0  0
   12.6940    2.9610    0.0000 C   0  0  0  0  0  0  0  0  0  0  0  0
   11.4000    3.7190    0.0000 C   0  0  0  0  0  0  0  0  0  0  0  0
   10.0960    2.9780    0.0000 C   0  0  0  0  0  0  0  0  0  0  0  0
    8.8020    3.7360    0.0000 C   0  0  0  0  0  0  0  0  0  0  0  0
    8.8120    5.2360    0.0000 C   0  0  0  0  0  0  0  0  0  0  0  0
    7.5170    5.9940    0.0000 C   0  0  0  0  0  0  0  0  0  0  0  0
    6.2140    5.2530    0.0000 C   0  0  0  0  0  0  0  0  0  0  0  0
    4.9190    6.0110    0.0000 C   0  0  0  0  0  0  0  0  0  0  0  0
    3.5450    5.4100    0.0000 C   0  0  0  0  0  0  0  0  0  0  0  0
    3.0730    3.9860    0.0000 C   0  0  0  0  0  0  0  0  0  0  0  0
    4.0690    2.8650    0.0000 O   0  0  0  0  0  0  0  0  0  0  0  0
    1.6030    3.6840    0.0000 N   0  0  0  0  0  0  0  0  0  0  0  0
    0.6070    4.8050    0.0000 C   0  0  0  0  0  0  0  0  0  0  0  0
   -0.8620    4.5020    0.0000 N   0  0  0  0  0  0  0  0  0  0  0  0
    1.0800    6.2280    0.0000 N   0  0  0  0  0  0  0  0  0  0  0  0
    2.5490    6.5310    0.0000 C   0  0  0  0  0  0  0  0  0  0  0  0
    3.3070    7.8250    0.0000 N   0  0  0  0  0  0  0  0  0  0  0  0
    4.7720    7.5040    0.0000 C   0  0  0  0  0  0  0  0  0  0  0  0
   10.1160    5.9780    0.0000 C   0  0  0  0  0  0  0  0  0  0  0  0
   11.4100    5.2190    0.0000 C   0  0  0  0  0  0  0  0  0  0  0  0
  1  2  2  0  0  0  0
  2  3  1  0  0  0  0
  3  4  1  0  0  0  0
  3 21  2  0  0  0  0
  4  5  2  0  0  0  0
  5  6  1  0  0  0  0
  6  7  1  0  0  0  0
  6 20  2  0  0  0  0
  7  8  1  0  0  0  0
  8  9  1  0  0  0  0
  9 10  1  0  0  0  0
  9 19  2  0  0  0  0
 10 11  1  0  0  0  0
 10 17  2  0  0  0  0
 11 12  2  0  0  0  0
 11 13  1  0  0  0  0
 13 14  2  0  0  0  0
 14 15  1  0  0  0  0
 14 16  1  0  0  0  0
 16 17  1  0  0  0  0
 17 18  1  0  0  0  0
 18 19  1  0  0  0  0
 20 21  1  0  0  0  0
M  END
>  <name>
O=[C;amide]c1ccc(CCc2c3C(=O)N=C(N)Nc3[nH]c2)cc1

>  <apo>
1

>  <freq>
1

>  <freq0>
0

>  <freq1>
1

>  <freqA>
0.99887151

>  <a_count>
35

$$$$

  MOE2015           2D

 16 17  0  0  1  0  0  0  0  0999 V2000
    1.3990    1.4430    0.0000 O   0  0  0  0  0  0  0  0  0  0  0  0
    1.4460   -0.0560    0.0000 C   0  0  0  0  0  0  0  0  0  0  0  0
    2.7680   -0.7650    0.0000 C   0  0  3  0  0  0  0  0  0  0  0  0
    1.4550   -1.4910    0.0000 C   0  0  0  0  0  0  0  0  0  0  0  0
    0.1700   -0.7170    0.0000 C   0  0  0  0  0  0  0  0  0  0  0  0
   -1.1420   -1.4430    0.0000 C   0  0  0  0  0  0  0  0  0  0  0  0
   -1.1700   -2.9430    0.0000 C   0  0  0  0  0  0  0  0  0  0  0  0
    0.1150   -3.7170    0.0000 C   0  0  0  0  0  0  0  0  0  0  0  0
    1.4280   -2.9910    0.0000 C   0  0  0  0  0  0  0  0  0  0  0  0
    3.4600   -2.0950    0.0000 C   0  0  0  0  0  0  0  0  0  0  0  0
    4.9320   -2.3820    0.0000 C   0  0  0  0  0  0  0  0  0  0  0  0
    6.0750   -1.4100    0.0000 N   0  0  0  0  0  0  0  0  0  0  0  0
    7.4460   -2.0190    0.0000 C   0  0  0  0  0  0  0  0  0  0  0  0
    6.0280    0.0890    0.0000 C   0  0  0  0  0  0  0  0  0  0  0  0
    4.8270    0.9870    0.0000 C   0  0  0  0  0  0  0  0  0  0  0  0
    3.3760    0.6060    0.0000 C   0  0  0  0  0  0  0  0  0  0  0  0
  1  2  2  0  0  0  0
  2  3  1  0  0  0  0
  3  4  1  0  0  0  0
  3 10  1  0  0  0  0
  3 16  1  0  0  0  0
  4  5  1  0  0  0  0
  4  9  2  0  0  0  0
  5  6  2  0  0  0  0
  6  7  1  0  0  0  0
  7  8  2  0  0  0  0
  8  9  1  0  0  0  0
 10 11  1  0  0  0  0
 11 12  1  0  0  0  0
 12 13  1  0  0  0  0
 12 14  1  0  0  0  0
 14 15  1  0  0  0  0
 15 16  1  0  0  0  0
M  END
>  <name>
O=[C;ester]C1(c2ccccc2)CCN(C)CCC1

>  <apo>
1

>  <freq>
1

>  <freq0>
0

>  <freq1>
1

>  <freqA>
0.99887151

>  <a_count>
35

$$$$

  MOE2015           2D

 20 21  0  0  0  0  0  0  0  0999 V2000
   12.5750   -4.9440    0.0000 O   0  0  0  0  0  0  0  0  0  0  0  0
   11.2760   -5.6940    0.0000 C   0  0  0  0  0  0  0  0  0  0  0  0
    9.9770   -4.9440    0.0000 C   0  0  0  0  0  0  0  0  0  0  0  0
    9.9770   -3.4440    0.0000 C   0  0  0  0  0  0  0  0  0  0  0  0
    8.6780   -2.6940    0.0000 N   0  0  0  0  0  0  0  0  0  0  0  0
    7.3790   -3.4440    0.0000 C   0  0  0  0  0  0  0  0  0  0  0  0
    6.0800   -2.6940    0.0000 N   0  0  0  0  0  0  0  0  0  0  0  0
    4.7810   -3.4440    0.0000 C   0  0  0  0  0  0  0  0  0  0  0  0
    3.4820   -2.6940    0.0000 C   0  0  0  0  0  0  0  0  0  0  0  0
    3.4820   -1.1940    0.0000 O   0  0  0  0  0  0  0  0  0  0  0  0
    2.1830   -0.4440    0.0000 C   0  0  0  0  0  0  0  0  0  0  0  0
    2.1830   -3.4440    0.0000 C   0  0  0  0  0  0  0  0  0  0  0  0
    2.1830   -4.9440    0.0000 C   0  0  0  0  0  0  0  0  0  0  0  0
    0.8840   -5.6940    0.0000 N   0  0  0  0  0  0  0  0  0  0  0  0
   -0.4160   -4.9440    0.0000 C   0  0  0  0  0  0  0  0  0  0  0  0
    3.4820   -5.6940    0.0000 C   0  0  0  0  0  0  0  0  0  0  0  0
    3.4820   -7.1940    0.0000 N   0  0  0  0  0  0  0  0  0  0  0  0
    4.7810   -4.9440    0.0000 C   0  0  0  0  0  0  0  0  0  0  0  0
    7.3790   -4.9440    0.0000 N   0  0  0  0  0  0  0  0  0  0  0  0
    8.6780   -5.6940    0.0000 C   0  0  0  0  0  0  0  0  0  0  0  0
  1  2  2  0  0  0  0
  2  3  1  0  0  0  0
  3  4  1  0  0  0  0
  3 20  2  0  0  0  0
  4  5  2  0  0  0  0
  5  6  1  0  0  0  0
  6  7  1  0  0  0  0
  6 19  2  0  0  0  0
  7  8  1  0  0  0  0
  8  9  1  0  0  0  0
  8 18  2  0  0  0  0
  9 10  1  0  0  0  0
  9 12  2  0  0  0  0
 10 11  1  0  0  0  0
 12 13  1  0  0  0  0
 13 14  1  0  0  0  0
 13 16  2  0  0  0  0
 14 15  1  0  0  0  0
 16 17  1  0  0  0  0
 16 18  1  0  0  0  0
 19 20  1  0  0  0  0
M  END
>  <name>
O=[C;ester]c1cnc(Nc2c(OC)cc([N;amine]C)c([N;amide])c2)n[c;biphenyl]1

>  <apo>
4

>  <freq>
1

>  <freq0>
0

>  <freq1>
1

>  <freqA>
0.99887151

>  <a_count>
35

$$$$

  MOE2015           2D

 21 22  0  0  0  0  0  0  0  0999 V2000
   10.8790   -2.9150    0.0000 O   0  0  0  0  0  0  0  0  0  0  0  0
    9.5800   -2.1650    0.0000 N   0  3  0  0  0  0  0  0  0  0  0  0
    9.5800   -0.6650    0.0000 O   0  5  0  0  0  0  0  0  0  0  0  0
    8.2810   -2.9150    0.0000 C   0  0  0  0  0  0  0  0  0  0  0  0
    6.9820   -2.1650    0.0000 C   0  0  0  0  0  0  0  0  0  0  0  0
    5.6830   -2.9150    0.0000 C   0  0  0  0  0  0  0  0  0  0  0  0
    4.3840   -2.1650    0.0000 C   0  0  0  0  0  0  0  0  0  0  0  0
    3.0850   -2.9150    0.0000 C   0  0  0  0  0  0  0  0  0  0  0  0
    3.0850   -4.4150    0.0000 C   0  0  0  0  0  0  0  0  0  0  0  0
    1.7860   -5.1650    0.0000 O   0  0  0  0  0  0  0  0  0  0  0  0
    1.7860   -2.1650    0.0000 C   0  0  0  0  0  0  0  0  0  0  0  0
    0.4870   -2.9150    0.0000 C   0  0  0  0  0  0  0  0  0  0  0  0
    1.7860   -0.6650    0.0000 N   0  0  0  0  0  0  0  0  0  0  0  0
    3.0850    0.0850    0.0000 C   0  0  0  0  0  0  0  0  0  0  0  0
    3.0850    1.5850    0.0000 C   0  0  0  0  0  0  0  0  0  0  0  0
    4.3840   -0.6650    0.0000 C   0  0  0  0  0  0  0  0  0  0  0  0
    5.6830    0.0850    0.0000 C   0  0  0  0  0  0  0  0  0  0  0  0
    5.6830    1.5850    0.0000 O   0  0  0  0  0  0  0  0  0  0  0  0
    5.6830   -4.4150    0.0000 C   0  0  0  0  0  0  0  0  0  0  0  0
    6.9820   -5.1650    0.0000 C   0  0  0  0  0  0  0  0  0  0  0  0
    8.2810   -4.4150    0.0000 C   0  0  0  0  0  0  0  0  0  0  0  0
  1  2  2  0  0  0  0
  2  3  1  0  0  0  0
  2  4  1  0  0  0  0
  4  5  1  0  0  0  0
  4 21  2  0  0  0  0
  5  6  2  0  0  0  0
  6  7  1  0  0  0  0
  6 19  1  0  0  0  0
  7  8  1  0  0  0  0
  7 16  1  0  0  0  0
  8  9  1  0  0  0  0
  8 11  2  0  0  0  0
  9 10  2  0  0  0  0
 11 12  1  0  0  0  0
 11 13  1  0  0  0  0
 13 14  1  0  0  0  0
 14 15  1  0  0  0  0
 14 16  2  0  0  0  0
 16 17  1  0  0  0  0
 17 18  2  0  0  0  0
 19 20  2  0  0  0  0
 20 21  1  0  0  0  0
M  CHG  1   2   1
M  CHG  1   3  -1
M  END
>  <name>
O=[N+]([O-])c1cc(C2C([C;ester]=O)=C(C)NC(C)=C2[C;ester]=O)ccc1

>  <apo>
2

>  <freq>
1

>  <freq0>
0

>  <freq1>
1

>  <freqA>
0.99887151

>  <a_count>
35

$$$$

  MOE2015           2D

 17 18  0  0  0  0  0  0  0  0999 V2000
    2.0060   -2.0060    0.0000 O   0  0  0  0  0  0  0  0  0  0  0  0
    2.0060   -0.5060    0.0000 C   0  0  0  0  0  0  0  0  0  0  0  0
    2.0060    0.9940    0.0000 C   0  0  0  0  0  0  0  0  0  0  0  0
    0.7070    1.7440    0.0000 C   0  0  0  0  0  0  0  0  0  0  0  0
    0.7070    3.2440    0.0000 C   0  0  0  0  0  0  0  0  0  0  0  0
    0.5060   -0.5060    0.0000 C   0  0  0  0  0  0  0  0  0  0  0  0
   -0.2440    0.7930    0.0000 C   0  0  0  0  0  0  0  0  0  0  0  0
   -1.7440    0.7930    0.0000 C   0  0  0  0  0  0  0  0  0  0  0  0
   -2.4940   -0.5060    0.0000 C   0  0  0  0  0  0  0  0  0  0  0  0
   -1.7440   -1.8050    0.0000 C   0  0  0  0  0  0  0  0  0  0  0  0
   -0.2440   -1.8050    0.0000 C   0  0  0  0  0  0  0  0  0  0  0  0
    3.5060   -0.5060    0.0000 C   0  0  0  0  0  0  0  0  0  0  0  0
    4.2560   -1.8050    0.0000 C   0  0  0  0  0  0  0  0  0  0  0  0
    5.7560   -1.8050    0.0000 C   0  0  0  0  0  0  0  0  0  0  0  0
    6.5060   -0.5060    0.0000 C   0  0  0  0  0  0  0  0  0  0  0  0
    5.7560    0.7930    0.0000 C   0  0  0  0  0  0  0  0  0  0  0  0
    4.2560    0.7930    0.0000 C   0  0  0  0  0  0  0  0  0  0  0  0
  1  2  1  0  0  0  0
  2  3  1  0  0  0  0
  2  6  1  0  0  0  0
  2 12  1  0  0  0  0
  3  4  1  0  0  0  0
  4  5  1  0  0  0  0
  6  7  1  0  0  0  0
  6 11  2  0  0  0  0
  7  8  2  0  0  0  0
  8  9  1  0  0  0  0
  9 10  2  0  0  0  0
 10 11  1  0  0  0  0
 12 13  1  0  0  0  0
 12 17  2  0  0  0  0
 13 14  2  0  0  0  0
 14 15  1  0  0  0  0
 15 16  2  0  0  0  0
 16 17  1  0  0  0  0
M  END
>  <name>
OC(CC[C;amine])(c1ccccc1)c1ccccc1

>  <apo>
1

>  <freq>
1

>  <freq0>
0

>  <freq1>
1

>  <freqA>
0.99887151

>  <a_count>
35

$$$$

  MOE2015           2D

 15 16  0  0  1  0  0  0  0  0999 V2000
    1.4620   -1.8380    0.0000 O   0  0  0  0  0  0  0  0  0  0  0  0
    1.4620   -0.3380    0.0000 C   0  0  3  0  0  0  0  0  0  0  0  0
    1.4620    1.1620    0.0000 C   0  0  0  0  0  0  0  0  0  0  0  0
    0.1630    1.9120    0.0000 C   0  0  0  0  0  0  0  0  0  0  0  0
    2.9620   -0.3380    0.0000 C   0  0  0  0  0  0  0  0  0  0  0  0
    3.7120    0.9610    0.0000 C   0  0  0  0  0  0  0  0  0  0  0  0
    5.2120    0.9610    0.0000 C   0  0  0  0  0  0  0  0  0  0  0  0
    5.9620   -0.3380    0.0000 C   0  0  0  0  0  0  0  0  0  0  0  0
    5.2120   -1.6370    0.0000 C   0  0  0  0  0  0  0  0  0  0  0  0
    3.7120   -1.6370    0.0000 C   0  0  0  0  0  0  0  0  0  0  0  0
   -0.0380   -0.3380    0.0000 C   0  0  0  0  0  0  0  0  0  0  0  0
   -0.9200   -1.5520    0.0000 C   0  0  0  0  0  0  0  0  0  0  0  0
   -2.3460   -1.0880    0.0000 C   0  0  0  0  0  0  0  0  0  0  0  0
   -2.3460    0.4120    0.0000 C   0  0  0  0  0  0  0  0  0  0  0  0
   -0.9200    0.8750    0.0000 C   0  0  0  0  0  0  0  0  0  0  0  0
  1  2  1  0  0  0  0
  2  3  1  0  0  0  0
  2  5  1  0  0  0  0
  2 11  1  0  0  0  0
  3  4  1  0  0  0  0
  5  6  1  0  0  0  0
  5 10  2  0  0  0  0
  6  7  2  0  0  0  0
  7  8  1  0  0  0  0
  8  9  2  0  0  0  0
  9 10  1  0  0  0  0
 11 12  1  0  0  0  0
 11 15  1  0  0  0  0
 12 13  1  0  0  0  0
 13 14  1  0  0  0  0
 14 15  1  0  0  0  0
M  END
>  <name>
OC(C[C;amine])(c1ccccc1)C1CCCC1

>  <apo>
1

>  <freq>
1

>  <freq0>
0

>  <freq1>
1

>  <freqA>
0.99887151

>  <a_count>
35

$$$$

  MOE2015           2D

 15 16  0  0  1  0  0  0  0  0999 V2000
    1.5000    1.5000    0.0000 O   0  0  0  0  0  0  0  0  0  0  0  0
    1.5000    0.0000    0.0000 C   0  0  3  0  0  0  0  0  0  0  0  0
    1.5000   -1.5000    0.0000 C   0  0  0  0  0  0  0  0  0  0  0  0
    0.0000    0.0000    0.0000 C   0  0  0  0  0  0  0  0  0  0  0  0
   -0.7500    1.2990    0.0000 C   0  0  0  0  0  0  0  0  0  0  0  0
   -2.2500    1.2990    0.0000 C   0  0  0  0  0  0  0  0  0  0  0  0
   -3.0000    0.0000    0.0000 C   0  0  0  0  0  0  0  0  0  0  0  0
   -2.2500   -1.2990    0.0000 C   0  0  0  0  0  0  0  0  0  0  0  0
   -0.7500   -1.2990    0.0000 C   0  0  0  0  0  0  0  0  0  0  0  0
    3.0000    0.0000    0.0000 C   0  0  0  0  0  0  0  0  0  0  0  0
    3.7500   -1.2990    0.0000 C   0  0  0  0  0  0  0  0  0  0  0  0
    5.2500   -1.2990    0.0000 C   0  0  0  0  0  0  0  0  0  0  0  0
    6.0000    0.0000    0.0000 C   0  0  0  0  0  0  0  0  0  0  0  0
    5.2500    1.2990    0.0000 C   0  0  0  0  0  0  0  0  0  0  0  0
    3.7500    1.2990    0.0000 C   0  0  0  0  0  0  0  0  0  0  0  0
  1  2  1  0  0  0  0
  2  3  1  0  0  0  0
  2  4  1  0  0  0  0
  2 10  1  0  0  0  0
  4  5  1  0  0  0  0
  4  9  2  0  0  0  0
  5  6  2  0  0  0  0
  6  7  1  0  0  0  0
  7  8  2  0  0  0  0
  8  9  1  0  0  0  0
 10 11  1  0  0  0  0
 10 15  1  0  0  0  0
 11 12  1  0  0  0  0
 12 13  1  0  0  0  0
 13 14  1  0  0  0  0
 14 15  1  0  0  0  0
M  END
>  <name>
OC([C;amine])(c1ccccc1)C1CCCCC1

>  <apo>
1

>  <freq>
1

>  <freq0>
0

>  <freq1>
1

>  <freqA>
0.99887151

>  <a_count>
35

$$$$

  MOE2015           2D

 13 13  0  0  1  0  0  0  0  0999 V2000
    2.5690   -2.5690    0.0000 O   0  0  0  0  0  0  0  0  0  0  0  0
    2.5690   -1.0690    0.0000 C   0  0  2  0  0  0  0  0  0  0  0  0
    4.0690   -1.0690    0.0000 C   0  0  0  0  0  0  0  0  0  0  0  0
    4.8190   -2.3680    0.0000 C   0  0  0  0  0  0  0  0  0  0  0  0
    6.3190   -2.3680    0.0000 C   0  0  0  0  0  0  0  0  0  0  0  0
    2.5690    0.4310    0.0000 C   0  0  0  0  0  0  0  0  0  0  0  0
    1.0690   -1.0690    0.0000 C   0  0  2  0  0  0  0  0  0  0  0  0
    0.3190    0.2300    0.0000 C   0  0  0  0  0  0  0  0  0  0  0  0
   -1.1810    0.2300    0.0000 C   0  0  0  0  0  0  0  0  0  0  0  0
   -1.9310   -1.0690    0.0000 C   0  0  0  0  0  0  0  0  0  0  0  0
   -3.4310   -1.0690    0.0000 C   0  0  0  0  0  0  0  0  0  0  0  0
   -1.1810   -2.3680    0.0000 C   0  0  0  0  0  0  0  0  0  0  0  0
    0.3190   -2.3680    0.0000 C   0  0  0  0  0  0  0  0  0  0  0  0
  2  1  1  1  0  0  0
  2  3  1  6  0  0  0
  2  6  1  0  0  0  0
  2  7  1  0  0  0  0
  3  4  1  0  0  0  0
  4  5  1  0  0  0  0
  7  8  1  1  0  0  0
  7 13  1  0  0  0  0
  8  9  1  0  0  0  0
  9 10  2  0  0  0  0
 10 11  1  0  0  0  0
 10 12  1  0  0  0  0
 12 13  1  0  0  0  0
M  END
>  <name>
O[C@](CC[C;olefin])(C)[C@@H]1CC=C(C)CC1

>  <apo>
1

>  <freq>
1

>  <freq0>
0

>  <freq1>
1

>  <freqA>
0.99887151

>  <a_count>
35

$$$$

  MOE2015           2D

 17 18  0  0  1  0  0  0  0  0999 V2000
    0.1460    4.8840    0.0000 O   0  0  0  0  0  0  0  0  0  0  0  0
    0.1460    3.3840    0.0000 C   0  0  0  0  0  0  0  0  0  0  0  0
    1.4450    2.6340    0.0000 C   0  0  0  0  0  0  0  0  0  0  0  0
    2.7440    3.3840    0.0000 C   0  0  2  0  0  0  0  0  0  0  0  0
    2.7440    4.8840    0.0000 C   0  0  0  0  0  0  0  0  0  0  0  0
    4.0430    5.6340    0.0000 C   0  0  0  0  0  0  0  0  0  0  0  0
    4.0430    2.6340    0.0000 C   0  0  0  0  0  0  0  0  0  0  0  0
    4.0430    1.1340    0.0000 C   0  0  0  0  0  0  0  0  0  0  0  0
    5.3420    0.3840    0.0000 C   0  0  0  0  0  0  0  0  0  0  0  0
    6.6410    1.1340    0.0000 C   0  0  0  0  0  0  0  0  0  0  0  0
    6.6410    2.6340    0.0000 C   0  0  0  0  0  0  0  0  0  0  0  0
    5.3420    3.3840    0.0000 C   0  0  0  0  0  0  0  0  0  0  0  0
    1.4450    1.1340    0.0000 C   0  0  0  0  0  0  0  0  0  0  0  0
    0.1460    0.3840    0.0000 C   0  0  0  0  0  0  0  0  0  0  0  0
    0.1460   -1.1160    0.0000 C   0  0  0  0  0  0  0  0  0  0  0  0
   -1.1530    1.1340    0.0000 C   0  0  0  0  0  0  0  0  0  0  0  0
   -1.1530    2.6340    0.0000 C   0  0  0  0  0  0  0  0  0  0  0  0
  1  2  1  0  0  0  0
  2  3  2  0  0  0  0
  2 17  1  0  0  0  0
  4  3  1  6  0  0  0
  3 13  1  0  0  0  0
  4  5  1  0  0  0  0
  4  7  1  0  0  0  0
  5  6  1  0  0  0  0
  7  8  1  0  0  0  0
  7 12  2  0  0  0  0
  8  9  2  0  0  0  0
  9 10  1  0  0  0  0
 10 11  2  0  0  0  0
 11 12  1  0  0  0  0
 13 14  2  0  0  0  0
 14 15  1  0  0  0  0
 14 16  1  0  0  0  0
 16 17  2  0  0  0  0
M  END
>  <name>
Oc1c([C@H](C[C;amine])c2ccccc2)cc(C)cc1

>  <apo>
1

>  <freq>
1

>  <freq0>
0

>  <freq1>
1

>  <freqA>
0.99887151

>  <a_count>
35

$$$$

  MOE2015           2D

 16 18  0  0  1  0  0  0  0  0999 V2000
    8.7900    0.0320    0.0000 O   0  0  0  0  0  0  0  0  0  0  0  0
    7.5160    0.8230    0.0000 C   0  0  0  0  0  0  0  0  0  0  0  0
    6.1940    0.1140    0.0000 C   0  0  0  0  0  0  0  0  0  0  0  0
    4.9190    0.9010    0.0000 C   0  0  0  0  0  0  0  0  0  0  0  0
    3.1640    0.6550    0.0000 C   0  0  3  0  0  0  0  0  0  0  0  0
    3.5500   -0.7950    0.0000 C   0  0  0  0  0  0  0  0  0  0  0  0
    1.7920    0.1580    0.0000 C   0  0  3  0  0  0  0  0  0  0  0  0
    0.6620   -0.8290    0.0000 C   0  0  0  0  0  0  0  0  0  0  0  0
    2.3790    1.2790    0.0000 C   0  0  3  0  0  0  0  0  0  0  0  0
    2.0770    2.8980    0.0000 N   0  0  0  0  0  0  0  0  0  0  0  0
    3.4470    3.3830    0.0000 C   0  0  0  0  0  0  0  0  0  0  0  0
    2.8650    2.3540    0.0000 C   0  0  0  0  0  0  0  0  0  0  0  0
    4.0770    1.4810    0.0000 C   0  0  0  0  0  0  0  0  0  0  0  0
    4.9660    2.4040    0.0000 C   0  0  0  0  0  0  0  0  0  0  0  0
    6.2880    3.1130    0.0000 C   0  0  0  0  0  0  0  0  0  0  0  0
    7.5630    2.3220    0.0000 C   0  0  0  0  0  0  0  0  0  0  0  0
  1  2  1  0  0  0  0
  2  3  1  0  0  0  0
  2 16  2  0  0  0  0
  3  4  2  0  0  0  0
  4  5  1  0  0  0  0
  4 14  1  0  0  0  0
  5  6  1  0  0  0  0
  5  7  1  0  0  0  0
  5 12  1  0  0  0  0
  7  8  1  0  0  0  0
  7  9  1  0  0  0  0
  9 10  1  0  0  0  0
  9 13  1  0  0  0  0
 10 11  1  0  0  0  0
 11 12  1  0  0  0  0
 13 14  1  0  0  0  0
 14 15  2  0  0  0  0
 15 16  1  0  0  0  0
M  END
>  <name>
Oc1cc2C3(C)C(C)C([N;amine]CC3)Cc2cc1

>  <apo>
1

>  <freq>
1

>  <freq0>
0

>  <freq1>
1

>  <freqA>
0.99887151

>  <a_count>
35

$$$$

  MOE2015           2D

 21 23  0  0  1  0  0  0  0  0999 V2000
   -0.9870   -1.4550    0.0000 S   0  0  0  0  0  0  0  0  0  0  0  0
    0.3360   -0.7480    0.0000 O   0  0  0  0  0  0  0  0  0  0  0  0
   -2.3090   -2.1620    0.0000 O   0  0  0  0  0  0  0  0  0  0  0  0
   -1.6940   -0.1320    0.0000 C   0  0  0  0  0  0  0  0  0  0  0  0
   -0.2790   -2.7780    0.0000 C   0  0  0  0  0  0  0  0  0  0  0  0
    1.2200   -2.8270    0.0000 C   0  0  0  0  0  0  0  0  0  0  0  0
    2.2590   -1.7450    0.0000 N   0  0  0  0  0  0  0  0  0  0  0  0
    3.6090   -2.3990    0.0000 C   0  0  0  0  0  0  0  0  0  0  0  0
    5.0860   -2.1360    0.0000 C   0  0  1  0  0  0  0  0  0  0  0  0
    5.7400   -0.7860    0.0000 C   0  0  0  0  0  0  0  0  0  0  0  0
    7.2360   -0.6780    0.0000 C   0  0  0  0  0  0  0  0  0  0  0  0
    7.8910    0.6720    0.0000 O   0  0  0  0  0  0  0  0  0  0  0  0
    8.0780   -1.9190    0.0000 O   0  0  0  0  0  0  0  0  0  0  0  0
    5.7930   -3.4580    0.0000 C   0  0  0  0  0  0  0  0  0  0  0  0
    4.7530   -4.5400    0.0000 C   0  0  0  0  0  0  0  0  0  0  0  0
    3.4040   -3.8850    0.0000 C   0  0  0  0  0  0  0  0  0  0  0  0
    1.9270   -4.1490    0.0000 C   0  0  0  0  0  0  0  0  0  0  0  0
    1.1350   -5.4230    0.0000 C   0  0  0  0  0  0  0  0  0  0  0  0
   -0.3640   -5.3740    0.0000 C   0  0  0  0  0  0  0  0  0  0  0  0
   -1.1560   -6.6480    0.0000 F   0  0  0  0  0  0  0  0  0  0  0  0
   -1.0710   -4.0520    0.0000 C   0  0  0  0  0  0  0  0  0  0  0  0
  1  2  2  0  0  0  0
  1  3  2  0  0  0  0
  1  4  1  0  0  0  0
  1  5  1  0  0  0  0
  5  6  1  0  0  0  0
  5 21  2  0  0  0  0
  6  7  1  0  0  0  0
  6 17  2  0  0  0  0
  7  8  1  0  0  0  0
  8  9  1  0  0  0  0
  8 16  2  0  0  0  0
  9 10  1  1  0  0  0
  9 14  1  0  0  0  0
 10 11  1  0  0  0  0
 11 12  2  0  0  0  0
 11 13  1  0  0  0  0
 14 15  1  0  0  0  0
 15 16  1  0  0  0  0
 16 17  1  0  0  0  0
 17 18  1  0  0  0  0
 18 19  2  0  0  0  0
 19 20  1  0  0  0  0
 19 21  1  0  0  0  0
M  END
>  <name>
S(=O)(=O)(C)c1c2[nH;NaroC]c3[C@@H](CC(=O)O)CCc3c2cc(F)c1

>  <apo>
1

>  <freq>
1

>  <freq0>
0

>  <freq1>
1

>  <freqA>
0.99887151

>  <a_count>
35

$$$$

  MOE2015           2D

 22 23  0  0  0  0  0  0  0  0999 V2000
    0.0000   -6.0000    0.0000 S   0  0  0  0  0  0  0  0  0  0  0  0
    1.5000   -6.0000    0.0000 O   0  0  0  0  0  0  0  0  0  0  0  0
   -1.5000   -6.0000    0.0000 O   0  0  0  0  0  0  0  0  0  0  0  0
    0.0000   -7.5000    0.0000 O   0  0  0  0  0  0  0  0  0  0  0  0
    0.0000   -4.5000    0.0000 C   0  0  0  0  0  0  0  0  0  0  0  0
    1.2990   -3.7500    0.0000 C   0  0  0  0  0  0  0  0  0  0  0  0
    2.5980   -4.5000    0.0000 C   0  0  0  0  0  0  0  0  0  0  0  0
    3.8970   -3.7500    0.0000 C   0  0  0  0  0  0  0  0  0  0  0  0
    3.8970   -2.2500    0.0000 C   0  0  0  0  0  0  0  0  0  0  0  0
    5.1960   -1.5000    0.0000 C   0  0  0  0  0  0  0  0  0  0  0  0
    6.4950   -2.2500    0.0000 C   0  0  0  0  0  0  0  0  0  0  0  0
    7.7940   -1.5000    0.0000 N   0  0  0  0  0  0  0  0  0  0  0  0
    6.4950   -3.7500    0.0000 C   0  0  0  0  0  0  0  0  0  0  0  0
    5.1960   -4.5000    0.0000 C   0  0  0  0  0  0  0  0  0  0  0  0
    1.2990   -2.2500    0.0000 C   0  0  0  0  0  0  0  0  0  0  0  0
    0.0000   -1.5000    0.0000 C   0  0  0  0  0  0  0  0  0  0  0  0
    0.0000    0.0000    0.0000 S   0  0  0  0  0  0  0  0  0  0  0  0
    1.5000    0.0000    0.0000 O   0  0  0  0  0  0  0  0  0  0  0  0
   -1.5000    0.0000    0.0000 O   0  0  0  0  0  0  0  0  0  0  0  0
    0.0000    1.5000    0.0000 O   0  0  0  0  0  0  0  0  0  0  0  0
   -1.2990   -2.2500    0.0000 C   0  0  0  0  0  0  0  0  0  0  0  0
   -1.2990   -3.7500    0.0000 C   0  0  0  0  0  0  0  0  0  0  0  0
  1  2  2  0  0  0  0
  1  3  2  0  0  0  0
  1  4  1  0  0  0  0
  1  5  1  0  0  0  0
  5  6  1  0  0  0  0
  5 22  2  0  0  0  0
  6  7  1  0  0  0  0
  6 15  2  0  0  0  0
  7  8  1  0  0  0  0
  8  9  1  0  0  0  0
  8 14  2  0  0  0  0
  9 10  2  0  0  0  0
 10 11  1  0  0  0  0
 11 12  1  0  0  0  0
 11 13  2  0  0  0  0
 13 14  1  0  0  0  0
 15 16  1  0  0  0  0
 16 17  1  0  0  0  0
 16 21  2  0  0  0  0
 17 18  2  0  0  0  0
 17 19  2  0  0  0  0
 17 20  1  0  0  0  0
 21 22  1  0  0  0  0
M  END
>  <name>
S(=O)(=O)(O)c1c([C;olefin]c2ccc([N;amine])cc2)cc(S(=O)(=O)O)cc1

>  <apo>
2

>  <freq>
1

>  <freq0>
0

>  <freq1>
1

>  <freqA>
0.99887151

>  <a_count>
35

$$$$

  MOE2015           2D

 22 22  0  0  1  0  0  0  0  0999 V2000
    3.3490   -6.5370    0.0000 S   0  0  0  0  0  0  0  0  0  0  0  0
    3.3490   -8.0370    0.0000 O   0  0  0  0  0  0  0  0  0  0  0  0
    3.3490   -5.0370    0.0000 O   0  0  0  0  0  0  0  0  0  0  0  0
    1.8490   -6.5370    0.0000 O   0  0  0  0  0  0  0  0  0  0  0  0
    1.0990   -5.2380    0.0000 C   0  0  0  0  0  0  0  0  0  0  0  0
   -0.4010   -5.2380    0.0000 C   0  0  2  0  0  0  0  0  0  0  0  0
   -1.1510   -6.5370    0.0000 O   0  0  0  0  0  0  0  0  0  0  0  0
   -2.6510   -6.5370    0.0000 C   0  0  0  0  0  0  0  0  0  0  0  0
   -3.4010   -5.2380    0.0000 C   0  0  1  0  0  0  0  0  0  0  0  0
   -4.9010   -5.2380    0.0000 N   0  0  0  0  0  0  0  0  0  0  0  0
   -5.6510   -6.5370    0.0000 S   0  0  0  0  0  0  0  0  0  0  0  0
   -6.9500   -5.7870    0.0000 O   0  0  0  0  0  0  0  0  0  0  0  0
   -4.3520   -7.2870    0.0000 O   0  0  0  0  0  0  0  0  0  0  0  0
   -6.4010   -7.8360    0.0000 O   0  0  0  0  0  0  0  0  0  0  0  0
   -2.6510   -3.9390    0.0000 C   0  0  2  0  0  0  0  0  0  0  0  0
   -3.4010   -2.6400    0.0000 O   0  0  0  0  0  0  0  0  0  0  0  0
   -2.6510   -1.3410    0.0000 S   0  0  0  0  0  0  0  0  0  0  0  0
   -1.3520   -2.0910    0.0000 O   0  0  0  0  0  0  0  0  0  0  0  0
   -3.9500   -0.5910    0.0000 O   0  0  0  0  0  0  0  0  0  0  0  0
   -1.9010   -0.0420    0.0000 O   0  0  0  0  0  0  0  0  0  0  0  0
   -1.1510   -3.9390    0.0000 C   0  0  0  0  0  0  0  0  0  0  0  0
    4.8490   -6.5370    0.0000 O   0  0  0  0  0  0  0  0  0  0  0  0
  1  2  2  0  0  0  0
  1  3  2  0  0  0  0
  1  4  1  0  0  0  0
  1 22  1  0  0  0  0
  4  5  1  0  0  0  0
  6  5  1  6  0  0  0
  6  7  1  0  0  0  0
  6 21  1  0  0  0  0
  7  8  1  0  0  0  0
  8  9  1  0  0  0  0
  9 10  1  1  0  0  0
  9 15  1  0  0  0  0
 10 11  1  0  0  0  0
 11 12  2  0  0  0  0
 11 13  2  0  0  0  0
 11 14  1  0  0  0  0
 15 16  1  6  0  0  0
 15 21  1  0  0  0  0
 16 17  1  0  0  0  0
 17 18  2  0  0  0  0
 17 19  2  0  0  0  0
 17 20  1  0  0  0  0
M  END
>  <name>
S(=O)(=O)(OC[C@@H]1O[C;ether][C@@H](NS(=O)(=O)O)[C@H](OS(=O)(=O)O)[C;ether]1)O

>  <apo>
2

>  <freq>
1

>  <freq0>
0

>  <freq1>
1

>  <freqA>
0.99887151

>  <a_count>
35

$$$$

  MOE2015           2D

 16 16  0  0  1  0  0  0  0  0999 V2000
   -3.1410    5.4400    0.0000 S   0  0  0  0  0  0  0  0  0  0  0  0
   -2.3910    6.7390    0.0000 C   0  0  0  0  0  0  0  0  0  0  0  0
   -2.3910    4.1410    0.0000 C   0  0  2  0  0  0  0  0  0  0  0  0
   -3.1410    2.8420    0.0000 C   0  0  2  0  0  0  0  0  0  0  0  0
   -4.6410    2.8420    0.0000 O   0  0  0  0  0  0  0  0  0  0  0  0
   -2.3910    1.5430    0.0000 C   0  0  1  0  0  0  0  0  0  0  0  0
   -3.1410    0.2440    0.0000 O   0  0  0  0  0  0  0  0  0  0  0  0
   -0.8910    1.5430    0.0000 C   0  0  1  0  0  0  0  0  0  0  0  0
   -0.1410    0.2440    0.0000 O   0  0  0  0  0  0  0  0  0  0  0  0
   -0.1410    2.8420    0.0000 C   0  0  1  0  0  0  0  0  0  0  0  0
    1.3590    2.8420    0.0000 C   0  0  2  0  0  0  0  0  0  0  0  0
    2.1090    1.5430    0.0000 N   0  0  0  0  0  0  0  0  0  0  0  0
    2.1090    4.1410    0.0000 C   0  0  2  0  0  0  0  0  0  0  0  0
    1.3590    5.4400    0.0000 O   0  0  0  0  0  0  0  0  0  0  0  0
    3.6090    4.1410    0.0000 C   0  0  0  0  0  0  0  0  0  0  0  0
   -0.8910    4.1410    0.0000 O   0  0  0  0  0  0  0  0  0  0  0  0
  1  2  1  0  0  0  0
  3  1  1  1  0  0  0
  3  4  1  0  0  0  0
  3 16  1  0  0  0  0
  4  5  1  1  0  0  0
  4  6  1  0  0  0  0
  6  7  1  6  0  0  0
  6  8  1  0  0  0  0
  8  9  1  6  0  0  0
  8 10  1  0  0  0  0
 10 11  1  0  0  0  0
 10 16  1  6  0  0  0
 11 12  1  1  0  0  0
 11 13  1  0  0  0  0
 13 14  1  0  0  0  0
 13 15  1  6  0  0  0
M  END
>  <name>
S(C)[C@@H]1[C@H](O)[C@@H](O)[C@@H](O)[C@@H]([C@H]([N;amide])[C@H](O)C)O1

>  <apo>
1

>  <freq>
1

>  <freq0>
0

>  <freq1>
1

>  <freqA>
0.99887151

>  <a_count>
35

$$$$

  MOE2015           2D

 17 20  0  0  1  0  0  0  0  0999 V2000
    9.4160    2.5710    0.0000 C   0  0  0  0  0  0  0  0  0  0  0  0
    8.1240    1.8090    0.0000 C   0  0  1  0  0  0  0  0  0  0  0  0
    8.1380    0.3090    0.0000 C   0  0  0  0  0  0  0  0  0  0  0  0
    6.8460   -0.4540    0.0000 N   0  0  0  0  0  0  0  0  0  0  0  0
    5.5330    0.3170    0.0000 C   0  0  1  0  0  0  0  0  0  0  0  0
    5.5340    1.7800    0.0000 C   0  0  1  0  0  0  0  0  0  0  0  0
    4.2710    2.5220    0.0000 C   0  0  0  0  0  0  0  0  0  0  0  0
    2.9990    1.7900    0.0000 C   0  0  0  0  0  0  0  0  0  0  0  0
    1.7290    2.5250    0.0000 C   0  0  0  0  0  0  0  0  0  0  0  0
    0.6540    1.4660    0.0000 N   0  0  0  0  0  0  0  0  0  0  0  0
    1.5740   -0.1570    0.0000 C   0  0  0  0  0  0  0  0  0  0  0  0
    2.9930    0.3210    0.0000 C   0  0  0  0  0  0  0  0  0  0  0  0
    4.2600   -0.4130    0.0000 C   0  0  0  0  0  0  0  0  0  0  0  0
    1.7360    3.9970    0.0000 C   0  0  0  0  0  0  0  0  0  0  0  0
    3.0120    4.7260    0.0000 C   0  0  0  0  0  0  0  0  0  0  0  0
    4.2720    3.9850    0.0000 C   0  0  0  0  0  0  0  0  0  0  0  0
    6.8180    2.5460    0.0000 C   0  0  0  0  0  0  0  0  0  0  0  0
  2  1  1  1  0  0  0
  2  3  1  0  0  0  0
  2 17  1  0  0  0  0
  3  4  1  0  0  0  0
  5  4  1  6  0  0  0
  5  6  1  0  0  0  0
  5 13  1  0  0  0  0
  6  7  1  1  0  0  0
  6 17  1  0  0  0  0
  7  8  2  0  0  0  0
  7 16  1  0  0  0  0
  8  9  1  0  0  0  0
  8 12  1  0  0  0  0
  9 10  1  0  0  0  0
  9 14  2  0  0  0  0
 10 11  1  0  0  0  0
 11 12  2  0  0  0  0
 12 13  1  0  0  0  0
 14 15  1  0  0  0  0
 15 16  2  0  0  0  0
M  END
>  <name>
[C;thioether][C@H]1C[N;amine][C@H]2[C@@H](c3c4c([nH]cc4C2)ccc3)C1

>  <apo>
2

>  <freq>
1

>  <freq0>
0

>  <freq1>
1

>  <freqA>
0.99887151

>  <a_count>
35

$$$$

  MOE2015           2D

 18 21  0  0  1  0  0  0  0  0999 V2000
    9.3490   -2.4790    0.0000 N   0  0  0  0  0  0  0  0  0  0  0  0
    8.0460   -1.7360    0.0000 C   0  0  1  0  0  0  0  0  0  0  0  0
    6.7510   -2.4920    0.0000 C   0  0  0  0  0  0  0  0  0  0  0  0
    5.4390   -1.7170    0.0000 C   0  0  0  0  0  0  0  0  0  0  0  0
    5.4480   -0.2540    0.0000 C   0  0  2  0  0  0  0  0  0  0  0  0
    6.7350    0.5080    0.0000 N   0  0  0  0  0  0  0  0  0  0  0  0
    6.7230    2.0080    0.0000 C   0  0  0  0  0  0  0  0  0  0  0  0
    8.0380   -0.2360    0.0000 C   0  0  0  0  0  0  0  0  0  0  0  0
    4.1800    0.4840    0.0000 C   0  0  0  0  0  0  0  0  0  0  0  0
    2.9070   -0.2430    0.0000 C   0  0  0  0  0  0  0  0  0  0  0  0
    2.9050   -1.7110    0.0000 C   0  0  0  0  0  0  0  0  0  0  0  0
    1.6300   -2.4390    0.0000 C   0  0  0  0  0  0  0  0  0  0  0  0
    0.5610   -1.3730    0.0000 N   0  0  0  0  0  0  0  0  0  0  0  0
    1.4920    0.2450    0.0000 C   0  0  0  0  0  0  0  0  0  0  0  0
    1.6280   -3.9110    0.0000 C   0  0  0  0  0  0  0  0  0  0  0  0
    2.8990   -4.6470    0.0000 C   0  0  0  0  0  0  0  0  0  0  0  0
    4.1640   -3.9140    0.0000 C   0  0  0  0  0  0  0  0  0  0  0  0
    4.1720   -2.4520    0.0000 C   0  0  0  0  0  0  0  0  0  0  0  0
  2  1  1  1  0  0  0
  2  3  1  0  0  0  0
  2  8  1  0  0  0  0
  3  4  2  0  0  0  0
  5  4  1  1  0  0  0
  4 18  1  0  0  0  0
  5  6  1  0  0  0  0
  5  9  1  0  0  0  0
  6  7  1  0  0  0  0
  6  8  1  0  0  0  0
  9 10  1  0  0  0  0
 10 11  1  0  0  0  0
 10 14  2  0  0  0  0
 11 12  2  0  0  0  0
 11 18  1  0  0  0  0
 12 13  1  0  0  0  0
 12 15  1  0  0  0  0
 13 14  1  0  0  0  0
 15 16  2  0  0  0  0
 16 17  1  0  0  0  0
 17 18  2  0  0  0  0
M  END
>  <name>
[N;urea][C@H]1C=C2[C@H](N(C)C1)Cc1c3c([nH]c1)cccc23

>  <apo>
1

>  <freq>
1

>  <freq0>
0

>  <freq1>
1

>  <freqA>
0.99887151

>  <a_count>
35

$$$$

  MOE2015           2D

 17 19  0  0  1  0  0  0  0  0999 V2000
    0.0170   -0.0300    0.0000 N   0  0  0  0  0  0  0  0  0  0  0  0
    0.7670    1.2690    0.0000 C   0  0  1  0  0  0  0  0  0  0  0  0
    2.2670    1.2690    0.0000 C   0  0  0  0  0  0  0  0  0  0  0  0
    3.0170    2.5680    0.0000 C   0  0  1  0  0  0  0  0  0  0  0  0
    2.2670    3.8670    0.0000 N   0  0  0  0  0  0  0  0  0  0  0  0
    3.0170    5.1660    0.0000 C   0  0  0  0  0  0  0  0  0  0  0  0
    0.7670    3.8670    0.0000 C   0  0  0  0  0  0  0  0  0  0  0  0
    0.0170    2.5680    0.0000 C   0  0  0  0  0  0  0  0  0  0  0  0
    4.5170    2.5680    0.0000 C   0  0  0  0  0  0  0  0  0  0  0  0
    5.3990    3.7810    0.0000 N   0  0  0  0  0  0  0  0  0  0  0  0
    6.8260    3.3180    0.0000 C   0  0  0  0  0  0  0  0  0  0  0  0
    6.8260    1.8180    0.0000 C   0  0  0  0  0  0  0  0  0  0  0  0
    5.3990    1.3540    0.0000 N   0  0  0  0  0  0  0  0  0  0  0  0
    8.1250    1.0680    0.0000 C   0  0  0  0  0  0  0  0  0  0  0  0
    9.4240    1.8180    0.0000 C   0  0  0  0  0  0  0  0  0  0  0  0
    9.4240    3.3180    0.0000 C   0  0  0  0  0  0  0  0  0  0  0  0
    8.1250    4.0680    0.0000 C   0  0  0  0  0  0  0  0  0  0  0  0
  2  1  1  6  0  0  0
  2  3  1  0  0  0  0
  2  8  1  0  0  0  0
  3  4  1  0  0  0  0
  4  5  1  0  0  0  0
  4  9  1  1  0  0  0
  5  6  1  0  0  0  0
  5  7  1  0  0  0  0
  7  8  1  0  0  0  0
  9 10  1  0  0  0  0
  9 13  2  0  0  0  0
 10 11  1  0  0  0  0
 11 12  2  0  0  0  0
 11 17  1  0  0  0  0
 12 13  1  0  0  0  0
 12 14  1  0  0  0  0
 14 15  2  0  0  0  0
 15 16  1  0  0  0  0
 16 17  2  0  0  0  0
M  END
>  <name>
[N;urea][C@H]1C[C@@H](N(C)CC1)c1[nH]c2c(n1)cccc2

>  <apo>
1

>  <freq>
1

>  <freq0>
0

>  <freq1>
1

>  <freqA>
0.99887151

>  <a_count>
35

$$$$

  MOE2015           2D

 16 16  0  0  1  0  0  0  0  0999 V2000
    8.8120    1.9490    0.0000 Cl  0  0  0  0  0  0  0  0  0  0  0  0
    7.3120    1.9490    0.0000 C   0  0  2  0  0  0  0  0  0  0  0  0
    6.5620    0.6500    0.0000 C   0  0  1  0  0  0  0  0  0  0  0  0
    7.3120   -0.6500    0.0000 N   0  0  0  0  0  0  0  0  0  0  0  0
    5.0620    0.6500    0.0000 C   0  0  2  0  0  0  0  0  0  0  0  0
    4.3120   -0.6500    0.0000 C   0  0  2  0  0  0  0  0  0  0  0  0
    5.0630   -1.9490    0.0000 O   0  0  0  0  0  0  0  0  0  0  0  0
    2.8120   -0.6500    0.0000 C   0  0  2  0  0  0  0  0  0  0  0  0
    2.0630   -1.9490    0.0000 O   0  0  0  0  0  0  0  0  0  0  0  0
    2.0630    0.6500    0.0000 C   0  0  1  0  0  0  0  0  0  0  0  0
    0.5630    0.6500    0.0000 O   0  0  0  0  0  0  0  0  0  0  0  0
    2.8120    1.9490    0.0000 C   0  0  1  0  0  0  0  0  0  0  0  0
    2.0620    3.2480    0.0000 S   0  0  0  0  0  0  0  0  0  0  0  0
    2.8120    4.5470    0.0000 C   0  0  0  0  0  0  0  0  0  0  0  0
    4.3120    1.9490    0.0000 O   0  0  0  0  0  0  0  0  0  0  0  0
    6.5620    3.2480    0.0000 C   0  0  0  0  0  0  0  0  0  0  0  0
  2  1  1  6  0  0  0
  2  3  1  0  0  0  0
  2 16  1  0  0  0  0
  3  4  1  1  0  0  0
  3  5  1  0  0  0  0
  5  6  1  0  0  0  0
  5 15  1  6  0  0  0
  6  7  1  6  0  0  0
  6  8  1  0  0  0  0
  8  9  1  6  0  0  0
  8 10  1  0  0  0  0
 10 11  1  1  0  0  0
 10 12  1  0  0  0  0
 12 13  1  1  0  0  0
 12 15  1  0  0  0  0
 13 14  1  0  0  0  0
M  END
>  <name>
Cl[C@H]([C@@H]([N;amide])[C@@H]1[C@H](O)[C@H](O)[C@@H](O)[C@@H](SC)O1)C

>  <apo>
1

>  <freq>
1

>  <freq0>
0

>  <freq1>
1

>  <freqA>
0.99887151

>  <a_count>
34

$$$$

  MOE2015           2D

 22 24  0  0  0  0  0  0  0  0999 V2000
   10.9430   -0.6500    0.0000 Cl  0  0  0  0  0  0  0  0  0  0  0  0
   10.1930    0.6500    0.0000 C   0  0  0  0  0  0  0  0  0  0  0  0
   10.9430    1.9490    0.0000 C   0  0  0  0  0  0  0  0  0  0  0  0
   12.4430    1.9490    0.0000 F   0  0  0  0  0  0  0  0  0  0  0  0
   10.1930    3.2480    0.0000 C   0  0  0  0  0  0  0  0  0  0  0  0
    8.6930    3.2480    0.0000 C   0  0  0  0  0  0  0  0  0  0  0  0
    7.9430    1.9490    0.0000 C   0  0  0  0  0  0  0  0  0  0  0  0
    6.4430    1.9490    0.0000 N   0  0  0  0  0  0  0  0  0  0  0  0
    5.6930    3.2480    0.0000 C   0  0  0  0  0  0  0  0  0  0  0  0
    6.4430    4.5470    0.0000 N   0  0  0  0  0  0  0  0  0  0  0  0
    5.6930    5.8460    0.0000 C   0  0  0  0  0  0  0  0  0  0  0  0
    4.1930    5.8460    0.0000 N   0  0  0  0  0  0  0  0  0  0  0  0
    3.4430    4.5470    0.0000 C   0  0  0  0  0  0  0  0  0  0  0  0
    4.1930    3.2480    0.0000 C   0  0  0  0  0  0  0  0  0  0  0  0
    3.4430    1.9490    0.0000 C   0  0  0  0  0  0  0  0  0  0  0  0
    1.9430    1.9490    0.0000 C   0  0  0  0  0  0  0  0  0  0  0  0
    1.1930    0.6500    0.0000 N   0  0  0  0  0  0  0  0  0  0  0  0
    1.1930    3.2480    0.0000 C   0  0  0  0  0  0  0  0  0  0  0  0
   -0.3070    3.2480    0.0000 O   0  0  0  0  0  0  0  0  0  0  0  0
   -1.0570    4.5470    0.0000 C   0  0  0  0  0  0  0  0  0  0  0  0
    1.9430    4.5470    0.0000 C   0  0  0  0  0  0  0  0  0  0  0  0
    8.6930    0.6500    0.0000 C   0  0  0  0  0  0  0  0  0  0  0  0
  1  2  1  0  0  0  0
  2  3  1  0  0  0  0
  2 22  2  0  0  0  0
  3  4  1  0  0  0  0
  3  5  2  0  0  0  0
  5  6  1  0  0  0  0
  6  7  2  0  0  0  0
  7  8  1  0  0  0  0
  7 22  1  0  0  0  0
  8  9  1  0  0  0  0
  9 10  2  0  0  0  0
  9 14  1  0  0  0  0
 10 11  1  0  0  0  0
 11 12  2  0  0  0  0
 12 13  1  0  0  0  0
 13 14  1  0  0  0  0
 13 21  2  0  0  0  0
 14 15  2  0  0  0  0
 15 16  1  0  0  0  0
 16 17  1  0  0  0  0
 16 18  2  0  0  0  0
 18 19  1  0  0  0  0
 18 21  1  0  0  0  0
 19 20  1  0  0  0  0
M  END
>  <name>
Clc1c(F)ccc(Nc2ncnc3c2cc([N;amide])c(OC)c3)c1

>  <apo>
1

>  <freq>
1

>  <freq0>
0

>  <freq1>
1

>  <freqA>
0.99887151

>  <a_count>
34

$$$$

  MOE2015           2D

 23 25  0  0  0  0  0  0  0  0999 V2000
   10.5850   -2.8360    0.0000 Cl  0  0  0  0  0  0  0  0  0  0  0  0
    9.2860   -2.0860    0.0000 C   0  0  0  0  0  0  0  0  0  0  0  0
    9.2860   -0.5860    0.0000 C   0  0  0  0  0  0  0  0  0  0  0  0
   10.5850    0.1640    0.0000 O   0  0  0  0  0  0  0  0  0  0  0  0
    7.9870    0.1640    0.0000 C   0  0  0  0  0  0  0  0  0  0  0  0
    6.6880   -0.5860    0.0000 C   0  0  0  0  0  0  0  0  0  0  0  0
    6.6880   -2.0860    0.0000 C   0  0  0  0  0  0  0  0  0  0  0  0
    5.3890   -2.8360    0.0000 N   0  0  0  0  0  0  0  0  0  0  0  0
    4.0900   -2.0860    0.0000 C   0  0  0  0  0  0  0  0  0  0  0  0
    2.7910   -2.8360    0.0000 C   0  0  0  0  0  0  0  0  0  0  0  0
    2.7910   -4.3360    0.0000 C   0  0  0  0  0  0  0  0  0  0  0  0
    2.7910   -5.8360    0.0000 N   0  0  0  0  0  0  0  0  0  0  0  0
    1.4920   -2.0860    0.0000 C   0  0  0  0  0  0  0  0  0  0  0  0
    1.4920   -0.5860    0.0000 N   0  0  0  0  0  0  0  0  0  0  0  0
    2.7910    0.1640    0.0000 C   0  0  0  0  0  0  0  0  0  0  0  0
    4.0900   -0.5860    0.0000 C   0  0  0  0  0  0  0  0  0  0  0  0
    5.3890    0.1640    0.0000 C   0  0  0  0  0  0  0  0  0  0  0  0
    5.3890    1.6640    0.0000 C   0  0  0  0  0  0  0  0  0  0  0  0
    6.6880    2.4140    0.0000 N   0  0  0  0  0  0  0  0  0  0  0  0
    4.0900    2.4140    0.0000 C   0  0  0  0  0  0  0  0  0  0  0  0
    4.0900    3.9140    0.0000 O   0  0  0  0  0  0  0  0  0  0  0  0
    2.7910    1.6640    0.0000 C   0  0  0  0  0  0  0  0  0  0  0  0
    7.9870   -2.8360    0.0000 C   0  0  0  0  0  0  0  0  0  0  0  0
  1  2  1  0  0  0  0
  2  3  1  0  0  0  0
  2 23  2  0  0  0  0
  3  4  1  0  0  0  0
  3  5  2  0  0  0  0
  5  6  1  0  0  0  0
  6  7  2  0  0  0  0
  7  8  1  0  0  0  0
  7 23  1  0  0  0  0
  8  9  1  0  0  0  0
  9 10  2  0  0  0  0
  9 16  1  0  0  0  0
 10 11  1  0  0  0  0
 10 13  1  0  0  0  0
 11 12  3  0  0  0  0
 13 14  2  0  0  0  0
 14 15  1  0  0  0  0
 15 16  1  0  0  0  0
 15 22  2  0  0  0  0
 16 17  2  0  0  0  0
 17 18  1  0  0  0  0
 18 19  1  0  0  0  0
 18 20  2  0  0  0  0
 20 21  1  0  0  0  0
 20 22  1  0  0  0  0
M  END
>  <name>
Clc1c([O;ether])ccc(Nc2c(C#N)cnc3c2cc([N;amide])c([O;ether])c3)c1

>  <apo>
3

>  <freq>
1

>  <freq0>
0

>  <freq1>
1

>  <freqA>
0.99887151

>  <a_count>
34

$$$$

  MOE2015           2D

 20 22  0  0  0  0  0  0  0  0999 V2000
   -0.9980   -5.4980    0.0000 Cl  0  0  0  0  0  0  0  0  0  0  0  0
   -0.9980   -3.9980    0.0000 C   0  0  0  0  0  0  0  0  0  0  0  0
    0.3010   -3.2480    0.0000 C   0  0  0  0  0  0  0  0  0  0  0  0
    1.6000   -3.9980    0.0000 C   0  0  0  0  0  0  0  0  0  0  0  0
    1.6000   -5.4980    0.0000 O   0  0  0  0  0  0  0  0  0  0  0  0
    2.9000   -3.2480    0.0000 N   0  0  0  0  0  0  0  0  0  0  0  0
    4.1990   -3.9980    0.0000 C   0  0  0  0  0  0  0  0  0  0  0  0
    5.4980   -3.2480    0.0000 C   0  0  0  0  0  0  0  0  0  0  0  0
    6.7970   -3.9980    0.0000 C   0  0  0  0  0  0  0  0  0  0  0  0
    6.7970   -5.4980    0.0000 C   0  0  0  0  0  0  0  0  0  0  0  0
    5.4980   -6.2480    0.0000 C   0  0  0  0  0  0  0  0  0  0  0  0
    4.1990   -5.4980    0.0000 C   0  0  0  0  0  0  0  0  0  0  0  0
    2.9000   -1.7480    0.0000 C   0  0  0  0  0  0  0  0  0  0  0  0
    4.1990   -0.9980    0.0000 C   0  0  0  0  0  0  0  0  0  0  0  0
    4.1990    0.5020    0.0000 C   0  0  0  0  0  0  0  0  0  0  0  0
    1.6000   -0.9980    0.0000 C   0  0  0  0  0  0  0  0  0  0  0  0
    0.3010   -1.7480    0.0000 C   0  0  0  0  0  0  0  0  0  0  0  0
   -0.9980   -0.9980    0.0000 C   0  0  0  0  0  0  0  0  0  0  0  0
   -2.2970   -1.7480    0.0000 C   0  0  0  0  0  0  0  0  0  0  0  0
   -2.2970   -3.2480    0.0000 C   0  0  0  0  0  0  0  0  0  0  0  0
  1  2  1  0  0  0  0
  2  3  1  0  0  0  0
  2 20  2  0  0  0  0
  3  4  1  0  0  0  0
  3 17  2  0  0  0  0
  4  5  2  0  0  0  0
  4  6  1  0  0  0  0
  6  7  1  0  0  0  0
  6 13  1  0  0  0  0
  7  8  1  0  0  0  0
  7 12  2  0  0  0  0
  8  9  2  0  0  0  0
  9 10  1  0  0  0  0
 10 11  2  0  0  0  0
 11 12  1  0  0  0  0
 13 14  1  0  0  0  0
 13 16  2  0  0  0  0
 14 15  1  0  0  0  0
 16 17  1  0  0  0  0
 17 18  1  0  0  0  0
 18 19  2  0  0  0  0
 19 20  1  0  0  0  0
M  END
>  <name>
Clc1c2C(=O)N(c3ccccc3)C([C;amine]C)=Cc2ccc1

>  <apo>
1

>  <freq>
1

>  <freq0>
0

>  <freq1>
1

>  <freqA>
0.99887151

>  <a_count>
34

$$$$

  MOE2015           2D

 18 20  0  0  1  0  0  0  0  0999 V2000
   -0.0690   -0.2550    0.0000 Cl  0  0  0  0  0  0  0  0  0  0  0  0
    1.2260   -1.0130    0.0000 C   0  0  0  0  0  0  0  0  0  0  0  0
    2.5290   -0.2700    0.0000 C   0  0  0  0  0  0  0  0  0  0  0  0
    3.8240   -1.0280    0.0000 C   0  0  0  0  0  0  0  0  0  0  0  0
    5.2530   -0.5720    0.0000 N   0  0  0  0  0  0  0  0  0  0  0  0
    6.1280   -1.7910    0.0000 C   0  0  0  0  0  0  0  0  0  0  0  0
    7.6270   -1.7990    0.0000 N   0  0  0  0  0  0  0  0  0  0  0  0
    8.2700   -3.1550    0.0000 C   0  0  0  0  0  0  0  0  0  0  0  0
    9.7310   -3.4950    0.0000 C   0  0  0  0  0  0  0  0  0  0  0  0
   10.9090   -2.5660    0.0000 C   0  0  1  0  0  0  0  0  0  0  0  0
   12.2570   -3.2240    0.0000 C   0  0  0  0  0  0  0  0  0  0  0  0
   10.9170   -1.0660    0.0000 N   0  0  0  0  0  0  0  0  0  0  0  0
    9.7500   -0.1250    0.0000 C   0  0  0  0  0  0  0  0  0  0  0  0
    8.2860   -0.4510    0.0000 C   0  0  0  0  0  0  0  0  0  0  0  0
    5.2390   -2.9990    0.0000 O   0  0  0  0  0  0  0  0  0  0  0  0
    3.8150   -2.5280    0.0000 C   0  0  0  0  0  0  0  0  0  0  0  0
    2.5120   -3.2700    0.0000 C   0  0  0  0  0  0  0  0  0  0  0  0
    1.2170   -2.5130    0.0000 C   0  0  0  0  0  0  0  0  0  0  0  0
  1  2  1  0  0  0  0
  2  3  1  0  0  0  0
  2 18  2  0  0  0  0
  3  4  2  0  0  0  0
  4  5  1  0  0  0  0
  4 16  1  0  0  0  0
  5  6  2  0  0  0  0
  6  7  1  0  0  0  0
  6 15  1  0  0  0  0
  7  8  1  0  0  0  0
  7 14  1  0  0  0  0
  8  9  1  0  0  0  0
  9 10  1  0  0  0  0
 10 11  1  6  0  0  0
 10 12  1  0  0  0  0
 12 13  1  0  0  0  0
 13 14  1  0  0  0  0
 15 16  1  0  0  0  0
 16 17  2  0  0  0  0
 17 18  1  0  0  0  0
M  END
>  <name>
Clc1cc2nc(N3CC[C@@H](C)[N;amide]CC3)oc2cc1

>  <apo>
1

>  <freq>
1

>  <freq0>
0

>  <freq1>
1

>  <freqA>
0.99887151

>  <a_count>
34

$$$$

  MOE2015           2D

 23 25  0  0  0  0  0  0  0  0999 V2000
   -0.3520    1.3140    0.0000 F   0  0  0  0  0  0  0  0  0  0  0  0
    0.9470    2.0640    0.0000 C   0  0  0  0  0  0  0  0  0  0  0  0
    0.1970    3.3630    0.0000 F   0  0  0  0  0  0  0  0  0  0  0  0
    1.6970    0.7650    0.0000 F   0  0  0  0  0  0  0  0  0  0  0  0
    2.2460    2.8140    0.0000 C   0  0  0  0  0  0  0  0  0  0  0  0
    3.5450    2.0640    0.0000 C   0  0  0  0  0  0  0  0  0  0  0  0
    3.5450    0.5640    0.0000 N   0  0  0  0  0  0  0  0  0  0  0  0
    4.8440   -0.1860    0.0000 C   0  0  0  0  0  0  0  0  0  0  0  0
    6.1430    0.5640    0.0000 C   0  0  0  0  0  0  0  0  0  0  0  0
    6.1430    2.0640    0.0000 C   0  0  0  0  0  0  0  0  0  0  0  0
    7.4420    2.8140    0.0000 N   0  0  0  0  0  0  0  0  0  0  0  0
    8.7410    2.0640    0.0000 C   0  0  0  0  0  0  0  0  0  0  0  0
   10.0400    2.8140    0.0000 C   0  0  0  0  0  0  0  0  0  0  0  0
   10.0400    4.3140    0.0000 C   0  0  0  0  0  0  0  0  0  0  0  0
   11.3390    5.0640    0.0000 O   0  0  0  0  0  0  0  0  0  0  0  0
   11.3390    2.0640    0.0000 C   0  0  0  0  0  0  0  0  0  0  0  0
   11.3390    0.5640    0.0000 C   0  0  0  0  0  0  0  0  0  0  0  0
   10.0400   -0.1860    0.0000 C   0  0  0  0  0  0  0  0  0  0  0  0
    8.7410    0.5640    0.0000 C   0  0  0  0  0  0  0  0  0  0  0  0
    4.8440    2.8140    0.0000 C   0  0  0  0  0  0  0  0  0  0  0  0
    4.8440    4.3140    0.0000 C   0  0  0  0  0  0  0  0  0  0  0  0
    3.5450    5.0640    0.0000 C   0  0  0  0  0  0  0  0  0  0  0  0
    2.2460    4.3140    0.0000 C   0  0  0  0  0  0  0  0  0  0  0  0
  1  2  1  0  0  0  0
  2  3  1  0  0  0  0
  2  4  1  0  0  0  0
  2  5  1  0  0  0  0
  5  6  1  0  0  0  0
  5 23  2  0  0  0  0
  6  7  1  0  0  0  0
  6 20  2  0  0  0  0
  7  8  2  0  0  0  0
  8  9  1  0  0  0  0
  9 10  2  0  0  0  0
 10 11  1  0  0  0  0
 10 20  1  0  0  0  0
 11 12  1  0  0  0  0
 12 13  1  0  0  0  0
 12 19  2  0  0  0  0
 13 14  1  0  0  0  0
 13 16  2  0  0  0  0
 14 15  2  0  0  0  0
 16 17  1  0  0  0  0
 17 18  2  0  0  0  0
 18 19  1  0  0  0  0
 20 21  1  0  0  0  0
 21 22  2  0  0  0  0
 22 23  1  0  0  0  0
M  END
>  <name>
FC(F)(F)c1c2nccc(Nc3c([C;ester]=O)cccc3)c2ccc1

>  <apo>
1

>  <freq>
1

>  <freq0>
0

>  <freq1>
1

>  <freqA>
0.99887151

>  <a_count>
34

$$$$

  MOE2015           2D

 23 25  0  0  0  0  0  0  0  0999 V2000
   13.6300    0.0000    0.0000 F   0  0  0  0  0  0  0  0  0  0  0  0
   12.1300    0.0000    0.0000 C   0  0  0  0  0  0  0  0  0  0  0  0
   12.1300    1.5000    0.0000 F   0  0  0  0  0  0  0  0  0  0  0  0
   12.1300   -1.5000    0.0000 F   0  0  0  0  0  0  0  0  0  0  0  0
   10.6300    0.0000    0.0000 C   0  0  0  0  0  0  0  0  0  0  0  0
    9.8800   -1.2990    0.0000 C   0  0  0  0  0  0  0  0  0  0  0  0
    8.3800   -1.2990    0.0000 C   0  0  0  0  0  0  0  0  0  0  0  0
    7.6300   -2.5980    0.0000 N   0  0  0  0  0  0  0  0  0  0  0  0
    6.1300   -2.5980    0.0000 C   0  0  0  0  0  0  0  0  0  0  0  0
    5.3800   -1.2990    0.0000 C   0  0  0  0  0  0  0  0  0  0  0  0
    6.1300    0.0000    0.0000 C   0  0  0  0  0  0  0  0  0  0  0  0
    5.3800    1.2990    0.0000 N   0  0  0  0  0  0  0  0  0  0  0  0
    3.8800    1.2990    0.0000 C   0  0  0  0  0  0  0  0  0  0  0  0
    3.1300    2.5980    0.0000 C   0  0  0  0  0  0  0  0  0  0  0  0
    3.8800    3.8970    0.0000 C   0  0  0  0  0  0  0  0  0  0  0  0
    3.1300    5.1960    0.0000 O   0  0  0  0  0  0  0  0  0  0  0  0
    1.6300    2.5980    0.0000 C   0  0  0  0  0  0  0  0  0  0  0  0
    0.8800    1.2990    0.0000 C   0  0  0  0  0  0  0  0  0  0  0  0
    1.6300    0.0000    0.0000 C   0  0  0  0  0  0  0  0  0  0  0  0
    3.1300    0.0000    0.0000 C   0  0  0  0  0  0  0  0  0  0  0  0
    7.6300    0.0000    0.0000 C   0  0  0  0  0  0  0  0  0  0  0  0
    8.3800    1.2990    0.0000 C   0  0  0  0  0  0  0  0  0  0  0  0
    9.8800    1.2990    0.0000 C   0  0  0  0  0  0  0  0  0  0  0  0
  1  2  1  0  0  0  0
  2  3  1  0  0  0  0
  2  4  1  0  0  0  0
  2  5  1  0  0  0  0
  5  6  1  0  0  0  0
  5 23  2  0  0  0  0
  6  7  2  0  0  0  0
  7  8  1  0  0  0  0
  7 21  1  0  0  0  0
  8  9  2  0  0  0  0
  9 10  1  0  0  0  0
 10 11  2  0  0  0  0
 11 12  1  0  0  0  0
 11 21  1  0  0  0  0
 12 13  1  0  0  0  0
 13 14  1  0  0  0  0
 13 20  2  0  0  0  0
 14 15  1  0  0  0  0
 14 17  2  0  0  0  0
 15 16  2  0  0  0  0
 17 18  1  0  0  0  0
 18 19  2  0  0  0  0
 19 20  1  0  0  0  0
 21 22  2  0  0  0  0
 22 23  1  0  0  0  0
M  END
>  <name>
FC(F)(F)c1cc2nccc(Nc3c([C;ester]=O)cccc3)c2cc1

>  <apo>
1

>  <freq>
1

>  <freq0>
0

>  <freq1>
1

>  <freqA>
0.99887151

>  <a_count>
34

$$$$

  MOE2015           2D

 15 15  0  0  1  0  0  0  0  0999 V2000
    4.2570    2.4580    0.0000 N   0  0  0  0  0  0  0  0  0  0  0  0
    3.5070    1.1590    0.0000 C   0  0  0  0  0  0  0  0  0  0  0  0
    2.7570   -0.1400    0.0000 C   0  0  1  0  0  0  0  0  0  0  0  0
    1.4580    0.6100    0.0000 C   0  0  0  0  0  0  0  0  0  0  0  0
    0.1590   -0.1400    0.0000 C   0  0  0  0  0  0  0  0  0  0  0  0
    1.4580    2.1100    0.0000 C   0  0  0  0  0  0  0  0  0  0  0  0
    2.0070   -1.4390    0.0000 C   0  0  0  0  0  0  0  0  0  0  0  0
    0.5070   -1.4390    0.0000 C   0  0  0  0  0  0  0  0  0  0  0  0
   -0.2430   -2.7380    0.0000 C   0  0  0  0  0  0  0  0  0  0  0  0
    4.0560   -0.8900    0.0000 C   0  0  0  0  0  0  0  0  0  0  0  0
    4.0560   -2.3900    0.0000 C   0  0  0  0  0  0  0  0  0  0  0  0
    5.3550   -3.1400    0.0000 C   0  0  0  0  0  0  0  0  0  0  0  0
    6.6540   -2.3900    0.0000 C   0  0  0  0  0  0  0  0  0  0  0  0
    6.6540   -0.8900    0.0000 C   0  0  0  0  0  0  0  0  0  0  0  0
    5.3550   -0.1400    0.0000 C   0  0  0  0  0  0  0  0  0  0  0  0
  1  2  3  0  0  0  0
  3  2  1  6  0  0  0
  3  4  1  0  0  0  0
  3  7  1  0  0  0  0
  3 10  1  1  0  0  0
  4  5  1  0  0  0  0
  4  6  1  0  0  0  0
  7  8  1  0  0  0  0
  8  9  1  0  0  0  0
 10 11  1  0  0  0  0
 10 15  2  0  0  0  0
 11 12  2  0  0  0  0
 12 13  1  0  0  0  0
 13 14  2  0  0  0  0
 14 15  1  0  0  0  0
M  END
>  <name>
N#C[C@@](C(C)C)(C[C;amine]C)c1ccccc1

>  <apo>
1

>  <freq>
1

>  <freq0>
0

>  <freq1>
1

>  <freqA>
0.99887151

>  <a_count>
34

$$$$

  MOE2015           2D

 22 24  0  0  0  0  0  0  0  0999 V2000
    3.3070    5.7280    0.0000 O   0  0  0  0  0  0  0  0  0  0  0  0
    4.0570    4.4290    0.0000 C   0  0  0  0  0  0  0  0  0  0  0  0
    1.8070    5.7280    0.0000 C   0  0  0  0  0  0  0  0  0  0  0  0
    1.0570    7.0270    0.0000 C   0  0  0  0  0  0  0  0  0  0  0  0
    1.8070    8.3260    0.0000 O   0  0  0  0  0  0  0  0  0  0  0  0
   -0.4430    7.0270    0.0000 C   0  0  0  0  0  0  0  0  0  0  0  0
   -1.1930    5.7280    0.0000 C   0  0  0  0  0  0  0  0  0  0  0  0
   -2.6930    5.7280    0.0000 C   0  0  0  0  0  0  0  0  0  0  0  0
   -3.4430    4.4290    0.0000 O   0  0  0  0  0  0  0  0  0  0  0  0
   -4.9430    4.4290    0.0000 C   0  0  0  0  0  0  0  0  0  0  0  0
   -5.6930    5.7280    0.0000 C   0  0  0  0  0  0  0  0  0  0  0  0
   -7.1930    5.7280    0.0000 C   0  0  0  0  0  0  0  0  0  0  0  0
   -7.9430    7.0270    0.0000 O   0  0  0  0  0  0  0  0  0  0  0  0
   -7.9430    4.4290    0.0000 C   0  0  0  0  0  0  0  0  0  0  0  0
   -7.1930    3.1300    0.0000 C   0  0  0  0  0  0  0  0  0  0  0  0
   -7.9430    1.8300    0.0000 O   0  0  0  0  0  0  0  0  0  0  0  0
   -5.6930    3.1300    0.0000 C   0  0  0  0  0  0  0  0  0  0  0  0
   -4.9430    7.0270    0.0000 C   0  0  0  0  0  0  0  0  0  0  0  0
   -5.6930    8.3260    0.0000 O   0  0  0  0  0  0  0  0  0  0  0  0
   -3.4430    7.0270    0.0000 C   0  0  0  0  0  0  0  0  0  0  0  0
   -0.4430    4.4290    0.0000 C   0  0  0  0  0  0  0  0  0  0  0  0
    1.0570    4.4290    0.0000 C   0  0  0  0  0  0  0  0  0  0  0  0
  1  2  1  0  0  0  0
  1  3  1  0  0  0  0
  3  4  1  0  0  0  0
  3 22  2  0  0  0  0
  4  5  1  0  0  0  0
  4  6  2  0  0  0  0
  6  7  1  0  0  0  0
  7  8  1  0  0  0  0
  7 21  2  0  0  0  0
  8  9  1  0  0  0  0
  8 20  2  0  0  0  0
  9 10  1  0  0  0  0
 10 11  1  0  0  0  0
 10 17  2  0  0  0  0
 11 12  2  0  0  0  0
 11 18  1  0  0  0  0
 12 13  1  0  0  0  0
 12 14  1  0  0  0  0
 14 15  2  0  0  0  0
 15 16  1  0  0  0  0
 15 17  1  0  0  0  0
 18 19  2  0  0  0  0
 18 20  1  0  0  0  0
 21 22  1  0  0  0  0
M  END
>  <name>
O(C)c1c(O)cc(C=2Oc3c(c(O)cc([O;ether])c3)C(=O)C=2)cc1

>  <apo>
1

>  <freq>
1

>  <freq0>
0

>  <freq1>
1

>  <freqA>
0.99887151

>  <a_count>
34

$$$$

  MOE2015           2D

 19 21  0  0  0  0  0  0  0  0999 V2000
    6.0240   -0.8130    0.0000 O   0  0  0  0  0  0  0  0  0  0  0  0
    6.0240   -2.3130    0.0000 C   0  0  0  0  0  0  0  0  0  0  0  0
    7.3230   -3.0630    0.0000 C   0  0  0  0  0  0  0  0  0  0  0  0
    8.6220   -2.3130    0.0000 C   0  0  0  0  0  0  0  0  0  0  0  0
    9.9210   -3.0630    0.0000 C   0  0  0  0  0  0  0  0  0  0  0  0
    4.7250   -3.0630    0.0000 C   0  0  0  0  0  0  0  0  0  0  0  0
    3.4260   -2.3130    0.0000 C   0  0  0  0  0  0  0  0  0  0  0  0
    2.1270   -3.0630    0.0000 C   0  0  0  0  0  0  0  0  0  0  0  0
    0.8280   -2.3130    0.0000 N   0  0  0  0  0  0  0  0  0  0  0  0
   -0.4710   -3.0630    0.0000 C   0  0  0  0  0  0  0  0  0  0  0  0
   -0.4710   -4.5630    0.0000 C   0  0  0  0  0  0  0  0  0  0  0  0
    0.8280   -5.3130    0.0000 S   0  0  0  0  0  0  0  0  0  0  0  0
    2.1270   -4.5630    0.0000 C   0  0  0  0  0  0  0  0  0  0  0  0
    3.4260   -5.3130    0.0000 C   0  0  0  0  0  0  0  0  0  0  0  0
    4.7250   -4.5630    0.0000 C   0  0  0  0  0  0  0  0  0  0  0  0
   -1.7700   -5.3130    0.0000 C   0  0  0  0  0  0  0  0  0  0  0  0
   -3.0690   -4.5630    0.0000 C   0  0  0  0  0  0  0  0  0  0  0  0
   -3.0690   -3.0630    0.0000 C   0  0  0  0  0  0  0  0  0  0  0  0
   -1.7700   -2.3130    0.0000 C   0  0  0  0  0  0  0  0  0  0  0  0
  1  2  2  0  0  0  0
  2  3  1  0  0  0  0
  2  6  1  0  0  0  0
  3  4  1  0  0  0  0
  4  5  1  0  0  0  0
  6  7  1  0  0  0  0
  6 15  2  0  0  0  0
  7  8  2  0  0  0  0
  8  9  1  0  0  0  0
  8 13  1  0  0  0  0
  9 10  1  0  0  0  0
 10 11  1  0  0  0  0
 10 19  2  0  0  0  0
 11 12  1  0  0  0  0
 11 16  2  0  0  0  0
 12 13  1  0  0  0  0
 13 14  2  0  0  0  0
 14 15  1  0  0  0  0
 16 17  1  0  0  0  0
 17 18  2  0  0  0  0
 18 19  1  0  0  0  0
M  END
>  <name>
O=C(CCC)c1cc2[N;amine]c3c(Sc2cc1)cccc3

>  <apo>
1

>  <freq>
1

>  <freq0>
0

>  <freq1>
1

>  <freqA>
0.99887151

>  <a_count>
34

$$$$

  MOE2015           2D

 18 19  0  0  1  0  0  0  0  0999 V2000
    3.6210   -3.2800    0.0000 O   0  0  0  0  0  0  0  0  0  0  0  0
    2.3220   -2.5300    0.0000 C   0  0  0  0  0  0  0  0  0  0  0  0
    1.0230   -3.2800    0.0000 N   0  0  0  0  0  0  0  0  0  0  0  0
    2.3220   -1.0300    0.0000 C   0  0  3  0  0  0  0  0  0  0  0  0
    2.3220    0.4700    0.0000 C   0  0  0  0  0  0  0  0  0  0  0  0
    1.0230    1.2200    0.0000 C   0  0  0  0  0  0  0  0  0  0  0  0
    0.8220   -1.0300    0.0000 C   0  0  0  0  0  0  0  0  0  0  0  0
    0.0720    0.2690    0.0000 N   0  0  0  0  0  0  0  0  0  0  0  0
   -1.4280    0.2690    0.0000 C   0  0  0  0  0  0  0  0  0  0  0  0
   -2.1780   -1.0300    0.0000 C   0  0  0  0  0  0  0  0  0  0  0  0
   -1.4280   -2.3290    0.0000 C   0  0  0  0  0  0  0  0  0  0  0  0
    0.0720   -2.3290    0.0000 C   0  0  0  0  0  0  0  0  0  0  0  0
    3.8220   -1.0300    0.0000 C   0  0  0  0  0  0  0  0  0  0  0  0
    4.5720   -2.3290    0.0000 C   0  0  0  0  0  0  0  0  0  0  0  0
    6.0720   -2.3290    0.0000 C   0  0  0  0  0  0  0  0  0  0  0  0
    6.8220   -1.0300    0.0000 C   0  0  0  0  0  0  0  0  0  0  0  0
    6.0720    0.2690    0.0000 C   0  0  0  0  0  0  0  0  0  0  0  0
    4.5720    0.2690    0.0000 C   0  0  0  0  0  0  0  0  0  0  0  0
  1  2  2  0  0  0  0
  2  3  1  0  0  0  0
  2  4  1  0  0  0  0
  4  5  1  0  0  0  0
  4  7  1  0  0  0  0
  4 13  1  0  0  0  0
  5  6  1  0  0  0  0
  7  8  1  0  0  0  0
  7 12  2  0  0  0  0
  8  9  2  0  0  0  0
  9 10  1  0  0  0  0
 10 11  2  0  0  0  0
 11 12  1  0  0  0  0
 13 14  1  0  0  0  0
 13 18  2  0  0  0  0
 14 15  2  0  0  0  0
 15 16  1  0  0  0  0
 16 17  2  0  0  0  0
 17 18  1  0  0  0  0
M  END
>  <name>
O=C(N)C(C[C;amine])(c1ncccc1)c1ccccc1

>  <apo>
1

>  <freq>
1

>  <freq0>
0

>  <freq1>
1

>  <freqA>
0.99887151

>  <a_count>
34

$$$$

  MOE2015           2D

 20 22  0  0  0  0  0  0  0  0999 V2000
    5.2340    5.2340    0.0000 O   0  0  0  0  0  0  0  0  0  0  0  0
    5.2340    3.7340    0.0000 C   0  0  0  0  0  0  0  0  0  0  0  0
    6.5330    2.9840    0.0000 O   0  0  0  0  0  0  0  0  0  0  0  0
    7.8320    3.7340    0.0000 C   0  0  0  0  0  0  0  0  0  0  0  0
    9.1310    2.9840    0.0000 C   0  0  0  0  0  0  0  0  0  0  0  0
    3.9350    2.9840    0.0000 N   0  0  0  0  0  0  0  0  0  0  0  0
    2.6360    3.7340    0.0000 C   0  0  0  0  0  0  0  0  0  0  0  0
    1.3370    2.9840    0.0000 C   0  0  0  0  0  0  0  0  0  0  0  0
    0.0380    3.7340    0.0000 C   0  0  0  0  0  0  0  0  0  0  0  0
   -1.2610    2.9840    0.0000 N   0  0  0  0  0  0  0  0  0  0  0  0
   -2.5600    3.7340    0.0000 C   0  0  0  0  0  0  0  0  0  0  0  0
   -2.5600    5.2340    0.0000 C   0  0  0  0  0  0  0  0  0  0  0  0
   -1.2610    5.9840    0.0000 S   0  0  0  0  0  0  0  0  0  0  0  0
    0.0380    5.2340    0.0000 C   0  0  0  0  0  0  0  0  0  0  0  0
    1.3370    5.9840    0.0000 C   0  0  0  0  0  0  0  0  0  0  0  0
    2.6360    5.2340    0.0000 C   0  0  0  0  0  0  0  0  0  0  0  0
   -3.8590    5.9840    0.0000 C   0  0  0  0  0  0  0  0  0  0  0  0
   -5.1580    5.2340    0.0000 C   0  0  0  0  0  0  0  0  0  0  0  0
   -5.1580    3.7340    0.0000 C   0  0  0  0  0  0  0  0  0  0  0  0
   -3.8590    2.9840    0.0000 C   0  0  0  0  0  0  0  0  0  0  0  0
  1  2  2  0  0  0  0
  2  3  1  0  0  0  0
  2  6  1  0  0  0  0
  3  4  1  0  0  0  0
  4  5  1  0  0  0  0
  6  7  1  0  0  0  0
  7  8  1  0  0  0  0
  7 16  2  0  0  0  0
  8  9  2  0  0  0  0
  9 10  1  0  0  0  0
  9 14  1  0  0  0  0
 10 11  1  0  0  0  0
 11 12  1  0  0  0  0
 11 20  2  0  0  0  0
 12 13  1  0  0  0  0
 12 17  2  0  0  0  0
 13 14  1  0  0  0  0
 14 15  2  0  0  0  0
 15 16  1  0  0  0  0
 17 18  1  0  0  0  0
 18 19  2  0  0  0  0
 19 20  1  0  0  0  0
M  END
>  <name>
O=C(OCC)Nc1cc2[N;amide]c3c(Sc2cc1)cccc3

>  <apo>
1

>  <freq>
1

>  <freq0>
0

>  <freq1>
1

>  <freqA>
0.99887151

>  <a_count>
34

$$$$

  MOE2015           2D

 17 19  0  0  0  0  0  0  0  0999 V2000
   -0.1760    0.4160    0.0000 O   0  0  0  0  0  0  0  0  0  0  0  0
    1.3140    0.2450    0.0000 C   0  0  0  0  0  0  0  0  0  0  0  0
    2.3280    1.3510    0.0000 C   0  0  0  0  0  0  0  0  0  0  0  0
    3.6930    0.7280    0.0000 N   0  0  0  0  0  0  0  0  0  0  0  0
    4.9990    1.4650    0.0000 C   0  0  0  0  0  0  0  0  0  0  0  0
    5.0130    2.9650    0.0000 C   0  0  0  0  0  0  0  0  0  0  0  0
    6.3190    3.7030    0.0000 C   0  0  0  0  0  0  0  0  0  0  0  0
    7.6110    2.9400    0.0000 C   0  0  0  0  0  0  0  0  0  0  0  0
    7.5970    1.4400    0.0000 C   0  0  0  0  0  0  0  0  0  0  0  0
    6.2910    0.7030    0.0000 C   0  0  0  0  0  0  0  0  0  0  0  0
    3.5220   -0.7630    0.0000 C   0  0  0  0  0  0  0  0  0  0  0  0
    2.0520   -1.0610    0.0000 N   0  0  0  0  0  0  0  0  0  0  0  0
    0.9060    1.8280    0.0000 C   0  0  0  0  0  0  0  0  0  0  0  0
    0.6080    3.2980    0.0000 C   0  0  0  0  0  0  0  0  0  0  0  0
    1.7330    4.2910    0.0000 N   0  0  0  0  0  0  0  0  0  0  0  0
    3.1550    3.8140    0.0000 C   0  0  0  0  0  0  0  0  0  0  0  0
    3.4530    2.3440    0.0000 C   0  0  0  0  0  0  0  0  0  0  0  0
  1  2  2  0  0  0  0
  2  3  1  0  0  0  0
  2 12  1  0  0  0  0
  3  4  1  0  0  0  0
  3 13  1  0  0  0  0
  3 17  1  0  0  0  0
  4  5  1  0  0  0  0
  4 11  1  0  0  0  0
  5  6  1  0  0  0  0
  5 10  2  0  0  0  0
  6  7  2  0  0  0  0
  7  8  1  0  0  0  0
  8  9  2  0  0  0  0
  9 10  1  0  0  0  0
 11 12  1  0  0  0  0
 13 14  1  0  0  0  0
 14 15  1  0  0  0  0
 15 16  1  0  0  0  0
 16 17  1  0  0  0  0
M  END
>  <name>
O=C1C2(N(c3ccccc3)CN1)CC[N;amine]CC2

>  <apo>
1

>  <freq>
1

>  <freq0>
0

>  <freq1>
1

>  <freqA>
0.99887151

>  <a_count>
34

$$$$

  MOE2015           2D

 18 20  0  0  1  0  0  0  0  0999 V2000
   13.4320    0.8450    0.0000 O   0  0  0  0  0  0  0  0  0  0  0  0
   11.9390    0.9910    0.0000 C   0  0  0  0  0  0  0  0  0  0  0  0
   11.1790    2.2840    0.0000 O   0  0  0  0  0  0  0  0  0  0  0  0
    9.7140    1.9610    0.0000 C   0  0  0  0  0  0  0  0  0  0  0  0
    9.5690    0.4680    0.0000 C   0  0  2  0  0  0  0  0  0  0  0  0
    8.2750   -0.2910    0.0000 C   0  0  0  0  0  0  0  0  0  0  0  0
    6.9710    0.4490    0.0000 C   0  0  0  0  0  0  0  0  0  0  0  0
    5.6770   -0.3110    0.0000 C   0  0  0  0  0  0  0  0  0  0  0  0
    4.3730    0.4290    0.0000 C   0  0  0  0  0  0  0  0  0  0  0  0
    2.9500   -0.0450    0.0000 C   0  0  0  0  0  0  0  0  0  0  0  0
    2.4970   -1.4750    0.0000 C   0  0  0  0  0  0  0  0  0  0  0  0
    1.0320   -1.7980    0.0000 C   0  0  0  0  0  0  0  0  0  0  0  0
    2.0590    1.1620    0.0000 C   0  0  0  0  0  0  0  0  0  0  0  0
    2.9310    2.3820    0.0000 N   0  0  0  0  0  0  0  0  0  0  0  0
    4.3610    1.9290    0.0000 C   0  0  0  0  0  0  0  0  0  0  0  0
    5.6550    2.6890    0.0000 C   0  0  0  0  0  0  0  0  0  0  0  0
    6.9590    1.9490    0.0000 C   0  0  0  0  0  0  0  0  0  0  0  0
   10.9430   -0.1320    0.0000 N   0  0  0  0  0  0  0  0  0  0  0  0
  1  2  2  0  0  0  0
  2  3  1  0  0  0  0
  2 18  1  0  0  0  0
  3  4  1  0  0  0  0
  4  5  1  0  0  0  0
  5  6  1  1  0  0  0
  5 18  1  0  0  0  0
  6  7  1  0  0  0  0
  7  8  1  0  0  0  0
  7 17  2  0  0  0  0
  8  9  2  0  0  0  0
  9 10  1  0  0  0  0
  9 15  1  0  0  0  0
 10 11  1  0  0  0  0
 10 13  2  0  0  0  0
 11 12  1  0  0  0  0
 13 14  1  0  0  0  0
 14 15  1  0  0  0  0
 15 16  2  0  0  0  0
 16 17  1  0  0  0  0
M  END
>  <name>
O=C1OC[C@H](Cc2cc3c(C[C;amine])c[nH]c3cc2)N1

>  <apo>
1

>  <freq>
1

>  <freq0>
0

>  <freq1>
1

>  <freqA>
0.99887151

>  <a_count>
34

$$$$

  MOE2015           2D

 20 22  0  0  1  0  0  0  0  0999 V2000
    7.7170   -7.7170    0.0000 O   0  0  0  0  0  0  0  0  0  0  0  0
    7.7170   -6.2170    0.0000 C   0  0  0  0  0  0  0  0  0  0  0  0
    6.4180   -5.4670    0.0000 C   0  0  0  0  0  0  0  0  0  0  0  0
    6.4180   -3.9670    0.0000 C   0  0  0  0  0  0  0  0  0  0  0  0
    7.7170   -3.2170    0.0000 O   0  0  0  0  0  0  0  0  0  0  0  0
    5.1190   -3.2170    0.0000 C   0  0  0  0  0  0  0  0  0  0  0  0
    5.1190   -1.7170    0.0000 O   0  0  0  0  0  0  0  0  0  0  0  0
    3.8200   -3.9670    0.0000 C   0  0  0  0  0  0  0  0  0  0  0  0
    2.5210   -3.2170    0.0000 C   0  0  0  0  0  0  0  0  0  0  0  0
    2.5210   -1.7170    0.0000 O   0  0  0  0  0  0  0  0  0  0  0  0
    1.2220   -3.9670    0.0000 N   0  0  0  0  0  0  0  0  0  0  0  0
   -0.0770   -3.2170    0.0000 C   0  0  2  0  0  0  0  0  0  0  0  0
   -0.0770   -1.7170    0.0000 C   0  0  0  0  0  0  0  0  0  0  0  0
   -1.3770   -3.9670    0.0000 C   0  0  0  0  0  0  0  0  0  0  0  0
   -1.3770   -5.4670    0.0000 C   0  0  0  0  0  0  0  0  0  0  0  0
   -0.0770   -6.2170    0.0000 O   0  0  0  0  0  0  0  0  0  0  0  0
    1.2220   -5.4670    0.0000 C   0  0  1  0  0  0  0  0  0  0  0  0
    2.5210   -6.2170    0.0000 C   0  0  0  0  0  0  0  0  0  0  0  0
    3.8200   -5.4670    0.0000 N   0  0  0  0  0  0  0  0  0  0  0  0
    5.1190   -6.2170    0.0000 C   0  0  0  0  0  0  0  0  0  0  0  0
  1  2  2  0  0  0  0
  2  3  1  0  0  0  0
  3  4  1  0  0  0  0
  3 20  2  0  0  0  0
  4  5  2  0  0  0  0
  4  6  1  0  0  0  0
  6  7  1  0  0  0  0
  6  8  2  0  0  0  0
  8  9  1  0  0  0  0
  8 19  1  0  0  0  0
  9 10  2  0  0  0  0
  9 11  1  0  0  0  0
 11 12  1  0  0  0  0
 11 17  1  0  0  0  0
 12 13  1  1  0  0  0
 12 14  1  0  0  0  0
 14 15  1  0  0  0  0
 15 16  1  0  0  0  0
 17 16  1  6  0  0  0
 17 18  1  0  0  0  0
 18 19  1  0  0  0  0
 19 20  1  0  0  0  0
M  END
>  <name>
O=[C;amide]C=1C(=O)C(O)=C2C(=O)N3[C@H](C)CCO[C@H]3CN2C=1

>  <apo>
1

>  <freq>
1

>  <freq0>
0

>  <freq1>
1

>  <freqA>
0.99887151

>  <a_count>
34

$$$$

  MOE2015           2D

 15 17  0  0  1  0  0  0  0  0999 V2000
    8.8720   -0.0900    0.0000 O   0  0  0  0  0  0  0  0  0  0  0  0
    7.3720   -0.0600    0.0000 C   0  0  0  0  0  0  0  0  0  0  0  0
    6.5960   -1.3430    0.0000 C   0  0  1  0  0  0  0  0  0  0  0  0
    7.3200   -2.6570    0.0000 N   0  0  0  0  0  0  0  0  0  0  0  0
    5.0970   -1.3130    0.0000 C   0  0  0  0  0  0  0  0  0  0  0  0
    4.5860    0.0870    0.0000 C   0  0  0  0  0  0  0  0  0  0  0  0
    3.1150    0.1450    0.0000 C   0  0  0  0  0  0  0  0  0  0  0  0
    2.6310    1.5640    0.0000 O   0  0  0  0  0  0  0  0  0  0  0  0
    2.5860   -1.3330    0.0000 C   0  0  0  0  0  0  0  0  0  0  0  0
    3.1300   -2.7860    0.0000 C   0  0  3  0  0  0  0  0  0  0  0  0
    4.6060   -2.8260    0.0000 C   0  0  0  0  0  0  0  0  0  0  0  0
    1.9010   -3.6790    0.0000 C   0  0  0  0  0  0  0  0  0  0  0  0
    2.5590   -2.1050    0.0000 C   0  0  3  0  0  0  0  0  0  0  0  0
    2.0440   -0.7530    0.0000 C   0  0  0  0  0  0  0  0  0  0  0  0
    3.9380   -2.1040    0.0000 C   0  0  0  0  0  0  0  0  0  0  0  0
  1  2  2  0  0  0  0
  2  3  1  0  0  0  0
  3  4  1  1  0  0  0
  3  5  1  0  0  0  0
  5  6  1  0  0  0  0
  5 11  1  0  0  0  0
  5 15  1  0  0  0  0
  6  7  1  0  0  0  0
  7  8  1  0  0  0  0
  7  9  1  0  0  0  0
  7 14  1  0  0  0  0
  9 10  1  0  0  0  0
 10 11  1  0  0  0  0
 10 12  1  0  0  0  0
 12 13  1  0  0  0  0
 13 14  1  0  0  0  0
 13 15  1  0  0  0  0
M  END
>  <name>
O=[C;amide][C@@H](N)C12CC3(O)CC(C1)CC(C3)C2

>  <apo>
1

>  <freq>
1

>  <freq0>
0

>  <freq1>
1

>  <freqA>
0.99887151

>  <a_count>
34

$$$$

  MOE2015           2D

 21 23  0  0  0  0  0  0  0  0999 V2000
   -1.2520    3.2450    0.0000 O   0  0  0  0  0  0  0  0  0  0  0  0
    0.0470    2.4950    0.0000 C   0  0  0  0  0  0  0  0  0  0  0  0
    1.3460    3.2450    0.0000 C   0  0  0  0  0  0  0  0  0  0  0  0
    2.6450    2.4950    0.0000 C   0  0  0  0  0  0  0  0  0  0  0  0
    2.6450    0.9950    0.0000 O   0  0  0  0  0  0  0  0  0  0  0  0
    3.9440    3.2450    0.0000 C   0  0  0  0  0  0  0  0  0  0  0  0
    3.9440    4.7450    0.0000 C   0  0  0  0  0  0  0  0  0  0  0  0
    2.6450    5.4950    0.0000 C   0  0  0  0  0  0  0  0  0  0  0  0
    2.6450    6.9950    0.0000 C   0  0  0  0  0  0  0  0  0  0  0  0
    1.3460    4.7450    0.0000 N   0  0  0  0  0  0  0  0  0  0  0  0
    5.2430    5.4950    0.0000 C   0  0  0  0  0  0  0  0  0  0  0  0
    6.5420    4.7450    0.0000 C   0  0  0  0  0  0  0  0  0  0  0  0
    7.8410    5.4950    0.0000 O   0  0  0  0  0  0  0  0  0  0  0  0
    9.1400    4.7450    0.0000 C   0  0  0  0  0  0  0  0  0  0  0  0
   10.4390    5.4950    0.0000 C   0  0  0  0  0  0  0  0  0  0  0  0
   11.7380    4.7450    0.0000 C   0  0  0  0  0  0  0  0  0  0  0  0
   11.7380    3.2450    0.0000 C   0  0  0  0  0  0  0  0  0  0  0  0
   10.4390    2.4950    0.0000 C   0  0  0  0  0  0  0  0  0  0  0  0
    9.1400    3.2450    0.0000 C   0  0  0  0  0  0  0  0  0  0  0  0
    6.5420    3.2450    0.0000 C   0  0  0  0  0  0  0  0  0  0  0  0
    5.2430    2.4950    0.0000 C   0  0  0  0  0  0  0  0  0  0  0  0
  1  2  2  0  0  0  0
  2  3  1  0  0  0  0
  3  4  1  0  0  0  0
  3 10  2  0  0  0  0
  4  5  1  0  0  0  0
  4  6  2  0  0  0  0
  6  7  1  0  0  0  0
  6 21  1  0  0  0  0
  7  8  2  0  0  0  0
  7 11  1  0  0  0  0
  8  9  1  0  0  0  0
  8 10  1  0  0  0  0
 11 12  2  0  0  0  0
 12 13  1  0  0  0  0
 12 20  1  0  0  0  0
 13 14  1  0  0  0  0
 14 15  1  0  0  0  0
 14 19  2  0  0  0  0
 15 16  2  0  0  0  0
 16 17  1  0  0  0  0
 17 18  2  0  0  0  0
 18 19  1  0  0  0  0
 20 21  2  0  0  0  0
M  END
>  <name>
O=[C;amide]c1c(O)c2c(c(C)n1)cc(Oc1ccccc1)cc2

>  <apo>
1

>  <freq>
1

>  <freq0>
0

>  <freq1>
1

>  <freqA>
0.99887151

>  <a_count>
34

$$$$

  MOE2015           2D

 22 24  0  0  0  0  0  0  0  0999 V2000
    9.8580    2.6410    0.0000 O   0  0  0  0  0  0  0  0  0  0  0  0
    8.5590    1.8910    0.0000 C   0  0  0  0  0  0  0  0  0  0  0  0
    8.5590    0.3910    0.0000 C   0  0  0  0  0  0  0  0  0  0  0  0
    7.2600   -0.3590    0.0000 C   0  0  0  0  0  0  0  0  0  0  0  0
    5.9610    0.3910    0.0000 N   0  0  0  0  0  0  0  0  0  0  0  0
    4.6620   -0.3590    0.0000 C   0  0  0  0  0  0  0  0  0  0  0  0
    3.3630    0.3910    0.0000 C   0  0  0  0  0  0  0  0  0  0  0  0
    3.3630    1.8910    0.0000 C   0  0  0  0  0  0  0  0  0  0  0  0
    2.0640    2.6410    0.0000 O   0  0  0  0  0  0  0  0  0  0  0  0
    2.0640   -0.3590    0.0000 C   0  0  0  0  0  0  0  0  0  0  0  0
    0.7650    0.3910    0.0000 N   0  0  0  0  0  0  0  0  0  0  0  0
    2.0640   -1.8590    0.0000 C   0  0  0  0  0  0  0  0  0  0  0  0
    0.7650   -2.6090    0.0000 O   0  0  0  0  0  0  0  0  0  0  0  0
    3.3630   -2.6090    0.0000 C   0  0  0  0  0  0  0  0  0  0  0  0
    3.3630   -4.1090    0.0000 C   0  0  0  0  0  0  0  0  0  0  0  0
    4.6620   -1.8590    0.0000 C   0  0  0  0  0  0  0  0  0  0  0  0
    5.9610   -2.6090    0.0000 O   0  0  0  0  0  0  0  0  0  0  0  0
    7.2600   -1.8590    0.0000 C   0  0  0  0  0  0  0  0  0  0  0  0
    8.5590   -2.6090    0.0000 C   0  0  0  0  0  0  0  0  0  0  0  0
    8.5590   -4.1090    0.0000 C   0  0  0  0  0  0  0  0  0  0  0  0
    9.8580   -1.8590    0.0000 C   0  0  0  0  0  0  0  0  0  0  0  0
    9.8580   -0.3590    0.0000 C   0  0  0  0  0  0  0  0  0  0  0  0
  1  2  2  0  0  0  0
  2  3  1  0  0  0  0
  3  4  1  0  0  0  0
  3 22  2  0  0  0  0
  4  5  1  0  0  0  0
  4 18  2  0  0  0  0
  5  6  2  0  0  0  0
  6  7  1  0  0  0  0
  6 16  1  0  0  0  0
  7  8  1  0  0  0  0
  7 10  2  0  0  0  0
  8  9  2  0  0  0  0
 10 11  1  0  0  0  0
 10 12  1  0  0  0  0
 12 13  2  0  0  0  0
 12 14  1  0  0  0  0
 14 15  1  0  0  0  0
 14 16  2  0  0  0  0
 16 17  1  0  0  0  0
 17 18  1  0  0  0  0
 18 19  1  0  0  0  0
 19 20  1  0  0  0  0
 19 21  2  0  0  0  0
 21 22  1  0  0  0  0
M  END
>  <name>
O=[C;amide]c1c2N=C3C([C;amide]=O)=C(N)C(=O)C(C)=C3Oc2c(C)cc1

>  <apo>
2

>  <freq>
1

>  <freq0>
0

>  <freq1>
1

>  <freqA>
0.99887151

>  <a_count>
34

$$$$

  MOE2015           2D

 12 11  0  0  0  0  0  0  0  0999 V2000
   -0.7700    3.6230    0.0000 O   0  0  0  0  0  0  0  0  0  0  0  0
    0.5290    2.8730    0.0000 C   0  0  0  0  0  0  0  0  0  0  0  0
    1.8280    3.6230    0.0000 C   0  0  0  0  0  0  0  0  0  0  0  0
    3.1270    2.8730    0.0000 C   0  0  0  0  0  0  0  0  0  0  0  0
    4.4260    3.6230    0.0000 C   0  0  0  0  0  0  0  0  0  0  0  0
    5.7250    2.8730    0.0000 C   0  0  0  0  0  0  0  0  0  0  0  0
    7.0250    3.6230    0.0000 C   0  0  0  0  0  0  0  0  0  0  0  0
    8.3240    2.8730    0.0000 C   0  0  0  0  0  0  0  0  0  0  0  0
    9.6230    3.6230    0.0000 C   0  0  0  0  0  0  0  0  0  0  0  0
   10.9220    2.8730    0.0000 C   0  0  0  0  0  0  0  0  0  0  0  0
   12.2210    3.6230    0.0000 C   0  0  0  0  0  0  0  0  0  0  0  0
   13.5200    2.8730    0.0000 C   0  0  0  0  0  0  0  0  0  0  0  0
  1  2  2  0  0  0  0
  2  3  1  0  0  0  0
  3  4  1  0  0  0  0
  4  5  1  0  0  0  0
  5  6  1  0  0  0  0
  6  7  1  0  0  0  0
  7  8  1  0  0  0  0
  8  9  1  0  0  0  0
  9 10  1  0  0  0  0
 10 11  1  0  0  0  0
 11 12  1  0  0  0  0
M  END
>  <name>
O=[C;ester]CCCCCCCCCC

>  <apo>
1

>  <freq>
1

>  <freq0>
0

>  <freq1>
1

>  <freqA>
0.99887151

>  <a_count>
34

$$$$

  MOE2015           2D

 18 20  0  0  1  0  0  0  0  0999 V2000
   -0.9900   -3.4830    0.0000 O   0  0  0  0  0  0  0  0  0  0  0  0
    0.2850   -4.2720    0.0000 C   0  0  0  0  0  0  0  0  0  0  0  0
    1.6060   -3.5620    0.0000 C   0  0  2  0  0  0  0  0  0  0  0  0
    1.5470   -5.0610    0.0000 C   0  0  0  0  0  0  0  0  0  0  0  0
    0.9250   -2.2260    0.0000 N   0  0  0  0  0  0  0  0  0  0  0  0
    1.7420   -0.9680    0.0000 C   0  0  0  0  0  0  0  0  0  0  0  0
    3.2400   -1.0460    0.0000 C   0  0  0  0  0  0  0  0  0  0  0  0
    3.9210   -2.3830    0.0000 C   0  0  0  0  0  0  0  0  0  0  0  0
    5.3700   -2.7710    0.0000 C   0  0  0  0  0  0  0  0  0  0  0  0
    5.4490   -4.2690    0.0000 C   0  0  0  0  0  0  0  0  0  0  0  0
    4.0480   -4.8060    0.0000 N   0  0  0  0  0  0  0  0  0  0  0  0
    3.1040   -3.6410    0.0000 C   0  0  0  0  0  0  0  0  0  0  0  0
    6.7850   -4.9500    0.0000 C   0  0  0  0  0  0  0  0  0  0  0  0
    8.0430   -4.1330    0.0000 C   0  0  0  0  0  0  0  0  0  0  0  0
    7.9650   -2.6350    0.0000 C   0  0  0  0  0  0  0  0  0  0  0  0
    9.2230   -1.8180    0.0000 O   0  0  0  0  0  0  0  0  0  0  0  0
   10.5590   -2.4990    0.0000 C   0  0  0  0  0  0  0  0  0  0  0  0
    6.6280   -1.9540    0.0000 C   0  0  0  0  0  0  0  0  0  0  0  0
  1  2  2  0  0  0  0
  3  2  1  6  0  0  0
  3  4  1  1  0  0  0
  3  5  1  0  0  0  0
  3 12  1  0  0  0  0
  5  6  1  0  0  0  0
  6  7  1  0  0  0  0
  7  8  1  0  0  0  0
  8  9  1  0  0  0  0
  8 12  2  0  0  0  0
  9 10  2  0  0  0  0
  9 18  1  0  0  0  0
 10 11  1  0  0  0  0
 10 13  1  0  0  0  0
 11 12  1  0  0  0  0
 13 14  2  0  0  0  0
 14 15  1  0  0  0  0
 15 16  1  0  0  0  0
 15 18  2  0  0  0  0
 16 17  1  0  0  0  0
M  END
>  <name>
O=[C;ester][C@]1([C;thioether])NCCc2c3c([nH]c12)ccc(OC)c3

>  <apo>
2

>  <freq>
1

>  <freq0>
0

>  <freq1>
1

>  <freqA>
0.99887151

>  <a_count>
34

$$$$

  MOE2015           2D

 15 16  0  0  1  0  0  0  0  0999 V2000
    7.3790    4.2610    0.0000 O   0  0  0  0  0  0  0  0  0  0  0  0
    6.6290    2.9610    0.0000 C   0  0  0  0  0  0  0  0  0  0  0  0
    5.1290    2.9610    0.0000 C   0  0  0  0  0  0  0  0  0  0  0  0
    4.3790    1.6620    0.0000 C   0  0  0  0  0  0  0  0  0  0  0  0
    2.8790    1.6620    0.0000 C   0  0  1  0  0  0  0  0  0  0  0  0
    3.6290    0.3630    0.0000 C   0  0  0  0  0  0  0  0  0  0  0  0
    1.5800    0.9120    0.0000 C   0  0  1  0  0  0  0  0  0  0  0  0
    1.5800   -0.5880    0.0000 C   0  0  0  0  0  0  0  0  0  0  0  0
    0.2810    1.6620    0.0000 C   0  0  0  0  0  0  0  0  0  0  0  0
    0.2810    3.1620    0.0000 N   0  0  0  0  0  0  0  0  0  0  0  0
    1.5800    3.9120    0.0000 C   0  0  0  0  0  0  0  0  0  0  0  0
    2.8790    3.1620    0.0000 C   0  0  0  0  0  0  0  0  0  0  0  0
    5.1290    0.3630    0.0000 C   0  0  0  0  0  0  0  0  0  0  0  0
    6.6290    0.3630    0.0000 C   0  0  0  0  0  0  0  0  0  0  0  0
    7.3790    1.6620    0.0000 C   0  0  0  0  0  0  0  0  0  0  0  0
  1  2  1  0  0  0  0
  2  3  2  0  0  0  0
  2 15  1  0  0  0  0
  3  4  1  0  0  0  0
  5  4  1  1  0  0  0
  4 13  2  0  0  0  0
  5  6  1  6  0  0  0
  5  7  1  0  0  0  0
  5 12  1  0  0  0  0
  7  8  1  1  0  0  0
  7  9  1  0  0  0  0
  9 10  1  0  0  0  0
 10 11  1  0  0  0  0
 11 12  1  0  0  0  0
 13 14  1  0  0  0  0
 14 15  2  0  0  0  0
M  END
>  <name>
Oc1cc([C@@]2(C)[C@@H](C)C[N;amine]CC2)ccc1

>  <apo>
1

>  <freq>
1

>  <freq0>
0

>  <freq1>
1

>  <freqA>
0.99887151

>  <a_count>
34

$$$$

  MOE2015           2D

 15 16  0  0  0  0  0  0  0  0999 V2000
    2.5000    4.3300    0.0000 N   0  0  0  0  0  0  0  0  0  0  0  0
    3.2500    3.0310    0.0000 C   0  0  0  0  0  0  0  0  0  0  0  0
    1.0000    4.3300    0.0000 C   0  0  0  0  0  0  0  0  0  0  0  0
    0.2500    5.6290    0.0000 C   0  0  0  0  0  0  0  0  0  0  0  0
   -1.2500    5.6290    0.0000 N   0  0  0  0  0  0  0  0  0  0  0  0
   -2.0000    4.3300    0.0000 C   0  0  0  0  0  0  0  0  0  0  0  0
   -3.5000    4.3300    0.0000 N   0  0  0  0  0  0  0  0  0  0  0  0
   -4.2500    5.6290    0.0000 C   0  0  0  0  0  0  0  0  0  0  0  0
   -5.7500    5.6290    0.0000 C   0  0  0  0  0  0  0  0  0  0  0  0
   -6.5000    4.3300    0.0000 N   0  3  0  0  0  0  0  0  0  0  0  0
   -8.0000    4.3300    0.0000 C   0  0  0  0  0  0  0  0  0  0  0  0
   -5.7500    3.0310    0.0000 C   0  0  0  0  0  0  0  0  0  0  0  0
   -4.2500    3.0310    0.0000 C   0  0  0  0  0  0  0  0  0  0  0  0
   -1.2500    3.0310    0.0000 C   0  0  0  0  0  0  0  0  0  0  0  0
    0.2500    3.0310    0.0000 C   0  0  0  0  0  0  0  0  0  0  0  0
  1  2  1  0  0  0  0
  1  3  1  0  0  0  0
  3  4  1  0  0  0  0
  3 15  2  0  0  0  0
  4  5  2  0  0  0  0
  5  6  1  0  0  0  0
  6  7  1  0  0  0  0
  6 14  2  0  0  0  0
  7  8  1  0  0  0  0
  7 13  1  0  0  0  0
  8  9  1  0  0  0  0
  9 10  1  0  0  0  0
 10 11  1  0  0  0  0
 10 12  1  0  0  0  0
 12 13  1  0  0  0  0
 14 15  1  0  0  0  0
M  CHG  1  10   1
M  END
>  <name>
[N;amide](C)c1cnc(N2CC[N+;quatN](C)CC2)c[c;biphenyl]1

>  <apo>
3

>  <freq>
1

>  <freq0>
0

>  <freq1>
1

>  <freqA>
0.99887151

>  <a_count>
34

$$$$

  MOE2015           2D

 22 24  0  0  0  0  0  0  0  0999 V2000
   13.5680    0.0000    0.0000 Br  0  0  0  0  0  0  0  0  0  0  0  0
   12.0680    0.0000    0.0000 C   0  0  0  0  0  0  0  0  0  0  0  0
   11.3180    1.2990    0.0000 C   0  0  0  0  0  0  0  0  0  0  0  0
    9.8180    1.2990    0.0000 C   0  0  0  0  0  0  0  0  0  0  0  0
    9.0680    2.5980    0.0000 F   0  0  0  0  0  0  0  0  0  0  0  0
    9.0680    0.0000    0.0000 C   0  0  0  0  0  0  0  0  0  0  0  0
    7.5680    0.0000    0.0000 N   0  0  0  0  0  0  0  0  0  0  0  0
    6.8180   -1.2990    0.0000 C   0  0  0  0  0  0  0  0  0  0  0  0
    7.5680   -2.5980    0.0000 N   0  0  0  0  0  0  0  0  0  0  0  0
    6.8180   -3.8970    0.0000 C   0  0  0  0  0  0  0  0  0  0  0  0
    5.3180   -3.8970    0.0000 N   0  0  0  0  0  0  0  0  0  0  0  0
    4.5680   -2.5980    0.0000 C   0  0  0  0  0  0  0  0  0  0  0  0
    5.3180   -1.2990    0.0000 C   0  0  0  0  0  0  0  0  0  0  0  0
    4.5680    0.0000    0.0000 C   0  0  0  0  0  0  0  0  0  0  0  0
    3.0680    0.0000    0.0000 C   0  0  0  0  0  0  0  0  0  0  0  0
    2.3180    1.2990    0.0000 O   0  0  0  0  0  0  0  0  0  0  0  0
    3.0680    2.5980    0.0000 C   0  0  0  0  0  0  0  0  0  0  0  0
    2.3180   -1.2990    0.0000 C   0  0  0  0  0  0  0  0  0  0  0  0
    0.8180   -1.2990    0.0000 O   0  0  0  0  0  0  0  0  0  0  0  0
    3.0680   -2.5980    0.0000 C   0  0  0  0  0  0  0  0  0  0  0  0
    9.8180   -1.2990    0.0000 C   0  0  0  0  0  0  0  0  0  0  0  0
   11.3180   -1.2990    0.0000 C   0  0  0  0  0  0  0  0  0  0  0  0
  1  2  1  0  0  0  0
  2  3  1  0  0  0  0
  2 22  2  0  0  0  0
  3  4  2  0  0  0  0
  4  5  1  0  0  0  0
  4  6  1  0  0  0  0
  6  7  1  0  0  0  0
  6 21  2  0  0  0  0
  7  8  1  0  0  0  0
  8  9  2  0  0  0  0
  8 13  1  0  0  0  0
  9 10  1  0  0  0  0
 10 11  2  0  0  0  0
 11 12  1  0  0  0  0
 12 13  1  0  0  0  0
 12 20  2  0  0  0  0
 13 14  2  0  0  0  0
 14 15  1  0  0  0  0
 15 16  1  0  0  0  0
 15 18  2  0  0  0  0
 16 17  1  0  0  0  0
 18 19  1  0  0  0  0
 18 20  1  0  0  0  0
 21 22  1  0  0  0  0
M  END
>  <name>
Brc1cc(F)c(Nc2ncnc3c2cc(OC)c([O;ether])c3)cc1

>  <apo>
1

>  <freq>
1

>  <freq0>
0

>  <freq1>
1

>  <freqA>
0.99887151

>  <a_count>
33

$$$$

  MOE2015           2D

 17 19  0  0  1  0  0  0  0  0999 V2000
   -0.1130    2.6880    0.0000 Cl  0  0  0  0  0  0  0  0  0  0  0  0
    1.1860    1.9370    0.0000 C   0  0  0  0  0  0  0  0  0  0  0  0
    2.4850    2.6860    0.0000 C   0  0  0  0  0  0  0  0  0  0  0  0
    2.4860    4.1860    0.0000 C   0  0  0  0  0  0  0  0  0  0  0  0
    3.7840    1.9360    0.0000 C   0  0  0  0  0  0  0  0  0  0  0  0
    5.2110    2.3990    0.0000 N   0  0  0  0  0  0  0  0  0  0  0  0
    6.0920    1.1850    0.0000 C   0  0  0  0  0  0  0  0  0  0  0  0
    7.5920    1.1840    0.0000 C   0  0  1  0  0  0  0  0  0  0  0  0
    6.8870   -0.1400    0.0000 C   0  0  0  0  0  0  0  0  0  0  0  0
    7.7750    2.6730    0.0000 N   0  0  0  0  0  0  0  0  0  0  0  0
    9.2480    2.9580    0.0000 C   0  0  0  0  0  0  0  0  0  0  0  0
    9.9750    1.6460    0.0000 C   0  0  0  0  0  0  0  0  0  0  0  0
    8.9510    0.5490    0.0000 C   0  0  0  0  0  0  0  0  0  0  0  0
    5.2100   -0.0280    0.0000 N   0  0  0  0  0  0  0  0  0  0  0  0
    3.7830    0.4360    0.0000 C   0  0  0  0  0  0  0  0  0  0  0  0
    2.4840   -0.3140    0.0000 C   0  0  0  0  0  0  0  0  0  0  0  0
    1.1850    0.4370    0.0000 C   0  0  0  0  0  0  0  0  0  0  0  0
  1  2  1  0  0  0  0
  2  3  1  0  0  0  0
  2 17  2  0  0  0  0
  3  4  1  0  0  0  0
  3  5  2  0  0  0  0
  5  6  1  0  0  0  0
  5 15  1  0  0  0  0
  6  7  2  0  0  0  0
  8  7  1  1  0  0  0
  7 14  1  0  0  0  0
  8  9  1  6  0  0  0
  8 10  1  0  0  0  0
  8 13  1  0  0  0  0
 10 11  1  0  0  0  0
 11 12  1  0  0  0  0
 12 13  1  0  0  0  0
 14 15  1  0  0  0  0
 15 16  2  0  0  0  0
 16 17  1  0  0  0  0
M  END
>  <name>
Clc1c(C)c2nc([C@@]3(C)[N;amide]CCC3)[nH]c2cc1

>  <apo>
1

>  <freq>
1

>  <freq0>
0

>  <freq1>
1

>  <freqA>
0.99887151

>  <a_count>
33

$$$$

  MOE2015           2D

 22 24  0  0  0  0  0  0  0  0999 V2000
   10.9430   -0.6500    0.0000 Cl  0  0  0  0  0  0  0  0  0  0  0  0
   10.1930    0.6500    0.0000 C   0  0  0  0  0  0  0  0  0  0  0  0
   10.9430    1.9490    0.0000 C   0  0  0  0  0  0  0  0  0  0  0  0
   12.4430    1.9490    0.0000 F   0  0  0  0  0  0  0  0  0  0  0  0
   10.1930    3.2480    0.0000 C   0  0  0  0  0  0  0  0  0  0  0  0
    8.6930    3.2480    0.0000 C   0  0  0  0  0  0  0  0  0  0  0  0
    7.9430    1.9490    0.0000 C   0  0  0  0  0  0  0  0  0  0  0  0
    6.4430    1.9490    0.0000 N   0  0  0  0  0  0  0  0  0  0  0  0
    5.6930    3.2480    0.0000 C   0  0  0  0  0  0  0  0  0  0  0  0
    6.4430    4.5470    0.0000 N   0  0  0  0  0  0  0  0  0  0  0  0
    5.6930    5.8460    0.0000 C   0  0  0  0  0  0  0  0  0  0  0  0
    4.1930    5.8460    0.0000 N   0  0  0  0  0  0  0  0  0  0  0  0
    3.4430    4.5470    0.0000 C   0  0  0  0  0  0  0  0  0  0  0  0
    4.1930    3.2480    0.0000 C   0  0  0  0  0  0  0  0  0  0  0  0
    3.4430    1.9490    0.0000 C   0  0  0  0  0  0  0  0  0  0  0  0
    1.9430    1.9490    0.0000 C   0  0  0  0  0  0  0  0  0  0  0  0
    1.1930    0.6500    0.0000 O   0  0  0  0  0  0  0  0  0  0  0  0
    1.1930    3.2480    0.0000 C   0  0  0  0  0  0  0  0  0  0  0  0
   -0.3070    3.2480    0.0000 O   0  0  0  0  0  0  0  0  0  0  0  0
   -1.0570    4.5470    0.0000 C   0  0  0  0  0  0  0  0  0  0  0  0
    1.9430    4.5470    0.0000 C   0  0  0  0  0  0  0  0  0  0  0  0
    8.6930    0.6500    0.0000 C   0  0  0  0  0  0  0  0  0  0  0  0
  1  2  1  0  0  0  0
  2  3  1  0  0  0  0
  2 22  2  0  0  0  0
  3  4  1  0  0  0  0
  3  5  2  0  0  0  0
  5  6  1  0  0  0  0
  6  7  2  0  0  0  0
  7  8  1  0  0  0  0
  7 22  1  0  0  0  0
  8  9  1  0  0  0  0
  9 10  2  0  0  0  0
  9 14  1  0  0  0  0
 10 11  1  0  0  0  0
 11 12  2  0  0  0  0
 12 13  1  0  0  0  0
 13 14  1  0  0  0  0
 13 21  2  0  0  0  0
 14 15  2  0  0  0  0
 15 16  1  0  0  0  0
 16 17  1  0  0  0  0
 16 18  2  0  0  0  0
 18 19  1  0  0  0  0
 18 21  1  0  0  0  0
 19 20  1  0  0  0  0
M  END
>  <name>
Clc1c(F)ccc(Nc2ncnc3c2cc([O;ether])c(OC)c3)c1

>  <apo>
1

>  <freq>
1

>  <freq0>
0

>  <freq1>
1

>  <freqA>
0.99887151

>  <a_count>
33

$$$$

  MOE2015           2D

 20 22  0  0  0  0  0  0  0  0999 V2000
    0.0000    0.0000    0.0000 Cl  0  0  0  0  0  0  0  0  0  0  0  0
    1.5000    0.0000    0.0000 C   0  0  0  0  0  0  0  0  0  0  0  0
    2.2500    1.2990    0.0000 C   0  0  0  0  0  0  0  0  0  0  0  0
    3.7500    1.2990    0.0000 C   0  0  0  0  0  0  0  0  0  0  0  0
    4.5000    2.5980    0.0000 N   0  0  0  0  0  0  0  0  0  0  0  0
    6.0000    2.5980    0.0000 C   0  0  0  0  0  0  0  0  0  0  0  0
    6.7500    1.2990    0.0000 C   0  0  0  0  0  0  0  0  0  0  0  0
    6.0000    0.0000    0.0000 C   0  0  0  0  0  0  0  0  0  0  0  0
    6.7500   -1.2990    0.0000 N   0  0  0  0  0  0  0  0  0  0  0  0
    8.2500   -1.2990    0.0000 C   0  0  0  0  0  0  0  0  0  0  0  0
    9.0000   -2.5980    0.0000 C   0  0  0  0  0  0  0  0  0  0  0  0
   10.5000   -2.5980    0.0000 C   0  0  0  0  0  0  0  0  0  0  0  0
   11.2500   -3.8970    0.0000 C   0  0  0  0  0  0  0  0  0  0  0  0
   11.2500   -1.2990    0.0000 C   0  0  0  0  0  0  0  0  0  0  0  0
   12.7500   -1.2990    0.0000 O   0  0  0  0  0  0  0  0  0  0  0  0
   10.5000    0.0000    0.0000 C   0  0  0  0  0  0  0  0  0  0  0  0
    9.0000    0.0000    0.0000 C   0  0  0  0  0  0  0  0  0  0  0  0
    4.5000    0.0000    0.0000 C   0  0  0  0  0  0  0  0  0  0  0  0
    3.7500   -1.2990    0.0000 C   0  0  0  0  0  0  0  0  0  0  0  0
    2.2500   -1.2990    0.0000 C   0  0  0  0  0  0  0  0  0  0  0  0
  1  2  1  0  0  0  0
  2  3  1  0  0  0  0
  2 20  2  0  0  0  0
  3  4  2  0  0  0  0
  4  5  1  0  0  0  0
  4 18  1  0  0  0  0
  5  6  2  0  0  0  0
  6  7  1  0  0  0  0
  7  8  2  0  0  0  0
  8  9  1  0  0  0  0
  8 18  1  0  0  0  0
  9 10  1  0  0  0  0
 10 11  1  0  0  0  0
 10 17  2  0  0  0  0
 11 12  2  0  0  0  0
 12 13  1  0  0  0  0
 12 14  1  0  0  0  0
 14 15  1  0  0  0  0
 14 16  2  0  0  0  0
 16 17  1  0  0  0  0
 18 19  2  0  0  0  0
 19 20  1  0  0  0  0
M  END
>  <name>
Clc1cc2nccc(Nc3cc([C;amine])c(O)cc3)c2cc1

>  <apo>
1

>  <freq>
1

>  <freq0>
0

>  <freq1>
1

>  <freqA>
0.99887151

>  <a_count>
33

$$$$

  MOE2015           2D

 24 26  0  0  0  0  0  0  0  0999 V2000
    4.9230    4.9230    0.0000 F   0  0  0  0  0  0  0  0  0  0  0  0
    4.9230    3.4230    0.0000 C   0  0  0  0  0  0  0  0  0  0  0  0
    3.6240    2.6730    0.0000 C   0  0  0  0  0  0  0  0  0  0  0  0
    2.3250    3.4230    0.0000 N   0  0  0  0  0  0  0  0  0  0  0  0
    2.3250    4.9230    0.0000 C   0  0  0  0  0  0  0  0  0  0  0  0
    3.6240    5.6730    0.0000 O   0  0  0  0  0  0  0  0  0  0  0  0
    1.0260    5.6730    0.0000 N   0  0  0  0  0  0  0  0  0  0  0  0
   -0.2730    4.9230    0.0000 C   0  0  0  0  0  0  0  0  0  0  0  0
   -0.2730    3.4230    0.0000 C   0  0  0  0  0  0  0  0  0  0  0  0
   -1.7000    2.9600    0.0000 C   0  0  0  0  0  0  0  0  0  0  0  0
   -2.1630    1.5330    0.0000 C   0  0  0  0  0  0  0  0  0  0  0  0
   -3.6300    1.2210    0.0000 O   0  0  0  0  0  0  0  0  0  0  0  0
   -1.1600    0.4180    0.0000 O   0  0  0  0  0  0  0  0  0  0  0  0
   -2.5810    4.1730    0.0000 S   0  0  0  0  0  0  0  0  0  0  0  0
   -1.7000    5.3870    0.0000 C   0  0  0  0  0  0  0  0  0  0  0  0
    1.0260    2.6730    0.0000 C   0  0  0  0  0  0  0  0  0  0  0  0
    1.0260    1.1730    0.0000 O   0  0  0  0  0  0  0  0  0  0  0  0
    3.6240    1.1730    0.0000 C   0  0  0  0  0  0  0  0  0  0  0  0
    4.9230    0.4230    0.0000 C   0  0  0  0  0  0  0  0  0  0  0  0
    4.9230   -1.0770    0.0000 O   0  0  0  0  0  0  0  0  0  0  0  0
    6.2220    1.1730    0.0000 C   0  0  0  0  0  0  0  0  0  0  0  0
    7.5210    0.4230    0.0000 O   0  0  0  0  0  0  0  0  0  0  0  0
    8.8200    1.1730    0.0000 C   0  0  0  0  0  0  0  0  0  0  0  0
    6.2220    2.6730    0.0000 C   0  0  0  0  0  0  0  0  0  0  0  0
  1  2  1  0  0  0  0
  2  3  1  0  0  0  0
  2 24  2  0  0  0  0
  3  4  1  0  0  0  0
  3 18  2  0  0  0  0
  4  5  1  0  0  0  0
  4 16  1  0  0  0  0
  5  6  2  0  0  0  0
  5  7  1  0  0  0  0
  7  8  1  0  0  0  0
  8  9  1  0  0  0  0
  8 15  2  0  0  0  0
  9 10  2  0  0  0  0
  9 16  1  0  0  0  0
 10 11  1  0  0  0  0
 10 14  1  0  0  0  0
 11 12  2  0  0  0  0
 11 13  1  0  0  0  0
 14 15  1  0  0  0  0
 16 17  2  0  0  0  0
 18 19  1  0  0  0  0
 19 20  1  0  0  0  0
 19 21  2  0  0  0  0
 21 22  1  0  0  0  0
 21 24  1  0  0  0  0
 22 23  1  0  0  0  0
M  END
>  <name>
Fc1c(N2C(=O)Nc3c(c(C(=O)O)sc3)C2=O)cc([O;ether])c(OC)c1

>  <apo>
1

>  <freq>
1

>  <freq0>
0

>  <freq1>
1

>  <freqA>
0.99887151

>  <a_count>
33

$$$$

  MOE2015           2D

 20 21  0  0  1  0  0  0  0  0999 V2000
    4.9100   -0.9350    0.0000 F   0  0  0  0  0  0  0  0  0  0  0  0
    4.9100   -2.4350    0.0000 C   0  0  0  0  0  0  0  0  0  0  0  0
    3.6110   -3.1850    0.0000 C   0  0  0  0  0  0  0  0  0  0  0  0
    2.3120   -2.4350    0.0000 C   0  0  2  0  0  0  0  0  0  0  0  0
    1.5620   -3.7340    0.0000 O   0  0  0  0  0  0  0  0  0  0  0  0
    1.0130   -1.6850    0.0000 C   0  0  1  0  0  0  0  0  0  0  0  0
    1.0130   -0.1850    0.0000 C   0  0  0  0  0  0  0  0  0  0  0  0
   -0.2860   -2.4350    0.0000 C   0  0  0  0  0  0  0  0  0  0  0  0
   -1.5850   -1.6850    0.0000 C   0  0  0  0  0  0  0  0  0  0  0  0
   -1.5850   -0.1850    0.0000 F   0  0  0  0  0  0  0  0  0  0  0  0
   -2.8840   -2.4350    0.0000 C   0  0  0  0  0  0  0  0  0  0  0  0
   -2.8840   -3.9350    0.0000 N   0  0  0  0  0  0  0  0  0  0  0  0
   -1.5850   -4.6850    0.0000 C   0  0  0  0  0  0  0  0  0  0  0  0
   -0.2860   -3.9350    0.0000 N   0  0  0  0  0  0  0  0  0  0  0  0
    3.0620   -1.1360    0.0000 C   0  0  0  0  0  0  0  0  0  0  0  0
    3.6110   -4.6850    0.0000 C   0  0  0  0  0  0  0  0  0  0  0  0
    4.9100   -5.4350    0.0000 C   0  0  0  0  0  0  0  0  0  0  0  0
    6.2090   -4.6850    0.0000 C   0  0  0  0  0  0  0  0  0  0  0  0
    7.5080   -5.4350    0.0000 F   0  0  0  0  0  0  0  0  0  0  0  0
    6.2090   -3.1850    0.0000 C   0  0  0  0  0  0  0  0  0  0  0  0
  1  2  1  0  0  0  0
  2  3  1  0  0  0  0
  2 20  2  0  0  0  0
  4  3  1  6  0  0  0
  3 16  2  0  0  0  0
  4  5  1  0  0  0  0
  4  6  1  0  0  0  0
  4 15  1  1  0  0  0
  6  7  1  6  0  0  0
  6  8  1  0  0  0  0
  8  9  1  0  0  0  0
  8 14  2  0  0  0  0
  9 10  1  0  0  0  0
  9 11  2  0  0  0  0
 11 12  1  0  0  0  0
 12 13  2  0  0  0  0
 13 14  1  0  0  0  0
 16 17  1  0  0  0  0
 17 18  2  0  0  0  0
 18 19  1  0  0  0  0
 18 20  1  0  0  0  0
M  END
>  <name>
Fc1c([C@](O)([C@@H](C)c2c(F)cncn2)[C;NaroC])ccc(F)c1

>  <apo>
1

>  <freq>
1

>  <freq0>
0

>  <freq1>
1

>  <freqA>
0.99887151

>  <a_count>
33

$$$$

  MOE2015           2D

 21 23  0  0  0  0  0  0  0  0999 V2000
   -0.6070    1.0520    0.0000 F   0  0  0  0  0  0  0  0  0  0  0  0
    0.1430    2.3510    0.0000 C   0  0  0  0  0  0  0  0  0  0  0  0
    1.6430    2.3510    0.0000 C   0  0  0  0  0  0  0  0  0  0  0  0
    2.3930    3.6500    0.0000 C   0  0  0  0  0  0  0  0  0  0  0  0
    3.8930    3.6500    0.0000 C   0  0  0  0  0  0  0  0  0  0  0  0
    4.6430    4.9490    0.0000 C   0  0  0  0  0  0  0  0  0  0  0  0
    3.8930    6.2480    0.0000 C   0  0  0  0  0  0  0  0  0  0  0  0
    4.6430    7.5470    0.0000 C   0  0  0  0  0  0  0  0  0  0  0  0
    6.1430    4.9490    0.0000 O   0  0  0  0  0  0  0  0  0  0  0  0
    6.8930    3.6500    0.0000 C   0  0  0  0  0  0  0  0  0  0  0  0
    6.1430    2.3510    0.0000 C   0  0  0  0  0  0  0  0  0  0  0  0
    4.6430    2.3510    0.0000 C   0  0  0  0  0  0  0  0  0  0  0  0
    3.8930    1.0520    0.0000 O   0  0  0  0  0  0  0  0  0  0  0  0
    6.8930    1.0520    0.0000 C   0  0  0  0  0  0  0  0  0  0  0  0
    8.3930    1.0520    0.0000 C   0  0  0  0  0  0  0  0  0  0  0  0
    9.1430   -0.2470    0.0000 F   0  0  0  0  0  0  0  0  0  0  0  0
    9.1430    2.3510    0.0000 C   0  0  0  0  0  0  0  0  0  0  0  0
    8.3930    3.6500    0.0000 C   0  0  0  0  0  0  0  0  0  0  0  0
    1.6430    4.9490    0.0000 C   0  0  0  0  0  0  0  0  0  0  0  0
    0.1430    4.9490    0.0000 C   0  0  0  0  0  0  0  0  0  0  0  0
   -0.6070    3.6500    0.0000 C   0  0  0  0  0  0  0  0  0  0  0  0
  1  2  1  0  0  0  0
  2  3  1  0  0  0  0
  2 21  2  0  0  0  0
  3  4  2  0  0  0  0
  4  5  1  0  0  0  0
  4 19  1  0  0  0  0
  5  6  2  0  0  0  0
  5 12  1  0  0  0  0
  6  7  1  0  0  0  0
  6  9  1  0  0  0  0
  7  8  1  0  0  0  0
  9 10  1  0  0  0  0
 10 11  1  0  0  0  0
 10 18  2  0  0  0  0
 11 12  1  0  0  0  0
 11 14  2  0  0  0  0
 12 13  2  0  0  0  0
 14 15  1  0  0  0  0
 15 16  1  0  0  0  0
 15 17  2  0  0  0  0
 17 18  1  0  0  0  0
 19 20  2  0  0  0  0
 20 21  1  0  0  0  0
M  END
>  <name>
Fc1cc(C2=C([C;NaroC]C)Oc3c(C2=O)cc(F)cc3)ccc1

>  <apo>
1

>  <freq>
1

>  <freq0>
0

>  <freq1>
1

>  <freqA>
0.99887151

>  <a_count>
33

$$$$

  MOE2015           2D

 20 22  0  0  0  0  0  0  0  0999 V2000
   -0.1080    1.4600    0.0000 N   0  0  0  0  0  0  0  0  0  0  0  0
    1.3590    1.1480    0.0000 C   0  0  0  0  0  0  0  0  0  0  0  0
    2.8260    0.8360    0.0000 C   0  0  0  0  0  0  0  0  0  0  0  0
    3.9410    1.8400    0.0000 C   0  0  0  0  0  0  0  0  0  0  0  0
    5.2400    1.0900    0.0000 N   0  0  0  0  0  0  0  0  0  0  0  0
    6.5390    1.8400    0.0000 C   0  0  0  0  0  0  0  0  0  0  0  0
    7.8380    1.0900    0.0000 C   0  0  0  0  0  0  0  0  0  0  0  0
    9.1370    1.8400    0.0000 C   0  0  0  0  0  0  0  0  0  0  0  0
   10.4360    1.0900    0.0000 C   0  0  0  0  0  0  0  0  0  0  0  0
   11.7350    1.8400    0.0000 N   0  0  0  0  0  0  0  0  0  0  0  0
   13.0340    1.0900    0.0000 C   0  0  0  0  0  0  0  0  0  0  0  0
   14.3330    1.8400    0.0000 C   0  0  0  0  0  0  0  0  0  0  0  0
   10.4360   -0.4100    0.0000 C   0  0  0  0  0  0  0  0  0  0  0  0
    9.1370   -1.1600    0.0000 C   0  0  0  0  0  0  0  0  0  0  0  0
    7.8380   -0.4100    0.0000 C   0  0  0  0  0  0  0  0  0  0  0  0
    6.5390    3.3400    0.0000 C   0  0  0  0  0  0  0  0  0  0  0  0
    5.2400    4.0900    0.0000 C   0  0  0  0  0  0  0  0  0  0  0  0
    3.9410    3.3400    0.0000 N   0  0  0  0  0  0  0  0  0  0  0  0
    4.9280   -0.3770    0.0000 N   0  0  0  0  0  0  0  0  0  0  0  0
    3.4360   -0.5340    0.0000 C   0  0  0  0  0  0  0  0  0  0  0  0
  1  2  3  0  0  0  0
  2  3  1  0  0  0  0
  3  4  2  0  0  0  0
  3 20  1  0  0  0  0
  4  5  1  0  0  0  0
  4 18  1  0  0  0  0
  5  6  1  0  0  0  0
  5 19  1  0  0  0  0
  6  7  1  0  0  0  0
  6 16  2  0  0  0  0
  7  8  1  0  0  0  0
  7 15  2  0  0  0  0
  8  9  2  0  0  0  0
  9 10  1  0  0  0  0
  9 13  1  0  0  0  0
 10 11  1  0  0  0  0
 11 12  1  0  0  0  0
 13 14  2  0  0  0  0
 14 15  1  0  0  0  0
 16 17  1  0  0  0  0
 17 18  2  0  0  0  0
 19 20  2  0  0  0  0
M  END
>  <name>
N#Cc1c2n(C(c3cc([N;amide]CC)ccc3)=CC=N2)nc1

>  <apo>
1

>  <freq>
1

>  <freq0>
0

>  <freq1>
1

>  <freqA>
0.99887151

>  <a_count>
33

$$$$

  MOE2015           2D

 18 19  0  0  0  0  0  0  0  0999 V2000
   -4.1100    4.5650    0.0000 O   0  0  0  0  0  0  0  0  0  0  0  0
   -5.4090    5.3150    0.0000 C   0  0  0  0  0  0  0  0  0  0  0  0
   -4.1100    3.0650    0.0000 C   0  0  0  0  0  0  0  0  0  0  0  0
   -2.8110    2.3150    0.0000 C   0  0  0  0  0  0  0  0  0  0  0  0
   -1.5120    3.0650    0.0000 N   0  0  0  0  0  0  0  0  0  0  0  0
   -0.2130    2.3150    0.0000 C   0  0  0  0  0  0  0  0  0  0  0  0
   -0.2130    0.8150    0.0000 N   0  0  0  0  0  0  0  0  0  0  0  0
    1.0860    0.0650    0.0000 C   0  0  0  0  0  0  0  0  0  0  0  0
    2.3850    0.8150    0.0000 C   0  0  0  0  0  0  0  0  0  0  0  0
    2.3850    2.3150    0.0000 C   0  0  0  0  0  0  0  0  0  0  0  0
    1.0860    3.0650    0.0000 N   0  0  0  0  0  0  0  0  0  0  0  0
   -2.8110    0.8150    0.0000 C   0  0  0  0  0  0  0  0  0  0  0  0
   -4.1100    0.0650    0.0000 C   0  0  0  0  0  0  0  0  0  0  0  0
   -4.1100   -1.4350    0.0000 N   0  0  0  0  0  0  0  0  0  0  0  0
   -5.4090    0.8150    0.0000 C   0  0  0  0  0  0  0  0  0  0  0  0
   -6.7080    0.0650    0.0000 N   0  0  0  0  0  0  0  0  0  0  0  0
   -8.0070    0.8150    0.0000 C   0  0  0  0  0  0  0  0  0  0  0  0
   -5.4090    2.3150    0.0000 C   0  0  0  0  0  0  0  0  0  0  0  0
  1  2  1  0  0  0  0
  1  3  1  0  0  0  0
  3  4  1  0  0  0  0
  3 18  2  0  0  0  0
  4  5  1  0  0  0  0
  4 12  2  0  0  0  0
  5  6  1  0  0  0  0
  6  7  1  0  0  0  0
  6 11  2  0  0  0  0
  7  8  2  0  0  0  0
  8  9  1  0  0  0  0
  9 10  2  0  0  0  0
 10 11  1  0  0  0  0
 12 13  1  0  0  0  0
 13 14  1  0  0  0  0
 13 15  2  0  0  0  0
 15 16  1  0  0  0  0
 15 18  1  0  0  0  0
 16 17  1  0  0  0  0
M  END
>  <name>
O(C)c1c(Nc2ncc[c;biphenyl]n2)cc([N;amide])c([N;amine]C)c1

>  <apo>
3

>  <freq>
1

>  <freq0>
0

>  <freq1>
1

>  <freqA>
0.99887151

>  <a_count>
33

$$$$

  MOE2015           2D

 18 20  0  0  0  0  0  0  0  0999 V2000
    8.0130    1.3430    0.0000 O   0  0  0  0  0  0  0  0  0  0  0  0
    8.0130    2.8430    0.0000 C   0  0  0  0  0  0  0  0  0  0  0  0
    9.3120    3.5930    0.0000 N   0  0  0  0  0  0  0  0  0  0  0  0
    6.7140    3.5930    0.0000 C   0  0  0  0  0  0  0  0  0  0  0  0
    6.5570    5.0850    0.0000 O   0  0  0  0  0  0  0  0  0  0  0  0
    5.0900    5.3970    0.0000 C   0  0  0  0  0  0  0  0  0  0  0  0
    4.3400    4.0980    0.0000 C   0  0  0  0  0  0  0  0  0  0  0  0
    5.3430    2.9830    0.0000 C   0  0  0  0  0  0  0  0  0  0  0  0
    2.8400    4.0980    0.0000 C   0  0  0  0  0  0  0  0  0  0  0  0
    2.0900    5.3970    0.0000 C   0  0  0  0  0  0  0  0  0  0  0  0
    0.5900    5.3970    0.0000 N   0  0  0  0  0  0  0  0  0  0  0  0
   -0.1600    4.0980    0.0000 C   0  0  0  0  0  0  0  0  0  0  0  0
   -1.6600    4.0980    0.0000 C   0  0  0  0  0  0  0  0  0  0  0  0
   -2.4100    5.3970    0.0000 N   0  0  0  0  0  0  0  0  0  0  0  0
   -1.6600    6.6960    0.0000 C   0  0  0  0  0  0  0  0  0  0  0  0
   -0.1600    6.6960    0.0000 C   0  0  0  0  0  0  0  0  0  0  0  0
    2.8400    6.6960    0.0000 C   0  0  0  0  0  0  0  0  0  0  0  0
    4.3400    6.6960    0.0000 C   0  0  0  0  0  0  0  0  0  0  0  0
  1  2  2  0  0  0  0
  2  3  1  0  0  0  0
  2  4  1  0  0  0  0
  4  5  1  0  0  0  0
  4  8  2  0  0  0  0
  5  6  1  0  0  0  0
  6  7  1  0  0  0  0
  6 18  2  0  0  0  0
  7  8  1  0  0  0  0
  7  9  2  0  0  0  0
  9 10  1  0  0  0  0
 10 11  1  0  0  0  0
 10 17  2  0  0  0  0
 11 12  1  0  0  0  0
 11 16  1  0  0  0  0
 12 13  1  0  0  0  0
 13 14  1  0  0  0  0
 14 15  1  0  0  0  0
 15 16  1  0  0  0  0
 17 18  1  0  0  0  0
M  END
>  <name>
O=C(N)c1oc2c(c1)cc(N1CC[N;amine]CC1)cc2

>  <apo>
1

>  <freq>
1

>  <freq0>
0

>  <freq1>
1

>  <freqA>
0.99887151

>  <a_count>
33

$$$$

  MOE2015           2D

 19 21  0  0  0  0  0  0  0  0999 V2000
   12.7740   -3.2330    0.0000 O   0  0  0  0  0  0  0  0  0  0  0  0
   11.4540   -2.5190    0.0000 C   0  0  0  0  0  0  0  0  0  0  0  0
   11.4120   -1.0200    0.0000 O   0  0  0  0  0  0  0  0  0  0  0  0
   10.1760   -3.3050    0.0000 C   0  0  0  0  0  0  0  0  0  0  0  0
    8.8570   -2.5920    0.0000 C   0  0  0  0  0  0  0  0  0  0  0  0
    7.5790   -3.3770    0.0000 C   0  0  0  0  0  0  0  0  0  0  0  0
    6.2600   -2.6640    0.0000 C   0  0  0  0  0  0  0  0  0  0  0  0
    6.2180   -1.1640    0.0000 C   0  0  0  0  0  0  0  0  0  0  0  0
    5.0200   -0.2620    0.0000 O   0  0  0  0  0  0  0  0  0  0  0  0
    3.5680   -0.6340    0.0000 C   0  0  0  0  0  0  0  0  0  0  0  0
    2.9550   -2.0040    0.0000 C   0  0  0  0  0  0  0  0  0  0  0  0
    3.6430   -3.3380    0.0000 C   0  0  0  0  0  0  0  0  0  0  0  0
    2.8330   -4.6000    0.0000 C   0  0  0  0  0  0  0  0  0  0  0  0
    1.3340   -4.5290    0.0000 C   0  0  0  0  0  0  0  0  0  0  0  0
    0.6460   -3.1950    0.0000 C   0  0  0  0  0  0  0  0  0  0  0  0
    1.4570   -1.9330    0.0000 C   0  0  0  0  0  0  0  0  0  0  0  0
    5.1140   -3.6320    0.0000 C   0  0  0  0  0  0  0  0  0  0  0  0
    7.4960   -0.3790    0.0000 C   0  0  0  0  0  0  0  0  0  0  0  0
    8.8150   -1.0920    0.0000 C   0  0  0  0  0  0  0  0  0  0  0  0
  1  2  2  0  0  0  0
  2  3  1  0  0  0  0
  2  4  1  0  0  0  0
  4  5  1  0  0  0  0
  5  6  1  0  0  0  0
  5 19  2  0  0  0  0
  6  7  2  0  0  0  0
  7  8  1  0  0  0  0
  7 17  1  0  0  0  0
  8  9  1  0  0  0  0
  8 18  2  0  0  0  0
  9 10  1  0  0  0  0
 10 11  1  0  0  0  0
 11 12  1  0  0  0  0
 11 16  2  0  0  0  0
 12 13  2  0  0  0  0
 12 17  1  0  0  0  0
 13 14  1  0  0  0  0
 14 15  2  0  0  0  0
 15 16  1  0  0  0  0
 18 19  1  0  0  0  0
M  END
>  <name>
O=C(O)Cc1cc2c(OCc3c(cccc3)[C;olefin]2)cc1

>  <apo>
1

>  <freq>
1

>  <freq0>
0

>  <freq1>
1

>  <freqA>
0.99887151

>  <a_count>
33

$$$$

  MOE2015           2D

 14 15  0  0  1  0  0  0  0  0999 V2000
    5.7860   -1.0180    0.0000 O   0  0  0  0  0  0  0  0  0  0  0  0
    5.8940   -2.5150    0.0000 C   0  0  0  0  0  0  0  0  0  0  0  0
    7.2430   -3.1690    0.0000 O   0  0  0  0  0  0  0  0  0  0  0  0
    4.6520   -3.3560    0.0000 C   0  0  1  0  0  0  0  0  0  0  0  0
    4.6030   -4.8550    0.0000 N   0  0  0  0  0  0  0  0  0  0  0  0
    3.1620   -5.2720    0.0000 C   0  0  0  0  0  0  0  0  0  0  0  0
    2.3210   -4.0310    0.0000 C   0  0  2  0  0  0  0  0  0  0  0  0
    0.8210   -3.9820    0.0000 C   0  0  0  0  0  0  0  0  0  0  0  0
    0.1140   -2.6590    0.0000 C   0  0  0  0  0  0  0  0  0  0  0  0
   -1.3850   -2.6100    0.0000 C   0  0  0  0  0  0  0  0  0  0  0  0
   -2.1770   -3.8840    0.0000 C   0  0  0  0  0  0  0  0  0  0  0  0
   -1.4700   -5.2070    0.0000 C   0  0  0  0  0  0  0  0  0  0  0  0
    0.0300   -5.2560    0.0000 C   0  0  0  0  0  0  0  0  0  0  0  0
    3.2410   -2.8460    0.0000 C   0  0  0  0  0  0  0  0  0  0  0  0
  1  2  2  0  0  0  0
  2  3  1  0  0  0  0
  4  2  1  1  0  0  0
  4  5  1  0  0  0  0
  4 14  1  0  0  0  0
  5  6  1  0  0  0  0
  6  7  1  0  0  0  0
  7  8  1  6  0  0  0
  7 14  1  0  0  0  0
  8  9  1  0  0  0  0
  8 13  1  0  0  0  0
  9 10  1  0  0  0  0
 10 11  1  0  0  0  0
 11 12  1  0  0  0  0
 12 13  1  0  0  0  0
M  END
>  <name>
O=C(O)[C@H]1[N;amide]C[C@H](C2CCCCC2)C1

>  <apo>
1

>  <freq>
1

>  <freq0>
0

>  <freq1>
1

>  <freqA>
0.99887151

>  <a_count>
33

$$$$

  MOE2015           2D

 16 17  0  0  1  0  0  0  0  0999 V2000
    2.2580    0.5220    0.0000 O   0  0  0  0  0  0  0  0  0  0  0  0
    0.9100   -0.1360    0.0000 C   0  0  0  0  0  0  0  0  0  0  0  0
   -0.3340    0.7020    0.0000 O   0  0  0  0  0  0  0  0  0  0  0  0
    0.8060   -1.6330    0.0000 C   0  0  1  0  0  0  0  0  0  0  0  0
   -0.6860   -1.7900    0.0000 C   0  0  2  0  0  0  0  0  0  0  0  0
   -1.5680   -0.5770    0.0000 C   0  0  0  0  0  0  0  0  0  0  0  0
   -1.2960   -3.1600    0.0000 C   0  0  0  0  0  0  0  0  0  0  0  0
   -0.4140   -4.3740    0.0000 N   0  0  0  0  0  0  0  0  0  0  0  0
    1.0780   -4.2160    0.0000 C   0  0  0  0  0  0  0  0  0  0  0  0
    1.6880   -2.8460    0.0000 C   0  0  0  0  0  0  0  0  0  0  0  0
    2.2480   -1.2190    0.0000 C   0  0  0  0  0  0  0  0  0  0  0  0
    3.0860    0.0250    0.0000 C   0  0  0  0  0  0  0  0  0  0  0  0
    4.5820   -0.0790    0.0000 C   0  0  0  0  0  0  0  0  0  0  0  0
    5.2400   -1.4270    0.0000 C   0  0  0  0  0  0  0  0  0  0  0  0
    4.4020   -2.6710    0.0000 C   0  0  0  0  0  0  0  0  0  0  0  0
    2.9060   -2.5670    0.0000 C   0  0  0  0  0  0  0  0  0  0  0  0
  1  2  2  0  0  0  0
  2  3  1  0  0  0  0
  4  2  1  6  0  0  0
  4  5  1  0  0  0  0
  4 10  1  0  0  0  0
  4 11  1  1  0  0  0
  5  6  1  1  0  0  0
  5  7  1  0  0  0  0
  7  8  1  0  0  0  0
  8  9  1  0  0  0  0
  9 10  1  0  0  0  0
 11 12  1  0  0  0  0
 11 16  2  0  0  0  0
 12 13  2  0  0  0  0
 13 14  1  0  0  0  0
 14 15  2  0  0  0  0
 15 16  1  0  0  0  0
M  END
>  <name>
O=C(O)[C@]1([C@H](C)C[N;amine]CC1)c1ccccc1

>  <apo>
1

>  <freq>
1

>  <freq0>
0

>  <freq1>
1

>  <freqA>
0.99887151

>  <a_count>
33

$$$$

  MOE2015           2D

 20 22  0  0  1  0  0  0  0  0999 V2000
    1.2640    4.7170    0.0000 O   0  0  0  0  0  0  0  0  0  0  0  0
    2.5630    3.9670    0.0000 C   0  0  0  0  0  0  0  0  0  0  0  0
    3.8620    4.7170    0.0000 O   0  5  0  0  0  0  0  0  0  0  0  0
    2.5630    2.4670    0.0000 C   0  0  0  0  0  0  0  0  0  0  0  0
    3.8620    1.7170    0.0000 C   0  0  0  0  0  0  0  0  0  0  0  0
    5.1610    2.4670    0.0000 C   0  0  0  0  0  0  0  0  0  0  0  0
    6.4600    1.7170    0.0000 N   0  3  0  0  0  0  0  0  0  0  0  0
    6.4600    0.2170    0.0000 C   0  0  0  0  0  0  0  0  0  0  0  0
    7.7590   -0.5330    0.0000 C   0  0  0  0  0  0  0  0  0  0  0  0
    9.0580    0.2170    0.0000 C   0  0  0  0  0  0  0  0  0  0  0  0
    9.0580    1.7170    0.0000 C   0  0  0  0  0  0  0  0  0  0  0  0
    7.7590    2.4670    0.0000 C   0  0  0  0  0  0  0  0  0  0  0  0
    3.8620    0.2170    0.0000 C   0  0  0  0  0  0  0  0  0  0  0  0
    2.5630   -0.5330    0.0000 S   0  0  0  0  0  0  0  0  0  0  0  0
    1.2640    0.2170    0.0000 C   0  0  2  0  0  0  0  0  0  0  0  0
   -0.2360    0.2170    0.0000 C   0  0  2  0  0  0  0  0  0  0  0  0
   -1.2970   -0.8440    0.0000 N   0  0  0  0  0  0  0  0  0  0  0  0
   -0.2360    1.7170    0.0000 C   0  0  0  0  0  0  0  0  0  0  0  0
   -1.2970    2.7780    0.0000 O   0  0  0  0  0  0  0  0  0  0  0  0
    1.2640    1.7170    0.0000 N   0  0  0  0  0  0  0  0  0  0  0  0
  1  2  2  0  0  0  0
  2  3  1  0  0  0  0
  2  4  1  0  0  0  0
  4  5  2  0  0  0  0
  4 20  1  0  0  0  0
  5  6  1  0  0  0  0
  5 13  1  0  0  0  0
  6  7  1  0  0  0  0
  7  8  1  0  0  0  0
  7 12  2  0  0  0  0
  8  9  2  0  0  0  0
  9 10  1  0  0  0  0
 10 11  2  0  0  0  0
 11 12  1  0  0  0  0
 13 14  1  0  0  0  0
 15 14  1  6  0  0  0
 15 16  1  0  0  0  0
 15 20  1  0  0  0  0
 16 17  1  6  0  0  0
 16 18  1  0  0  0  0
 18 19  2  0  0  0  0
 18 20  1  0  0  0  0
M  CHG  1   3  -1
M  CHG  1   7   1
M  END
>  <name>
O=C([O-])C1=C(C[n+]2ccccc2)CS[C@@H]2[C@H]([N;amide])C(=O)N12

>  <apo>
1

>  <freq>
1

>  <freq0>
0

>  <freq1>
1

>  <freqA>
0.99887151

>  <a_count>
33

$$$$

  MOE2015           2D

 16 17  0  0  0  0  0  0  0  0999 V2000
    2.7190    2.7190    0.0000 O   0  0  0  0  0  0  0  0  0  0  0  0
    2.7190    1.2190    0.0000 C   0  0  0  0  0  0  0  0  0  0  0  0
    1.4200    0.4690    0.0000 C   0  0  0  0  0  0  0  0  0  0  0  0
    0.1210    1.2190    0.0000 N   0  0  0  0  0  0  0  0  0  0  0  0
   -1.1780    0.4690    0.0000 C   0  0  0  0  0  0  0  0  0  0  0  0
   -2.4770    1.2190    0.0000 N   0  0  0  0  0  0  0  0  0  0  0  0
   -1.1780   -1.0310    0.0000 C   0  0  0  0  0  0  0  0  0  0  0  0
    0.1210   -1.7810    0.0000 C   0  0  0  0  0  0  0  0  0  0  0  0
    1.4200   -1.0310    0.0000 C   0  0  0  0  0  0  0  0  0  0  0  0
    4.0180    0.4690    0.0000 C   0  0  0  0  0  0  0  0  0  0  0  0
    4.0180   -1.0310    0.0000 C   0  0  0  0  0  0  0  0  0  0  0  0
    5.3170   -1.7810    0.0000 C   0  0  0  0  0  0  0  0  0  0  0  0
    6.6160   -1.0310    0.0000 N   0  0  0  0  0  0  0  0  0  0  0  0
    7.9150   -1.7810    0.0000 C   0  0  0  0  0  0  0  0  0  0  0  0
    6.6160    0.4690    0.0000 C   0  0  0  0  0  0  0  0  0  0  0  0
    5.3170    1.2190    0.0000 C   0  0  0  0  0  0  0  0  0  0  0  0
  1  2  2  0  0  0  0
  2  3  1  0  0  0  0
  2 10  1  0  0  0  0
  3  4  1  0  0  0  0
  3  9  2  0  0  0  0
  4  5  2  0  0  0  0
  5  6  1  0  0  0  0
  5  7  1  0  0  0  0
  7  8  2  0  0  0  0
  8  9  1  0  0  0  0
 10 11  1  0  0  0  0
 10 16  1  0  0  0  0
 11 12  1  0  0  0  0
 12 13  1  0  0  0  0
 13 14  1  0  0  0  0
 13 15  1  0  0  0  0
 15 16  1  0  0  0  0
M  END
>  <name>
O=C(c1nc([N;amide])ccc1)C1CCN(C)CC1

>  <apo>
1

>  <freq>
1

>  <freq0>
0

>  <freq1>
1

>  <freqA>
0.99887151

>  <a_count>
33

$$$$

  MOE2015           2D

 17 18  0  0  0  0  0  0  0  0999 V2000
    0.3360    1.7020    0.0000 O   0  0  0  0  0  0  0  0  0  0  0  0
    1.6360    0.9520    0.0000 C   0  0  0  0  0  0  0  0  0  0  0  0
    1.6360   -0.5480    0.0000 N   0  0  0  0  0  0  0  0  0  0  0  0
    0.3360   -1.2980    0.0000 C   0  0  0  0  0  0  0  0  0  0  0  0
   -0.9630   -0.5480    0.0000 C   0  0  0  0  0  0  0  0  0  0  0  0
    2.9350   -1.2980    0.0000 C   0  0  0  0  0  0  0  0  0  0  0  0
    2.9350   -2.7980    0.0000 O   0  0  0  0  0  0  0  0  0  0  0  0
    4.2340   -0.5480    0.0000 C   0  0  0  0  0  0  0  0  0  0  0  0
    5.6600   -1.0120    0.0000 N   0  0  0  0  0  0  0  0  0  0  0  0
    6.1240   -2.4380    0.0000 C   0  0  0  0  0  0  0  0  0  0  0  0
    6.5420    0.2020    0.0000 C   0  0  0  0  0  0  0  0  0  0  0  0
    8.0420    0.2020    0.0000 C   0  0  0  0  0  0  0  0  0  0  0  0
    5.6600    1.4150    0.0000 N   0  0  0  0  0  0  0  0  0  0  0  0
    4.2340    0.9520    0.0000 C   0  0  0  0  0  0  0  0  0  0  0  0
    2.9350    1.7020    0.0000 N   0  0  0  0  0  0  0  0  0  0  0  0
    2.9350    3.2020    0.0000 C   0  0  0  0  0  0  0  0  0  0  0  0
    1.6360    3.9520    0.0000 C   0  0  0  0  0  0  0  0  0  0  0  0
  1  2  2  0  0  0  0
  2  3  1  0  0  0  0
  2 15  1  0  0  0  0
  3  4  1  0  0  0  0
  3  6  1  0  0  0  0
  4  5  1  0  0  0  0
  6  7  2  0  0  0  0
  6  8  1  0  0  0  0
  8  9  1  0  0  0  0
  8 14  2  0  0  0  0
  9 10  1  0  0  0  0
  9 11  1  0  0  0  0
 11 12  1  0  0  0  0
 11 13  2  0  0  0  0
 13 14  1  0  0  0  0
 14 15  1  0  0  0  0
 15 16  1  0  0  0  0
 16 17  1  0  0  0  0
M  END
>  <name>
O=C1N(CC)C(=O)c2n(C)c([C;olefin])nc2N1CC

>  <apo>
1

>  <freq>
1

>  <freq0>
0

>  <freq1>
1

>  <freqA>
0.99887151

>  <a_count>
33

$$$$

  MOE2015           2D

 13 13  0  0  1  0  0  0  0  0999 V2000
    2.0220    3.9600    0.0000 O   0  0  0  0  0  0  0  0  0  0  0  0
    0.8960    2.9690    0.0000 C   0  0  0  0  0  0  0  0  0  0  0  0
    1.0360    1.4750    0.0000 C   0  0  2  0  0  0  0  0  0  0  0  0
    2.3260    0.7110    0.0000 C   0  0  0  0  0  0  0  0  0  0  0  0
    3.6340    1.4460    0.0000 C   0  0  0  0  0  0  0  0  0  0  0  0
    4.9240    0.6810    0.0000 C   0  0  0  0  0  0  0  0  0  0  0  0
    6.2320    1.4160    0.0000 C   0  0  0  0  0  0  0  0  0  0  0  0
    7.5220    0.6510    0.0000 C   0  0  0  0  0  0  0  0  0  0  0  0
   -0.3410    0.8810    0.0000 C   0  0  1  0  0  0  0  0  0  0  0  0
   -0.6700   -0.5830    0.0000 C   0  0  0  0  0  0  0  0  0  0  0  0
   -1.3320    2.0070    0.0000 C   0  0  2  0  0  0  0  0  0  0  0  0
   -2.8260    1.8670    0.0000 O   0  0  0  0  0  0  0  0  0  0  0  0
   -0.5670    3.2970    0.0000 C   0  0  0  0  0  0  0  0  0  0  0  0
  1  2  2  0  0  0  0
  2  3  1  0  0  0  0
  2 13  1  0  0  0  0
  3  4  1  6  0  0  0
  3  9  1  0  0  0  0
  4  5  1  0  0  0  0
  5  6  1  0  0  0  0
  6  7  1  0  0  0  0
  7  8  1  0  0  0  0
  9 10  1  1  0  0  0
  9 11  1  0  0  0  0
 11 12  1  6  0  0  0
 11 13  1  0  0  0  0
M  END
>  <name>
O=C1[C@H](CCCC[C;olefin])[C@@H]([C;olefin])[C@H](O)C1

>  <apo>
2

>  <freq>
1

>  <freq0>
0

>  <freq1>
1

>  <freqA>
0.99887151

>  <a_count>
33

$$$$

  MOE2015           2D

 17 18  0  0  0  0  0  0  0  0999 V2000
    3.5490   -3.5490    0.0000 O   0  0  0  0  0  0  0  0  0  0  0  0
    2.2500   -2.7990    0.0000 C   0  0  0  0  0  0  0  0  0  0  0  0
    2.2500   -1.2990    0.0000 C   0  0  0  0  0  0  0  0  0  0  0  0
    2.2500    0.2010    0.0000 C   0  0  0  0  0  0  0  0  0  0  0  0
    0.9510    0.9510    0.0000 C   0  0  0  0  0  0  0  0  0  0  0  0
    0.7500   -1.2990    0.0000 C   0  0  0  0  0  0  0  0  0  0  0  0
    0.0000    0.0000    0.0000 C   0  0  0  0  0  0  0  0  0  0  0  0
   -1.5000    0.0000    0.0000 C   0  0  0  0  0  0  0  0  0  0  0  0
   -2.2500   -1.2990    0.0000 C   0  0  0  0  0  0  0  0  0  0  0  0
   -1.5000   -2.5980    0.0000 C   0  0  0  0  0  0  0  0  0  0  0  0
    0.0000   -2.5980    0.0000 C   0  0  0  0  0  0  0  0  0  0  0  0
    3.7500   -1.2990    0.0000 C   0  0  0  0  0  0  0  0  0  0  0  0
    4.5000   -2.5980    0.0000 C   0  0  0  0  0  0  0  0  0  0  0  0
    6.0000   -2.5980    0.0000 C   0  0  0  0  0  0  0  0  0  0  0  0
    6.7500   -1.2990    0.0000 C   0  0  0  0  0  0  0  0  0  0  0  0
    6.0000    0.0000    0.0000 C   0  0  0  0  0  0  0  0  0  0  0  0
    4.5000    0.0000    0.0000 C   0  0  0  0  0  0  0  0  0  0  0  0
  1  2  2  0  0  0  0
  2  3  1  0  0  0  0
  3  4  1  0  0  0  0
  3  6  1  0  0  0  0
  3 12  1  0  0  0  0
  4  5  1  0  0  0  0
  6  7  1  0  0  0  0
  6 11  2  0  0  0  0
  7  8  2  0  0  0  0
  8  9  1  0  0  0  0
  9 10  2  0  0  0  0
 10 11  1  0  0  0  0
 12 13  1  0  0  0  0
 12 17  2  0  0  0  0
 13 14  2  0  0  0  0
 14 15  1  0  0  0  0
 15 16  2  0  0  0  0
 16 17  1  0  0  0  0
M  END
>  <name>
O=[C;amide]C(C[C;amine])(c1ccccc1)c1ccccc1

>  <apo>
2

>  <freq>
1

>  <freq0>
0

>  <freq1>
1

>  <freqA>
0.99887151

>  <a_count>
33

$$$$

  MOE2015           2D

 15 15  0  0  1  0  0  0  0  0999 V2000
   -2.0000   -4.6770    0.0000 O   0  0  0  0  0  0  0  0  0  0  0  0
   -1.2500   -3.3770    0.0000 C   0  0  0  0  0  0  0  0  0  0  0  0
    0.2500   -3.3770    0.0000 C   0  0  1  0  0  0  0  0  0  0  0  0
    1.0000   -2.0780    0.0000 N   0  0  0  0  0  0  0  0  0  0  0  0
    0.2500   -0.7790    0.0000 C   0  0  0  0  0  0  0  0  0  0  0  0
    1.0000   -4.6770    0.0000 C   0  0  0  0  0  0  0  0  0  0  0  0
    2.5000   -4.6770    0.0000 C   0  0  0  0  0  0  0  0  0  0  0  0
    3.2500   -3.3770    0.0000 C   0  0  0  0  0  0  0  0  0  0  0  0
    4.7500   -3.3770    0.0000 C   0  0  0  0  0  0  0  0  0  0  0  0
    5.5000   -4.6770    0.0000 C   0  0  0  0  0  0  0  0  0  0  0  0
    7.0000   -4.6770    0.0000 N   0  0  0  0  0  0  0  0  0  0  0  0
    7.7500   -3.3770    0.0000 C   0  0  0  0  0  0  0  0  0  0  0  0
    7.7500   -5.9760    0.0000 C   0  0  0  0  0  0  0  0  0  0  0  0
    4.7500   -5.9760    0.0000 C   0  0  0  0  0  0  0  0  0  0  0  0
    3.2500   -5.9760    0.0000 C   0  0  0  0  0  0  0  0  0  0  0  0
  1  2  2  0  0  0  0
  3  2  1  1  0  0  0
  3  4  1  0  0  0  0
  3  6  1  0  0  0  0
  4  5  1  0  0  0  0
  6  7  1  0  0  0  0
  7  8  1  0  0  0  0
  7 15  2  0  0  0  0
  8  9  2  0  0  0  0
  9 10  1  0  0  0  0
 10 11  1  0  0  0  0
 10 14  2  0  0  0  0
 11 12  1  0  0  0  0
 11 13  1  0  0  0  0
 14 15  1  0  0  0  0
M  END
>  <name>
O=[C;amide][C@@H]([N;amide]C)Cc1ccc(N(C)C)cc1

>  <apo>
2

>  <freq>
1

>  <freq0>
0

>  <freq1>
1

>  <freqA>
0.99887151

>  <a_count>
33

$$$$

  MOE2015           2D

 16 17  0  0  0  0  0  0  0  0999 V2000
   -1.5000   -5.3590    0.0000 O   0  0  0  0  0  0  0  0  0  0  0  0
   -0.7500   -4.0590    0.0000 C   0  0  0  0  0  0  0  0  0  0  0  0
    0.7500   -4.0590    0.0000 C   0  0  0  0  0  0  0  0  0  0  0  0
    1.5000   -2.7600    0.0000 C   0  0  0  0  0  0  0  0  0  0  0  0
    0.7500   -1.4610    0.0000 N   0  0  0  0  0  0  0  0  0  0  0  0
    3.0000   -2.7600    0.0000 C   0  0  0  0  0  0  0  0  0  0  0  0
    3.7500   -4.0590    0.0000 C   0  0  0  0  0  0  0  0  0  0  0  0
    5.2500   -4.0590    0.0000 N   0  0  0  0  0  0  0  0  0  0  0  0
    6.0000   -5.3590    0.0000 C   0  0  0  0  0  0  0  0  0  0  0  0
    7.5000   -5.3590    0.0000 C   0  0  0  0  0  0  0  0  0  0  0  0
    8.2500   -4.0590    0.0000 N   0  0  0  0  0  0  0  0  0  0  0  0
    9.7500   -4.0590    0.0000 C   0  0  0  0  0  0  0  0  0  0  0  0
    7.5000   -2.7600    0.0000 C   0  0  0  0  0  0  0  0  0  0  0  0
    6.0000   -2.7600    0.0000 C   0  0  0  0  0  0  0  0  0  0  0  0
    3.0000   -5.3590    0.0000 C   0  0  0  0  0  0  0  0  0  0  0  0
    1.5000   -5.3590    0.0000 C   0  0  0  0  0  0  0  0  0  0  0  0
  1  2  2  0  0  0  0
  2  3  1  0  0  0  0
  3  4  1  0  0  0  0
  3 16  2  0  0  0  0
  4  5  1  0  0  0  0
  4  6  2  0  0  0  0
  6  7  1  0  0  0  0
  7  8  1  0  0  0  0
  7 15  2  0  0  0  0
  8  9  1  0  0  0  0
  8 14  1  0  0  0  0
  9 10  1  0  0  0  0
 10 11  1  0  0  0  0
 11 12  1  0  0  0  0
 11 13  1  0  0  0  0
 13 14  1  0  0  0  0
 15 16  1  0  0  0  0
M  END
>  <name>
O=[C;amide]c1c([N;amine])cc(N2CCN(C)CC2)cc1

>  <apo>
2

>  <freq>
1

>  <freq0>
0

>  <freq1>
1

>  <freqA>
0.99887151

>  <a_count>
33

$$$$

  MOE2015           2D

 15 16  0  0  1  0  0  0  0  0999 V2000
    0.3360   -1.9460    0.0000 O   0  0  0  0  0  0  0  0  0  0  0  0
    1.6350   -1.1960    0.0000 C   0  0  0  0  0  0  0  0  0  0  0  0
    1.6350    0.3040    0.0000 C   0  0  0  0  0  0  0  0  0  0  0  0
    0.3360    1.0540    0.0000 C   0  0  0  0  0  0  0  0  0  0  0  0
    2.9340    1.0540    0.0000 C   0  0  0  0  0  0  0  0  0  0  0  0
    2.9340    2.5540    0.0000 C   0  0  0  0  0  0  0  0  0  0  0  0
    4.2330    0.3040    0.0000 C   0  0  0  0  0  0  0  0  0  0  0  0
    5.5320    1.0540    0.0000 O   0  0  0  0  0  0  0  0  0  0  0  0
    6.8310    0.3040    0.0000 C   0  0  3  0  0  0  0  0  0  0  0  0
    8.1300    1.0540    0.0000 C   0  0  0  0  0  0  0  0  0  0  0  0
    6.8310   -1.1960    0.0000 C   0  0  0  0  0  0  0  0  0  0  0  0
    5.5320   -1.9460    0.0000 C   0  0  0  0  0  0  0  0  0  0  0  0
    4.2330   -1.1960    0.0000 C   0  0  0  0  0  0  0  0  0  0  0  0
    2.9340   -1.9460    0.0000 C   0  0  0  0  0  0  0  0  0  0  0  0
    2.9340   -3.4460    0.0000 C   0  0  0  0  0  0  0  0  0  0  0  0
  1  2  1  0  0  0  0
  2  3  1  0  0  0  0
  2 14  2  0  0  0  0
  3  4  1  0  0  0  0
  3  5  2  0  0  0  0
  5  6  1  0  0  0  0
  5  7  1  0  0  0  0
  7  8  1  0  0  0  0
  7 13  2  0  0  0  0
  8  9  1  0  0  0  0
  9 10  1  0  0  0  0
  9 11  1  0  0  0  0
 11 12  1  0  0  0  0
 12 13  1  0  0  0  0
 13 14  1  0  0  0  0
 14 15  1  0  0  0  0
M  END
>  <name>
Oc1c(C)c(C)c2O[C;ether](C)CCc2c1C

>  <apo>
1

>  <freq>
1

>  <freq0>
0

>  <freq1>
1

>  <freqA>
0.99887151

>  <a_count>
33

$$$$

  MOE2015           2D

 21 22  0  0  0  0  0  0  0  0999 V2000
    0.0000    0.0000    0.0000 S   0  0  0  0  0  0  0  0  0  0  0  0
    1.5000    0.0000    0.0000 O   0  0  0  0  0  0  0  0  0  0  0  0
   -1.5000    0.0000    0.0000 O   0  0  0  0  0  0  0  0  0  0  0  0
    0.0000    1.5000    0.0000 N   0  0  0  0  0  0  0  0  0  0  0  0
    0.0000   -1.5000    0.0000 C   0  0  0  0  0  0  0  0  0  0  0  0
    1.2990   -2.2500    0.0000 C   0  0  0  0  0  0  0  0  0  0  0  0
    2.5980   -1.5000    0.0000 O   0  0  0  0  0  0  0  0  0  0  0  0
    3.8970   -2.2500    0.0000 C   0  0  0  0  0  0  0  0  0  0  0  0
    3.8970   -3.7500    0.0000 C   0  0  0  0  0  0  0  0  0  0  0  0
    5.1960   -4.5000    0.0000 C   0  0  0  0  0  0  0  0  0  0  0  0
    6.4950   -3.7500    0.0000 C   0  0  0  0  0  0  0  0  0  0  0  0
    6.4950   -2.2500    0.0000 C   0  0  0  0  0  0  0  0  0  0  0  0
    5.1960   -1.5000    0.0000 C   0  0  0  0  0  0  0  0  0  0  0  0
    1.2990   -3.7500    0.0000 C   0  0  0  0  0  0  0  0  0  0  0  0
    2.5980   -4.5000    0.0000 N   0  0  0  0  0  0  0  0  0  0  0  0
    0.0000   -4.5000    0.0000 C   0  0  0  0  0  0  0  0  0  0  0  0
   -1.2990   -3.7500    0.0000 C   0  0  0  0  0  0  0  0  0  0  0  0
   -2.5980   -4.5000    0.0000 C   0  0  0  0  0  0  0  0  0  0  0  0
   -3.8970   -3.7500    0.0000 O   0  0  0  0  0  0  0  0  0  0  0  0
   -2.5980   -6.0000    0.0000 O   0  0  0  0  0  0  0  0  0  0  0  0
   -1.2990   -2.2500    0.0000 C   0  0  0  0  0  0  0  0  0  0  0  0
  1  2  2  0  0  0  0
  1  3  2  0  0  0  0
  1  4  1  0  0  0  0
  1  5  1  0  0  0  0
  5  6  1  0  0  0  0
  5 21  2  0  0  0  0
  6  7  1  0  0  0  0
  6 14  2  0  0  0  0
  7  8  1  0  0  0  0
  8  9  1  0  0  0  0
  8 13  2  0  0  0  0
  9 10  2  0  0  0  0
 10 11  1  0  0  0  0
 11 12  2  0  0  0  0
 12 13  1  0  0  0  0
 14 15  1  0  0  0  0
 14 16  1  0  0  0  0
 16 17  2  0  0  0  0
 17 18  1  0  0  0  0
 17 21  1  0  0  0  0
 18 19  2  0  0  0  0
 18 20  1  0  0  0  0
M  END
>  <name>
S(=O)(=O)(N)c1c(Oc2ccccc2)c([N;amine])cc(C(=O)O)c1

>  <apo>
1

>  <freq>
1

>  <freq0>
0

>  <freq1>
1

>  <freqA>
0.99887151

>  <a_count>
33

$$$$

  MOE2015           2D

 20 20  0  0  1  0  0  0  0  0999 V2000
   -7.4050    0.0000    0.0000 S   0  0  0  0  0  0  0  0  0  0  0  0
   -8.9050    0.0000    0.0000 O   0  0  0  0  0  0  0  0  0  0  0  0
   -5.9050    0.0000    0.0000 O   0  0  0  0  0  0  0  0  0  0  0  0
   -7.4050    1.5000    0.0000 O   0  0  0  0  0  0  0  0  0  0  0  0
   -6.1050    2.2500    0.0000 C   0  0  0  0  0  0  0  0  0  0  0  0
   -6.1050    3.7500    0.0000 C   0  0  0  0  0  0  0  0  0  0  0  0
   -7.4050    4.5000    0.0000 O   0  0  0  0  0  0  0  0  0  0  0  0
   -4.8060    4.5000    0.0000 C   0  0  0  0  0  0  0  0  0  0  0  0
   -3.5070    3.7500    0.0000 C   0  0  0  0  0  0  0  0  0  0  0  0
   -3.5070    2.2500    0.0000 C   0  0  0  0  0  0  0  0  0  0  0  0
   -2.2080    1.5000    0.0000 C   0  0  2  0  0  0  0  0  0  0  0  0
   -2.2080    0.0000    0.0000 O   0  0  0  0  0  0  0  0  0  0  0  0
   -0.9090    2.2500    0.0000 C   0  0  1  0  0  0  0  0  0  0  0  0
   -0.9090    3.7500    0.0000 O   0  0  0  0  0  0  0  0  0  0  0  0
    0.3900    1.5000    0.0000 C   0  0  2  0  0  0  0  0  0  0  0  0
    0.3900    0.0000    0.0000 N   0  0  0  0  0  0  0  0  0  0  0  0
    1.6890    2.2500    0.0000 C   0  0  0  0  0  0  0  0  0  0  0  0
    2.9880    1.5000    0.0000 O   0  0  0  0  0  0  0  0  0  0  0  0
   -4.8060    1.5000    0.0000 C   0  0  0  0  0  0  0  0  0  0  0  0
   -7.4050   -1.5000    0.0000 O   0  0  0  0  0  0  0  0  0  0  0  0
  1  2  2  0  0  0  0
  1  3  2  0  0  0  0
  1  4  1  0  0  0  0
  1 20  1  0  0  0  0
  4  5  1  0  0  0  0
  5  6  1  0  0  0  0
  5 19  2  0  0  0  0
  6  7  1  0  0  0  0
  6  8  2  0  0  0  0
  8  9  1  0  0  0  0
  9 10  2  0  0  0  0
 10 11  1  0  0  0  0
 10 19  1  0  0  0  0
 11 12  1  1  0  0  0
 11 13  1  0  0  0  0
 13 14  1  1  0  0  0
 13 15  1  0  0  0  0
 15 16  1  1  0  0  0
 15 17  1  0  0  0  0
 17 18  2  0  0  0  0
M  END
>  <name>
S(=O)(=O)(Oc1c(O)ccc([C@H](O)[C@@H](O)[C@H]([N;amide])[C;amide]=O)c1)O

>  <apo>
2

>  <freq>
1

>  <freq0>
0

>  <freq1>
1

>  <freqA>
0.99887151

>  <a_count>
33

$$$$

  MOE2015           2D

 15 16  0  0  0  0  0  0  0  0999 V2000
    2.5000    4.3300    0.0000 N   0  0  0  0  0  0  0  0  0  0  0  0
    3.2500    3.0310    0.0000 C   0  0  0  0  0  0  0  0  0  0  0  0
    1.0000    4.3300    0.0000 C   0  0  0  0  0  0  0  0  0  0  0  0
    0.2500    5.6290    0.0000 C   0  0  0  0  0  0  0  0  0  0  0  0
   -1.2500    5.6290    0.0000 N   0  0  0  0  0  0  0  0  0  0  0  0
   -2.0000    4.3300    0.0000 C   0  0  0  0  0  0  0  0  0  0  0  0
   -3.5000    4.3300    0.0000 N   0  0  0  0  0  0  0  0  0  0  0  0
   -4.2500    5.6290    0.0000 C   0  0  0  0  0  0  0  0  0  0  0  0
   -5.7500    5.6290    0.0000 C   0  0  0  0  0  0  0  0  0  0  0  0
   -6.5000    4.3300    0.0000 N   0  0  0  0  0  0  0  0  0  0  0  0
   -8.0000    4.3300    0.0000 C   0  0  0  0  0  0  0  0  0  0  0  0
   -5.7500    3.0310    0.0000 C   0  0  0  0  0  0  0  0  0  0  0  0
   -4.2500    3.0310    0.0000 C   0  0  0  0  0  0  0  0  0  0  0  0
   -1.2500    3.0310    0.0000 C   0  0  0  0  0  0  0  0  0  0  0  0
    0.2500    3.0310    0.0000 C   0  0  0  0  0  0  0  0  0  0  0  0
  1  2  1  0  0  0  0
  1  3  1  0  0  0  0
  3  4  1  0  0  0  0
  3 15  2  0  0  0  0
  4  5  2  0  0  0  0
  5  6  1  0  0  0  0
  6  7  1  0  0  0  0
  6 14  2  0  0  0  0
  7  8  1  0  0  0  0
  7 13  1  0  0  0  0
  8  9  1  0  0  0  0
  9 10  1  0  0  0  0
 10 11  1  0  0  0  0
 10 12  1  0  0  0  0
 12 13  1  0  0  0  0
 14 15  1  0  0  0  0
M  END
>  <name>
[N;amide](C)c1cnc(N2CCN(C)CC2)c[c;biphenyl]1

>  <apo>
2

>  <freq>
1

>  <freq0>
0

>  <freq1>
1

>  <freqA>
0.99887151

>  <a_count>
33

$$$$

  MOE2015           2D

 13 15  0  0  1  0  0  0  0  0999 V2000
    7.9300   -2.4460    0.0000 O   0  0  0  0  0  0  0  0  0  0  0  0
    6.4300   -2.4490    0.0000 C   0  0  0  0  0  0  0  0  0  0  0  0
    5.2650   -2.0200    0.0000 C   0  0  0  0  0  0  0  0  0  0  0  0
    4.3650   -0.4690    0.0000 C   0  0  2  0  0  0  0  0  0  0  0  0
    2.9440   -1.0050    0.0000 N   0  3  0  0  0  0  0  0  0  0  0  0
    4.1660   -1.4910    0.0000 C   0  0  2  0  0  0  0  0  0  0  0  0
    4.9990   -2.9810    0.0000 C   0  0  0  0  0  0  0  0  0  0  0  0
    5.0010   -0.3170    0.0000 C   0  0  0  0  0  0  0  0  0  0  0  0
    5.0260    1.0160    0.0000 C   0  0  0  0  0  0  0  0  0  0  0  0
    2.1080    0.2400    0.0000 C   0  0  0  0  0  0  0  0  0  0  0  0
    0.6650   -0.1710    0.0000 C   0  0  0  0  0  0  0  0  0  0  0  0
    0.6100   -1.6700    0.0000 C   0  0  0  0  0  0  0  0  0  0  0  0
    2.0190   -2.1850    0.0000 C   0  0  0  0  0  0  0  0  0  0  0  0
  1  2  1  0  0  0  0
  2  3  1  0  0  0  0
  2  7  1  0  0  0  0
  4  3  1  6  0  0  0
  4  5  1  0  0  0  0
  4  9  1  0  0  0  0
  6  5  1  1  0  0  0
  5 10  1  0  0  0  0
  5 13  1  0  0  0  0
  6  7  1  0  0  0  0
  6  8  1  0  0  0  0
  8  9  1  0  0  0  0
 10 11  1  0  0  0  0
 11 12  1  0  0  0  0
 12 13  1  0  0  0  0
M  CHG  1   5   1
M  END
>  <name>
[O;ester]C1C[C@@H]2[N+]3([C@H](C1)CC2)CCCC3

>  <apo>
1

>  <freq>
1

>  <freq0>
0

>  <freq1>
1

>  <freqA>
0.99887151

>  <a_count>
33

$$$$

  MOE2015           2D

 17 18  0  0  0  0  0  0  0  0999 V2000
    0.0000    0.0000    0.0000 O   0  0  0  0  0  0  0  0  0  0  0  0
    1.5000    0.0000    0.0000 C   0  0  0  0  0  0  0  0  0  0  0  0
    2.2500   -1.2990    0.0000 C   0  0  0  0  0  0  0  0  0  0  0  0
    3.7500   -1.2990    0.0000 C   0  0  0  0  0  0  0  0  0  0  0  0
    4.5000    0.0000    0.0000 C   0  0  0  0  0  0  0  0  0  0  0  0
    6.0000    0.0000    0.0000 C   0  0  0  0  0  0  0  0  0  0  0  0
    6.0000    1.5000    0.0000 C   0  0  0  0  0  0  0  0  0  0  0  0
    6.0000   -1.5000    0.0000 C   0  0  0  0  0  0  0  0  0  0  0  0
    7.5000    0.0000    0.0000 C   0  0  0  0  0  0  0  0  0  0  0  0
    8.2500    1.2990    0.0000 C   0  0  0  0  0  0  0  0  0  0  0  0
    9.7500    1.2990    0.0000 C   0  0  0  0  0  0  0  0  0  0  0  0
   10.5000    0.0000    0.0000 C   0  0  0  0  0  0  0  0  0  0  0  0
   12.0000    0.0000    0.0000 O   0  0  0  0  0  0  0  0  0  0  0  0
    9.7500   -1.2990    0.0000 C   0  0  0  0  0  0  0  0  0  0  0  0
    8.2500   -1.2990    0.0000 C   0  0  0  0  0  0  0  0  0  0  0  0
    3.7500    1.2990    0.0000 C   0  0  0  0  0  0  0  0  0  0  0  0
    2.2500    1.2990    0.0000 C   0  0  0  0  0  0  0  0  0  0  0  0
  1  2  1  0  0  0  0
  2  3  1  0  0  0  0
  2 17  2  0  0  0  0
  3  4  2  0  0  0  0
  4  5  1  0  0  0  0
  5  6  1  0  0  0  0
  5 16  2  0  0  0  0
  6  7  1  0  0  0  0
  6  8  1  0  0  0  0
  6  9  1  0  0  0  0
  9 10  1  0  0  0  0
  9 15  2  0  0  0  0
 10 11  2  0  0  0  0
 11 12  1  0  0  0  0
 12 13  1  0  0  0  0
 12 14  2  0  0  0  0
 14 15  1  0  0  0  0
 16 17  1  0  0  0  0
M  END
>  <name>
[O;ether]c1ccc(C(C)(C)c2ccc([O;ether])cc2)cc1

>  <apo>
2

>  <freq>
1

>  <freq0>
0

>  <freq1>
1

>  <freqA>
0.99887151

>  <a_count>
33

$$$$

  MOE2015           2D

 20 22  0  0  1  0  0  0  0  0999 V2000
   -1.0810   -0.9350    0.0000 S   0  0  2  0  0  0  0  0  0  0  0  0
   -1.8310   -2.2340    0.0000 O   0  0  0  0  0  0  0  0  0  0  0  0
   -1.8310    0.3640    0.0000 C   0  0  0  0  0  0  0  0  0  0  0  0
   -3.3310    0.3640    0.0000 C   0  0  0  0  0  0  0  0  0  0  0  0
   -4.0810    1.6630    0.0000 C   0  0  0  0  0  0  0  0  0  0  0  0
   -3.3310    2.9620    0.0000 C   0  0  0  0  0  0  0  0  0  0  0  0
   -5.5810    1.6630    0.0000 C   0  0  0  0  0  0  0  0  0  0  0  0
   -6.3310    2.9620    0.0000 O   0  0  0  0  0  0  0  0  0  0  0  0
   -6.3310    0.3640    0.0000 C   0  0  0  0  0  0  0  0  0  0  0  0
   -5.5810   -0.9350    0.0000 C   0  0  0  0  0  0  0  0  0  0  0  0
   -4.0810   -0.9350    0.0000 N   0  0  0  0  0  0  0  0  0  0  0  0
    0.4190   -0.9350    0.0000 C   0  0  0  0  0  0  0  0  0  0  0  0
    1.3010    0.2790    0.0000 N   0  0  0  0  0  0  0  0  0  0  0  0
    2.7280   -0.1850    0.0000 C   0  0  0  0  0  0  0  0  0  0  0  0
    2.7280   -1.6850    0.0000 C   0  0  0  0  0  0  0  0  0  0  0  0
    1.3010   -2.1490    0.0000 N   0  0  0  0  0  0  0  0  0  0  0  0
    4.0270   -2.4350    0.0000 C   0  0  0  0  0  0  0  0  0  0  0  0
    5.3260   -1.6850    0.0000 C   0  0  0  0  0  0  0  0  0  0  0  0
    5.3260   -0.1850    0.0000 C   0  0  0  0  0  0  0  0  0  0  0  0
    4.0270    0.5650    0.0000 C   0  0  0  0  0  0  0  0  0  0  0  0
  1  2  2  0  0  0  0
  1  3  1  0  0  0  0
  1 12  1  6  0  0  0
  3  4  1  0  0  0  0
  4  5  2  0  0  0  0
  4 11  1  0  0  0  0
  5  6  1  0  0  0  0
  5  7  1  0  0  0  0
  7  8  1  0  0  0  0
  7  9  2  0  0  0  0
  9 10  1  0  0  0  0
 10 11  2  0  0  0  0
 12 13  1  0  0  0  0
 12 16  2  0  0  0  0
 13 14  1  0  0  0  0
 14 15  2  0  0  0  0
 14 20  1  0  0  0  0
 15 16  1  0  0  0  0
 15 17  1  0  0  0  0
 17 18  2  0  0  0  0
 18 19  1  0  0  0  0
 19 20  2  0  0  0  0
M  END
>  <name>
[S@@H0](=O)(Cc1c(C)c([O;ether])ccn1)c1[nH]c2c(n1)cccc2

>  <apo>
1

>  <freq>
1

>  <freq0>
0

>  <freq1>
1

>  <freqA>
0.99887151

>  <a_count>
33

$$$$

  MOE2015           2D

 21 23  0  0  0  0  0  0  0  0999 V2000
   -8.2410   -1.3050    0.0000 S   0  0  0  0  0  0  0  0  0  0  0  0
   -9.6680   -1.7690    0.0000 O   0  0  0  0  0  0  0  0  0  0  0  0
   -7.1270   -2.3090    0.0000 O   0  0  0  0  0  0  0  0  0  0  0  0
   -7.9300    0.1620    0.0000 C   0  0  0  0  0  0  0  0  0  0  0  0
   -6.5590    0.7720    0.0000 C   0  0  0  0  0  0  0  0  0  0  0  0
   -5.2600    0.0220    0.0000 C   0  0  0  0  0  0  0  0  0  0  0  0
   -5.2600   -1.4780    0.0000 O   0  0  0  0  0  0  0  0  0  0  0  0
   -3.9610    0.7720    0.0000 C   0  0  0  0  0  0  0  0  0  0  0  0
   -2.6620    0.0220    0.0000 C   0  0  0  0  0  0  0  0  0  0  0  0
   -1.3630    0.7720    0.0000 C   0  0  0  0  0  0  0  0  0  0  0  0
   -1.3630    2.2720    0.0000 C   0  0  0  0  0  0  0  0  0  0  0  0
   -0.0640    0.0220    0.0000 C   0  0  0  0  0  0  0  0  0  0  0  0
   -0.0640   -1.4780    0.0000 C   0  0  0  0  0  0  0  0  0  0  0  0
    1.0510   -2.4820    0.0000 O   0  0  0  0  0  0  0  0  0  0  0  0
    0.4410   -3.8520    0.0000 C   0  0  0  0  0  0  0  0  0  0  0  0
   -1.0510   -3.6950    0.0000 O   0  0  0  0  0  0  0  0  0  0  0  0
   -1.3630   -2.2280    0.0000 C   0  0  0  0  0  0  0  0  0  0  0  0
   -2.6620   -1.4780    0.0000 C   0  0  0  0  0  0  0  0  0  0  0  0
   -6.7160    2.2640    0.0000 S   0  0  0  0  0  0  0  0  0  0  0  0
   -8.1830    2.5760    0.0000 C   0  0  0  0  0  0  0  0  0  0  0  0
   -8.9330    1.2770    0.0000 C   0  0  0  0  0  0  0  0  0  0  0  0
  1  2  2  0  0  0  0
  1  3  2  0  0  0  0
  1  4  1  0  0  0  0
  4  5  2  0  0  0  0
  4 21  1  0  0  0  0
  5  6  1  0  0  0  0
  5 19  1  0  0  0  0
  6  7  2  0  0  0  0
  6  8  1  0  0  0  0
  8  9  1  0  0  0  0
  9 10  1  0  0  0  0
  9 18  2  0  0  0  0
 10 11  1  0  0  0  0
 10 12  2  0  0  0  0
 12 13  1  0  0  0  0
 13 14  1  0  0  0  0
 13 17  2  0  0  0  0
 14 15  1  0  0  0  0
 15 16  1  0  0  0  0
 16 17  1  0  0  0  0
 17 18  1  0  0  0  0
 19 20  1  0  0  0  0
 20 21  2  0  0  0  0
M  END
>  <name>
[SH;so2amide](=O)(=O)c1c(C(=O)Cc2c(C)cc3OCOc3c2)scc1

>  <apo>
1

>  <freq>
1

>  <freq0>
0

>  <freq1>
1

>  <freqA>
0.99887151

>  <a_count>
33

$$$$

  MOE2015           2D

 20 23  0  0  0  0  0  0  0  0999 V2000
   -0.2580    0.1880    0.0000 Br  0  0  0  0  0  0  0  0  0  0  0  0
   -0.7220    1.6140    0.0000 C   0  0  0  0  0  0  0  0  0  0  0  0
    0.1600    2.8280    0.0000 N   0  0  0  0  0  0  0  0  0  0  0  0
   -0.7220    4.0410    0.0000 C   0  0  0  0  0  0  0  0  0  0  0  0
   -0.2580    5.4680    0.0000 S   0  0  0  0  0  0  0  0  0  0  0  0
   -2.1480    3.5780    0.0000 N   0  0  0  0  0  0  0  0  0  0  0  0
   -2.1480    2.0780    0.0000 N   0  0  0  0  0  0  0  0  0  0  0  0
    1.6600    2.8280    0.0000 C   0  0  0  0  0  0  0  0  0  0  0  0
    2.4100    4.1270    0.0000 C   0  0  0  0  0  0  0  0  0  0  0  0
    3.9100    4.1270    0.0000 C   0  0  0  0  0  0  0  0  0  0  0  0
    4.6600    2.8280    0.0000 C   0  0  0  0  0  0  0  0  0  0  0  0
    6.1600    2.8280    0.0000 C   0  0  0  0  0  0  0  0  0  0  0  0
    7.4590    3.5780    0.0000 C   0  0  0  0  0  0  0  0  0  0  0  0
    7.4590    2.0780    0.0000 C   0  0  0  0  0  0  0  0  0  0  0  0
    3.9100    1.5290    0.0000 C   0  0  0  0  0  0  0  0  0  0  0  0
    2.4100    1.5290    0.0000 C   0  0  0  0  0  0  0  0  0  0  0  0
    4.6600    5.4260    0.0000 C   0  0  0  0  0  0  0  0  0  0  0  0
    3.9100    6.7250    0.0000 C   0  0  0  0  0  0  0  0  0  0  0  0
    2.4100    6.7250    0.0000 C   0  0  0  0  0  0  0  0  0  0  0  0
    1.6600    5.4260    0.0000 C   0  0  0  0  0  0  0  0  0  0  0  0
  1  2  1  0  0  0  0
  2  3  1  0  0  0  0
  2  7  2  0  0  0  0
  3  4  1  0  0  0  0
  3  8  1  0  0  0  0
  4  5  1  0  0  0  0
  4  6  2  0  0  0  0
  6  7  1  0  0  0  0
  8  9  1  0  0  0  0
  8 16  2  0  0  0  0
  9 10  1  0  0  0  0
  9 20  2  0  0  0  0
 10 11  1  0  0  0  0
 10 17  2  0  0  0  0
 11 12  1  0  0  0  0
 11 15  2  0  0  0  0
 12 13  1  0  0  0  0
 12 14  1  0  0  0  0
 13 14  1  0  0  0  0
 15 16  1  0  0  0  0
 17 18  1  0  0  0  0
 18 19  2  0  0  0  0
 19 20  1  0  0  0  0
M  END
>  <name>
Brc1n(c([S;thioether])nn1)-c1c2c(c(C3CC3)cc1)cccc2

>  <apo>
1

>  <freq>
1

>  <freq0>
0

>  <freq1>
1

>  <freqA>
0.99887151

>  <a_count>
32

$$$$

  MOE2015           2D

 10  9  0  0  0  0  0  0  0  0999 V2000
    1.4000    0.3750    0.0000 C   0  0  0  0  0  0  0  0  0  0  0  0
    0.1000   -0.3750    0.0000 C   0  0  0  0  0  0  0  0  0  0  0  0
   -1.1990    0.3750    0.0000 C   0  0  0  0  0  0  0  0  0  0  0  0
   -2.4980   -0.3750    0.0000 C   0  0  0  0  0  0  0  0  0  0  0  0
   -3.7970    0.3750    0.0000 C   0  0  0  0  0  0  0  0  0  0  0  0
   -5.0960   -0.3750    0.0000 C   0  0  0  0  0  0  0  0  0  0  0  0
    2.6990   -0.3750    0.0000 C   0  0  0  0  0  0  0  0  0  0  0  0
    3.9980    0.3750    0.0000 C   0  0  0  0  0  0  0  0  0  0  0  0
    5.2970   -0.3750    0.0000 C   0  0  0  0  0  0  0  0  0  0  0  0
    6.5960    0.3750    0.0000 C   0  0  0  0  0  0  0  0  0  0  0  0
  1  2  1  0  0  0  0
  1  7  1  0  0  0  0
  2  3  1  0  0  0  0
  3  4  1  0  0  0  0
  4  5  1  0  0  0  0
  5  6  1  0  0  0  0
  7  8  1  0  0  0  0
  8  9  1  0  0  0  0
  9 10  1  0  0  0  0
M  END
>  <name>
C(CCCCC)CCC[C;amine]

>  <apo>
1

>  <freq>
1

>  <freq0>
0

>  <freq1>
1

>  <freqA>
0.99887151

>  <a_count>
32

$$$$

  MOE2015           2D

 10  9  0  0  0  0  0  0  0  0999 V2000
    1.4000    0.3750    0.0000 C   0  0  0  0  0  0  0  0  0  0  0  0
    0.1000   -0.3750    0.0000 C   0  0  0  0  0  0  0  0  0  0  0  0
   -1.1990    0.3750    0.0000 C   0  0  0  0  0  0  0  0  0  0  0  0
   -2.4980   -0.3750    0.0000 C   0  0  0  0  0  0  0  0  0  0  0  0
   -3.7970    0.3750    0.0000 C   0  0  0  0  0  0  0  0  0  0  0  0
   -5.0960   -0.3750    0.0000 C   0  0  0  0  0  0  0  0  0  0  0  0
    2.6990   -0.3750    0.0000 C   0  0  0  0  0  0  0  0  0  0  0  0
    3.9980    0.3750    0.0000 C   0  0  0  0  0  0  0  0  0  0  0  0
    5.2970   -0.3750    0.0000 C   0  0  0  0  0  0  0  0  0  0  0  0
    6.5960    0.3750    0.0000 C   0  0  0  0  0  0  0  0  0  0  0  0
  1  2  1  0  0  0  0
  1  7  1  0  0  0  0
  2  3  1  0  0  0  0
  3  4  1  0  0  0  0
  4  5  1  0  0  0  0
  5  6  1  0  0  0  0
  7  8  1  0  0  0  0
  8  9  1  0  0  0  0
  9 10  1  0  0  0  0
M  END
>  <name>
C(CCCCC)CCC[C;quatN]

>  <apo>
1

>  <freq>
1

>  <freq0>
0

>  <freq1>
1

>  <freqA>
0.99887151

>  <a_count>
32

$$$$

  MOE2015           2D

 10  9  0  0  0  0  0  0  0  0999 V2000
    1.4000    0.3750    0.0000 C   0  0  0  0  0  0  0  0  0  0  0  0
    0.1000   -0.3750    0.0000 C   0  0  0  0  0  0  0  0  0  0  0  0
   -1.1990    0.3750    0.0000 C   0  0  0  0  0  0  0  0  0  0  0  0
   -2.4980   -0.3750    0.0000 C   0  0  0  0  0  0  0  0  0  0  0  0
   -3.7970    0.3750    0.0000 C   0  0  0  0  0  0  0  0  0  0  0  0
   -5.0960   -0.3750    0.0000 C   0  0  0  0  0  0  0  0  0  0  0  0
    2.6990   -0.3750    0.0000 C   0  0  0  0  0  0  0  0  0  0  0  0
    3.9980    0.3750    0.0000 C   0  0  0  0  0  0  0  0  0  0  0  0
    5.2970   -0.3750    0.0000 C   0  0  0  0  0  0  0  0  0  0  0  0
    6.5960    0.3750    0.0000 C   0  0  0  0  0  0  0  0  0  0  0  0
  1  2  1  0  0  0  0
  1  7  1  0  0  0  0
  2  3  1  0  0  0  0
  3  4  1  0  0  0  0
  4  5  1  0  0  0  0
  5  6  1  0  0  0  0
  7  8  1  0  0  0  0
  8  9  1  0  0  0  0
  9 10  1  0  0  0  0
M  END
>  <name>
C(CCCC[C;quatN])CCCC

>  <apo>
1

>  <freq>
1

>  <freq0>
0

>  <freq1>
1

>  <freqA>
0.99887151

>  <a_count>
32

$$$$

  MOE2015           2D

 10  9  0  0  0  0  0  0  0  0999 V2000
    1.4000    0.3750    0.0000 C   0  0  0  0  0  0  0  0  0  0  0  0
    0.1000   -0.3750    0.0000 C   0  0  0  0  0  0  0  0  0  0  0  0
   -1.1990    0.3750    0.0000 C   0  0  0  0  0  0  0  0  0  0  0  0
   -2.4980   -0.3750    0.0000 C   0  0  0  0  0  0  0  0  0  0  0  0
   -3.7970    0.3750    0.0000 C   0  0  0  0  0  0  0  0  0  0  0  0
   -5.0960   -0.3750    0.0000 C   0  0  0  0  0  0  0  0  0  0  0  0
    2.6990   -0.3750    0.0000 C   0  0  0  0  0  0  0  0  0  0  0  0
    3.9980    0.3750    0.0000 C   0  0  0  0  0  0  0  0  0  0  0  0
    5.2970   -0.3750    0.0000 C   0  0  0  0  0  0  0  0  0  0  0  0
    6.5960    0.3750    0.0000 C   0  0  0  0  0  0  0  0  0  0  0  0
  1  2  1  0  0  0  0
  1  7  1  0  0  0  0
  2  3  1  0  0  0  0
  3  4  1  0  0  0  0
  4  5  1  0  0  0  0
  5  6  1  0  0  0  0
  7  8  1  0  0  0  0
  8  9  1  0  0  0  0
  9 10  1  0  0  0  0
M  END
>  <name>
C(CCCC[C;quatN])CCC[C;quatN]

>  <apo>
2

>  <freq>
1

>  <freq0>
0

>  <freq1>
1

>  <freqA>
0.99887151

>  <a_count>
32

$$$$

  MOE2015           2D

 21 22  0  0  0  0  0  0  0  0999 V2000
   -2.6680    2.6680    0.0000 Cl  0  0  0  0  0  0  0  0  0  0  0  0
   -2.6680    4.1680    0.0000 C   0  0  0  0  0  0  0  0  0  0  0  0
   -1.3690    4.9180    0.0000 C   0  0  0  0  0  0  0  0  0  0  0  0
   -0.0700    4.1680    0.0000 C   0  0  0  0  0  0  0  0  0  0  0  0
    1.2290    4.9180    0.0000 N   0  0  0  0  0  0  0  0  0  0  0  0
    2.5280    4.1680    0.0000 O   0  0  0  0  0  0  0  0  0  0  0  0
    3.8270    4.9180    0.0000 C   0  0  0  0  0  0  0  0  0  0  0  0
    5.1260    4.1680    0.0000 C   0  0  0  0  0  0  0  0  0  0  0  0
    6.4250    4.9180    0.0000 C   0  0  0  0  0  0  0  0  0  0  0  0
    6.4250    6.4180    0.0000 Cl  0  0  0  0  0  0  0  0  0  0  0  0
    7.7240    4.1680    0.0000 C   0  0  0  0  0  0  0  0  0  0  0  0
    7.7240    2.6680    0.0000 C   0  0  0  0  0  0  0  0  0  0  0  0
    9.0230    1.9180    0.0000 Cl  0  0  0  0  0  0  0  0  0  0  0  0
    6.4250    1.9180    0.0000 C   0  0  0  0  0  0  0  0  0  0  0  0
    5.1260    2.6680    0.0000 C   0  0  0  0  0  0  0  0  0  0  0  0
   -0.0700    2.6680    0.0000 C   0  0  0  0  0  0  0  0  0  0  0  0
   -1.3690    6.4180    0.0000 C   0  0  0  0  0  0  0  0  0  0  0  0
   -2.6680    7.1680    0.0000 C   0  0  0  0  0  0  0  0  0  0  0  0
   -3.9670    6.4180    0.0000 C   0  0  0  0  0  0  0  0  0  0  0  0
   -5.2660    7.1680    0.0000 Cl  0  0  0  0  0  0  0  0  0  0  0  0
   -3.9670    4.9180    0.0000 C   0  0  0  0  0  0  0  0  0  0  0  0
  1  2  1  0  0  0  0
  2  3  1  0  0  0  0
  2 21  2  0  0  0  0
  3  4  1  0  0  0  0
  3 17  2  0  0  0  0
  4  5  2  0  0  0  0
  4 16  1  0  0  0  0
  5  6  1  0  0  0  0
  6  7  1  0  0  0  0
  7  8  1  0  0  0  0
  8  9  2  0  0  0  0
  8 15  1  0  0  0  0
  9 10  1  0  0  0  0
  9 11  1  0  0  0  0
 11 12  2  0  0  0  0
 12 13  1  0  0  0  0
 12 14  1  0  0  0  0
 14 15  2  0  0  0  0
 17 18  1  0  0  0  0
 18 19  2  0  0  0  0
 19 20  1  0  0  0  0
 19 21  1  0  0  0  0
M  END
>  <name>
Clc1c(/C(=N/OCc2c(Cl)cc(Cl)cc2)/[C;NaroC])ccc(Cl)c1

>  <apo>
1

>  <freq>
1

>  <freq0>
0

>  <freq1>
1

>  <freqA>
0.99887151

>  <a_count>
32

$$$$

  MOE2015           2D

 17 18  0  0  1  0  0  0  0  0999 V2000
    0.0000    5.1550    0.0000 Cl  0  0  0  0  0  0  0  0  0  0  0  0
   -0.7500    3.8560    0.0000 C   0  0  0  0  0  0  0  0  0  0  0  0
    0.0000    2.5570    0.0000 C   0  0  0  0  0  0  0  0  0  0  0  0
    1.5000    2.5570    0.0000 C   0  0  3  0  0  0  0  0  0  0  0  0
    1.5000    4.0570    0.0000 O   0  0  0  0  0  0  0  0  0  0  0  0
    1.5000    1.0570    0.0000 C   0  0  0  0  0  0  0  0  0  0  0  0
    2.7990    0.3070    0.0000 C   0  0  0  0  0  0  0  0  0  0  0  0
    3.0000    2.5570    0.0000 C   0  0  0  0  0  0  0  0  0  0  0  0
    3.7500    3.8560    0.0000 C   0  0  0  0  0  0  0  0  0  0  0  0
    5.2500    3.8560    0.0000 C   0  0  0  0  0  0  0  0  0  0  0  0
    6.0000    2.5570    0.0000 C   0  0  0  0  0  0  0  0  0  0  0  0
    5.2500    1.2580    0.0000 C   0  0  0  0  0  0  0  0  0  0  0  0
    3.7500    1.2580    0.0000 C   0  0  0  0  0  0  0  0  0  0  0  0
   -0.7500    1.2580    0.0000 C   0  0  0  0  0  0  0  0  0  0  0  0
   -2.2500    1.2580    0.0000 C   0  0  0  0  0  0  0  0  0  0  0  0
   -3.0000    2.5570    0.0000 C   0  0  0  0  0  0  0  0  0  0  0  0
   -2.2500    3.8560    0.0000 C   0  0  0  0  0  0  0  0  0  0  0  0
  1  2  1  0  0  0  0
  2  3  1  0  0  0  0
  2 17  2  0  0  0  0
  3  4  1  0  0  0  0
  3 14  2  0  0  0  0
  4  5  1  0  0  0  0
  4  6  1  0  0  0  0
  4  8  1  0  0  0  0
  6  7  1  0  0  0  0
  8  9  1  0  0  0  0
  8 13  2  0  0  0  0
  9 10  2  0  0  0  0
 10 11  1  0  0  0  0
 11 12  2  0  0  0  0
 12 13  1  0  0  0  0
 14 15  1  0  0  0  0
 15 16  2  0  0  0  0
 16 17  1  0  0  0  0
M  END
>  <name>
Clc1c(C(O)(C[C;amine])c2ccccc2)cccc1

>  <apo>
1

>  <freq>
1

>  <freq0>
0

>  <freq1>
1

>  <freqA>
0.99887151

>  <a_count>
32

$$$$

  MOE2015           2D

 18 20  0  0  1  0  0  0  0  0999 V2000
    9.4600   -0.7850    0.0000 Cl  0  0  0  0  0  0  0  0  0  0  0  0
    8.1610   -1.5350    0.0000 C   0  0  0  0  0  0  0  0  0  0  0  0
    8.1610   -3.0350    0.0000 C   0  0  0  0  0  0  0  0  0  0  0  0
    9.4600   -3.7850    0.0000 Cl  0  0  0  0  0  0  0  0  0  0  0  0
    6.8620   -3.7850    0.0000 C   0  0  0  0  0  0  0  0  0  0  0  0
    5.5630   -3.0350    0.0000 C   0  0  0  0  0  0  0  0  0  0  0  0
    5.5630   -1.5350    0.0000 C   0  0  0  0  0  0  0  0  0  0  0  0
    4.2640   -0.7850    0.0000 C   0  0  1  0  0  0  0  0  0  0  0  0
    2.9650   -1.5350    0.0000 C   0  0  0  0  0  0  0  0  0  0  0  0
    1.6660   -0.7850    0.0000 C   0  0  0  0  0  0  0  0  0  0  0  0
    0.3670   -1.5350    0.0000 C   0  0  0  0  0  0  0  0  0  0  0  0
    0.3670   -3.0350    0.0000 C   0  0  0  0  0  0  0  0  0  0  0  0
    1.6660   -3.7850    0.0000 C   0  0  0  0  0  0  0  0  0  0  0  0
    2.9650   -3.0350    0.0000 C   0  0  0  0  0  0  0  0  0  0  0  0
    1.6660    0.7150    0.0000 C   0  0  0  0  0  0  0  0  0  0  0  0
    2.9650    1.4650    0.0000 C   0  0  0  0  0  0  0  0  0  0  0  0
    4.2640    0.7150    0.0000 C   0  0  0  0  0  0  0  0  0  0  0  0
    6.8620   -0.7850    0.0000 C   0  0  0  0  0  0  0  0  0  0  0  0
  1  2  1  0  0  0  0
  2  3  1  0  0  0  0
  2 18  2  0  0  0  0
  3  4  1  0  0  0  0
  3  5  2  0  0  0  0
  5  6  1  0  0  0  0
  6  7  2  0  0  0  0
  8  7  1  1  0  0  0
  7 18  1  0  0  0  0
  8  9  1  0  0  0  0
  8 17  1  0  0  0  0
  9 10  2  0  0  0  0
  9 14  1  0  0  0  0
 10 11  1  0  0  0  0
 10 15  1  0  0  0  0
 11 12  2  0  0  0  0
 12 13  1  0  0  0  0
 13 14  2  0  0  0  0
 15 16  1  0  0  0  0
 16 17  1  0  0  0  0
M  END
>  <name>
Clc1c(Cl)ccc([C@H]2c3c(cccc3)[C;amine]CC2)c1

>  <apo>
1

>  <freq>
1

>  <freq0>
0

>  <freq1>
1

>  <freqA>
0.99887151

>  <a_count>
32

$$$$

  MOE2015           2D

 19 21  0  0  0  0  0  0  0  0999 V2000
   -0.0630   -3.0390    0.0000 Cl  0  0  0  0  0  0  0  0  0  0  0  0
    1.4360   -3.1010    0.0000 C   0  0  0  0  0  0  0  0  0  0  0  0
    2.2390   -1.8340    0.0000 C   0  0  0  0  0  0  0  0  0  0  0  0
    3.7380   -1.8960    0.0000 C   0  0  0  0  0  0  0  0  0  0  0  0
    4.3420   -0.5240    0.0000 C   0  0  0  0  0  0  0  0  0  0  0  0
    3.3670    0.6170    0.0000 O   0  0  0  0  0  0  0  0  0  0  0  0
    3.8670    2.0310    0.0000 C   0  0  0  0  0  0  0  0  0  0  0  0
    2.8920    3.1710    0.0000 C   0  0  0  0  0  0  0  0  0  0  0  0
    5.7920   -0.1400    0.0000 C   0  0  0  0  0  0  0  0  0  0  0  0
    6.9950   -1.0350    0.0000 C   0  0  0  0  0  0  0  0  0  0  0  0
    7.0460   -2.5340    0.0000 C   0  0  0  0  0  0  0  0  0  0  0  0
    5.9060   -3.5110    0.0000 S   0  0  0  0  0  0  0  0  0  0  0  0
    4.4330   -3.2250    0.0000 C   0  0  0  0  0  0  0  0  0  0  0  0
    3.6300   -4.4920    0.0000 C   0  0  0  0  0  0  0  0  0  0  0  0
    2.1320   -4.4300    0.0000 C   0  0  0  0  0  0  0  0  0  0  0  0
    8.3700   -3.2400    0.0000 C   0  0  0  0  0  0  0  0  0  0  0  0
    9.6430   -2.4470    0.0000 C   0  0  0  0  0  0  0  0  0  0  0  0
    9.5920   -0.9480    0.0000 C   0  0  0  0  0  0  0  0  0  0  0  0
    8.2680   -0.2420    0.0000 C   0  0  0  0  0  0  0  0  0  0  0  0
  1  2  1  0  0  0  0
  2  3  1  0  0  0  0
  2 15  2  0  0  0  0
  3  4  2  0  0  0  0
  4  5  1  0  0  0  0
  4 13  1  0  0  0  0
  5  6  1  0  0  0  0
  5  9  2  0  0  0  0
  6  7  1  0  0  0  0
  7  8  1  0  0  0  0
  9 10  1  0  0  0  0
 10 11  1  0  0  0  0
 10 19  2  0  0  0  0
 11 12  1  0  0  0  0
 11 16  2  0  0  0  0
 12 13  1  0  0  0  0
 13 14  2  0  0  0  0
 14 15  1  0  0  0  0
 16 17  1  0  0  0  0
 17 18  2  0  0  0  0
 18 19  1  0  0  0  0
M  END
>  <name>
Clc1cc2C(OC[C;amine])=Cc3c(Sc2cc1)cccc3

>  <apo>
1

>  <freq>
1

>  <freq0>
0

>  <freq1>
1

>  <freqA>
0.99887151

>  <a_count>
32

$$$$

  MOE2015           2D

 21 23  0  0  0  0  0  0  0  0999 V2000
   11.3630   -3.0450    0.0000 F   0  0  0  0  0  0  0  0  0  0  0  0
   10.0640   -2.2950    0.0000 C   0  0  0  0  0  0  0  0  0  0  0  0
   10.0640   -0.7950    0.0000 C   0  0  0  0  0  0  0  0  0  0  0  0
   11.3630   -0.0450    0.0000 C   0  0  0  0  0  0  0  0  0  0  0  0
   11.3630    1.4550    0.0000 O   0  0  0  0  0  0  0  0  0  0  0  0
    8.7650   -0.0450    0.0000 C   0  0  0  0  0  0  0  0  0  0  0  0
    7.4650   -0.7950    0.0000 C   0  0  0  0  0  0  0  0  0  0  0  0
    6.1660   -0.0450    0.0000 C   0  0  0  0  0  0  0  0  0  0  0  0
    4.8670   -0.7950    0.0000 C   0  0  0  0  0  0  0  0  0  0  0  0
    4.8670   -2.2950    0.0000 N   0  0  0  0  0  0  0  0  0  0  0  0
    3.5680   -3.0450    0.0000 N   0  0  0  0  0  0  0  0  0  0  0  0
    2.2690   -2.2950    0.0000 C   0  0  0  0  0  0  0  0  0  0  0  0
    0.9700   -3.0450    0.0000 O   0  0  0  0  0  0  0  0  0  0  0  0
    2.2690   -0.7950    0.0000 C   0  0  0  0  0  0  0  0  0  0  0  0
    3.5680   -0.0450    0.0000 C   0  0  0  0  0  0  0  0  0  0  0  0
    3.5680    1.4550    0.0000 C   0  0  0  0  0  0  0  0  0  0  0  0
    2.2690    2.2050    0.0000 C   0  0  0  0  0  0  0  0  0  0  0  0
    0.9700    1.4550    0.0000 C   0  0  0  0  0  0  0  0  0  0  0  0
    0.9700   -0.0450    0.0000 C   0  0  0  0  0  0  0  0  0  0  0  0
    7.4650   -2.2950    0.0000 C   0  0  0  0  0  0  0  0  0  0  0  0
    8.7650   -3.0450    0.0000 C   0  0  0  0  0  0  0  0  0  0  0  0
  1  2  1  0  0  0  0
  2  3  1  0  0  0  0
  2 21  2  0  0  0  0
  3  4  1  0  0  0  0
  3  6  2  0  0  0  0
  4  5  2  0  0  0  0
  6  7  1  0  0  0  0
  7  8  1  0  0  0  0
  7 20  2  0  0  0  0
  8  9  1  0  0  0  0
  9 10  2  0  0  0  0
  9 15  1  0  0  0  0
 10 11  1  0  0  0  0
 11 12  1  0  0  0  0
 12 13  2  0  0  0  0
 12 14  1  0  0  0  0
 14 15  1  0  0  0  0
 14 19  2  0  0  0  0
 15 16  2  0  0  0  0
 16 17  1  0  0  0  0
 17 18  2  0  0  0  0
 18 19  1  0  0  0  0
 20 21  1  0  0  0  0
M  END
>  <name>
Fc1c([C;amide]=O)cc(CC2=NNC(=O)c3c2cccc3)cc1

>  <apo>
1

>  <freq>
1

>  <freq0>
0

>  <freq1>
1

>  <freqA>
0.99887151

>  <a_count>
32

$$$$

  MOE2015           2D

 15 16  0  0  0  0  0  0  0  0999 V2000
    1.4500   -2.5110    0.0000 N   0  0  0  0  0  0  0  0  0  0  0  0
    2.2000   -1.2120    0.0000 C   0  0  0  0  0  0  0  0  0  0  0  0
    2.2000   -3.8110    0.0000 C   0  0  0  0  0  0  0  0  0  0  0  0
   -0.0500   -2.5110    0.0000 C   0  0  0  0  0  0  0  0  0  0  0  0
   -0.8000   -3.8110    0.0000 C   0  0  0  0  0  0  0  0  0  0  0  0
   -2.3000   -3.8110    0.0000 C   0  0  0  0  0  0  0  0  0  0  0  0
   -3.0500   -2.5110    0.0000 C   0  0  0  0  0  0  0  0  0  0  0  0
   -4.5500   -2.5110    0.0000 N   0  3  0  0  0  0  0  0  0  0  0  0
   -5.3000   -1.2120    0.0000 C   0  0  0  0  0  0  0  0  0  0  0  0
   -5.3000   -3.8110    0.0000 C   0  0  0  0  0  0  0  0  0  0  0  0
   -6.8000   -3.8110    0.0000 C   0  0  0  0  0  0  0  0  0  0  0  0
   -4.5500   -5.1100    0.0000 C   0  0  0  0  0  0  0  0  0  0  0  0
   -3.0500   -5.1100    0.0000 C   0  0  0  0  0  0  0  0  0  0  0  0
   -2.3000   -1.2120    0.0000 C   0  0  0  0  0  0  0  0  0  0  0  0
   -0.8000   -1.2120    0.0000 C   0  0  0  0  0  0  0  0  0  0  0  0
  1  2  1  0  0  0  0
  1  3  1  0  0  0  0
  1  4  1  0  0  0  0
  4  5  2  0  0  0  0
  4 15  1  0  0  0  0
  5  6  1  0  0  0  0
  6  7  1  0  0  0  0
  6 13  2  0  0  0  0
  7  8  2  0  0  0  0
  7 14  1  0  0  0  0
  8  9  1  0  0  0  0
  8 10  1  0  0  0  0
 10 11  1  0  0  0  0
 10 12  2  0  0  0  0
 12 13  1  0  0  0  0
 14 15  2  0  0  0  0
M  CHG  1   8   1
M  END
>  <name>
N(C)(C)c1cc2c([n+](C)c([C;olefin])cc2)cc1

>  <apo>
1

>  <freq>
1

>  <freq0>
0

>  <freq1>
1

>  <freqA>
0.99887151

>  <a_count>
32

$$$$

  MOE2015           2D

 14 13  0  0  0  0  0  0  0  0999 V2000
    0.1120   -3.6380    0.0000 O   0  0  0  0  0  0  0  0  0  0  0  0
    0.1120   -2.1380    0.0000 C   0  0  0  0  0  0  0  0  0  0  0  0
    1.4110   -1.3880    0.0000 N   0  0  0  0  0  0  0  0  0  0  0  0
    1.4110    0.1120    0.0000 O   0  0  0  0  0  0  0  0  0  0  0  0
    2.7100   -2.1380    0.0000 C   0  0  0  0  0  0  0  0  0  0  0  0
    4.0090   -1.3880    0.0000 C   0  0  0  0  0  0  0  0  0  0  0  0
    5.3080   -2.1380    0.0000 C   0  0  0  0  0  0  0  0  0  0  0  0
    6.6070   -1.3880    0.0000 C   0  0  0  0  0  0  0  0  0  0  0  0
    7.9060   -2.1380    0.0000 C   0  0  0  0  0  0  0  0  0  0  0  0
    9.2050   -1.3880    0.0000 N   0  0  0  0  0  0  0  0  0  0  0  0
   -1.1870   -1.3880    0.0000 C   0  0  0  0  0  0  0  0  0  0  0  0
   -2.4860   -2.1380    0.0000 C   0  0  0  0  0  0  0  0  0  0  0  0
   -3.7850   -1.3880    0.0000 C   0  0  0  0  0  0  0  0  0  0  0  0
   -5.0840   -2.1380    0.0000 O   0  0  0  0  0  0  0  0  0  0  0  0
  1  2  2  0  0  0  0
  2  3  1  0  0  0  0
  2 11  1  0  0  0  0
  3  4  1  0  0  0  0
  3  5  1  0  0  0  0
  5  6  1  0  0  0  0
  6  7  1  0  0  0  0
  7  8  1  0  0  0  0
  8  9  1  0  0  0  0
  9 10  1  0  0  0  0
 11 12  1  0  0  0  0
 12 13  1  0  0  0  0
 13 14  2  0  0  0  0
M  END
>  <name>
O=C(N(O)CCCCCN)CC[C;amide]=O

>  <apo>
1

>  <freq>
1

>  <freq0>
0

>  <freq1>
1

>  <freqA>
0.99887151

>  <a_count>
32

$$$$

  MOE2015           2D

 14 13  0  0  0  0  0  0  0  0999 V2000
    0.1120   -3.6380    0.0000 O   0  0  0  0  0  0  0  0  0  0  0  0
    0.1120   -2.1380    0.0000 C   0  0  0  0  0  0  0  0  0  0  0  0
    1.4110   -1.3880    0.0000 N   0  0  0  0  0  0  0  0  0  0  0  0
    1.4110    0.1120    0.0000 O   0  0  0  0  0  0  0  0  0  0  0  0
    2.7100   -2.1380    0.0000 C   0  0  0  0  0  0  0  0  0  0  0  0
    4.0090   -1.3880    0.0000 C   0  0  0  0  0  0  0  0  0  0  0  0
    5.3080   -2.1380    0.0000 C   0  0  0  0  0  0  0  0  0  0  0  0
    6.6070   -1.3880    0.0000 C   0  0  0  0  0  0  0  0  0  0  0  0
    7.9060   -2.1380    0.0000 C   0  0  0  0  0  0  0  0  0  0  0  0
    9.2050   -1.3880    0.0000 N   0  0  0  0  0  0  0  0  0  0  0  0
   -1.1870   -1.3880    0.0000 C   0  0  0  0  0  0  0  0  0  0  0  0
   -2.4860   -2.1380    0.0000 C   0  0  0  0  0  0  0  0  0  0  0  0
   -3.7850   -1.3880    0.0000 C   0  0  0  0  0  0  0  0  0  0  0  0
   -5.0840   -2.1380    0.0000 O   0  0  0  0  0  0  0  0  0  0  0  0
  1  2  2  0  0  0  0
  2  3  1  0  0  0  0
  2 11  1  0  0  0  0
  3  4  1  0  0  0  0
  3  5  1  0  0  0  0
  5  6  1  0  0  0  0
  6  7  1  0  0  0  0
  7  8  1  0  0  0  0
  8  9  1  0  0  0  0
  9 10  1  0  0  0  0
 11 12  1  0  0  0  0
 12 13  1  0  0  0  0
 13 14  2  0  0  0  0
M  END
>  <name>
O=C(N(O)CCCCC[N;amide])CC[C;amide]=O

>  <apo>
2

>  <freq>
1

>  <freq0>
0

>  <freq1>
1

>  <freqA>
0.99887151

>  <a_count>
32

$$$$

  MOE2015           2D

 16 16  0  0  1  0  0  0  0  0999 V2000
   -0.5720   -6.5720    0.0000 O   0  0  0  0  0  0  0  0  0  0  0  0
   -0.5720   -5.0720    0.0000 C   0  0  0  0  0  0  0  0  0  0  0  0
   -1.8710   -4.3220    0.0000 N   0  0  0  0  0  0  0  0  0  0  0  0
    0.7270   -4.3220    0.0000 C   0  0  0  0  0  0  0  0  0  0  0  0
    0.7270   -2.8220    0.0000 C   0  0  0  0  0  0  0  0  0  0  0  0
    2.0260   -2.0720    0.0000 C   0  0  0  0  0  0  0  0  0  0  0  0
    2.0260   -0.5720    0.0000 C   0  0  0  0  0  0  0  0  0  0  0  0
    3.3250   -2.8220    0.0000 C   0  0  0  0  0  0  0  0  0  0  0  0
    4.6240   -2.0720    0.0000 C   0  0  0  0  0  0  0  0  0  0  0  0
    5.9230   -2.8220    0.0000 C   0  0  2  0  0  0  0  0  0  0  0  0
    5.9230   -4.3220    0.0000 N   0  0  0  0  0  0  0  0  0  0  0  0
    7.2220   -2.0720    0.0000 C   0  0  0  0  0  0  0  0  0  0  0  0
    8.5210   -2.8220    0.0000 O   0  0  0  0  0  0  0  0  0  0  0  0
    3.3250   -4.3220    0.0000 C   0  0  0  0  0  0  0  0  0  0  0  0
    4.6240   -5.0720    0.0000 C   0  0  0  0  0  0  0  0  0  0  0  0
    2.0260   -5.0720    0.0000 C   0  0  0  0  0  0  0  0  0  0  0  0
  1  2  2  0  0  0  0
  2  3  1  0  0  0  0
  2  4  1  0  0  0  0
  4  5  1  0  0  0  0
  4 16  2  0  0  0  0
  5  6  2  0  0  0  0
  6  7  1  0  0  0  0
  6  8  1  0  0  0  0
  8  9  1  0  0  0  0
  8 14  2  0  0  0  0
  9 10  1  0  0  0  0
 10 11  1  1  0  0  0
 10 12  1  0  0  0  0
 12 13  2  0  0  0  0
 14 15  1  0  0  0  0
 14 16  1  0  0  0  0
M  END
>  <name>
O=C(N)c1cc(C)c(C[C@H](N)[C;amide]=O)c(C)c1

>  <apo>
1

>  <freq>
1

>  <freq0>
0

>  <freq1>
1

>  <freqA>
0.99887151

>  <a_count>
32

$$$$

  MOE2015           2D

 17 18  0  0  0  0  0  0  0  0999 V2000
   12.9740   -3.9550    0.0000 O   0  0  0  0  0  0  0  0  0  0  0  0
   11.4740   -3.9550    0.0000 C   0  0  0  0  0  0  0  0  0  0  0  0
   10.7240   -5.2540    0.0000 O   0  0  0  0  0  0  0  0  0  0  0  0
   10.7240   -2.6560    0.0000 C   0  0  0  0  0  0  0  0  0  0  0  0
    9.2240   -2.6560    0.0000 C   0  0  0  0  0  0  0  0  0  0  0  0
    8.4740   -1.3570    0.0000 C   0  0  0  0  0  0  0  0  0  0  0  0
    6.9740   -1.3570    0.0000 C   0  0  0  0  0  0  0  0  0  0  0  0
    6.0930   -0.1430    0.0000 N   0  0  0  0  0  0  0  0  0  0  0  0
    6.5560    1.2830    0.0000 C   0  0  0  0  0  0  0  0  0  0  0  0
    4.6660   -0.6070    0.0000 C   0  0  0  0  0  0  0  0  0  0  0  0
    4.6660   -2.1070    0.0000 C   0  0  0  0  0  0  0  0  0  0  0  0
    6.0930   -2.5700    0.0000 N   0  0  0  0  0  0  0  0  0  0  0  0
    3.3670   -2.8570    0.0000 C   0  0  0  0  0  0  0  0  0  0  0  0
    2.0680   -2.1070    0.0000 C   0  0  0  0  0  0  0  0  0  0  0  0
    0.7690   -2.8570    0.0000 N   0  0  0  0  0  0  0  0  0  0  0  0
    2.0680   -0.6070    0.0000 C   0  0  0  0  0  0  0  0  0  0  0  0
    3.3670    0.1430    0.0000 C   0  0  0  0  0  0  0  0  0  0  0  0
  1  2  2  0  0  0  0
  2  3  1  0  0  0  0
  2  4  1  0  0  0  0
  4  5  1  0  0  0  0
  5  6  1  0  0  0  0
  6  7  1  0  0  0  0
  7  8  1  0  0  0  0
  7 12  2  0  0  0  0
  8  9  1  0  0  0  0
  8 10  1  0  0  0  0
 10 11  1  0  0  0  0
 10 17  2  0  0  0  0
 11 12  1  0  0  0  0
 11 13  2  0  0  0  0
 13 14  1  0  0  0  0
 14 15  1  0  0  0  0
 14 16  2  0  0  0  0
 16 17  1  0  0  0  0
M  END
>  <name>
O=C(O)CCCc1n(C)c2c(n1)cc([N;amine])cc2

>  <apo>
1

>  <freq>
1

>  <freq0>
0

>  <freq1>
1

>  <freqA>
0.99887151

>  <a_count>
32

$$$$

  MOE2015           2D

 15 15  0  0  1  0  0  0  0  0999 V2000
    0.0000    0.0000    0.0000 O   0  0  0  0  0  0  0  0  0  0  0  0
    1.5000    0.0000    0.0000 C   0  0  0  0  0  0  0  0  0  0  0  0
    2.2500    1.2990    0.0000 O   0  0  0  0  0  0  0  0  0  0  0  0
    2.2500   -1.2990    0.0000 C   0  0  1  0  0  0  0  0  0  0  0  0
    3.7500   -1.2990    0.0000 N   0  0  0  0  0  0  0  0  0  0  0  0
    4.5000   -2.5980    0.0000 C   0  0  0  0  0  0  0  0  0  0  0  0
    6.0000   -2.5980    0.0000 C   0  0  0  0  0  0  0  0  0  0  0  0
    6.7500   -1.2990    0.0000 C   0  0  0  0  0  0  0  0  0  0  0  0
    8.2500   -1.2990    0.0000 C   0  0  0  0  0  0  0  0  0  0  0  0
    9.0000   -2.5980    0.0000 C   0  0  0  0  0  0  0  0  0  0  0  0
    8.2500   -3.8970    0.0000 C   0  0  0  0  0  0  0  0  0  0  0  0
    6.7500   -3.8970    0.0000 C   0  0  0  0  0  0  0  0  0  0  0  0
    1.5000   -2.5980    0.0000 C   0  0  0  0  0  0  0  0  0  0  0  0
    0.0000   -2.5980    0.0000 C   0  0  0  0  0  0  0  0  0  0  0  0
    2.2500   -3.8970    0.0000 C   0  0  0  0  0  0  0  0  0  0  0  0
  1  2  2  0  0  0  0
  2  3  1  0  0  0  0
  4  2  1  1  0  0  0
  4  5  1  0  0  0  0
  4 13  1  0  0  0  0
  5  6  1  0  0  0  0
  6  7  1  0  0  0  0
  7  8  1  0  0  0  0
  7 12  2  0  0  0  0
  8  9  2  0  0  0  0
  9 10  1  0  0  0  0
 10 11  2  0  0  0  0
 11 12  1  0  0  0  0
 13 14  1  0  0  0  0
 13 15  1  0  0  0  0
M  END
>  <name>
O=C(O)[C@@H]([N;amide]Cc1cc[c;biphenyl]cc1)C(C)C

>  <apo>
2

>  <freq>
1

>  <freq0>
0

>  <freq1>
1

>  <freqA>
0.99887151

>  <a_count>
32

$$$$

  MOE2015           2D

 17 18  0  0  1  0  0  0  0  0999 V2000
    6.7410    6.7410    0.0000 O   0  0  0  0  0  0  0  0  0  0  0  0
    6.7410    5.2410    0.0000 C   0  0  0  0  0  0  0  0  0  0  0  0
    8.0400    4.4910    0.0000 O   0  0  0  0  0  0  0  0  0  0  0  0
    5.4420    4.4910    0.0000 C   0  0  1  0  0  0  0  0  0  0  0  0
    5.4420    2.9910    0.0000 N   0  0  0  0  0  0  0  0  0  0  0  0
    4.1430    2.2410    0.0000 C   0  0  0  0  0  0  0  0  0  0  0  0
    2.8440    2.9910    0.0000 C   0  0  0  0  0  0  0  0  0  0  0  0
    2.8440    4.4910    0.0000 C   0  0  0  0  0  0  0  0  0  0  0  0
    1.5450    5.2410    0.0000 C   0  0  0  0  0  0  0  0  0  0  0  0
    0.2460    4.4910    0.0000 C   0  0  0  0  0  0  0  0  0  0  0  0
   -1.0530    5.2410    0.0000 O   0  0  0  0  0  0  0  0  0  0  0  0
   -1.0530    6.7410    0.0000 C   0  0  0  0  0  0  0  0  0  0  0  0
    0.2460    2.9910    0.0000 C   0  0  0  0  0  0  0  0  0  0  0  0
   -1.0530    2.2410    0.0000 O   0  0  0  0  0  0  0  0  0  0  0  0
   -1.0530    0.7410    0.0000 C   0  0  0  0  0  0  0  0  0  0  0  0
    1.5450    2.2410    0.0000 C   0  0  0  0  0  0  0  0  0  0  0  0
    4.1430    5.2410    0.0000 C   0  0  0  0  0  0  0  0  0  0  0  0
  1  2  2  0  0  0  0
  2  3  1  0  0  0  0
  4  2  1  1  0  0  0
  4  5  1  0  0  0  0
  4 17  1  0  0  0  0
  5  6  1  0  0  0  0
  6  7  1  0  0  0  0
  7  8  2  0  0  0  0
  7 16  1  0  0  0  0
  8  9  1  0  0  0  0
  8 17  1  0  0  0  0
  9 10  2  0  0  0  0
 10 11  1  0  0  0  0
 10 13  1  0  0  0  0
 11 12  1  0  0  0  0
 13 14  1  0  0  0  0
 13 16  2  0  0  0  0
 14 15  1  0  0  0  0
M  END
>  <name>
O=C(O)[C@H]1[N;amide]Cc2c(cc(OC)c(OC)c2)C1

>  <apo>
1

>  <freq>
1

>  <freq0>
0

>  <freq1>
1

>  <freqA>
0.99887151

>  <a_count>
32

$$$$

  MOE2015           2D

 16 17  0  0  0  0  0  0  0  0999 V2000
    0.9380    0.9380    0.0000 O   0  0  0  0  0  0  0  0  0  0  0  0
    0.9380   -0.5620    0.0000 C   0  0  0  0  0  0  0  0  0  0  0  0
   -0.3620   -1.3120    0.0000 O   0  0  0  0  0  0  0  0  0  0  0  0
   -1.6610   -0.5620    0.0000 C   0  0  0  0  0  0  0  0  0  0  0  0
   -1.6610    0.9380    0.0000 C   0  0  0  0  0  0  0  0  0  0  0  0
   -2.9600    1.6880    0.0000 C   0  0  0  0  0  0  0  0  0  0  0  0
   -4.2590    0.9370    0.0000 N   0  0  0  0  0  0  0  0  0  0  0  0
   -4.2590   -0.5630    0.0000 C   0  0  0  0  0  0  0  0  0  0  0  0
   -2.9600   -1.3130    0.0000 C   0  0  0  0  0  0  0  0  0  0  0  0
    2.2370   -1.3120    0.0000 N   0  0  0  0  0  0  0  0  0  0  0  0
    3.5360   -0.5620    0.0000 C   0  0  0  0  0  0  0  0  0  0  0  0
    3.5360    0.9380    0.0000 C   0  0  0  0  0  0  0  0  0  0  0  0
    4.8350    1.6870    0.0000 C   0  0  0  0  0  0  0  0  0  0  0  0
    6.1340    0.9370    0.0000 C   0  0  0  0  0  0  0  0  0  0  0  0
    6.1340   -0.5630    0.0000 C   0  0  0  0  0  0  0  0  0  0  0  0
    4.8350   -1.3130    0.0000 C   0  0  0  0  0  0  0  0  0  0  0  0
  1  2  2  0  0  0  0
  2  3  1  0  0  0  0
  2 10  1  0  0  0  0
  3  4  1  0  0  0  0
  4  5  1  0  0  0  0
  4  9  1  0  0  0  0
  5  6  1  0  0  0  0
  6  7  1  0  0  0  0
  7  8  1  0  0  0  0
  8  9  1  0  0  0  0
 10 11  1  0  0  0  0
 11 12  1  0  0  0  0
 11 16  2  0  0  0  0
 12 13  2  0  0  0  0
 13 14  1  0  0  0  0
 14 15  2  0  0  0  0
 15 16  1  0  0  0  0
M  END
>  <name>
O=C(OC1CC[N;amine]CC1)Nc1cccc[c;biphenyl]1

>  <apo>
2

>  <freq>
1

>  <freq0>
0

>  <freq1>
1

>  <freqA>
0.99887151

>  <a_count>
32

$$$$

  MOE2015           2D

 15 15  0  0  0  0  0  0  0  0999 V2000
    3.4420   -0.5420    0.0000 O   0  0  0  0  0  0  0  0  0  0  0  0
    3.4420   -2.0420    0.0000 C   0  0  0  0  0  0  0  0  0  0  0  0
    2.1430   -2.7920    0.0000 O   0  0  0  0  0  0  0  0  0  0  0  0
    0.8440   -2.0420    0.0000 C   0  0  0  0  0  0  0  0  0  0  0  0
   -0.4550   -2.7920    0.0000 C   0  0  0  0  0  0  0  0  0  0  0  0
   -1.7540   -2.0420    0.0000 C   0  0  0  0  0  0  0  0  0  0  0  0
   -3.0530   -2.7920    0.0000 C   0  0  0  0  0  0  0  0  0  0  0  0
   -4.3520   -2.0420    0.0000 C   0  0  0  0  0  0  0  0  0  0  0  0
   -1.7540   -0.5420    0.0000 C   0  0  0  0  0  0  0  0  0  0  0  0
   -0.4550    0.2080    0.0000 C   0  0  0  0  0  0  0  0  0  0  0  0
    0.8440   -0.5420    0.0000 C   0  0  0  0  0  0  0  0  0  0  0  0
    4.7410   -2.7920    0.0000 N   0  0  0  0  0  0  0  0  0  0  0  0
    6.0400   -2.0420    0.0000 C   0  0  0  0  0  0  0  0  0  0  0  0
    7.3390   -2.7920    0.0000 C   0  0  0  0  0  0  0  0  0  0  0  0
    4.7410   -4.2920    0.0000 C   0  0  0  0  0  0  0  0  0  0  0  0
  1  2  2  0  0  0  0
  2  3  1  0  0  0  0
  2 12  1  0  0  0  0
  3  4  1  0  0  0  0
  4  5  1  0  0  0  0
  4 11  2  0  0  0  0
  5  6  2  0  0  0  0
  6  7  1  0  0  0  0
  6  9  1  0  0  0  0
  7  8  1  0  0  0  0
  9 10  2  0  0  0  0
 10 11  1  0  0  0  0
 12 13  1  0  0  0  0
 12 15  1  0  0  0  0
 13 14  1  0  0  0  0
M  END
>  <name>
O=C(Oc1cc([C;amine]C)ccc1)N(CC)C

>  <apo>
1

>  <freq>
1

>  <freq0>
0

>  <freq1>
1

>  <freqA>
0.99887151

>  <a_count>
32

$$$$

  MOE2015           2D

 21 23  0  0  0  0  0  0  0  0999 V2000
   -1.8680    4.6880    0.0000 O   0  0  0  0  0  0  0  0  0  0  0  0
   -1.4140    3.2580    0.0000 C   0  0  0  0  0  0  0  0  0  0  0  0
   -2.4260    2.1500    0.0000 C   0  0  0  0  0  0  0  0  0  0  0  0
   -3.8910    2.4720    0.0000 O   0  0  0  0  0  0  0  0  0  0  0  0
    0.0510    2.9360    0.0000 C   0  0  0  0  0  0  0  0  0  0  0  0
    1.1720    3.9320    0.0000 C   0  0  0  0  0  0  0  0  0  0  0  0
    1.1830    5.4320    0.0000 C   0  0  0  0  0  0  0  0  0  0  0  0
   -0.1110    6.1910    0.0000 O   0  0  0  0  0  0  0  0  0  0  0  0
   -0.1010    7.6910    0.0000 C   0  0  0  0  0  0  0  0  0  0  0  0
    2.4870    6.1730    0.0000 C   0  0  0  0  0  0  0  0  0  0  0  0
    3.7810    5.4140    0.0000 N   0  0  0  0  0  0  0  0  0  0  0  0
    3.7700    3.9140    0.0000 C   0  0  0  0  0  0  0  0  0  0  0  0
    5.0640    3.1550    0.0000 N   0  0  0  0  0  0  0  0  0  0  0  0
    6.4390    3.7560    0.0000 N   0  0  0  0  0  0  0  0  0  0  0  0
    7.4350    2.6350    0.0000 C   0  0  0  0  0  0  0  0  0  0  0  0
    8.9280    2.7810    0.0000 C   0  0  0  0  0  0  0  0  0  0  0  0
    6.6760    1.3410    0.0000 N   0  0  0  0  0  0  0  0  0  0  0  0
    5.2110    1.6630    0.0000 C   0  0  0  0  0  0  0  0  0  0  0  0
    2.4660    3.1730    0.0000 C   0  0  0  0  0  0  0  0  0  0  0  0
    2.1440    1.7080    0.0000 N   0  0  0  0  0  0  0  0  0  0  0  0
    0.6510    1.5620    0.0000 C   0  0  0  0  0  0  0  0  0  0  0  0
  1  2  2  0  0  0  0
  2  3  1  0  0  0  0
  2  5  1  0  0  0  0
  3  4  2  0  0  0  0
  5  6  1  0  0  0  0
  5 21  2  0  0  0  0
  6  7  1  0  0  0  0
  6 19  2  0  0  0  0
  7  8  1  0  0  0  0
  7 10  2  0  0  0  0
  8  9  1  0  0  0  0
 10 11  1  0  0  0  0
 11 12  2  0  0  0  0
 12 13  1  0  0  0  0
 12 19  1  0  0  0  0
 13 14  1  0  0  0  0
 13 18  1  0  0  0  0
 14 15  2  0  0  0  0
 15 16  1  0  0  0  0
 15 17  1  0  0  0  0
 17 18  2  0  0  0  0
 19 20  1  0  0  0  0
 20 21  1  0  0  0  0
M  END
>  <name>
O=C([C;amide]=O)c1c2c(OC)cnc(-n3nc(C)nc3)c2[nH;NaroC]c1

>  <apo>
2

>  <freq>
1

>  <freq0>
0

>  <freq1>
1

>  <freqA>
0.99887151

>  <a_count>
32

$$$$

  MOE2015           2D

 16 18  0  0  1  0  0  0  0  0999 V2000
    8.5710    0.3460    0.0000 O   0  0  0  0  0  0  0  0  0  0  0  0
    7.2500   -0.3640    0.0000 C   0  0  0  0  0  0  0  0  0  0  0  0
    5.9740    0.4260    0.0000 N   0  0  0  0  0  0  0  0  0  0  0  0
    4.6530   -0.2800    0.0000 C   0  0  0  0  0  0  0  0  0  0  0  0
    4.6050   -1.7850    0.0000 C   0  0  0  0  0  0  0  0  0  0  0  0
    2.8490   -2.0290    0.0000 C   0  0  2  0  0  0  0  0  0  0  0  0
    3.2330   -3.4790    0.0000 N   0  0  0  0  0  0  0  0  0  0  0  0
    2.5520   -0.3300    0.0000 C   0  0  0  0  0  0  0  0  0  0  0  0
    3.1350    0.7010    0.0000 C   0  0  0  0  0  0  0  0  0  0  0  0
    4.2850    1.6640    0.0000 C   0  0  0  0  0  0  0  0  0  0  0  0
    1.7650    0.2180    0.0000 C   0  0  0  0  0  0  0  0  0  0  0  0
    2.0660   -1.4020    0.0000 C   0  0  2  0  0  0  0  0  0  0  0  0
    1.4780   -2.5230    0.0000 C   0  0  0  0  0  0  0  0  0  0  0  0
    3.7640   -1.2020    0.0000 C   0  0  0  0  0  0  0  0  0  0  0  0
    5.8820   -2.5730    0.0000 C   0  0  0  0  0  0  0  0  0  0  0  0
    7.2030   -1.8630    0.0000 C   0  0  0  0  0  0  0  0  0  0  0  0
  1  2  2  0  0  0  0
  2  3  1  0  0  0  0
  2 16  1  0  0  0  0
  3  4  1  0  0  0  0
  4  5  2  0  0  0  0
  4 14  1  0  0  0  0
  5  6  1  0  0  0  0
  5 15  1  0  0  0  0
  6  7  1  6  0  0  0
  6  8  1  0  0  0  0
  6 13  1  0  0  0  0
  8  9  1  0  0  0  0
  9 10  1  0  0  0  0
  9 11  2  0  0  0  0
 12 11  1  1  0  0  0
 12 13  1  0  0  0  0
 12 14  1  0  0  0  0
 15 16  2  0  0  0  0
M  END
>  <name>
O=C1NC2=C([C@]3(N)CC(C)=C[C@H]([C;olefin]3)C2)C=C1

>  <apo>
1

>  <freq>
1

>  <freq0>
0

>  <freq1>
1

>  <freqA>
0.99887151

>  <a_count>
32

$$$$

  MOE2015           2D

 17 18  0  0  1  0  0  0  0  0999 V2000
    0.6740   -2.5150    0.0000 O   0  0  0  0  0  0  0  0  0  0  0  0
    1.9730   -1.7650    0.0000 C   0  0  0  0  0  0  0  0  0  0  0  0
    1.9730   -0.2650    0.0000 N   0  0  0  0  0  0  0  0  0  0  0  0
    3.2720    0.4850    0.0000 C   0  0  0  0  0  0  0  0  0  0  0  0
    3.2720    1.9850    0.0000 C   0  0  0  0  0  0  0  0  0  0  0  0
    1.9730    2.7350    0.0000 O   0  0  0  0  0  0  0  0  0  0  0  0
    4.5710    2.7350    0.0000 C   0  0  0  0  0  0  0  0  0  0  0  0
    5.8700    1.9850    0.0000 C   0  0  0  0  0  0  0  0  0  0  0  0
    5.8700    0.4850    0.0000 C   0  0  0  0  0  0  0  0  0  0  0  0
    7.1690   -0.2650    0.0000 C   0  0  1  0  0  0  0  0  0  0  0  0
    7.1690   -1.7650    0.0000 O   0  0  0  0  0  0  0  0  0  0  0  0
    8.4680    0.4850    0.0000 C   0  0  0  0  0  0  0  0  0  0  0  0
    9.7670   -0.2650    0.0000 C   0  0  0  0  0  0  0  0  0  0  0  0
   11.0660    0.4850    0.0000 C   0  0  0  0  0  0  0  0  0  0  0  0
    4.5710   -0.2650    0.0000 C   0  0  0  0  0  0  0  0  0  0  0  0
    4.5710   -1.7650    0.0000 C   0  0  0  0  0  0  0  0  0  0  0  0
    3.2720   -2.5150    0.0000 C   0  0  0  0  0  0  0  0  0  0  0  0
  1  2  2  0  0  0  0
  2  3  1  0  0  0  0
  2 17  1  0  0  0  0
  3  4  1  0  0  0  0
  4  5  1  0  0  0  0
  4 15  2  0  0  0  0
  5  6  1  0  0  0  0
  5  7  2  0  0  0  0
  7  8  1  0  0  0  0
  8  9  2  0  0  0  0
  9 10  1  0  0  0  0
  9 15  1  0  0  0  0
 10 11  1  6  0  0  0
 10 12  1  0  0  0  0
 12 13  1  0  0  0  0
 13 14  1  0  0  0  0
 15 16  1  0  0  0  0
 16 17  2  0  0  0  0
M  END
>  <name>
O=C1Nc2c(O)ccc([C@@H](O)[C;amine]CC)c2C=C1

>  <apo>
1

>  <freq>
1

>  <freq0>
0

>  <freq1>
1

>  <freqA>
0.99887151

>  <a_count>
32

$$$$

  MOE2015           2D

 15 16  0  0  0  0  0  0  0  0999 V2000
    3.1210    3.7750    0.0000 O   0  0  0  0  0  0  0  0  0  0  0  0
    2.3710    2.4760    0.0000 C   0  0  0  0  0  0  0  0  0  0  0  0
    3.1210    1.1770    0.0000 C   0  0  0  0  0  0  0  0  0  0  0  0
    1.6210    1.1770    0.0000 C   0  0  0  0  0  0  0  0  0  0  0  0
    0.8710    2.4760    0.0000 C   0  0  0  0  0  0  0  0  0  0  0  0
   -0.6290    2.4760    0.0000 C   0  0  0  0  0  0  0  0  0  0  0  0
   -1.3790    1.1770    0.0000 C   0  0  0  0  0  0  0  0  0  0  0  0
   -0.6290   -0.1220    0.0000 C   0  0  0  0  0  0  0  0  0  0  0  0
    0.8710   -0.1220    0.0000 C   0  0  0  0  0  0  0  0  0  0  0  0
    4.4200    1.9270    0.0000 C   0  0  0  0  0  0  0  0  0  0  0  0
    5.7190    1.1770    0.0000 C   0  0  0  0  0  0  0  0  0  0  0  0
    5.7190   -0.3230    0.0000 N   0  0  0  0  0  0  0  0  0  0  0  0
    7.0180   -1.0730    0.0000 C   0  0  0  0  0  0  0  0  0  0  0  0
    4.4200   -1.0730    0.0000 C   0  0  0  0  0  0  0  0  0  0  0  0
    3.1210   -0.3230    0.0000 C   0  0  0  0  0  0  0  0  0  0  0  0
  1  2  2  0  0  0  0
  2  3  1  0  0  0  0
  3  4  1  0  0  0  0
  3 10  1  0  0  0  0
  3 15  1  0  0  0  0
  4  5  1  0  0  0  0
  4  9  2  0  0  0  0
  5  6  2  0  0  0  0
  6  7  1  0  0  0  0
  7  8  2  0  0  0  0
  8  9  1  0  0  0  0
 10 11  1  0  0  0  0
 11 12  1  0  0  0  0
 12 13  1  0  0  0  0
 12 14  1  0  0  0  0
 14 15  1  0  0  0  0
M  END
>  <name>
O=[C;ester]C1(c2ccccc2)CCN(C)CC1

>  <apo>
1

>  <freq>
1

>  <freq0>
0

>  <freq1>
1

>  <freqA>
0.99887151

>  <a_count>
32

$$$$

  MOE2015           2D

 20 22  0  0  0  0  0  0  0  0999 V2000
    0.9160    2.5080    0.0000 O   0  0  0  0  0  0  0  0  0  0  0  0
    2.2150    1.7580    0.0000 C   0  0  0  0  0  0  0  0  0  0  0  0
    2.2150    0.2580    0.0000 C   0  0  0  0  0  0  0  0  0  0  0  0
    3.5140   -0.4920    0.0000 C   0  0  0  0  0  0  0  0  0  0  0  0
    4.8130    0.2580    0.0000 O   0  0  0  0  0  0  0  0  0  0  0  0
    6.1120   -0.4920    0.0000 C   0  0  0  0  0  0  0  0  0  0  0  0
    7.4110    0.2580    0.0000 C   0  0  0  0  0  0  0  0  0  0  0  0
    7.4110    1.7580    0.0000 C   0  0  0  0  0  0  0  0  0  0  0  0
    8.7100    2.5080    0.0000 C   0  0  0  0  0  0  0  0  0  0  0  0
   10.0090    1.7580    0.0000 C   0  0  0  0  0  0  0  0  0  0  0  0
   10.0090    0.2580    0.0000 C   0  0  0  0  0  0  0  0  0  0  0  0
    8.7100   -0.4920    0.0000 C   0  0  0  0  0  0  0  0  0  0  0  0
    6.1120   -1.9920    0.0000 C   0  0  0  0  0  0  0  0  0  0  0  0
    7.4110   -2.7420    0.0000 C   0  0  0  0  0  0  0  0  0  0  0  0
    4.8130   -2.7420    0.0000 C   0  0  0  0  0  0  0  0  0  0  0  0
    4.8130   -4.2420    0.0000 O   0  0  0  0  0  0  0  0  0  0  0  0
    3.5140   -1.9920    0.0000 C   0  0  0  0  0  0  0  0  0  0  0  0
    2.2150   -2.7420    0.0000 C   0  0  0  0  0  0  0  0  0  0  0  0
    0.9160   -1.9920    0.0000 C   0  0  0  0  0  0  0  0  0  0  0  0
    0.9160   -0.4920    0.0000 C   0  0  0  0  0  0  0  0  0  0  0  0
  1  2  2  0  0  0  0
  2  3  1  0  0  0  0
  3  4  1  0  0  0  0
  3 20  2  0  0  0  0
  4  5  1  0  0  0  0
  4 17  2  0  0  0  0
  5  6  1  0  0  0  0
  6  7  1  0  0  0  0
  6 13  2  0  0  0  0
  7  8  1  0  0  0  0
  7 12  2  0  0  0  0
  8  9  2  0  0  0  0
  9 10  1  0  0  0  0
 10 11  2  0  0  0  0
 11 12  1  0  0  0  0
 13 14  1  0  0  0  0
 13 15  1  0  0  0  0
 15 16  2  0  0  0  0
 15 17  1  0  0  0  0
 17 18  1  0  0  0  0
 18 19  2  0  0  0  0
 19 20  1  0  0  0  0
M  END
>  <name>
O=[C;ester]c1c2OC(c3ccccc3)=C(C)C(=O)c2ccc1

>  <apo>
1

>  <freq>
1

>  <freq0>
0

>  <freq1>
1

>  <freqA>
0.99887151

>  <a_count>
32

$$$$

  MOE2015           2D

 18 19  0  0  0  0  0  0  0  0999 V2000
   -3.5160    3.5160    0.0000 S   0  0  0  0  0  0  0  0  0  0  0  0
   -3.5160    5.0160    0.0000 O   0  0  0  0  0  0  0  0  0  0  0  0
   -3.5160    2.0160    0.0000 O   0  0  0  0  0  0  0  0  0  0  0  0
   -5.0160    3.5160    0.0000 N   0  0  0  0  0  0  0  0  0  0  0  0
   -2.0160    3.5160    0.0000 C   0  0  0  0  0  0  0  0  0  0  0  0
   -1.1340    4.7290    0.0000 S   0  0  0  0  0  0  0  0  0  0  0  0
    0.2920    4.2660    0.0000 C   0  0  0  0  0  0  0  0  0  0  0  0
    1.5910    5.0160    0.0000 S   0  0  0  0  0  0  0  0  0  0  0  0
    2.3410    6.3150    0.0000 O   0  0  0  0  0  0  0  0  0  0  0  0
    0.8410    6.3150    0.0000 O   0  0  0  0  0  0  0  0  0  0  0  0
    2.8900    4.2660    0.0000 N   0  0  0  0  0  0  0  0  0  0  0  0
    4.1890    5.0160    0.0000 C   0  0  0  0  0  0  0  0  0  0  0  0
    5.4880    4.2660    0.0000 C   0  0  0  0  0  0  0  0  0  0  0  0
    6.7880    5.0160    0.0000 C   0  0  0  0  0  0  0  0  0  0  0  0
    2.8900    2.7660    0.0000 C   0  0  0  0  0  0  0  0  0  0  0  0
    1.5910    2.0160    0.0000 C   0  0  0  0  0  0  0  0  0  0  0  0
    0.2920    2.7660    0.0000 C   0  0  0  0  0  0  0  0  0  0  0  0
   -1.1340    2.3020    0.0000 C   0  0  0  0  0  0  0  0  0  0  0  0
  1  2  2  0  0  0  0
  1  3  2  0  0  0  0
  1  4  1  0  0  0  0
  1  5  1  0  0  0  0
  5  6  1  0  0  0  0
  5 18  2  0  0  0  0
  6  7  1  0  0  0  0
  7  8  1  0  0  0  0
  7 17  2  0  0  0  0
  8  9  2  0  0  0  0
  8 10  2  0  0  0  0
  8 11  1  0  0  0  0
 11 12  1  0  0  0  0
 11 15  1  0  0  0  0
 12 13  1  0  0  0  0
 13 14  1  0  0  0  0
 15 16  1  0  0  0  0
 16 17  1  0  0  0  0
 17 18  1  0  0  0  0
M  END
>  <name>
S(=O)(=O)(N)c1sc2S(=O)(=O)N(CC[C;ether])C[C;amine]c2c1

>  <apo>
2

>  <freq>
1

>  <freq0>
0

>  <freq1>
1

>  <freqA>
0.99887151

>  <a_count>
32

$$$$

  MOE2015           2D

 19 19  0  0  1  0  0  0  0  0999 V2000
    5.5860   -5.5860    0.0000 S   0  0  0  0  0  0  0  0  0  0  0  0
    5.5860   -4.0860    0.0000 O   0  0  0  0  0  0  0  0  0  0  0  0
    5.5860   -7.0860    0.0000 O   0  0  0  0  0  0  0  0  0  0  0  0
    4.0860   -5.5860    0.0000 O   0  0  0  0  0  0  0  0  0  0  0  0
    3.3360   -4.2870    0.0000 C   0  0  0  0  0  0  0  0  0  0  0  0
    1.8360   -4.2870    0.0000 C   0  0  2  0  0  0  0  0  0  0  0  0
    1.0860   -2.9880    0.0000 C   0  0  1  0  0  0  0  0  0  0  0  0
    1.8360   -1.6890    0.0000 O   0  0  0  0  0  0  0  0  0  0  0  0
   -0.4140   -2.9880    0.0000 C   0  0  2  0  0  0  0  0  0  0  0  0
   -1.1640   -1.6890    0.0000 O   0  0  0  0  0  0  0  0  0  0  0  0
   -1.1640   -4.2870    0.0000 C   0  0  2  0  0  0  0  0  0  0  0  0
   -2.6640   -4.2870    0.0000 N   0  0  0  0  0  0  0  0  0  0  0  0
   -3.4140   -5.5860    0.0000 S   0  0  0  0  0  0  0  0  0  0  0  0
   -2.1150   -6.3360    0.0000 O   0  0  0  0  0  0  0  0  0  0  0  0
   -4.7130   -4.8360    0.0000 O   0  0  0  0  0  0  0  0  0  0  0  0
   -4.1640   -6.8850    0.0000 O   0  0  0  0  0  0  0  0  0  0  0  0
   -0.4140   -5.5860    0.0000 C   0  0  0  0  0  0  0  0  0  0  0  0
    1.0860   -5.5860    0.0000 O   0  0  0  0  0  0  0  0  0  0  0  0
    7.0860   -5.5860    0.0000 O   0  0  0  0  0  0  0  0  0  0  0  0
  1  2  2  0  0  0  0
  1  3  2  0  0  0  0
  1  4  1  0  0  0  0
  1 19  1  0  0  0  0
  4  5  1  0  0  0  0
  6  5  1  1  0  0  0
  6  7  1  0  0  0  0
  6 18  1  0  0  0  0
  7  8  1  6  0  0  0
  7  9  1  0  0  0  0
  9 10  1  1  0  0  0
  9 11  1  0  0  0  0
 11 12  1  1  0  0  0
 11 17  1  0  0  0  0
 12 13  1  0  0  0  0
 13 14  2  0  0  0  0
 13 15  2  0  0  0  0
 13 16  1  0  0  0  0
 17 18  1  0  0  0  0
M  END
>  <name>
S(=O)(=O)(OC[C@@H]1[C@@H](O)[C@H](O)[C@H](NS(=O)(=O)O)[C;ether]O1)O

>  <apo>
1

>  <freq>
1

>  <freq0>
0

>  <freq1>
1

>  <freqA>
0.99887151

>  <a_count>
32

$$$$

  MOE2015           2D

 15 17  0  0  1  0  0  0  0  0999 V2000
    8.2830   -5.8720    0.0000 N   0  0  0  0  0  0  0  0  0  0  0  0
    7.7870   -4.4560    0.0000 C   0  0  0  0  0  0  0  0  0  0  0  0
    6.3130   -4.1790    0.0000 C   0  0  0  0  0  0  0  0  0  0  0  0
    5.8160   -2.7640    0.0000 C   0  0  1  0  0  0  0  0  0  0  0  0
    4.3790   -2.3330    0.0000 C   0  0  0  0  0  0  0  0  0  0  0  0
    3.0980   -3.1130    0.0000 C   0  0  0  0  0  0  0  0  0  0  0  0
    1.7820   -2.3940    0.0000 C   0  0  0  0  0  0  0  0  0  0  0  0
    0.6910   -3.4230    0.0000 O   0  0  0  0  0  0  0  0  0  0  0  0
    1.3320   -4.7790    0.0000 C   0  0  0  0  0  0  0  0  0  0  0  0
    2.8200   -4.5880    0.0000 C   0  0  0  0  0  0  0  0  0  0  0  0
    1.7470   -0.8940    0.0000 C   0  0  0  0  0  0  0  0  0  0  0  0
    3.0280   -0.1140    0.0000 C   0  0  0  0  0  0  0  0  0  0  0  0
    4.3440   -0.8340    0.0000 C   0  0  0  0  0  0  0  0  0  0  0  0
    5.7590   -0.3370    0.0000 C   0  0  0  0  0  0  0  0  0  0  0  0
    6.6690   -1.5300    0.0000 C   0  0  0  0  0  0  0  0  0  0  0  0
  1  2  1  0  0  0  0
  2  3  1  0  0  0  0
  4  3  1  1  0  0  0
  4  5  1  0  0  0  0
  4 15  1  0  0  0  0
  5  6  2  0  0  0  0
  5 13  1  0  0  0  0
  6  7  1  0  0  0  0
  6 10  1  0  0  0  0
  7  8  1  0  0  0  0
  7 11  2  0  0  0  0
  8  9  1  0  0  0  0
  9 10  1  0  0  0  0
 11 12  1  0  0  0  0
 12 13  2  0  0  0  0
 13 14  1  0  0  0  0
 14 15  1  0  0  0  0
M  END
>  <name>
[N;amide]CC[C@H]1c2c3c(OCC3)ccc2CC1

>  <apo>
1

>  <freq>
1

>  <freq0>
0

>  <freq1>
1

>  <freqA>
0.99887151

>  <a_count>
32

$$$$

  MOE2015           2D

 13 13  0  0  0  0  0  0  0  0999 V2000
    1.9620   -1.9620    0.0000 N   0  0  0  0  0  0  0  0  0  0  0  0
    1.9620   -0.4620    0.0000 C   0  0  0  0  0  0  0  0  0  0  0  0
    3.2610    0.2880    0.0000 C   0  0  0  0  0  0  0  0  0  0  0  0
    4.5600   -0.4620    0.0000 C   0  0  0  0  0  0  0  0  0  0  0  0
    5.8590    0.2880    0.0000 C   0  0  0  0  0  0  0  0  0  0  0  0
    4.5600   -1.9620    0.0000 C   0  0  0  0  0  0  0  0  0  0  0  0
    3.2610    1.7880    0.0000 C   0  0  0  0  0  0  0  0  0  0  0  0
    1.9620    2.5380    0.0000 C   0  0  0  0  0  0  0  0  0  0  0  0
    0.6630    1.7880    0.0000 C   0  0  0  0  0  0  0  0  0  0  0  0
    0.6630    0.2880    0.0000 C   0  0  0  0  0  0  0  0  0  0  0  0
   -0.6370   -0.4620    0.0000 C   0  0  0  0  0  0  0  0  0  0  0  0
   -1.9360    0.2880    0.0000 C   0  0  0  0  0  0  0  0  0  0  0  0
   -0.6370   -1.9620    0.0000 C   0  0  0  0  0  0  0  0  0  0  0  0
  1  2  1  0  0  0  0
  2  3  1  0  0  0  0
  2 10  2  0  0  0  0
  3  4  1  0  0  0  0
  3  7  2  0  0  0  0
  4  5  1  0  0  0  0
  4  6  1  0  0  0  0
  7  8  1  0  0  0  0
  8  9  2  0  0  0  0
  9 10  1  0  0  0  0
 10 11  1  0  0  0  0
 11 12  1  0  0  0  0
 11 13  1  0  0  0  0
M  END
>  <name>
[N;amide]c1c(C(C)C)cccc1C(C)C

>  <apo>
1

>  <freq>
1

>  <freq0>
0

>  <freq1>
1

>  <freqA>
0.99887151

>  <a_count>
32

$$$$

  MOE2015           2D

 15 16  0  0  1  0  0  0  0  0999 V2000
   10.8000    0.0000    0.0000 N   0  0  0  0  0  0  0  0  0  0  0  0
    9.3000    0.0000    0.0000 C   0  0  0  0  0  0  0  0  0  0  0  0
    8.5500    1.2990    0.0000 C   0  0  0  0  0  0  0  0  0  0  0  0
    7.0500    1.2990    0.0000 N   0  0  0  0  0  0  0  0  0  0  0  0
    6.3000    0.0000    0.0000 C   0  0  0  0  0  0  0  0  0  0  0  0
    4.8000    0.0000    0.0000 N   0  0  0  0  0  0  0  0  0  0  0  0
    4.0500    1.2990    0.0000 C   0  0  0  0  0  0  0  0  0  0  0  0
    2.5500    1.2990    0.0000 C   0  0  1  0  0  0  0  0  0  0  0  0
    1.8000    2.5980    0.0000 C   0  0  0  0  0  0  0  0  0  0  0  0
    1.8000    0.0000    0.0000 O   0  0  0  0  0  0  0  0  0  0  0  0
    2.5500   -1.2990    0.0000 C   0  0  1  0  0  0  0  0  0  0  0  0
    1.8000   -2.5980    0.0000 C   0  0  0  0  0  0  0  0  0  0  0  0
    4.0500   -1.2990    0.0000 C   0  0  0  0  0  0  0  0  0  0  0  0
    7.0500   -1.2990    0.0000 C   0  0  0  0  0  0  0  0  0  0  0  0
    8.5500   -1.2990    0.0000 C   0  0  0  0  0  0  0  0  0  0  0  0
  1  2  1  0  0  0  0
  2  3  1  0  0  0  0
  2 15  2  0  0  0  0
  3  4  2  0  0  0  0
  4  5  1  0  0  0  0
  5  6  1  0  0  0  0
  5 14  2  0  0  0  0
  6  7  1  0  0  0  0
  6 13  1  0  0  0  0
  7  8  1  0  0  0  0
  8  9  1  6  0  0  0
  8 10  1  0  0  0  0
 10 11  1  0  0  0  0
 11 12  1  6  0  0  0
 11 13  1  0  0  0  0
 14 15  1  0  0  0  0
M  END
>  <name>
[N;amide]c1cnc(N2C[C@@H](C)O[C@@H](C)C2)cc1

>  <apo>
1

>  <freq>
1

>  <freq0>
0

>  <freq1>
1

>  <freqA>
0.99887151

>  <a_count>
32

$$$$

  MOE2015           2D

 21 23  0  0  0  0  0  0  0  0999 V2000
    0.8810    0.8810    0.0000 O   0  0  0  0  0  0  0  0  0  0  0  0
    0.8810   -0.6190    0.0000 C   0  0  0  0  0  0  0  0  0  0  0  0
   -0.4180   -1.3690    0.0000 C   0  0  0  0  0  0  0  0  0  0  0  0
   -1.7170   -0.6190    0.0000 O   0  0  0  0  0  0  0  0  0  0  0  0
   -0.4180   -2.8690    0.0000 C   0  0  0  0  0  0  0  0  0  0  0  0
    0.8810   -3.6190    0.0000 C   0  0  0  0  0  0  0  0  0  0  0  0
    0.8810   -5.1190    0.0000 N   0  0  0  0  0  0  0  0  0  0  0  0
    2.1800   -5.8690    0.0000 C   0  0  0  0  0  0  0  0  0  0  0  0
    3.4790   -5.1190    0.0000 N   0  0  0  0  0  0  0  0  0  0  0  0
    3.4790   -3.6190    0.0000 C   0  0  0  0  0  0  0  0  0  0  0  0
    4.7780   -2.8690    0.0000 N   0  0  0  0  0  0  0  0  0  0  0  0
    6.0770   -3.6190    0.0000 C   0  0  0  0  0  0  0  0  0  0  0  0
    7.3760   -2.8690    0.0000 C   0  0  0  0  0  0  0  0  0  0  0  0
    8.6750   -3.6190    0.0000 C   0  0  0  0  0  0  0  0  0  0  0  0
    9.9740   -2.8690    0.0000 C   0  0  0  0  0  0  0  0  0  0  0  0
   11.2730   -2.1190    0.0000 C   0  0  0  0  0  0  0  0  0  0  0  0
    8.6750   -5.1190    0.0000 C   0  0  0  0  0  0  0  0  0  0  0  0
    7.3760   -5.8690    0.0000 C   0  0  0  0  0  0  0  0  0  0  0  0
    6.0770   -5.1190    0.0000 C   0  0  0  0  0  0  0  0  0  0  0  0
    2.1800   -2.8690    0.0000 C   0  0  0  0  0  0  0  0  0  0  0  0
    2.1800   -1.3690    0.0000 C   0  0  0  0  0  0  0  0  0  0  0  0
  1  2  1  0  0  0  0
  2  3  1  0  0  0  0
  2 21  2  0  0  0  0
  3  4  1  0  0  0  0
  3  5  2  0  0  0  0
  5  6  1  0  0  0  0
  6  7  1  0  0  0  0
  6 20  2  0  0  0  0
  7  8  2  0  0  0  0
  8  9  1  0  0  0  0
  9 10  2  0  0  0  0
 10 11  1  0  0  0  0
 10 20  1  0  0  0  0
 11 12  1  0  0  0  0
 12 13  1  0  0  0  0
 12 19  2  0  0  0  0
 13 14  2  0  0  0  0
 14 15  1  0  0  0  0
 14 17  1  0  0  0  0
 15 16  3  0  0  0  0
 17 18  2  0  0  0  0
 18 19  1  0  0  0  0
 20 21  1  0  0  0  0
M  END
>  <name>
[O;ether]c1c([O;ether])cc2ncnc(Nc3cc(C#C)ccc3)c2c1

>  <apo>
2

>  <freq>
1

>  <freq0>
0

>  <freq1>
1

>  <freqA>
0.99887151

>  <a_count>
32

$$$$

  MOE2015           2D

 13 14  0  0  0  0  0  0  0  0999 V2000
   -3.9950   -0.9950    0.0000 C   0  0  0  0  0  0  0  0  0  0  0  0
   -3.9950    0.5050    0.0000 C   0  0  0  0  0  0  0  0  0  0  0  0
   -2.6960   -1.7450    0.0000 C   0  0  0  0  0  0  0  0  0  0  0  0
   -2.6960   -3.2450    0.0000 C   0  0  0  0  0  0  0  0  0  0  0  0
   -3.9950   -3.9950    0.0000 C   0  0  0  0  0  0  0  0  0  0  0  0
   -3.9950   -5.4950    0.0000 C   0  0  0  0  0  0  0  0  0  0  0  0
   -1.3970   -3.9950    0.0000 C   0  0  0  0  0  0  0  0  0  0  0  0
   -0.0980   -3.2450    0.0000 C   0  0  0  0  0  0  0  0  0  0  0  0
   -0.0980   -1.7450    0.0000 C   0  0  0  0  0  0  0  0  0  0  0  0
   -1.3970   -0.9950    0.0000 C   0  0  0  0  0  0  0  0  0  0  0  0
    1.3280   -1.2820    0.0000 C   0  0  0  0  0  0  0  0  0  0  0  0
    2.2100   -2.4950    0.0000 C   0  0  0  0  0  0  0  0  0  0  0  0
    1.3280   -3.7090    0.0000 C   0  0  0  0  0  0  0  0  0  0  0  0
  1  2  1  0  0  0  0
  1  3  1  0  0  0  0
  3  4  1  0  0  0  0
  3 10  2  0  0  0  0
  4  5  1  0  0  0  0
  4  7  2  0  0  0  0
  5  6  1  0  0  0  0
  7  8  1  0  0  0  0
  8  9  2  0  0  0  0
  8 13  1  0  0  0  0
  9 10  1  0  0  0  0
  9 11  1  0  0  0  0
 11 12  1  0  0  0  0
 12 13  1  0  0  0  0
M  END
>  <name>
C(C)c1c(CC)cc2c(c1)C[C;amine]C2

>  <apo>
1

>  <freq>
1

>  <freq0>
0

>  <freq1>
1

>  <freqA>
0.99887151

>  <a_count>
31

$$$$

  MOE2015           2D

 11 12  0  0  1  0  0  0  0  0999 V2000
    0.8520    1.0950    0.0000 C   0  0  0  0  0  0  0  0  0  0  0  0
    2.1500    1.8450    0.0000 C   0  0  0  0  0  0  0  0  0  0  0  0
   -0.4480    1.8440    0.0000 C   0  0  3  0  0  0  0  0  0  0  0  0
   -1.7790    1.0990    0.0000 C   0  0  3  0  0  0  0  0  0  0  0  0
   -3.0640    1.8310    0.0000 C   0  0  0  0  0  0  0  0  0  0  0  0
   -3.8270    0.5390    0.0000 C   0  0  0  0  0  0  0  0  0  0  0  0
   -4.5640    1.8400    0.0000 C   0  0  0  0  0  0  0  0  0  0  0  0
   -3.0610    3.3380    0.0000 C   0  0  3  0  0  0  0  0  0  0  0  0
   -1.7740    2.5980    0.0000 C   0  0  0  0  0  0  0  0  0  0  0  0
   -1.7710    4.0990    0.0000 C   0  0  0  0  0  0  0  0  0  0  0  0
   -0.4700    3.3510    0.0000 C   0  0  0  0  0  0  0  0  0  0  0  0
  1  2  1  0  0  0  0
  1  3  1  0  0  0  0
  3  4  1  0  0  0  0
  3 11  1  0  0  0  0
  4  5  1  0  0  0  0
  4  9  1  0  0  0  0
  5  6  1  0  0  0  0
  5  7  1  0  0  0  0
  5  8  1  0  0  0  0
  8  9  1  0  0  0  0
  8 10  1  0  0  0  0
 10 11  1  0  0  0  0
M  END
>  <name>
C([C;ether])C1C2C(C)(C)C(C2)CC1

>  <apo>
1

>  <freq>
1

>  <freq0>
0

>  <freq1>
1

>  <freqA>
0.99887151

>  <a_count>
31

$$$$

  MOE2015           2D

 21 23  0  0  0  0  0  0  0  0999 V2000
   10.3930   -0.8040    0.0000 Cl  0  0  0  0  0  0  0  0  0  0  0  0
    9.6430    0.4950    0.0000 C   0  0  0  0  0  0  0  0  0  0  0  0
   10.3930    1.7940    0.0000 C   0  0  0  0  0  0  0  0  0  0  0  0
   11.8930    1.7940    0.0000 F   0  0  0  0  0  0  0  0  0  0  0  0
    9.6430    3.0930    0.0000 C   0  0  0  0  0  0  0  0  0  0  0  0
    8.1430    3.0930    0.0000 C   0  0  0  0  0  0  0  0  0  0  0  0
    7.3930    1.7940    0.0000 C   0  0  0  0  0  0  0  0  0  0  0  0
    5.8930    1.7940    0.0000 N   0  0  0  0  0  0  0  0  0  0  0  0
    5.1430    3.0930    0.0000 C   0  0  0  0  0  0  0  0  0  0  0  0
    5.8930    4.3920    0.0000 N   0  0  0  0  0  0  0  0  0  0  0  0
    5.1430    5.6910    0.0000 C   0  0  0  0  0  0  0  0  0  0  0  0
    3.6430    5.6910    0.0000 N   0  0  0  0  0  0  0  0  0  0  0  0
    2.8930    4.3920    0.0000 C   0  0  0  0  0  0  0  0  0  0  0  0
    3.6430    3.0930    0.0000 C   0  0  0  0  0  0  0  0  0  0  0  0
    2.8930    1.7940    0.0000 C   0  0  0  0  0  0  0  0  0  0  0  0
    1.3930    1.7940    0.0000 C   0  0  0  0  0  0  0  0  0  0  0  0
    0.6430    0.4950    0.0000 N   0  0  0  0  0  0  0  0  0  0  0  0
    0.6430    3.0930    0.0000 C   0  0  0  0  0  0  0  0  0  0  0  0
   -0.8570    3.0930    0.0000 O   0  0  0  0  0  0  0  0  0  0  0  0
    1.3930    4.3920    0.0000 C   0  0  0  0  0  0  0  0  0  0  0  0
    8.1430    0.4950    0.0000 C   0  0  0  0  0  0  0  0  0  0  0  0
  1  2  1  0  0  0  0
  2  3  1  0  0  0  0
  2 21  2  0  0  0  0
  3  4  1  0  0  0  0
  3  5  2  0  0  0  0
  5  6  1  0  0  0  0
  6  7  2  0  0  0  0
  7  8  1  0  0  0  0
  7 21  1  0  0  0  0
  8  9  1  0  0  0  0
  9 10  2  0  0  0  0
  9 14  1  0  0  0  0
 10 11  1  0  0  0  0
 11 12  2  0  0  0  0
 12 13  1  0  0  0  0
 13 14  1  0  0  0  0
 13 20  2  0  0  0  0
 14 15  2  0  0  0  0
 15 16  1  0  0  0  0
 16 17  1  0  0  0  0
 16 18  2  0  0  0  0
 18 19  1  0  0  0  0
 18 20  1  0  0  0  0
M  END
>  <name>
Clc1c(F)ccc(Nc2ncnc3c2cc([N;amide])c([O;ether])c3)c1

>  <apo>
2

>  <freq>
1

>  <freq0>
0

>  <freq1>
1

>  <freqA>
0.99887151

>  <a_count>
31

$$$$

  MOE2015           2D

 18 19  0  0  0  0  0  0  0  0999 V2000
    0.6250    0.3610    0.0000 Cl  0  0  0  0  0  0  0  0  0  0  0  0
   -0.1250   -0.9380    0.0000 C   0  0  0  0  0  0  0  0  0  0  0  0
    0.6250   -2.2370    0.0000 C   0  0  0  0  0  0  0  0  0  0  0  0
    2.1250   -2.2370    0.0000 N   0  0  0  0  0  0  0  0  0  0  0  0
    2.8750   -3.5360    0.0000 C   0  0  0  0  0  0  0  0  0  0  0  0
    4.3750   -3.5360    0.0000 C   0  0  0  0  0  0  0  0  0  0  0  0
    5.1250   -2.2370    0.0000 C   0  0  0  0  0  0  0  0  0  0  0  0
    6.6250   -2.2370    0.0000 C   0  0  0  0  0  0  0  0  0  0  0  0
    7.3750   -3.5360    0.0000 O   0  0  0  0  0  0  0  0  0  0  0  0
    7.3750   -0.9380    0.0000 O   0  0  0  0  0  0  0  0  0  0  0  0
    4.3750   -0.9380    0.0000 C   0  0  0  0  0  0  0  0  0  0  0  0
    2.8750   -0.9380    0.0000 C   0  0  0  0  0  0  0  0  0  0  0  0
   -0.1250   -3.5360    0.0000 N   0  0  0  0  0  0  0  0  0  0  0  0
   -1.6250   -3.5360    0.0000 C   0  0  0  0  0  0  0  0  0  0  0  0
   -2.3750   -2.2370    0.0000 C   0  0  0  0  0  0  0  0  0  0  0  0
   -3.8750   -2.2370    0.0000 C   0  0  0  0  0  0  0  0  0  0  0  0
   -4.6250   -3.5360    0.0000 O   0  0  0  0  0  0  0  0  0  0  0  0
   -1.6250   -0.9380    0.0000 C   0  0  0  0  0  0  0  0  0  0  0  0
  1  2  1  0  0  0  0
  2  3  1  0  0  0  0
  2 18  2  0  0  0  0
  3  4  1  0  0  0  0
  3 13  2  0  0  0  0
  4  5  1  0  0  0  0
  4 12  1  0  0  0  0
  5  6  1  0  0  0  0
  6  7  1  0  0  0  0
  7  8  1  0  0  0  0
  7 11  1  0  0  0  0
  8  9  2  0  0  0  0
  8 10  1  0  0  0  0
 11 12  1  0  0  0  0
 13 14  1  0  0  0  0
 14 15  2  0  0  0  0
 15 16  1  0  0  0  0
 15 18  1  0  0  0  0
 16 17  2  0  0  0  0
M  END
>  <name>
Clc1c(N2CCC(C(=O)O)CC2)ncc([C;amide]=O)c1

>  <apo>
1

>  <freq>
1

>  <freq0>
0

>  <freq1>
1

>  <freqA>
0.99887151

>  <a_count>
31

$$$$

  MOE2015           2D

 19 20  0  0  1  0  0  0  0  0999 V2000
    7.2870   -1.9530    0.0000 Cl  0  0  0  0  0  0  0  0  0  0  0  0
    5.9880   -1.2030    0.0000 C   0  0  0  0  0  0  0  0  0  0  0  0
    5.9880    0.2970    0.0000 C   0  0  0  0  0  0  0  0  0  0  0  0
    7.2870    1.0470    0.0000 S   0  0  0  0  0  0  0  0  0  0  0  0
    6.5370    2.3470    0.0000 O   0  0  0  0  0  0  0  0  0  0  0  0
    8.0370   -0.2520    0.0000 O   0  0  0  0  0  0  0  0  0  0  0  0
    8.5860    1.7970    0.0000 N   0  0  0  0  0  0  0  0  0  0  0  0
    4.6890    1.0470    0.0000 C   0  0  0  0  0  0  0  0  0  0  0  0
    3.3900    0.2970    0.0000 C   0  0  0  0  0  0  0  0  0  0  0  0
    2.0910    1.0470    0.0000 S   0  0  0  0  0  0  0  0  0  0  0  0
    2.8410    2.3470    0.0000 O   0  0  0  0  0  0  0  0  0  0  0  0
    1.3410    2.3470    0.0000 O   0  0  0  0  0  0  0  0  0  0  0  0
    0.7920    0.2970    0.0000 N   0  0  0  0  0  0  0  0  0  0  0  0
   -0.5070    1.0470    0.0000 C   0  0  0  0  0  0  0  0  0  0  0  0
    0.7920   -1.2030    0.0000 C   0  0  3  0  0  0  0  0  0  0  0  0
   -0.5070   -1.9530    0.0000 C   0  0  0  0  0  0  0  0  0  0  0  0
    2.0910   -1.9530    0.0000 N   0  0  0  0  0  0  0  0  0  0  0  0
    3.3900   -1.2030    0.0000 C   0  0  0  0  0  0  0  0  0  0  0  0
    4.6890   -1.9530    0.0000 C   0  0  0  0  0  0  0  0  0  0  0  0
  1  2  1  0  0  0  0
  2  3  1  0  0  0  0
  2 19  2  0  0  0  0
  3  4  1  0  0  0  0
  3  8  2  0  0  0  0
  4  5  2  0  0  0  0
  4  6  2  0  0  0  0
  4  7  1  0  0  0  0
  8  9  1  0  0  0  0
  9 10  1  0  0  0  0
  9 18  2  0  0  0  0
 10 11  2  0  0  0  0
 10 12  2  0  0  0  0
 10 13  1  0  0  0  0
 13 14  1  0  0  0  0
 13 15  1  0  0  0  0
 15 16  1  0  0  0  0
 15 17  1  0  0  0  0
 17 18  1  0  0  0  0
 18 19  1  0  0  0  0
M  END
>  <name>
Clc1c(S(=O)(=O)N)cc2S(=O)(=O)N(C)C([C;thioether])Nc2c1

>  <apo>
1

>  <freq>
1

>  <freq0>
0

>  <freq1>
1

>  <freqA>
0.99887151

>  <a_count>
31

$$$$

  MOE2015           2D

 17 19  0  0  0  0  0  0  0  0999 V2000
   10.7480   -0.5630    0.0000 Cl  0  0  0  0  0  0  0  0  0  0  0  0
    9.2560   -0.4060    0.0000 C   0  0  0  0  0  0  0  0  0  0  0  0
    8.6460    0.9640    0.0000 C   0  0  0  0  0  0  0  0  0  0  0  0
    7.1540    1.1210    0.0000 C   0  0  0  0  0  0  0  0  0  0  0  0
    6.2730    2.3340    0.0000 N   0  0  0  0  0  0  0  0  0  0  0  0
    4.8460    1.8710    0.0000 C   0  0  0  0  0  0  0  0  0  0  0  0
    3.6330    2.7520    0.0000 O   0  0  0  0  0  0  0  0  0  0  0  0
    4.8460    0.3710    0.0000 N   0  0  0  0  0  0  0  0  0  0  0  0
    3.6330   -0.5110    0.0000 C   0  0  0  0  0  0  0  0  0  0  0  0
    3.7890   -2.0030    0.0000 C   0  0  0  0  0  0  0  0  0  0  0  0
    2.5760   -2.8850    0.0000 C   0  0  0  0  0  0  0  0  0  0  0  0
    1.2060   -2.2740    0.0000 N   0  0  0  0  0  0  0  0  0  0  0  0
    1.0490   -0.7830    0.0000 C   0  0  0  0  0  0  0  0  0  0  0  0
    2.2620    0.0990    0.0000 C   0  0  0  0  0  0  0  0  0  0  0  0
    6.2730   -0.0930    0.0000 C   0  0  0  0  0  0  0  0  0  0  0  0
    6.8830   -1.4630    0.0000 C   0  0  0  0  0  0  0  0  0  0  0  0
    8.3750   -1.6200    0.0000 C   0  0  0  0  0  0  0  0  0  0  0  0
  1  2  1  0  0  0  0
  2  3  1  0  0  0  0
  2 17  2  0  0  0  0
  3  4  2  0  0  0  0
  4  5  1  0  0  0  0
  4 15  1  0  0  0  0
  5  6  1  0  0  0  0
  6  7  2  0  0  0  0
  6  8  1  0  0  0  0
  8  9  1  0  0  0  0
  8 15  1  0  0  0  0
  9 10  1  0  0  0  0
  9 14  1  0  0  0  0
 10 11  1  0  0  0  0
 11 12  1  0  0  0  0
 12 13  1  0  0  0  0
 13 14  1  0  0  0  0
 15 16  2  0  0  0  0
 16 17  1  0  0  0  0
M  END
>  <name>
Clc1cc2NC(=O)N(C3CC[N;amine]CC3)c2cc1

>  <apo>
1

>  <freq>
1

>  <freq0>
0

>  <freq1>
1

>  <freqA>
0.99887151

>  <a_count>
31

$$$$

  MOE2015           2D

 20 21  0  0  1  0  0  0  0  0999 V2000
    1.6830    4.1420    0.0000 F   0  0  0  0  0  0  0  0  0  0  0  0
    0.9330    2.8430    0.0000 C   0  0  0  0  0  0  0  0  0  0  0  0
    0.1830    4.1420    0.0000 F   0  0  0  0  0  0  0  0  0  0  0  0
    2.2320    2.0930    0.0000 C   0  0  1  0  0  0  0  0  0  0  0  0
    2.9820    3.3920    0.0000 O   0  0  0  0  0  0  0  0  0  0  0  0
    1.4820    0.7940    0.0000 C   0  0  0  0  0  0  0  0  0  0  0  0
    3.5310    1.3430    0.0000 C   0  0  0  0  0  0  0  0  0  0  0  0
    4.8300    2.0930    0.0000 C   0  0  0  0  0  0  0  0  0  0  0  0
    4.8300    3.5930    0.0000 F   0  0  0  0  0  0  0  0  0  0  0  0
    6.1290    1.3430    0.0000 C   0  0  0  0  0  0  0  0  0  0  0  0
    6.1290   -0.1570    0.0000 C   0  0  0  0  0  0  0  0  0  0  0  0
    7.4280   -0.9070    0.0000 F   0  0  0  0  0  0  0  0  0  0  0  0
    4.8300   -0.9070    0.0000 C   0  0  0  0  0  0  0  0  0  0  0  0
    3.5310   -0.1570    0.0000 C   0  0  0  0  0  0  0  0  0  0  0  0
   -0.3660    2.0930    0.0000 C   0  0  0  0  0  0  0  0  0  0  0  0
   -0.3660    0.5930    0.0000 N   0  0  0  0  0  0  0  0  0  0  0  0
   -1.6650   -0.1570    0.0000 C   0  0  0  0  0  0  0  0  0  0  0  0
   -2.9640    0.5930    0.0000 C   0  0  0  0  0  0  0  0  0  0  0  0
   -2.9640    2.0930    0.0000 C   0  0  0  0  0  0  0  0  0  0  0  0
   -1.6650    2.8430    0.0000 C   0  0  0  0  0  0  0  0  0  0  0  0
  1  2  1  0  0  0  0
  2  3  1  0  0  0  0
  4  2  1  6  0  0  0
  2 15  1  0  0  0  0
  4  5  1  0  0  0  0
  4  6  1  1  0  0  0
  4  7  1  0  0  0  0
  7  8  2  0  0  0  0
  7 14  1  0  0  0  0
  8  9  1  0  0  0  0
  8 10  1  0  0  0  0
 10 11  2  0  0  0  0
 11 12  1  0  0  0  0
 11 13  1  0  0  0  0
 13 14  2  0  0  0  0
 15 16  2  0  0  0  0
 15 20  1  0  0  0  0
 16 17  1  0  0  0  0
 17 18  2  0  0  0  0
 18 19  1  0  0  0  0
 19 20  2  0  0  0  0
M  END
>  <name>
FC(F)([C@@](O)([C;NaroC])c1c(F)cc(F)cc1)c1nc[c;biphenyl]cc1

>  <apo>
2

>  <freq>
1

>  <freq0>
0

>  <freq1>
1

>  <freqA>
0.99887151

>  <a_count>
31

$$$$

  MOE2015           2D

 18 19  0  0  1  0  0  0  0  0999 V2000
    0.6250   -0.3610    0.0000 F   0  0  0  0  0  0  0  0  0  0  0  0
   -0.1250    0.9380    0.0000 C   0  0  0  0  0  0  0  0  0  0  0  0
    0.6250    2.2370    0.0000 C   0  0  0  0  0  0  0  0  0  0  0  0
    2.1250    2.2370    0.0000 C   0  0  1  0  0  0  0  0  0  0  0  0
    2.8750    3.5360    0.0000 C   0  0  1  0  0  0  0  0  0  0  0  0
    2.1250    4.8350    0.0000 C   0  0  0  0  0  0  0  0  0  0  0  0
    4.3750    3.5360    0.0000 N   0  0  0  0  0  0  0  0  0  0  0  0
    5.1250    2.2370    0.0000 C   0  0  0  0  0  0  0  0  0  0  0  0
    6.6250    2.2370    0.0000 O   0  0  0  0  0  0  0  0  0  0  0  0
    4.3750    0.9380    0.0000 C   0  0  1  0  0  0  0  0  0  0  0  0
    5.1250   -0.3610    0.0000 N   0  0  0  0  0  0  0  0  0  0  0  0
    2.8750    0.9380    0.0000 C   0  0  0  0  0  0  0  0  0  0  0  0
   -0.1250    3.5360    0.0000 C   0  0  0  0  0  0  0  0  0  0  0  0
    0.6250    4.8350    0.0000 F   0  0  0  0  0  0  0  0  0  0  0  0
   -1.6250    3.5360    0.0000 C   0  0  0  0  0  0  0  0  0  0  0  0
   -2.3750    2.2370    0.0000 C   0  0  0  0  0  0  0  0  0  0  0  0
   -1.6250    0.9380    0.0000 C   0  0  0  0  0  0  0  0  0  0  0  0
   -2.3750   -0.3610    0.0000 F   0  0  0  0  0  0  0  0  0  0  0  0
  1  2  1  0  0  0  0
  2  3  2  0  0  0  0
  2 17  1  0  0  0  0
  4  3  1  1  0  0  0
  3 13  1  0  0  0  0
  4  5  1  0  0  0  0
  4 12  1  0  0  0  0
  5  6  1  1  0  0  0
  5  7  1  0  0  0  0
  7  8  1  0  0  0  0
  8  9  2  0  0  0  0
  8 10  1  0  0  0  0
 10 11  1  1  0  0  0
 10 12  1  0  0  0  0
 13 14  1  0  0  0  0
 13 15  2  0  0  0  0
 15 16  1  0  0  0  0
 16 17  2  0  0  0  0
 17 18  1  0  0  0  0
M  END
>  <name>
Fc1c([C@H]2[C@@H](C)[N;lactam]C(=O)[C@@H]([N;amide])C2)c(F)ccc1F

>  <apo>
2

>  <freq>
1

>  <freq0>
0

>  <freq1>
1

>  <freqA>
0.99887151

>  <a_count>
31

$$$$

  MOE2015           2D

 16 17  0  0  0  0  0  0  0  0999 V2000
    0.1650    2.5470    0.0000 F   0  0  0  0  0  0  0  0  0  0  0  0
    1.4640    1.7970    0.0000 C   0  0  0  0  0  0  0  0  0  0  0  0
    1.4640    0.2970    0.0000 C   0  0  0  0  0  0  0  0  0  0  0  0
    0.1650   -0.4530    0.0000 N   0  0  0  0  0  0  0  0  0  0  0  0
    2.7630   -0.4530    0.0000 C   0  0  0  0  0  0  0  0  0  0  0  0
    4.0620    0.2970    0.0000 C   0  0  0  0  0  0  0  0  0  0  0  0
    4.0620    1.7970    0.0000 C   0  0  0  0  0  0  0  0  0  0  0  0
    5.4890    2.2600    0.0000 N   0  0  0  0  0  0  0  0  0  0  0  0
    6.3700    1.0470    0.0000 C   0  0  0  0  0  0  0  0  0  0  0  0
    7.8700    1.0470    0.0000 C   0  0  0  0  0  0  0  0  0  0  0  0
    9.3700    1.0470    0.0000 C   0  0  0  0  0  0  0  0  0  0  0  0
   10.1200   -0.2520    0.0000 O   0  0  0  0  0  0  0  0  0  0  0  0
    7.8700    2.5470    0.0000 C   0  0  0  0  0  0  0  0  0  0  0  0
    7.8700   -0.4530    0.0000 C   0  0  0  0  0  0  0  0  0  0  0  0
    5.4890   -0.1670    0.0000 C   0  0  0  0  0  0  0  0  0  0  0  0
    2.7630    2.5470    0.0000 C   0  0  0  0  0  0  0  0  0  0  0  0
  1  2  1  0  0  0  0
  2  3  1  0  0  0  0
  2 16  2  0  0  0  0
  3  4  1  0  0  0  0
  3  5  2  0  0  0  0
  5  6  1  0  0  0  0
  6  7  2  0  0  0  0
  6 15  1  0  0  0  0
  7  8  1  0  0  0  0
  7 16  1  0  0  0  0
  8  9  1  0  0  0  0
  9 10  1  0  0  0  0
  9 15  2  0  0  0  0
 10 11  1  0  0  0  0
 10 13  1  0  0  0  0
 10 14  1  0  0  0  0
 11 12  1  0  0  0  0
M  END
>  <name>
Fc1c([N;amide])cc2c([nH;NaroC]c(C(CO)(C)C)c2)c1

>  <apo>
2

>  <freq>
1

>  <freq0>
0

>  <freq1>
1

>  <freqA>
0.99887151

>  <a_count>
31

$$$$

  MOE2015           2D

 20 23  0  0  0  0  0  0  0  0999 V2000
    0.4340   -1.6090    0.0000 N   0  0  0  0  0  0  0  0  0  0  0  0
   -0.8650   -0.8590    0.0000 C   0  0  0  0  0  0  0  0  0  0  0  0
   -0.8650    0.6410    0.0000 N   0  0  0  0  0  0  0  0  0  0  0  0
   -2.1640    1.3910    0.0000 C   0  0  0  0  0  0  0  0  0  0  0  0
   -3.4630    0.6410    0.0000 N   0  0  0  0  0  0  0  0  0  0  0  0
   -3.4630   -0.8590    0.0000 C   0  0  0  0  0  0  0  0  0  0  0  0
   -2.1640   -1.6090    0.0000 C   0  0  0  0  0  0  0  0  0  0  0  0
   -2.1640   -3.1090    0.0000 C   0  0  0  0  0  0  0  0  0  0  0  0
   -3.4630   -3.8590    0.0000 C   0  0  0  0  0  0  0  0  0  0  0  0
   -4.7620   -3.1090    0.0000 C   0  0  0  0  0  0  0  0  0  0  0  0
   -4.7620   -1.6090    0.0000 C   0  0  0  0  0  0  0  0  0  0  0  0
    1.7340   -0.8590    0.0000 C   0  0  0  0  0  0  0  0  0  0  0  0
    3.0330   -1.6090    0.0000 C   0  0  0  0  0  0  0  0  0  0  0  0
    4.3320   -0.8590    0.0000 C   0  0  0  0  0  0  0  0  0  0  0  0
    4.3320    0.6410    0.0000 C   0  0  0  0  0  0  0  0  0  0  0  0
    5.7580    1.1050    0.0000 N   0  0  0  0  0  0  0  0  0  0  0  0
    6.6400   -0.1090    0.0000 N   0  0  0  0  0  0  0  0  0  0  0  0
    5.7580   -1.3220    0.0000 C   0  0  0  0  0  0  0  0  0  0  0  0
    3.0330    1.3910    0.0000 C   0  0  0  0  0  0  0  0  0  0  0  0
    1.7340    0.6410    0.0000 C   0  0  0  0  0  0  0  0  0  0  0  0
  1  2  1  0  0  0  0
  1 12  1  0  0  0  0
  2  3  2  0  0  0  0
  2  7  1  0  0  0  0
  3  4  1  0  0  0  0
  4  5  2  0  0  0  0
  5  6  1  0  0  0  0
  6  7  1  0  0  0  0
  6 11  2  0  0  0  0
  7  8  2  0  0  0  0
  8  9  1  0  0  0  0
  9 10  2  0  0  0  0
 10 11  1  0  0  0  0
 12 13  1  0  0  0  0
 12 20  2  0  0  0  0
 13 14  2  0  0  0  0
 14 15  1  0  0  0  0
 14 18  1  0  0  0  0
 15 16  1  0  0  0  0
 15 19  2  0  0  0  0
 16 17  1  0  0  0  0
 17 18  2  0  0  0  0
 19 20  1  0  0  0  0
M  END
>  <name>
N(c1n[c;biphenyl]nc2c1cccc2)c1cc2c([nH]nc2)cc1

>  <apo>
1

>  <freq>
1

>  <freq0>
0

>  <freq1>
1

>  <freqA>
0.99887151

>  <a_count>
31

$$$$

  MOE2015           2D

 15 15  0  0  0  0  0  0  0  0999 V2000
   -2.9000    5.0230    0.0000 O   0  0  0  0  0  0  0  0  0  0  0  0
   -2.1500    6.3220    0.0000 C   0  0  0  0  0  0  0  0  0  0  0  0
   -2.1500    3.7240    0.0000 C   0  0  0  0  0  0  0  0  0  0  0  0
   -2.9000    2.4250    0.0000 C   0  0  0  0  0  0  0  0  0  0  0  0
   -4.4000    2.4250    0.0000 O   0  0  0  0  0  0  0  0  0  0  0  0
   -5.1500    1.1260    0.0000 C   0  0  0  0  0  0  0  0  0  0  0  0
   -2.1500    1.1260    0.0000 C   0  0  0  0  0  0  0  0  0  0  0  0
   -2.9000   -0.1730    0.0000 O   0  0  0  0  0  0  0  0  0  0  0  0
   -0.6500    1.1260    0.0000 C   0  0  0  0  0  0  0  0  0  0  0  0
    0.1000   -0.1730    0.0000 C   0  0  0  0  0  0  0  0  0  0  0  0
    0.1000    2.4250    0.0000 C   0  0  0  0  0  0  0  0  0  0  0  0
    1.6000    2.4250    0.0000 C   0  0  0  0  0  0  0  0  0  0  0  0
    2.3500    1.1260    0.0000 C   0  0  0  0  0  0  0  0  0  0  0  0
   -0.6500    3.7240    0.0000 C   0  0  0  0  0  0  0  0  0  0  0  0
    0.1000    5.0230    0.0000 O   0  0  0  0  0  0  0  0  0  0  0  0
  1  2  1  0  0  0  0
  1  3  1  0  0  0  0
  3  4  1  0  0  0  0
  3 14  2  0  0  0  0
  4  5  1  0  0  0  0
  4  7  2  0  0  0  0
  5  6  1  0  0  0  0
  7  8  1  0  0  0  0
  7  9  1  0  0  0  0
  9 10  1  0  0  0  0
  9 11  2  0  0  0  0
 11 12  1  0  0  0  0
 11 14  1  0  0  0  0
 12 13  1  0  0  0  0
 14 15  1  0  0  0  0
M  END
>  <name>
O(C)c1c(OC)c(O)c(C)c(C[C;olefin])c1O

>  <apo>
1

>  <freq>
1

>  <freq0>
0

>  <freq1>
1

>  <freqA>
0.99887151

>  <a_count>
31

$$$$

  MOE2015           2D

 16 17  0  0  0  0  0  0  0  0999 V2000
   -4.6840    4.6830    0.0000 O   0  0  0  0  0  0  0  0  0  0  0  0
   -4.6840    6.1830    0.0000 C   0  0  0  0  0  0  0  0  0  0  0  0
   -3.3850    3.9330    0.0000 C   0  0  0  0  0  0  0  0  0  0  0  0
   -3.3840    2.4330    0.0000 C   0  0  0  0  0  0  0  0  0  0  0  0
   -4.6830    1.6830    0.0000 O   0  0  0  0  0  0  0  0  0  0  0  0
   -4.6830    0.1830    0.0000 C   0  0  0  0  0  0  0  0  0  0  0  0
   -2.0850    1.6830    0.0000 C   0  0  0  0  0  0  0  0  0  0  0  0
   -0.7860    2.4340    0.0000 C   0  0  0  0  0  0  0  0  0  0  0  0
   -0.7860    3.9340    0.0000 C   0  0  0  0  0  0  0  0  0  0  0  0
   -2.0860    4.6830    0.0000 C   0  0  0  0  0  0  0  0  0  0  0  0
    0.3870    4.8670    0.0000 C   0  0  0  0  0  0  0  0  0  0  0  0
    1.8500    4.5330    0.0000 C   0  0  0  0  0  0  0  0  0  0  0  0
    2.7850    5.7050    0.0000 O   0  0  0  0  0  0  0  0  0  0  0  0
    2.5010    3.1810    0.0000 N   0  0  0  0  0  0  0  0  0  0  0  0
    1.8490    1.8300    0.0000 C   0  0  0  0  0  0  0  0  0  0  0  0
    0.3860    1.4980    0.0000 C   0  0  0  0  0  0  0  0  0  0  0  0
  1  2  1  0  0  0  0
  1  3  1  0  0  0  0
  3  4  1  0  0  0  0
  3 10  2  0  0  0  0
  4  5  1  0  0  0  0
  4  7  2  0  0  0  0
  5  6  1  0  0  0  0
  7  8  1  0  0  0  0
  8  9  2  0  0  0  0
  8 16  1  0  0  0  0
  9 10  1  0  0  0  0
  9 11  1  0  0  0  0
 11 12  1  0  0  0  0
 12 13  2  0  0  0  0
 12 14  1  0  0  0  0
 14 15  1  0  0  0  0
 15 16  1  0  0  0  0
M  END
>  <name>
O(C)c1c(OC)cc2c(c1)CC(=O)[N;lactam]CC2

>  <apo>
1

>  <freq>
1

>  <freq0>
0

>  <freq1>
1

>  <freqA>
0.99887151

>  <a_count>
31

$$$$

  MOE2015           2D

 17 18  0  0  0  0  0  0  0  0999 V2000
   -5.0470    5.0470    0.0000 O   0  0  0  0  0  0  0  0  0  0  0  0
   -5.0470    6.5470    0.0000 C   0  0  0  0  0  0  0  0  0  0  0  0
   -3.7480    4.2970    0.0000 C   0  0  0  0  0  0  0  0  0  0  0  0
   -3.7480    2.7970    0.0000 C   0  0  0  0  0  0  0  0  0  0  0  0
   -5.0470    2.0470    0.0000 O   0  0  0  0  0  0  0  0  0  0  0  0
   -5.0470    0.5470    0.0000 C   0  0  0  0  0  0  0  0  0  0  0  0
   -2.4490    2.0470    0.0000 C   0  0  0  0  0  0  0  0  0  0  0  0
   -1.1500    2.7970    0.0000 C   0  0  0  0  0  0  0  0  0  0  0  0
    0.1490    2.0470    0.0000 N   0  0  0  0  0  0  0  0  0  0  0  0
    1.4480    2.7970    0.0000 C   0  0  0  0  0  0  0  0  0  0  0  0
    2.7470    2.0470    0.0000 N   0  0  0  0  0  0  0  0  0  0  0  0
    4.0460    2.7970    0.0000 C   0  0  0  0  0  0  0  0  0  0  0  0
    1.4480    4.2970    0.0000 N   0  0  0  0  0  0  0  0  0  0  0  0
    0.1490    5.0470    0.0000 C   0  0  0  0  0  0  0  0  0  0  0  0
    0.1490    6.5470    0.0000 N   0  0  0  0  0  0  0  0  0  0  0  0
   -1.1500    4.2970    0.0000 C   0  0  0  0  0  0  0  0  0  0  0  0
   -2.4490    5.0470    0.0000 C   0  0  0  0  0  0  0  0  0  0  0  0
  1  2  1  0  0  0  0
  1  3  1  0  0  0  0
  3  4  1  0  0  0  0
  3 17  2  0  0  0  0
  4  5  1  0  0  0  0
  4  7  2  0  0  0  0
  5  6  1  0  0  0  0
  7  8  1  0  0  0  0
  8  9  1  0  0  0  0
  8 16  2  0  0  0  0
  9 10  2  0  0  0  0
 10 11  1  0  0  0  0
 10 13  1  0  0  0  0
 11 12  1  0  0  0  0
 13 14  2  0  0  0  0
 14 15  1  0  0  0  0
 14 16  1  0  0  0  0
 16 17  1  0  0  0  0
M  END
>  <name>
O(C)c1c(OC)cc2nc([N;amine]C)nc(N)c2c1

>  <apo>
1

>  <freq>
1

>  <freq0>
0

>  <freq1>
1

>  <freqA>
0.99887151

>  <a_count>
31

$$$$

  MOE2015           2D

 18 20  0  0  0  0  0  0  0  0999 V2000
    6.4500   -6.4500    0.0000 O   0  0  0  0  0  0  0  0  0  0  0  0
    6.4500   -4.9500    0.0000 C   0  0  0  0  0  0  0  0  0  0  0  0
    7.7490   -4.2000    0.0000 C   0  0  0  0  0  0  0  0  0  0  0  0
    9.0480   -4.9500    0.0000 C   0  0  0  0  0  0  0  0  0  0  0  0
    5.1510   -4.2000    0.0000 C   0  0  0  0  0  0  0  0  0  0  0  0
    3.8520   -4.9500    0.0000 C   0  0  0  0  0  0  0  0  0  0  0  0
    2.5530   -4.2000    0.0000 C   0  0  0  0  0  0  0  0  0  0  0  0
    1.2540   -4.9500    0.0000 N   0  0  0  0  0  0  0  0  0  0  0  0
   -0.0450   -4.2000    0.0000 C   0  0  0  0  0  0  0  0  0  0  0  0
   -0.0450   -2.7000    0.0000 C   0  0  0  0  0  0  0  0  0  0  0  0
    1.2540   -1.9500    0.0000 S   0  0  0  0  0  0  0  0  0  0  0  0
    2.5530   -2.7000    0.0000 C   0  0  0  0  0  0  0  0  0  0  0  0
    3.8520   -1.9500    0.0000 C   0  0  0  0  0  0  0  0  0  0  0  0
    5.1510   -2.7000    0.0000 C   0  0  0  0  0  0  0  0  0  0  0  0
   -1.3440   -1.9500    0.0000 C   0  0  0  0  0  0  0  0  0  0  0  0
   -2.6430   -2.7000    0.0000 C   0  0  0  0  0  0  0  0  0  0  0  0
   -2.6430   -4.2000    0.0000 C   0  0  0  0  0  0  0  0  0  0  0  0
   -1.3440   -4.9500    0.0000 C   0  0  0  0  0  0  0  0  0  0  0  0
  1  2  2  0  0  0  0
  2  3  1  0  0  0  0
  2  5  1  0  0  0  0
  3  4  1  0  0  0  0
  5  6  1  0  0  0  0
  5 14  2  0  0  0  0
  6  7  2  0  0  0  0
  7  8  1  0  0  0  0
  7 12  1  0  0  0  0
  8  9  1  0  0  0  0
  9 10  1  0  0  0  0
  9 18  2  0  0  0  0
 10 11  1  0  0  0  0
 10 15  2  0  0  0  0
 11 12  1  0  0  0  0
 12 13  2  0  0  0  0
 13 14  1  0  0  0  0
 15 16  1  0  0  0  0
 16 17  2  0  0  0  0
 17 18  1  0  0  0  0
M  END
>  <name>
O=C(CC)c1cc2[N;amine]c3c(Sc2cc1)cccc3

>  <apo>
1

>  <freq>
1

>  <freq0>
0

>  <freq1>
1

>  <freqA>
0.99887151

>  <a_count>
31

$$$$

  MOE2015           2D

 17 18  0  0  0  0  0  0  0  0999 V2000
    1.4330   -3.4200    0.0000 O   0  0  0  0  0  0  0  0  0  0  0  0
    1.4330   -1.9200    0.0000 C   0  0  0  0  0  0  0  0  0  0  0  0
    2.7320   -1.1700    0.0000 C   0  0  0  0  0  0  0  0  0  0  0  0
    4.0310   -1.9200    0.0000 C   0  0  0  0  0  0  0  0  0  0  0  0
    5.3300   -1.1700    0.0000 C   0  0  0  0  0  0  0  0  0  0  0  0
    5.3300    0.3300    0.0000 C   0  0  0  0  0  0  0  0  0  0  0  0
    6.6290    1.0800    0.0000 C   0  0  0  0  0  0  0  0  0  0  0  0
    7.9280    0.3300    0.0000 C   0  0  0  0  0  0  0  0  0  0  0  0
    7.9280   -1.1700    0.0000 C   0  0  0  0  0  0  0  0  0  0  0  0
    6.6290   -1.9200    0.0000 C   0  0  0  0  0  0  0  0  0  0  0  0
    0.1340   -1.1700    0.0000 C   0  0  0  0  0  0  0  0  0  0  0  0
   -1.1650   -1.9200    0.0000 C   0  0  0  0  0  0  0  0  0  0  0  0
   -1.1650   -3.4200    0.0000 O   0  0  0  0  0  0  0  0  0  0  0  0
   -2.4640   -1.1700    0.0000 C   0  0  0  0  0  0  0  0  0  0  0  0
   -2.4640    0.3300    0.0000 C   0  0  0  0  0  0  0  0  0  0  0  0
   -1.1650    1.0800    0.0000 C   0  0  0  0  0  0  0  0  0  0  0  0
    0.1340    0.3300    0.0000 C   0  0  0  0  0  0  0  0  0  0  0  0
  1  2  2  0  0  0  0
  2  3  1  0  0  0  0
  2 11  1  0  0  0  0
  3  4  1  0  0  0  0
  4  5  1  0  0  0  0
  5  6  1  0  0  0  0
  5 10  2  0  0  0  0
  6  7  2  0  0  0  0
  7  8  1  0  0  0  0
  8  9  2  0  0  0  0
  9 10  1  0  0  0  0
 11 12  1  0  0  0  0
 11 17  2  0  0  0  0
 12 13  1  0  0  0  0
 12 14  2  0  0  0  0
 14 15  1  0  0  0  0
 15 16  2  0  0  0  0
 16 17  1  0  0  0  0
M  END
>  <name>
O=C(CCc1ccccc1)c1c([O;ether])cccc1

>  <apo>
1

>  <freq>
1

>  <freq0>
0

>  <freq1>
1

>  <freqA>
0.99887151

>  <a_count>
31

$$$$

  MOE2015           2D

 15 16  0  0  0  0  0  0  0  0999 V2000
    0.4540   -0.4540    0.0000 O   0  0  0  0  0  0  0  0  0  0  0  0
    0.4540    1.0460    0.0000 C   0  0  0  0  0  0  0  0  0  0  0  0
   -0.8450    1.7960    0.0000 N   0  0  0  0  0  0  0  0  0  0  0  0
    1.7530    1.7960    0.0000 C   0  0  0  0  0  0  0  0  0  0  0  0
    1.7530    3.2960    0.0000 C   0  0  0  0  0  0  0  0  0  0  0  0
    0.6380    4.3000    0.0000 N   0  0  0  0  0  0  0  0  0  0  0  0
    1.2480    5.6700    0.0000 C   0  0  0  0  0  0  0  0  0  0  0  0
    2.7400    5.5140    0.0000 C   0  0  0  0  0  0  0  0  0  0  0  0
    3.0520    4.0460    0.0000 C   0  0  0  0  0  0  0  0  0  0  0  0
    4.3510    3.2960    0.0000 C   0  0  0  0  0  0  0  0  0  0  0  0
    4.3510    1.7960    0.0000 C   0  0  0  0  0  0  0  0  0  0  0  0
    5.6500    1.0460    0.0000 C   0  0  0  0  0  0  0  0  0  0  0  0
    6.9490    1.7960    0.0000 C   0  0  0  0  0  0  0  0  0  0  0  0
    8.2480    1.0460    0.0000 C   0  0  0  0  0  0  0  0  0  0  0  0
    3.0520    1.0460    0.0000 C   0  0  0  0  0  0  0  0  0  0  0  0
  1  2  2  0  0  0  0
  2  3  1  0  0  0  0
  2  4  1  0  0  0  0
  4  5  1  0  0  0  0
  4 15  2  0  0  0  0
  5  6  1  0  0  0  0
  5  9  2  0  0  0  0
  6  7  1  0  0  0  0
  7  8  1  0  0  0  0
  8  9  1  0  0  0  0
  9 10  1  0  0  0  0
 10 11  2  0  0  0  0
 11 12  1  0  0  0  0
 11 15  1  0  0  0  0
 12 13  1  0  0  0  0
 13 14  1  0  0  0  0
M  END
>  <name>
O=C(N)c1c2[N;amine]CCc2cc(C[C;amine]C)c1

>  <apo>
2

>  <freq>
1

>  <freq0>
0

>  <freq1>
1

>  <freqA>
0.99887151

>  <a_count>
31

$$$$

  MOE2015           2D

 18 20  0  0  0  0  0  0  0  0999 V2000
    6.2200    6.2200    0.0000 O   0  0  0  0  0  0  0  0  0  0  0  0
    6.2200    4.7200    0.0000 C   0  0  0  0  0  0  0  0  0  0  0  0
    7.5190    3.9700    0.0000 O   0  0  0  0  0  0  0  0  0  0  0  0
    4.9210    3.9700    0.0000 C   0  0  0  0  0  0  0  0  0  0  0  0
    4.9210    2.4700    0.0000 C   0  0  0  0  0  0  0  0  0  0  0  0
    6.2200    1.7200    0.0000 O   0  0  0  0  0  0  0  0  0  0  0  0
    3.6220    1.7200    0.0000 C   0  0  0  0  0  0  0  0  0  0  0  0
    2.3230    2.4700    0.0000 C   0  0  0  0  0  0  0  0  0  0  0  0
    2.3230    3.9700    0.0000 N   0  0  0  0  0  0  0  0  0  0  0  0
    1.0240    4.7200    0.0000 C   0  0  0  0  0  0  0  0  0  0  0  0
   -0.4760    4.7200    0.0000 C   0  0  0  0  0  0  0  0  0  0  0  0
    0.2740    6.0190    0.0000 C   0  0  0  0  0  0  0  0  0  0  0  0
    3.6220    4.7200    0.0000 C   0  0  0  0  0  0  0  0  0  0  0  0
    1.0240    1.7200    0.0000 C   0  0  0  0  0  0  0  0  0  0  0  0
   -0.2750    2.4700    0.0000 C   0  0  0  0  0  0  0  0  0  0  0  0
    1.0240    0.2200    0.0000 C   0  0  0  0  0  0  0  0  0  0  0  0
    2.3230   -0.5300    0.0000 C   0  0  0  0  0  0  0  0  0  0  0  0
    3.6220    0.2200    0.0000 C   0  0  0  0  0  0  0  0  0  0  0  0
  1  2  2  0  0  0  0
  2  3  1  0  0  0  0
  2  4  1  0  0  0  0
  4  5  1  0  0  0  0
  4 13  2  0  0  0  0
  5  6  2  0  0  0  0
  5  7  1  0  0  0  0
  7  8  1  0  0  0  0
  7 18  2  0  0  0  0
  8  9  1  0  0  0  0
  8 14  2  0  0  0  0
  9 10  1  0  0  0  0
  9 13  1  0  0  0  0
 10 11  1  0  0  0  0
 10 12  1  0  0  0  0
 11 12  1  0  0  0  0
 14 15  1  0  0  0  0
 14 16  1  0  0  0  0
 16 17  2  0  0  0  0
 17 18  1  0  0  0  0
M  END
>  <name>
O=C(O)C=1C(=O)c2c(N(C3CC3)C=1)c(C)[c;biphenyl]cc2

>  <apo>
1

>  <freq>
1

>  <freq0>
0

>  <freq1>
1

>  <freqA>
0.99887151

>  <a_count>
31

$$$$

  MOE2015           2D

 15 16  0  0  1  0  0  0  0  0999 V2000
   -0.0050    0.0030    0.0000 O   0  0  0  0  0  0  0  0  0  0  0  0
   -0.7550    1.3020    0.0000 C   0  0  0  0  0  0  0  0  0  0  0  0
   -2.2550    1.3020    0.0000 O   0  0  0  0  0  0  0  0  0  0  0  0
   -0.0050    2.6010    0.0000 C   0  0  1  0  0  0  0  0  0  0  0  0
    1.4950    2.6010    0.0000 N   0  0  0  0  0  0  0  0  0  0  0  0
    2.0420    1.2050    0.0000 C   0  0  0  0  0  0  0  0  0  0  0  0
    1.0220    0.1050    0.0000 O   0  0  0  0  0  0  0  0  0  0  0  0
    3.4760    0.7630    0.0000 C   0  0  0  0  0  0  0  0  0  0  0  0
    4.7150    1.6090    0.0000 C   0  0  0  0  0  0  0  0  0  0  0  0
    4.8270    3.1050    0.0000 C   0  0  0  0  0  0  0  0  0  0  0  0
    3.7280    4.1240    0.0000 C   0  0  0  0  0  0  0  0  0  0  0  0
    2.2450    3.9000    0.0000 N   0  0  0  0  0  0  0  0  0  0  0  0
    1.4950    5.1990    0.0000 C   0  0  0  0  0  0  0  0  0  0  0  0
   -0.0050    5.1990    0.0000 C   0  0  0  0  0  0  0  0  0  0  0  0
   -0.7550    3.9000    0.0000 C   0  0  0  0  0  0  0  0  0  0  0  0
  1  2  2  0  0  0  0
  2  3  1  0  0  0  0
  4  2  1  6  0  0  0
  4  5  1  0  0  0  0
  4 15  1  0  0  0  0
  5  6  1  0  0  0  0
  5 12  1  0  0  0  0
  6  7  2  0  0  0  0
  6  8  1  0  0  0  0
  8  9  1  0  0  0  0
  9 10  1  0  0  0  0
 10 11  1  0  0  0  0
 11 12  1  0  0  0  0
 12 13  1  0  0  0  0
 13 14  1  0  0  0  0
 14 15  1  0  0  0  0
M  END
>  <name>
O=C(O)[C@H]1N2C(=O)[C;amine]CCCN2CCC1

>  <apo>
1

>  <freq>
1

>  <freq0>
0

>  <freq1>
1

>  <freqA>
0.99887151

>  <a_count>
31

$$$$

  MOE2015           2D

 15 15  0  0  0  0  0  0  0  0999 V2000
   -0.6510   -1.1660    0.0000 O   0  0  0  0  0  0  0  0  0  0  0  0
    0.7260   -0.5720    0.0000 C   0  0  0  0  0  0  0  0  0  0  0  0
    0.9000    0.9180    0.0000 O   0  0  0  0  0  0  0  0  0  0  0  0
    1.9290   -1.4680    0.0000 C   0  0  0  0  0  0  0  0  0  0  0  0
    1.9120   -2.9680    0.0000 C   0  0  0  0  0  0  0  0  0  0  0  0
    0.6880   -3.8350    0.0000 C   0  0  0  0  0  0  0  0  0  0  0  0
   -0.5360   -4.7030    0.0000 O   0  0  0  0  0  0  0  0  0  0  0  0
   -0.1790   -2.6120    0.0000 C   0  0  0  0  0  0  0  0  0  0  0  0
    1.5560   -5.0590    0.0000 C   0  0  0  0  0  0  0  0  0  0  0  0
    3.3330   -3.4480    0.0000 N   0  0  0  0  0  0  0  0  0  0  0  0
    4.2290   -2.2450    0.0000 C   0  0  0  0  0  0  0  0  0  0  0  0
    5.7290   -2.2620    0.0000 C   0  0  0  0  0  0  0  0  0  0  0  0
    6.4940   -0.9720    0.0000 C   0  0  0  0  0  0  0  0  0  0  0  0
    7.9930   -0.9890    0.0000 C   0  0  0  0  0  0  0  0  0  0  0  0
    3.3610   -1.0210    0.0000 N   0  0  0  0  0  0  0  0  0  0  0  0
  1  2  2  0  0  0  0
  2  3  1  0  0  0  0
  2  4  1  0  0  0  0
  4  5  2  0  0  0  0
  4 15  1  0  0  0  0
  5  6  1  0  0  0  0
  5 10  1  0  0  0  0
  6  7  1  0  0  0  0
  6  8  1  0  0  0  0
  6  9  1  0  0  0  0
 10 11  2  0  0  0  0
 11 12  1  0  0  0  0
 11 15  1  0  0  0  0
 12 13  1  0  0  0  0
 13 14  1  0  0  0  0
M  END
>  <name>
O=C(O)c1c(C(O)(C)C)nc(CCC)[nH;NaroC]1

>  <apo>
1

>  <freq>
1

>  <freq0>
0

>  <freq1>
1

>  <freqA>
0.99887151

>  <a_count>
31

$$$$

  MOE2015           2D

 14 15  0  0  1  0  0  0  0  0999 V2000
    1.2480    0.7840    0.0000 O   0  0  0  0  0  0  0  0  0  0  0  0
    0.5970   -0.5680    0.0000 C   0  0  0  0  0  0  0  0  0  0  0  0
   -0.8990   -0.6790    0.0000 O   0  0  0  0  0  0  0  0  0  0  0  0
   -1.7440    0.5600    0.0000 C   0  0  0  0  0  0  0  0  0  0  0  0
    1.4420   -1.8070    0.0000 C   0  0  1  0  0  0  0  0  0  0  0  0
    0.2400   -2.1160    0.0000 C   0  0  1  0  0  0  0  0  0  0  0  0
   -1.2520   -1.9630    0.0000 O   0  0  0  0  0  0  0  0  0  0  0  0
    1.6090   -2.7890    0.0000 C   0  0  0  0  0  0  0  0  0  0  0  0
    2.5890   -1.3890    0.0000 C   0  0  1  0  0  0  0  0  0  0  0  0
    3.8530   -1.0280    0.0000 N   0  0  0  0  0  0  0  0  0  0  0  0
    5.3470   -1.1650    0.0000 C   0  0  0  0  0  0  0  0  0  0  0  0
    2.4920   -0.3540    0.0000 C   0  0  2  0  0  0  0  0  0  0  0  0
    1.9840    1.1900    0.0000 C   0  0  0  0  0  0  0  0  0  0  0  0
    1.8770   -0.1380    0.0000 C   0  0  0  0  0  0  0  0  0  0  0  0
  1  2  2  0  0  0  0
  2  3  1  0  0  0  0
  5  2  1  6  0  0  0
  3  4  1  0  0  0  0
  5  6  1  0  0  0  0
  5 12  1  0  0  0  0
  6  7  1  6  0  0  0
  6  8  1  0  0  0  0
  8  9  1  0  0  0  0
  9 10  1  6  0  0  0
  9 14  1  0  0  0  0
 10 11  1  0  0  0  0
 12 10  1  1  0  0  0
 12 13  1  0  0  0  0
 13 14  1  0  0  0  0
M  END
>  <name>
O=C(OC)[C@H]1[C@@H]([O;ester])C[C@H]2N(C)[C@@H]1CC2

>  <apo>
1

>  <freq>
1

>  <freq0>
0

>  <freq1>
1

>  <freqA>
0.99887151

>  <a_count>
31

$$$$

  MOE2015           2D

 15 16  0  0  1  0  0  0  0  0999 V2000
    3.3830    3.3830    0.0000 O   0  0  0  0  0  0  0  0  0  0  0  0
    3.3830    1.8830    0.0000 C   0  0  0  0  0  0  0  0  0  0  0  0
    4.6820    1.1330    0.0000 C   0  0  0  0  0  0  0  0  0  0  0  0
    5.9810    1.8830    0.0000 C   0  0  0  0  0  0  0  0  0  0  0  0
    7.2800    1.1330    0.0000 C   0  0  0  0  0  0  0  0  0  0  0  0
    4.6820   -0.3670    0.0000 C   0  0  0  0  0  0  0  0  0  0  0  0
    5.9810   -1.1170    0.0000 C   0  0  0  0  0  0  0  0  0  0  0  0
    3.3830   -1.1170    0.0000 N   0  0  0  0  0  0  0  0  0  0  0  0
    2.0840   -0.3670    0.0000 C   0  0  0  0  0  0  0  0  0  0  0  0
    0.7850   -1.1170    0.0000 C   0  0  3  0  0  0  0  0  0  0  0  0
    0.7850   -2.6170    0.0000 O   0  0  0  0  0  0  0  0  0  0  0  0
   -0.5140   -0.3670    0.0000 C   0  0  0  0  0  0  0  0  0  0  0  0
   -0.5140    1.1330    0.0000 C   0  0  0  0  0  0  0  0  0  0  0  0
    0.7850    1.8830    0.0000 C   0  0  0  0  0  0  0  0  0  0  0  0
    2.0840    1.1330    0.0000 N   0  0  0  0  0  0  0  0  0  0  0  0
  1  2  2  0  0  0  0
  2  3  1  0  0  0  0
  2 15  1  0  0  0  0
  3  4  1  0  0  0  0
  3  6  2  0  0  0  0
  4  5  1  0  0  0  0
  6  7  1  0  0  0  0
  6  8  1  0  0  0  0
  8  9  2  0  0  0  0
  9 10  1  0  0  0  0
  9 15  1  0  0  0  0
 10 11  1  0  0  0  0
 10 12  1  0  0  0  0
 12 13  1  0  0  0  0
 13 14  1  0  0  0  0
 14 15  1  0  0  0  0
M  END
>  <name>
O=C1C(C[C;amine])=C(C)N=C2C(O)CCCN12

>  <apo>
1

>  <freq>
1

>  <freq0>
0

>  <freq1>
1

>  <freqA>
0.99887151

>  <a_count>
31

$$$$

  MOE2015           2D

 16 18  0  0  1  0  0  0  0  0999 V2000
    4.1260   -0.7330    0.0000 O   0  0  0  0  0  0  0  0  0  0  0  0
    4.1910    0.7660    0.0000 C   0  0  0  0  0  0  0  0  0  0  0  0
    5.5220    1.4580    0.0000 C   0  0  3  0  0  0  0  0  0  0  0  0
    6.7870    0.6520    0.0000 C   0  0  0  0  0  0  0  0  0  0  0  0
    5.5880    2.9570    0.0000 C   0  0  0  0  0  0  0  0  0  0  0  0
    4.3230    3.7630    0.0000 C   0  0  0  0  0  0  0  0  0  0  0  0
    2.9920    3.0700    0.0000 C   0  0  0  0  0  0  0  0  0  0  0  0
    1.5870    3.5960    0.0000 N   0  0  0  0  0  0  0  0  0  0  0  0
    1.1860    5.0410    0.0000 C   0  0  0  0  0  0  0  0  0  0  0  0
    0.6530    2.4220    0.0000 C   0  0  0  0  0  0  0  0  0  0  0  0
    1.4810    1.1710    0.0000 C   0  0  0  0  0  0  0  0  0  0  0  0
    2.9260    1.5720    0.0000 C   0  0  0  0  0  0  0  0  0  0  0  0
    0.8120   -0.1710    0.0000 C   0  0  0  0  0  0  0  0  0  0  0  0
   -0.6860   -0.2630    0.0000 C   0  0  0  0  0  0  0  0  0  0  0  0
   -1.5130    0.9880    0.0000 C   0  0  0  0  0  0  0  0  0  0  0  0
   -0.8440    2.3310    0.0000 C   0  0  0  0  0  0  0  0  0  0  0  0
  1  2  2  0  0  0  0
  2  3  1  0  0  0  0
  2 12  1  0  0  0  0
  3  4  1  0  0  0  0
  3  5  1  0  0  0  0
  5  6  1  0  0  0  0
  6  7  1  0  0  0  0
  7  8  1  0  0  0  0
  7 12  2  0  0  0  0
  8  9  1  0  0  0  0
  8 10  1  0  0  0  0
 10 11  1  0  0  0  0
 10 16  2  0  0  0  0
 11 12  1  0  0  0  0
 11 13  2  0  0  0  0
 13 14  1  0  0  0  0
 14 15  2  0  0  0  0
 15 16  1  0  0  0  0
M  END
>  <name>
O=C1C([C;NaroC])CCc2n(C)c3c(c12)cccc3

>  <apo>
1

>  <freq>
1

>  <freq0>
0

>  <freq1>
1

>  <freqA>
0.99887151

>  <a_count>
31

$$$$

  MOE2015           2D

 14 15  0  0  1  0  0  0  0  0999 V2000
    0.8920    0.8920    0.0000 O   0  0  0  0  0  0  0  0  0  0  0  0
    0.8920   -0.6080    0.0000 C   0  0  0  0  0  0  0  0  0  0  0  0
   -0.4070   -1.3580    0.0000 C   0  0  3  0  0  0  0  0  0  0  0  0
   -1.7060   -0.6080    0.0000 C   0  0  0  0  0  0  0  0  0  0  0  0
   -0.4070   -2.8580    0.0000 C   0  0  0  0  0  0  0  0  0  0  0  0
    0.8920   -3.6080    0.0000 C   0  0  0  0  0  0  0  0  0  0  0  0
    2.1920   -2.8580    0.0000 C   0  0  0  0  0  0  0  0  0  0  0  0
    3.6180   -3.3210    0.0000 N   0  0  0  0  0  0  0  0  0  0  0  0
    4.5000   -2.1080    0.0000 C   0  0  0  0  0  0  0  0  0  0  0  0
    6.0000   -2.1080    0.0000 C   0  0  0  0  0  0  0  0  0  0  0  0
    3.6180   -0.8940    0.0000 C   0  0  0  0  0  0  0  0  0  0  0  0
    4.0820    0.5330    0.0000 C   0  0  0  0  0  0  0  0  0  0  0  0
    5.5490    0.8440    0.0000 C   0  0  0  0  0  0  0  0  0  0  0  0
    2.1920   -1.3580    0.0000 C   0  0  0  0  0  0  0  0  0  0  0  0
  1  2  2  0  0  0  0
  2  3  1  0  0  0  0
  2 14  1  0  0  0  0
  3  4  1  0  0  0  0
  3  5  1  0  0  0  0
  5  6  1  0  0  0  0
  6  7  1  0  0  0  0
  7  8  1  0  0  0  0
  7 14  2  0  0  0  0
  8  9  1  0  0  0  0
  9 10  1  0  0  0  0
  9 11  2  0  0  0  0
 11 12  1  0  0  0  0
 11 14  1  0  0  0  0
 12 13  1  0  0  0  0
M  END
>  <name>
O=C1C([C;amine])CCc2[nH]c(C)c(CC)c12

>  <apo>
1

>  <freq>
1

>  <freq0>
0

>  <freq1>
1

>  <freqA>
0.99887151

>  <a_count>
31

$$$$

  MOE2015           2D

 16 18  0  0  0  0  0  0  0  0999 V2000
    4.2230    1.4050    0.0000 O   0  0  0  0  0  0  0  0  0  0  0  0
    3.0210    0.5060    0.0000 C   0  0  0  0  0  0  0  0  0  0  0  0
    3.0420   -0.9940    0.0000 N   0  0  0  0  0  0  0  0  0  0  0  0
    4.2680   -1.8580    0.0000 C   0  0  0  0  0  0  0  0  0  0  0  0
    4.1320   -3.3520    0.0000 C   0  0  0  0  0  0  0  0  0  0  0  0
    5.3580   -4.2170    0.0000 C   0  0  0  0  0  0  0  0  0  0  0  0
    6.7190   -3.5880    0.0000 N   0  0  0  0  0  0  0  0  0  0  0  0
    6.8550   -2.0940    0.0000 C   0  0  0  0  0  0  0  0  0  0  0  0
    5.6300   -1.2290    0.0000 C   0  0  0  0  0  0  0  0  0  0  0  0
    1.6220   -1.4770    0.0000 C   0  0  0  0  0  0  0  0  0  0  0  0
    0.7240   -0.2760    0.0000 C   0  0  0  0  0  0  0  0  0  0  0  0
    1.5890    0.9500    0.0000 N   0  0  0  0  0  0  0  0  0  0  0  0
   -0.7660   -0.4540    0.0000 C   0  0  0  0  0  0  0  0  0  0  0  0
   -1.3570   -1.8320    0.0000 C   0  0  0  0  0  0  0  0  0  0  0  0
   -0.4580   -3.0330    0.0000 C   0  0  0  0  0  0  0  0  0  0  0  0
    1.0310   -2.8560    0.0000 C   0  0  0  0  0  0  0  0  0  0  0  0
  1  2  2  0  0  0  0
  2  3  1  0  0  0  0
  2 12  1  0  0  0  0
  3  4  1  0  0  0  0
  3 10  1  0  0  0  0
  4  5  1  0  0  0  0
  4  9  1  0  0  0  0
  5  6  1  0  0  0  0
  6  7  1  0  0  0  0
  7  8  1  0  0  0  0
  8  9  1  0  0  0  0
 10 11  1  0  0  0  0
 10 16  2  0  0  0  0
 11 12  1  0  0  0  0
 11 13  2  0  0  0  0
 13 14  1  0  0  0  0
 14 15  2  0  0  0  0
 15 16  1  0  0  0  0
M  END
>  <name>
O=C1N(C2CC[N;amine]CC2)c2c(N1)cccc2

>  <apo>
1

>  <freq>
1

>  <freq0>
0

>  <freq1>
1

>  <freqA>
0.99887151

>  <a_count>
31

$$$$

  MOE2015           2D

 15 16  0  0  1  0  0  0  0  0999 V2000
    0.0000    0.0000    0.0000 O   0  0  0  0  0  0  0  0  0  0  0  0
    1.5000    0.0000    0.0000 C   0  0  0  0  0  0  0  0  0  0  0  0
    2.2500   -1.2990    0.0000 C   0  0  1  0  0  0  0  0  0  0  0  0
    1.5000   -2.5980    0.0000 N   0  0  0  0  0  0  0  0  0  0  0  0
    3.7500   -1.2990    0.0000 C   0  0  0  0  0  0  0  0  0  0  0  0
    4.5000    0.0000    0.0000 C   0  0  2  0  0  0  0  0  0  0  0  0
    3.7500    1.2990    0.0000 C   0  0  1  0  0  0  0  0  0  0  0  0
    4.5000    2.5980    0.0000 C   0  0  0  0  0  0  0  0  0  0  0  0
    2.2500    1.2990    0.0000 N   0  0  0  0  0  0  0  0  0  0  0  0
    6.0000    0.0000    0.0000 C   0  0  0  0  0  0  0  0  0  0  0  0
    6.7500   -1.2990    0.0000 C   0  0  0  0  0  0  0  0  0  0  0  0
    8.2500   -1.2990    0.0000 C   0  0  0  0  0  0  0  0  0  0  0  0
    9.0000    0.0000    0.0000 C   0  0  0  0  0  0  0  0  0  0  0  0
    8.2500    1.2990    0.0000 C   0  0  0  0  0  0  0  0  0  0  0  0
    6.7500    1.2990    0.0000 C   0  0  0  0  0  0  0  0  0  0  0  0
  1  2  2  0  0  0  0
  2  3  1  0  0  0  0
  2  9  1  0  0  0  0
  3  4  1  6  0  0  0
  3  5  1  0  0  0  0
  5  6  1  0  0  0  0
  6  7  1  0  0  0  0
  6 10  1  6  0  0  0
  7  8  1  6  0  0  0
  7  9  1  0  0  0  0
 10 11  1  0  0  0  0
 10 15  2  0  0  0  0
 11 12  2  0  0  0  0
 12 13  1  0  0  0  0
 13 14  2  0  0  0  0
 14 15  1  0  0  0  0
M  END
>  <name>
O=C1[C@@H]([N;amide])C[C@H]([C@@H](C)[N;lactam]1)c1ccccc1

>  <apo>
2

>  <freq>
1

>  <freq0>
0

>  <freq1>
1

>  <freqA>
0.99887151

>  <a_count>
31

$$$$

  MOE2015           2D

 19 21  0  0  1  0  0  0  0  0999 V2000
    7.4970   -7.4970    0.0000 O   0  0  0  0  0  0  0  0  0  0  0  0
    7.4970   -5.9970    0.0000 C   0  0  0  0  0  0  0  0  0  0  0  0
    6.1980   -5.2470    0.0000 C   0  0  0  0  0  0  0  0  0  0  0  0
    6.1980   -3.7470    0.0000 C   0  0  0  0  0  0  0  0  0  0  0  0
    7.4970   -2.9970    0.0000 O   0  0  0  0  0  0  0  0  0  0  0  0
    4.8990   -2.9970    0.0000 C   0  0  0  0  0  0  0  0  0  0  0  0
    4.8990   -1.4970    0.0000 O   0  0  0  0  0  0  0  0  0  0  0  0
    3.6000   -3.7470    0.0000 C   0  0  0  0  0  0  0  0  0  0  0  0
    2.3010   -2.9970    0.0000 C   0  0  0  0  0  0  0  0  0  0  0  0
    2.3010   -1.4970    0.0000 O   0  0  0  0  0  0  0  0  0  0  0  0
    1.0020   -3.7470    0.0000 N   0  0  0  0  0  0  0  0  0  0  0  0
   -0.4250   -3.2830    0.0000 C   0  0  1  0  0  0  0  0  0  0  0  0
   -0.8890   -1.8570    0.0000 C   0  0  0  0  0  0  0  0  0  0  0  0
   -1.3070   -4.4970    0.0000 C   0  0  0  0  0  0  0  0  0  0  0  0
   -0.4250   -5.7100    0.0000 O   0  0  0  0  0  0  0  0  0  0  0  0
    1.0020   -5.2470    0.0000 C   0  0  2  0  0  0  0  0  0  0  0  0
    2.3010   -5.9970    0.0000 C   0  0  0  0  0  0  0  0  0  0  0  0
    3.6000   -5.2470    0.0000 N   0  0  0  0  0  0  0  0  0  0  0  0
    4.8990   -5.9970    0.0000 C   0  0  0  0  0  0  0  0  0  0  0  0
  1  2  2  0  0  0  0
  2  3  1  0  0  0  0
  3  4  1  0  0  0  0
  3 19  2  0  0  0  0
  4  5  2  0  0  0  0
  4  6  1  0  0  0  0
  6  7  1  0  0  0  0
  6  8  2  0  0  0  0
  8  9  1  0  0  0  0
  8 18  1  0  0  0  0
  9 10  2  0  0  0  0
  9 11  1  0  0  0  0
 11 12  1  0  0  0  0
 11 16  1  0  0  0  0
 12 13  1  6  0  0  0
 12 14  1  0  0  0  0
 14 15  1  0  0  0  0
 16 15  1  1  0  0  0
 16 17  1  0  0  0  0
 17 18  1  0  0  0  0
 18 19  1  0  0  0  0
M  END
>  <name>
O=[C;amide]C=1C(=O)C(O)=C2C(=O)N3[C@@H](C)CO[C@@H]3CN2C=1

>  <apo>
1

>  <freq>
1

>  <freq0>
0

>  <freq1>
1

>  <freqA>
0.99887151

>  <a_count>
31

$$$$

  MOE2015           2D

 15 16  0  0  1  0  0  0  0  0999 V2000
    2.1500    3.2040    0.0000 O   0  0  0  0  0  0  0  0  0  0  0  0
    2.9000    1.9050    0.0000 C   0  0  0  0  0  0  0  0  0  0  0  0
    2.1500    0.6060    0.0000 C   0  0  2  0  0  0  0  0  0  0  0  0
    2.9000   -0.6930    0.0000 C   0  0  2  0  0  0  0  0  0  0  0  0
    4.4000   -0.6930    0.0000 C   0  0  0  0  0  0  0  0  0  0  0  0
    5.1500    0.6060    0.0000 C   0  0  0  0  0  0  0  0  0  0  0  0
    6.6500    0.6060    0.0000 C   0  0  0  0  0  0  0  0  0  0  0  0
    7.4000   -0.6930    0.0000 C   0  0  0  0  0  0  0  0  0  0  0  0
    8.9000   -0.6930    0.0000 N   0  0  0  0  0  0  0  0  0  0  0  0
    6.6500   -1.9920    0.0000 C   0  0  0  0  0  0  0  0  0  0  0  0
    5.1500   -1.9920    0.0000 C   0  0  0  0  0  0  0  0  0  0  0  0
    2.1500   -1.9920    0.0000 N   0  0  0  0  0  0  0  0  0  0  0  0
    0.6500   -1.9920    0.0000 C   0  0  0  0  0  0  0  0  0  0  0  0
   -0.1000   -0.6930    0.0000 C   0  0  0  0  0  0  0  0  0  0  0  0
    0.6500    0.6060    0.0000 C   0  0  0  0  0  0  0  0  0  0  0  0
  1  2  2  0  0  0  0
  3  2  1  6  0  0  0
  3  4  1  0  0  0  0
  3 15  1  0  0  0  0
  4  5  1  6  0  0  0
  4 12  1  0  0  0  0
  5  6  1  0  0  0  0
  5 11  2  0  0  0  0
  6  7  2  0  0  0  0
  7  8  1  0  0  0  0
  8  9  1  0  0  0  0
  8 10  2  0  0  0  0
 10 11  1  0  0  0  0
 12 13  1  0  0  0  0
 13 14  1  0  0  0  0
 14 15  1  0  0  0  0
M  END
>  <name>
O=[C;amide][C@@H]1[C@H](c2ccc([N;amine])cc2)[N;amide]CCC1

>  <apo>
3

>  <freq>
1

>  <freq0>
0

>  <freq1>
1

>  <freqA>
0.99887151

>  <a_count>
31

$$$$

  MOE2015           2D

 20 22  0  0  0  0  0  0  0  0999 V2000
   13.3550    0.0400    0.0000 O   0  0  0  0  0  0  0  0  0  0  0  0
   11.8550    0.0310    0.0000 C   0  0  0  0  0  0  0  0  0  0  0  0
   11.1130   -1.2730    0.0000 C   0  0  0  0  0  0  0  0  0  0  0  0
    9.6130   -1.2820    0.0000 C   0  0  0  0  0  0  0  0  0  0  0  0
    8.8710   -2.5850    0.0000 C   0  0  0  0  0  0  0  0  0  0  0  0
    7.3710   -2.5940    0.0000 C   0  0  0  0  0  0  0  0  0  0  0  0
    5.8710   -2.6030    0.0000 C   0  0  0  0  0  0  0  0  0  0  0  0
    4.3710   -2.6120    0.0000 C   0  0  0  0  0  0  0  0  0  0  0  0
    3.4820   -1.4040    0.0000 N   0  0  0  0  0  0  0  0  0  0  0  0
    3.7850    0.0650    0.0000 N   0  0  0  0  0  0  0  0  0  0  0  0
    2.6650    1.0630    0.0000 C   0  0  0  0  0  0  0  0  0  0  0  0
    1.2410    0.5910    0.0000 C   0  0  0  0  0  0  0  0  0  0  0  0
    0.9380   -0.8790    0.0000 C   0  0  0  0  0  0  0  0  0  0  0  0
    2.0580   -1.8760    0.0000 C   0  0  0  0  0  0  0  0  0  0  0  0
    2.0670   -3.3760    0.0000 N   0  0  0  0  0  0  0  0  0  0  0  0
    3.4970   -3.8310    0.0000 C   0  0  0  0  0  0  0  0  0  0  0  0
    9.6290   -3.8800    0.0000 C   0  0  0  0  0  0  0  0  0  0  0  0
    8.8860   -5.1830    0.0000 C   0  0  0  0  0  0  0  0  0  0  0  0
   11.1290   -3.8710    0.0000 C   0  0  0  0  0  0  0  0  0  0  0  0
   11.8710   -2.5670    0.0000 C   0  0  0  0  0  0  0  0  0  0  0  0
  1  2  2  0  0  0  0
  2  3  1  0  0  0  0
  3  4  1  0  0  0  0
  3 20  2  0  0  0  0
  4  5  2  0  0  0  0
  5  6  1  0  0  0  0
  5 17  1  0  0  0  0
  6  7  3  0  0  0  0
  7  8  1  0  0  0  0
  8  9  1  0  0  0  0
  8 16  2  0  0  0  0
  9 10  1  0  0  0  0
  9 14  1  0  0  0  0
 10 11  2  0  0  0  0
 11 12  1  0  0  0  0
 12 13  2  0  0  0  0
 13 14  1  0  0  0  0
 14 15  2  0  0  0  0
 15 16  1  0  0  0  0
 17 18  1  0  0  0  0
 17 19  2  0  0  0  0
 19 20  1  0  0  0  0
M  END
>  <name>
O=[C;amide]c1cc(C#Cc2n3N=CC=Cc3nc2)c(C)cc1

>  <apo>
1

>  <freq>
1

>  <freq0>
0

>  <freq1>
1

>  <freqA>
0.99887151

>  <a_count>
31

$$$$

  MOE2015           2D

 15 16  0  0  1  0  0  0  0  0999 V2000
    0.8510    1.0250    0.0000 O   0  0  0  0  0  0  0  0  0  0  0  0
    2.1500    0.2750    0.0000 C   0  0  0  0  0  0  0  0  0  0  0  0
    2.1500   -1.2250    0.0000 C   0  0  3  0  0  0  0  0  0  0  0  0
    2.1500   -2.7250    0.0000 O   0  0  0  0  0  0  0  0  0  0  0  0
    3.6500   -1.2250    0.0000 C   0  0  0  0  0  0  0  0  0  0  0  0
    4.4000    0.0740    0.0000 C   0  0  0  0  0  0  0  0  0  0  0  0
    5.9000    0.0740    0.0000 C   0  0  0  0  0  0  0  0  0  0  0  0
    6.6500   -1.2250    0.0000 C   0  0  0  0  0  0  0  0  0  0  0  0
    5.9000   -2.5240    0.0000 C   0  0  0  0  0  0  0  0  0  0  0  0
    4.4000   -2.5240    0.0000 C   0  0  0  0  0  0  0  0  0  0  0  0
    0.6500   -1.2250    0.0000 C   0  0  0  0  0  0  0  0  0  0  0  0
   -0.2320   -2.4390    0.0000 C   0  0  0  0  0  0  0  0  0  0  0  0
   -1.6580   -1.9750    0.0000 C   0  0  0  0  0  0  0  0  0  0  0  0
   -1.6580   -0.4750    0.0000 C   0  0  0  0  0  0  0  0  0  0  0  0
   -0.2320   -0.0120    0.0000 C   0  0  0  0  0  0  0  0  0  0  0  0
  1  2  2  0  0  0  0
  2  3  1  0  0  0  0
  3  4  1  0  0  0  0
  3  5  1  0  0  0  0
  3 11  1  0  0  0  0
  5  6  1  0  0  0  0
  5 10  2  0  0  0  0
  6  7  2  0  0  0  0
  7  8  1  0  0  0  0
  8  9  2  0  0  0  0
  9 10  1  0  0  0  0
 11 12  1  0  0  0  0
 11 15  1  0  0  0  0
 12 13  1  0  0  0  0
 13 14  1  0  0  0  0
 14 15  1  0  0  0  0
M  END
>  <name>
O=[C;ester]C(O)(c1ccccc1)C1CCCC1

>  <apo>
1

>  <freq>
1

>  <freq0>
0

>  <freq1>
1

>  <freqA>
0.99887151

>  <a_count>
31

$$$$

  MOE2015           2D

 15 16  0  0  1  0  0  0  0  0999 V2000
    3.2920    5.4470    0.0000 O   0  0  0  0  0  0  0  0  0  0  0  0
    1.9930    4.6980    0.0000 C   0  0  0  0  0  0  0  0  0  0  0  0
    1.9920    3.1980    0.0000 C   0  0  3  0  0  0  0  0  0  0  0  0
    3.2900    2.4470    0.0000 C   0  0  0  0  0  0  0  0  0  0  0  0
    3.2900    0.9470    0.0000 C   0  0  0  0  0  0  0  0  0  0  0  0
    4.5880    0.1970    0.0000 C   0  0  0  0  0  0  0  0  0  0  0  0
    5.8880    0.9460    0.0000 C   0  0  0  0  0  0  0  0  0  0  0  0
    5.8890    2.4460    0.0000 C   0  0  0  0  0  0  0  0  0  0  0  0
    4.5900    3.1970    0.0000 C   0  0  0  0  0  0  0  0  0  0  0  0
    0.6920    2.4480    0.0000 C   0  0  0  0  0  0  0  0  0  0  0  0
    0.6410    3.9480    0.0000 O   0  0  0  0  0  0  0  0  0  0  0  0
    1.2780    1.0670    0.0000 C   0  0  0  0  0  0  0  0  0  0  0  0
    0.1450    0.0840    0.0000 C   0  0  0  0  0  0  0  0  0  0  0  0
   -1.1400    0.8570    0.0000 C   0  0  0  0  0  0  0  0  0  0  0  0
   -0.8020    2.3180    0.0000 C   0  0  0  0  0  0  0  0  0  0  0  0
  1  2  2  0  0  0  0
  2  3  1  0  0  0  0
  3  4  1  0  0  0  0
  3 10  1  0  0  0  0
  4  5  1  0  0  0  0
  4  9  2  0  0  0  0
  5  6  2  0  0  0  0
  6  7  1  0  0  0  0
  7  8  2  0  0  0  0
  8  9  1  0  0  0  0
 10 11  1  0  0  0  0
 10 12  1  0  0  0  0
 10 15  1  0  0  0  0
 12 13  1  0  0  0  0
 13 14  1  0  0  0  0
 14 15  1  0  0  0  0
M  END
>  <name>
O=[C;ester]C(c1ccccc1)C1(O)CCCC1

>  <apo>
1

>  <freq>
1

>  <freq0>
0

>  <freq1>
1

>  <freqA>
0.99887151

>  <a_count>
31

$$$$

  MOE2015           2D

 11 10  0  0  0  0  0  0  0  0999 V2000
   12.2910   -3.2930    0.0000 O   0  0  0  0  0  0  0  0  0  0  0  0
   10.9920   -2.5430    0.0000 C   0  0  0  0  0  0  0  0  0  0  0  0
    9.6930   -3.2930    0.0000 C   0  0  0  0  0  0  0  0  0  0  0  0
    8.3940   -2.5430    0.0000 C   0  0  0  0  0  0  0  0  0  0  0  0
    7.0940   -3.2930    0.0000 C   0  0  0  0  0  0  0  0  0  0  0  0
    5.7950   -2.5430    0.0000 C   0  0  0  0  0  0  0  0  0  0  0  0
    4.4960   -3.2930    0.0000 C   0  0  0  0  0  0  0  0  0  0  0  0
    3.1970   -2.5430    0.0000 C   0  0  0  0  0  0  0  0  0  0  0  0
    1.8980   -3.2930    0.0000 C   0  0  0  0  0  0  0  0  0  0  0  0
    0.5990   -2.5430    0.0000 C   0  0  0  0  0  0  0  0  0  0  0  0
   -0.7000   -3.2930    0.0000 C   0  0  0  0  0  0  0  0  0  0  0  0
  1  2  2  0  0  0  0
  2  3  1  0  0  0  0
  3  4  1  0  0  0  0
  4  5  1  0  0  0  0
  5  6  1  0  0  0  0
  6  7  1  0  0  0  0
  7  8  1  0  0  0  0
  8  9  1  0  0  0  0
  9 10  1  0  0  0  0
 10 11  1  0  0  0  0
M  END
>  <name>
O=[C;ester]CCCCCCCCC

>  <apo>
1

>  <freq>
1

>  <freq0>
0

>  <freq1>
1

>  <freqA>
0.99887151

>  <a_count>
31

$$$$

  MOE2015           2D

 14 14  0  0  1  0  0  0  0  0999 V2000
   10.7210   -3.6230    0.0000 O   0  0  0  0  0  0  0  0  0  0  0  0
    9.4220   -4.3730    0.0000 C   0  0  0  0  0  0  0  0  0  0  0  0
    8.1230   -3.6230    0.0000 C   0  0  1  0  0  0  0  0  0  0  0  0
    6.8240   -4.3730    0.0000 C   0  0  0  0  0  0  0  0  0  0  0  0
    5.5250   -3.6230    0.0000 C   0  0  2  0  0  0  0  0  0  0  0  0
    5.5250   -2.1230    0.0000 N   0  0  0  0  0  0  0  0  0  0  0  0
    4.2250   -4.3730    0.0000 C   0  0  0  0  0  0  0  0  0  0  0  0
    2.9260   -3.6230    0.0000 C   0  0  0  0  0  0  0  0  0  0  0  0
    1.6270   -4.3730    0.0000 C   0  0  0  0  0  0  0  0  0  0  0  0
    0.3280   -3.6230    0.0000 C   0  0  0  0  0  0  0  0  0  0  0  0
    0.3280   -2.1230    0.0000 C   0  0  0  0  0  0  0  0  0  0  0  0
    1.6270   -1.3730    0.0000 C   0  0  0  0  0  0  0  0  0  0  0  0
    2.9260   -2.1230    0.0000 C   0  0  0  0  0  0  0  0  0  0  0  0
    8.1230   -2.1230    0.0000 C   0  0  0  0  0  0  0  0  0  0  0  0
  1  2  2  0  0  0  0
  2  3  1  0  0  0  0
  3  4  1  0  0  0  0
  3 14  1  1  0  0  0
  4  5  1  0  0  0  0
  5  6  1  1  0  0  0
  5  7  1  0  0  0  0
  7  8  1  0  0  0  0
  8  9  1  0  0  0  0
  8 13  2  0  0  0  0
  9 10  2  0  0  0  0
 10 11  1  0  0  0  0
 11 12  2  0  0  0  0
 12 13  1  0  0  0  0
M  END
>  <name>
O=[C;ester][C@@H](C[C@H]([N;amide])Cc1cc[c;biphenyl]cc1)C

>  <apo>
3

>  <freq>
1

>  <freq0>
0

>  <freq1>
1

>  <freqA>
0.99887151

>  <a_count>
31

$$$$

  MOE2015           2D

 16 17  0  0  1  0  0  0  0  0999 V2000
    0.0000    0.0000    0.0000 O   0  0  0  0  0  0  0  0  0  0  0  0
    1.5000    0.0000    0.0000 C   0  0  0  0  0  0  0  0  0  0  0  0
    2.2500   -1.2990    0.0000 C   0  0  2  0  0  0  0  0  0  0  0  0
    3.0000    0.0000    0.0000 C   0  0  0  0  0  0  0  0  0  0  0  0
    0.9510   -2.0490    0.0000 N   0  0  0  0  0  0  0  0  0  0  0  0
    0.9510   -3.5490    0.0000 C   0  0  0  0  0  0  0  0  0  0  0  0
    2.2500   -4.2990    0.0000 C   0  0  0  0  0  0  0  0  0  0  0  0
    3.5490   -3.5490    0.0000 C   0  0  0  0  0  0  0  0  0  0  0  0
    3.5490   -2.0490    0.0000 C   0  0  0  0  0  0  0  0  0  0  0  0
    4.8480   -1.2990    0.0000 C   0  0  0  0  0  0  0  0  0  0  0  0
    6.1470   -2.0490    0.0000 C   0  0  0  0  0  0  0  0  0  0  0  0
    7.4460   -1.2990    0.0000 O   0  0  0  0  0  0  0  0  0  0  0  0
    7.4460    0.2010    0.0000 C   0  0  0  0  0  0  0  0  0  0  0  0
    6.1470   -3.5490    0.0000 C   0  0  0  0  0  0  0  0  0  0  0  0
    7.4460   -4.2990    0.0000 O   0  0  0  0  0  0  0  0  0  0  0  0
    4.8480   -4.2990    0.0000 C   0  0  0  0  0  0  0  0  0  0  0  0
  1  2  2  0  0  0  0
  3  2  1  1  0  0  0
  3  4  1  6  0  0  0
  3  5  1  0  0  0  0
  3  9  1  0  0  0  0
  5  6  1  0  0  0  0
  6  7  1  0  0  0  0
  7  8  1  0  0  0  0
  8  9  2  0  0  0  0
  8 16  1  0  0  0  0
  9 10  1  0  0  0  0
 10 11  2  0  0  0  0
 11 12  1  0  0  0  0
 11 14  1  0  0  0  0
 12 13  1  0  0  0  0
 14 15  1  0  0  0  0
 14 16  2  0  0  0  0
M  END
>  <name>
O=[C;ester][C@]1([C;thioether])NCCc2c1cc(OC)c(O)c2

>  <apo>
2

>  <freq>
1

>  <freq0>
0

>  <freq1>
1

>  <freqA>
0.99887151

>  <a_count>
31

$$$$

  MOE2015           2D

 17 19  0  0  1  0  0  0  0  0999 V2000
   -0.3580    0.3580    0.0000 O   0  0  0  0  0  0  0  0  0  0  0  0
   -0.3580    1.8580    0.0000 C   0  0  2  0  0  0  0  0  0  0  0  0
   -1.6570    2.6080    0.0000 C   0  0  2  0  0  0  0  0  0  0  0  0
   -2.9560    1.8580    0.0000 O   0  0  0  0  0  0  0  0  0  0  0  0
   -1.6570    4.1080    0.0000 C   0  0  0  0  0  0  0  0  0  0  0  0
   -0.3580    4.8580    0.0000 O   0  0  0  0  0  0  0  0  0  0  0  0
    0.9410    4.1080    0.0000 C   0  0  1  0  0  0  0  0  0  0  0  0
    0.9410    2.6080    0.0000 C   0  0  1  0  0  0  0  0  0  0  0  0
    2.2400    1.8580    0.0000 O   0  0  0  0  0  0  0  0  0  0  0  0
    3.5390    2.6080    0.0000 C   0  0  2  0  0  0  0  0  0  0  0  0
    4.8380    1.8580    0.0000 C   0  0  0  0  0  0  0  0  0  0  0  0
    6.2080    2.4680    0.0000 S   0  0  0  0  0  0  0  0  0  0  0  0
    7.2120    1.3540    0.0000 C   0  0  0  0  0  0  0  0  0  0  0  0
    6.4620    0.0540    0.0000 C   0  0  0  0  0  0  0  0  0  0  0  0
    4.9950    0.3660    0.0000 C   0  0  0  0  0  0  0  0  0  0  0  0
    3.5390    4.1080    0.0000 O   0  0  0  0  0  0  0  0  0  0  0  0
    2.2400    4.8580    0.0000 C   0  0  0  0  0  0  0  0  0  0  0  0
  2  1  1  6  0  0  0
  2  3  1  0  0  0  0
  2  8  1  0  0  0  0
  3  4  1  6  0  0  0
  3  5  1  0  0  0  0
  5  6  1  0  0  0  0
  7  6  1  6  0  0  0
  7  8  1  0  0  0  0
  7 17  1  0  0  0  0
  8  9  1  1  0  0  0
  9 10  1  0  0  0  0
 10 11  1  1  0  0  0
 10 16  1  0  0  0  0
 11 12  1  0  0  0  0
 11 15  2  0  0  0  0
 12 13  1  0  0  0  0
 13 14  2  0  0  0  0
 14 15  1  0  0  0  0
 16 17  1  0  0  0  0
M  END
>  <name>
O[C@@H]1[C@H](O)[C;ether]O[C@H]2[C@H]1O[C@H](c1sccc1)OC2

>  <apo>
1

>  <freq>
1

>  <freq0>
0

>  <freq1>
1

>  <freqA>
0.99887151

>  <a_count>
31

$$$$

  MOE2015           2D

 13 13  0  0  1  0  0  0  0  0999 V2000
    7.0960   -1.0990    0.0000 O   0  0  0  0  0  0  0  0  0  0  0  0
    6.3460    0.2000    0.0000 C   0  0  0  0  0  0  0  0  0  0  0  0
    4.8460    0.2000    0.0000 C   0  0  0  0  0  0  0  0  0  0  0  0
    4.0960    1.4990    0.0000 C   0  0  0  0  0  0  0  0  0  0  0  0
    2.5960    1.4990    0.0000 C   0  0  1  0  0  0  0  0  0  0  0  0
    1.8460    2.7980    0.0000 C   0  0  0  0  0  0  0  0  0  0  0  0
    2.5960    4.0970    0.0000 C   0  0  0  0  0  0  0  0  0  0  0  0
    0.3460    2.7980    0.0000 C   0  0  0  0  0  0  0  0  0  0  0  0
    1.8460    0.2000    0.0000 C   0  0  0  0  0  0  0  0  0  0  0  0
    0.3460    0.2000    0.0000 C   0  0  0  0  0  0  0  0  0  0  0  0
    4.8460    2.7980    0.0000 C   0  0  0  0  0  0  0  0  0  0  0  0
    6.3460    2.7980    0.0000 C   0  0  0  0  0  0  0  0  0  0  0  0
    7.0960    1.4990    0.0000 C   0  0  0  0  0  0  0  0  0  0  0  0
  1  2  1  0  0  0  0
  2  3  2  0  0  0  0
  2 13  1  0  0  0  0
  3  4  1  0  0  0  0
  5  4  1  6  0  0  0
  4 11  2  0  0  0  0
  5  6  1  0  0  0  0
  5  9  1  0  0  0  0
  6  7  1  0  0  0  0
  6  8  1  0  0  0  0
  9 10  1  0  0  0  0
 11 12  1  0  0  0  0
 12 13  2  0  0  0  0
M  END
>  <name>
Oc1cc([C@@H](C([C;amine])C)CC)ccc1

>  <apo>
1

>  <freq>
1

>  <freq0>
0

>  <freq1>
1

>  <freqA>
0.99887151

>  <a_count>
31

$$$$

  MOE2015           2D

 18 18  0  0  1  0  0  0  0  0999 V2000
    3.5950    5.9050    0.0000 S   0  0  0  0  0  0  0  0  0  0  0  0
    3.5950    7.4050    0.0000 O   0  0  0  0  0  0  0  0  0  0  0  0
    3.5950    4.4050    0.0000 O   0  0  0  0  0  0  0  0  0  0  0  0
    2.0950    5.9050    0.0000 O   0  0  0  0  0  0  0  0  0  0  0  0
    1.3450    4.6060    0.0000 C   0  0  0  0  0  0  0  0  0  0  0  0
   -0.1550    4.6060    0.0000 C   0  0  2  0  0  0  0  0  0  0  0  0
   -0.9050    3.3070    0.0000 O   0  0  0  0  0  0  0  0  0  0  0  0
   -2.4050    3.3070    0.0000 C   0  0  0  0  0  0  0  0  0  0  0  0
   -3.1550    4.6060    0.0000 C   0  0  1  0  0  0  0  0  0  0  0  0
   -4.6550    4.6060    0.0000 N   0  0  0  0  0  0  0  0  0  0  0  0
   -5.4050    3.3070    0.0000 S   0  0  0  0  0  0  0  0  0  0  0  0
   -4.1060    2.5570    0.0000 O   0  0  0  0  0  0  0  0  0  0  0  0
   -6.7040    4.0570    0.0000 O   0  0  0  0  0  0  0  0  0  0  0  0
   -6.1550    2.0080    0.0000 O   0  0  0  0  0  0  0  0  0  0  0  0
   -2.4050    5.9050    0.0000 C   0  0  2  0  0  0  0  0  0  0  0  0
   -3.1550    7.2040    0.0000 O   0  0  0  0  0  0  0  0  0  0  0  0
   -0.9050    5.9050    0.0000 C   0  0  0  0  0  0  0  0  0  0  0  0
    5.0950    5.9050    0.0000 O   0  0  0  0  0  0  0  0  0  0  0  0
  1  2  2  0  0  0  0
  1  3  2  0  0  0  0
  1  4  1  0  0  0  0
  1 18  1  0  0  0  0
  4  5  1  0  0  0  0
  6  5  1  6  0  0  0
  6  7  1  0  0  0  0
  6 17  1  0  0  0  0
  7  8  1  0  0  0  0
  8  9  1  0  0  0  0
  9 10  1  1  0  0  0
  9 15  1  0  0  0  0
 10 11  1  0  0  0  0
 11 12  2  0  0  0  0
 11 13  2  0  0  0  0
 11 14  1  0  0  0  0
 15 16  1  6  0  0  0
 15 17  1  0  0  0  0
M  END
>  <name>
S(=O)(=O)(OC[C@@H]1O[C;ether][C@@H](NS(=O)(=O)O)[C@H](O)[C;ether]1)O

>  <apo>
2

>  <freq>
1

>  <freq0>
0

>  <freq1>
1

>  <freqA>
0.99887151

>  <a_count>
31

$$$$

  MOE2015           2D

 19 21  0  0  0  0  0  0  0  0999 V2000
   -0.9830    0.2630    0.0000 S   0  0  0  0  0  0  0  0  0  0  0  0
   -2.2820    1.0130    0.0000 C   0  0  0  0  0  0  0  0  0  0  0  0
   -3.5810    0.2630    0.0000 C   0  0  0  0  0  0  0  0  0  0  0  0
   -3.5810   -1.2370    0.0000 C   0  0  0  0  0  0  0  0  0  0  0  0
   -4.8800   -1.9870    0.0000 O   0  0  0  0  0  0  0  0  0  0  0  0
   -4.8800    1.0130    0.0000 C   0  0  0  0  0  0  0  0  0  0  0  0
   -4.8800    2.5130    0.0000 C   0  0  0  0  0  0  0  0  0  0  0  0
   -3.5810    3.2630    0.0000 C   0  0  0  0  0  0  0  0  0  0  0  0
   -2.2820    2.5130    0.0000 C   0  0  0  0  0  0  0  0  0  0  0  0
    0.3160    1.0130    0.0000 C   0  0  0  0  0  0  0  0  0  0  0  0
    1.6150    0.2630    0.0000 C   0  0  0  0  0  0  0  0  0  0  0  0
    2.9140    1.0130    0.0000 C   0  0  0  0  0  0  0  0  0  0  0  0
    4.3400    0.5500    0.0000 N   0  0  0  0  0  0  0  0  0  0  0  0
    5.2220    1.7630    0.0000 N   0  0  0  0  0  0  0  0  0  0  0  0
    4.3400    2.9770    0.0000 C   0  0  0  0  0  0  0  0  0  0  0  0
    4.8040    4.4040    0.0000 C   0  0  0  0  0  0  0  0  0  0  0  0
    2.9140    2.5130    0.0000 C   0  0  0  0  0  0  0  0  0  0  0  0
    1.6150    3.2630    0.0000 C   0  0  0  0  0  0  0  0  0  0  0  0
    0.3160    2.5130    0.0000 C   0  0  0  0  0  0  0  0  0  0  0  0
  1  2  1  0  0  0  0
  1 10  1  0  0  0  0
  2  3  1  0  0  0  0
  2  9  2  0  0  0  0
  3  4  1  0  0  0  0
  3  6  2  0  0  0  0
  4  5  2  0  0  0  0
  6  7  1  0  0  0  0
  7  8  2  0  0  0  0
  8  9  1  0  0  0  0
 10 11  1  0  0  0  0
 10 19  2  0  0  0  0
 11 12  2  0  0  0  0
 12 13  1  0  0  0  0
 12 17  1  0  0  0  0
 13 14  1  0  0  0  0
 14 15  2  0  0  0  0
 15 16  1  0  0  0  0
 15 17  1  0  0  0  0
 17 18  2  0  0  0  0
 18 19  1  0  0  0  0
M  END
>  <name>
S(c1c([C;amide]=O)cccc1)c1cc2[nH]nc([C;olefin])c2cc1

>  <apo>
2

>  <freq>
1

>  <freq0>
0

>  <freq1>
1

>  <freqA>
0.99887151

>  <a_count>
31

$$$$

  MOE2015           2D

 16 19  0  0  1  0  0  0  0  0999 V2000
   -0.0760    0.3190    0.0000 C   0  0  1  0  0  0  0  0  0  0  0  0
    1.4220    0.4030    0.0000 C   0  0  0  0  0  0  0  0  0  0  0  0
    2.2340    1.6640    0.0000 N   0  0  0  0  0  0  0  0  0  0  0  0
    3.6850    1.2820    0.0000 C   0  0  0  0  0  0  0  0  0  0  0  0
    3.7690   -0.2160    0.0000 C   0  0  0  0  0  0  0  0  0  0  0  0
    2.3700   -0.7590    0.0000 N   0  0  0  0  0  0  0  0  0  0  0  0
    5.1080   -0.8920    0.0000 C   0  0  0  0  0  0  0  0  0  0  0  0
    6.3630   -0.0700    0.0000 C   0  0  0  0  0  0  0  0  0  0  0  0
    6.2790    1.4270    0.0000 C   0  0  0  0  0  0  0  0  0  0  0  0
    4.9400    2.1030    0.0000 C   0  0  0  0  0  0  0  0  0  0  0  0
   -1.2520   -0.1170    0.0000 N   0  0  0  0  0  0  0  0  0  0  0  0
   -2.5510    0.0130    0.0000 C   0  0  1  0  0  0  0  0  0  0  0  0
   -3.2380   -1.1860    0.0000 C   0  0  0  0  0  0  0  0  0  0  0  0
   -1.4750    0.6670    0.0000 C   0  0  2  0  0  0  0  0  0  0  0  0
   -1.9900    1.9360    0.0000 C   0  0  0  0  0  0  0  0  0  0  0  0
   -3.0460    1.4660    0.0000 C   0  0  0  0  0  0  0  0  0  0  0  0
  1  2  1  1  0  0  0
  1 11  1  0  0  0  0
  1 14  1  0  0  0  0
  2  3  1  0  0  0  0
  2  6  2  0  0  0  0
  3  4  1  0  0  0  0
  4  5  2  0  0  0  0
  4 10  1  0  0  0  0
  5  6  1  0  0  0  0
  5  7  1  0  0  0  0
  7  8  2  0  0  0  0
  8  9  1  0  0  0  0
  9 10  2  0  0  0  0
 11 12  1  0  0  0  0
 12 13  1  0  0  0  0
 12 16  1  1  0  0  0
 13 14  1  0  0  0  0
 14 15  1  6  0  0  0
 15 16  1  0  0  0  0
M  END
>  <name>
[C@H]1(c2[nH]c3c(n2)c[c;biphenyl]cc3)[N;amide][C@H]2C[C@@H]1CC2

>  <apo>
2

>  <freq>
1

>  <freq0>
0

>  <freq1>
1

>  <freqA>
0.99887151

>  <a_count>
31

$$$$

  MOE2015           2D

 11 11  0  0  1  0  0  0  0  0999 V2000
    1.7050    2.9520    0.0000 O   0  0  0  0  0  0  0  0  0  0  0  0
    2.4550    1.6530    0.0000 C   0  0  3  0  0  0  0  0  0  0  0  0
    1.7050    0.3540    0.0000 C   0  0  3  0  0  0  0  0  0  0  0  0
    0.2050    0.3540    0.0000 C   0  0  0  0  0  0  0  0  0  0  0  0
   -0.5450   -0.9450    0.0000 C   0  0  0  0  0  0  0  0  0  0  0  0
   -0.5450    1.6530    0.0000 C   0  0  0  0  0  0  0  0  0  0  0  0
    2.4550   -0.9450    0.0000 C   0  0  0  0  0  0  0  0  0  0  0  0
    3.9550   -0.9450    0.0000 C   0  0  0  0  0  0  0  0  0  0  0  0
    4.7050    0.3540    0.0000 C   0  0  3  0  0  0  0  0  0  0  0  0
    6.2050    0.3540    0.0000 C   0  0  0  0  0  0  0  0  0  0  0  0
    3.9550    1.6530    0.0000 C   0  0  0  0  0  0  0  0  0  0  0  0
  1  2  1  0  0  0  0
  2  3  1  0  0  0  0
  2 11  1  0  0  0  0
  3  4  1  0  0  0  0
  3  7  1  0  0  0  0
  4  5  1  0  0  0  0
  4  6  1  0  0  0  0
  7  8  1  0  0  0  0
  8  9  1  0  0  0  0
  9 10  1  0  0  0  0
  9 11  1  0  0  0  0
M  END
>  <name>
[O;ester]C1C(C(C)C)CCC(C)C1

>  <apo>
1

>  <freq>
1

>  <freq0>
0

>  <freq1>
1

>  <freqA>
0.99887151

>  <a_count>
31

$$$$

  MOE2015           2D

 11 11  0  0  1  0  0  0  0  0999 V2000
    1.7050    2.9520    0.0000 O   0  0  0  0  0  0  0  0  0  0  0  0
    2.4550    1.6530    0.0000 C   0  0  1  0  0  0  0  0  0  0  0  0
    1.7050    0.3540    0.0000 C   0  0  2  0  0  0  0  0  0  0  0  0
    0.2050    0.3540    0.0000 C   0  0  0  0  0  0  0  0  0  0  0  0
   -0.5450   -0.9450    0.0000 C   0  0  0  0  0  0  0  0  0  0  0  0
   -0.5450    1.6530    0.0000 C   0  0  0  0  0  0  0  0  0  0  0  0
    2.4550   -0.9450    0.0000 C   0  0  0  0  0  0  0  0  0  0  0  0
    3.9550   -0.9450    0.0000 C   0  0  0  0  0  0  0  0  0  0  0  0
    4.7050    0.3540    0.0000 C   0  0  1  0  0  0  0  0  0  0  0  0
    6.2050    0.3540    0.0000 C   0  0  0  0  0  0  0  0  0  0  0  0
    3.9550    1.6530    0.0000 C   0  0  0  0  0  0  0  0  0  0  0  0
  2  1  1  6  0  0  0
  2  3  1  0  0  0  0
  2 11  1  0  0  0  0
  3  4  1  1  0  0  0
  3  7  1  0  0  0  0
  4  5  1  0  0  0  0
  4  6  1  0  0  0  0
  7  8  1  0  0  0  0
  8  9  1  0  0  0  0
  9 10  1  6  0  0  0
  9 11  1  0  0  0  0
M  END
>  <name>
[O;ester][C@H]1[C@H](C(C)C)CC[C@@H](C)C1

>  <apo>
1

>  <freq>
1

>  <freq0>
0

>  <freq1>
1

>  <freqA>
0.99887151

>  <a_count>
31

$$$$

  MOE2015           2D

 13 13  0  0  0  0  0  0  0  0999 V2000
    1.9620   -1.9620    0.0000 O   0  0  0  0  0  0  0  0  0  0  0  0
    1.9620   -0.4620    0.0000 C   0  0  0  0  0  0  0  0  0  0  0  0
    3.2610    0.2880    0.0000 C   0  0  0  0  0  0  0  0  0  0  0  0
    4.5600   -0.4620    0.0000 C   0  0  0  0  0  0  0  0  0  0  0  0
    5.8590    0.2880    0.0000 C   0  0  0  0  0  0  0  0  0  0  0  0
    4.5600   -1.9620    0.0000 C   0  0  0  0  0  0  0  0  0  0  0  0
    3.2610    1.7880    0.0000 C   0  0  0  0  0  0  0  0  0  0  0  0
    1.9620    2.5380    0.0000 C   0  0  0  0  0  0  0  0  0  0  0  0
    0.6630    1.7880    0.0000 C   0  0  0  0  0  0  0  0  0  0  0  0
    0.6630    0.2880    0.0000 C   0  0  0  0  0  0  0  0  0  0  0  0
   -0.6370   -0.4620    0.0000 C   0  0  0  0  0  0  0  0  0  0  0  0
   -1.9360    0.2880    0.0000 C   0  0  0  0  0  0  0  0  0  0  0  0
   -0.6370   -1.9620    0.0000 C   0  0  0  0  0  0  0  0  0  0  0  0
  1  2  1  0  0  0  0
  2  3  1  0  0  0  0
  2 10  2  0  0  0  0
  3  4  1  0  0  0  0
  3  7  2  0  0  0  0
  4  5  1  0  0  0  0
  4  6  1  0  0  0  0
  7  8  1  0  0  0  0
  8  9  2  0  0  0  0
  9 10  1  0  0  0  0
 10 11  1  0  0  0  0
 11 12  1  0  0  0  0
 11 13  1  0  0  0  0
M  END
>  <name>
[O;ether]c1c(C(C)C)cccc1C(C)C

>  <apo>
1

>  <freq>
1

>  <freq0>
0

>  <freq1>
1

>  <freqA>
0.99887151

>  <a_count>
31

$$$$

  MOE2015           2D

 21 22  0  0  0  0  0  0  0  0999 V2000
    4.1790   -7.2370    0.0000 S   0  0  0  0  0  0  0  0  0  0  0  0
    4.9290   -5.9380    0.0000 O   0  0  0  0  0  0  0  0  0  0  0  0
    4.9290   -8.5370    0.0000 O   0  0  0  0  0  0  0  0  0  0  0  0
    2.6790   -7.2370    0.0000 C   0  0  0  0  0  0  0  0  0  0  0  0
    1.9290   -5.9380    0.0000 C   0  0  0  0  0  0  0  0  0  0  0  0
    0.4290   -5.9380    0.0000 C   0  0  0  0  0  0  0  0  0  0  0  0
   -0.3210   -7.2370    0.0000 C   0  0  0  0  0  0  0  0  0  0  0  0
   -1.8210   -7.2370    0.0000 N   0  0  0  0  0  0  0  0  0  0  0  0
   -2.5710   -5.9380    0.0000 N   0  0  0  0  0  0  0  0  0  0  0  0
   -4.0710   -5.9380    0.0000 C   0  0  0  0  0  0  0  0  0  0  0  0
   -4.8210   -4.6390    0.0000 C   0  0  0  0  0  0  0  0  0  0  0  0
   -6.3210   -4.6390    0.0000 C   0  0  0  0  0  0  0  0  0  0  0  0
   -7.0710   -3.3400    0.0000 C   0  0  0  0  0  0  0  0  0  0  0  0
   -8.5710   -3.3400    0.0000 O   0  0  0  0  0  0  0  0  0  0  0  0
   -6.3210   -2.0410    0.0000 O   0  0  0  0  0  0  0  0  0  0  0  0
   -7.0710   -5.9380    0.0000 C   0  0  0  0  0  0  0  0  0  0  0  0
   -8.5710   -5.9380    0.0000 O   0  0  0  0  0  0  0  0  0  0  0  0
   -6.3210   -7.2370    0.0000 C   0  0  0  0  0  0  0  0  0  0  0  0
   -4.8210   -7.2370    0.0000 C   0  0  0  0  0  0  0  0  0  0  0  0
    0.4290   -8.5370    0.0000 C   0  0  0  0  0  0  0  0  0  0  0  0
    1.9290   -8.5370    0.0000 C   0  0  0  0  0  0  0  0  0  0  0  0
  1  2  2  0  0  0  0
  1  3  2  0  0  0  0
  1  4  1  0  0  0  0
  4  5  1  0  0  0  0
  4 21  2  0  0  0  0
  5  6  2  0  0  0  0
  6  7  1  0  0  0  0
  7  8  1  0  0  0  0
  7 20  2  0  0  0  0
  8  9  2  0  0  0  0
  9 10  1  0  0  0  0
 10 11  1  0  0  0  0
 10 19  2  0  0  0  0
 11 12  2  0  0  0  0
 12 13  1  0  0  0  0
 12 16  1  0  0  0  0
 13 14  2  0  0  0  0
 13 15  1  0  0  0  0
 16 17  1  0  0  0  0
 16 18  2  0  0  0  0
 18 19  1  0  0  0  0
 20 21  1  0  0  0  0
M  END
>  <name>
[SH;so2amide](=O)(=O)c1ccc(N=Nc2cc(C(=O)O)c(O)cc2)cc1

>  <apo>
1

>  <freq>
1

>  <freq0>
0

>  <freq1>
1

>  <freqA>
0.99887151

>  <a_count>
31

$$$$

  MOE2015           2D

 16 17  0  0  1  0  0  0  0  0999 V2000
   10.2030   -1.1100    0.0000 Br  0  0  0  0  0  0  0  0  0  0  0  0
    8.9040   -0.3600    0.0000 C   0  0  0  0  0  0  0  0  0  0  0  0
    7.6050   -1.1100    0.0000 C   0  0  0  0  0  0  0  0  0  0  0  0
    6.3050   -0.3600    0.0000 C   0  0  0  0  0  0  0  0  0  0  0  0
    6.3050    1.1400    0.0000 C   0  0  0  0  0  0  0  0  0  0  0  0
    5.0060    1.8900    0.0000 C   0  0  3  0  0  0  0  0  0  0  0  0
    5.0060    3.3900    0.0000 C   0  0  0  0  0  0  0  0  0  0  0  0
    3.7070    4.1400    0.0000 C   0  0  0  0  0  0  0  0  0  0  0  0
    3.7070    1.1400    0.0000 C   0  0  0  0  0  0  0  0  0  0  0  0
    3.7070   -0.3600    0.0000 N   0  0  0  0  0  0  0  0  0  0  0  0
    2.4080   -1.1100    0.0000 C   0  0  0  0  0  0  0  0  0  0  0  0
    1.1090   -0.3600    0.0000 C   0  0  0  0  0  0  0  0  0  0  0  0
    1.1090    1.1400    0.0000 C   0  0  0  0  0  0  0  0  0  0  0  0
    2.4080    1.8900    0.0000 C   0  0  0  0  0  0  0  0  0  0  0  0
    7.6050    1.8900    0.0000 C   0  0  0  0  0  0  0  0  0  0  0  0
    8.9040    1.1400    0.0000 C   0  0  0  0  0  0  0  0  0  0  0  0
  1  2  1  0  0  0  0
  2  3  1  0  0  0  0
  2 16  2  0  0  0  0
  3  4  2  0  0  0  0
  4  5  1  0  0  0  0
  5  6  1  0  0  0  0
  5 15  2  0  0  0  0
  6  7  1  0  0  0  0
  6  9  1  0  0  0  0
  7  8  1  0  0  0  0
  9 10  1  0  0  0  0
  9 14  2  0  0  0  0
 10 11  2  0  0  0  0
 11 12  1  0  0  0  0
 12 13  2  0  0  0  0
 13 14  1  0  0  0  0
 15 16  1  0  0  0  0
M  END
>  <name>
Brc1ccc(C(C[C;amine])c2ncccc2)cc1

>  <apo>
1

>  <freq>
1

>  <freq0>
0

>  <freq1>
1

>  <freqA>
0.99887151

>  <a_count>
30

$$$$

  MOE2015           2D

 16 17  0  0  1  0  0  0  0  0999 V2000
   10.2030   -1.1100    0.0000 Br  0  0  0  0  0  0  0  0  0  0  0  0
    8.9040   -0.3600    0.0000 C   0  0  0  0  0  0  0  0  0  0  0  0
    7.6050   -1.1100    0.0000 C   0  0  0  0  0  0  0  0  0  0  0  0
    6.3050   -0.3600    0.0000 C   0  0  0  0  0  0  0  0  0  0  0  0
    6.3050    1.1400    0.0000 C   0  0  0  0  0  0  0  0  0  0  0  0
    5.0060    1.8900    0.0000 C   0  0  2  0  0  0  0  0  0  0  0  0
    5.0060    3.3900    0.0000 C   0  0  0  0  0  0  0  0  0  0  0  0
    3.7070    4.1400    0.0000 C   0  0  0  0  0  0  0  0  0  0  0  0
    3.7070    1.1400    0.0000 C   0  0  0  0  0  0  0  0  0  0  0  0
    3.7070   -0.3600    0.0000 N   0  0  0  0  0  0  0  0  0  0  0  0
    2.4080   -1.1100    0.0000 C   0  0  0  0  0  0  0  0  0  0  0  0
    1.1090   -0.3600    0.0000 C   0  0  0  0  0  0  0  0  0  0  0  0
    1.1090    1.1400    0.0000 C   0  0  0  0  0  0  0  0  0  0  0  0
    2.4080    1.8900    0.0000 C   0  0  0  0  0  0  0  0  0  0  0  0
    7.6050    1.8900    0.0000 C   0  0  0  0  0  0  0  0  0  0  0  0
    8.9040    1.1400    0.0000 C   0  0  0  0  0  0  0  0  0  0  0  0
  1  2  1  0  0  0  0
  2  3  1  0  0  0  0
  2 16  2  0  0  0  0
  3  4  2  0  0  0  0
  4  5  1  0  0  0  0
  6  5  1  1  0  0  0
  5 15  2  0  0  0  0
  6  7  1  0  0  0  0
  6  9  1  0  0  0  0
  7  8  1  0  0  0  0
  9 10  2  0  0  0  0
  9 14  1  0  0  0  0
 10 11  1  0  0  0  0
 11 12  2  0  0  0  0
 12 13  1  0  0  0  0
 13 14  2  0  0  0  0
 15 16  1  0  0  0  0
M  END
>  <name>
Brc1ccc([C@H](C[C;amine])c2ncccc2)cc1

>  <apo>
1

>  <freq>
1

>  <freq0>
0

>  <freq1>
1

>  <freqA>
0.99887151

>  <a_count>
30

$$$$

  MOE2015           2D

 15 16  0  0  1  0  0  0  0  0999 V2000
   -0.8630    1.0370    0.0000 C   0  0  3  0  0  0  0  0  0  0  0  0
   -0.8630    2.5370    0.0000 C   0  0  0  0  0  0  0  0  0  0  0  0
   -2.1620    3.2870    0.0000 C   0  0  0  0  0  0  0  0  0  0  0  0
   -2.1620    0.2870    0.0000 C   0  0  0  0  0  0  0  0  0  0  0  0
   -2.1620   -1.2130    0.0000 N   0  0  0  0  0  0  0  0  0  0  0  0
   -3.4610   -1.9630    0.0000 C   0  0  0  0  0  0  0  0  0  0  0  0
   -4.7610   -1.2130    0.0000 C   0  0  0  0  0  0  0  0  0  0  0  0
   -4.7610    0.2870    0.0000 C   0  0  0  0  0  0  0  0  0  0  0  0
   -3.4610    1.0370    0.0000 C   0  0  0  0  0  0  0  0  0  0  0  0
    0.4360    0.2870    0.0000 C   0  0  0  0  0  0  0  0  0  0  0  0
    1.7350    1.0370    0.0000 C   0  0  0  0  0  0  0  0  0  0  0  0
    3.0340    0.2870    0.0000 C   0  0  0  0  0  0  0  0  0  0  0  0
    3.0340   -1.2130    0.0000 C   0  0  0  0  0  0  0  0  0  0  0  0
    1.7350   -1.9630    0.0000 C   0  0  0  0  0  0  0  0  0  0  0  0
    0.4360   -1.2130    0.0000 C   0  0  0  0  0  0  0  0  0  0  0  0
  1  2  1  0  0  0  0
  1  4  1  0  0  0  0
  1 10  1  0  0  0  0
  2  3  1  0  0  0  0
  4  5  1  0  0  0  0
  4  9  2  0  0  0  0
  5  6  2  0  0  0  0
  6  7  1  0  0  0  0
  7  8  2  0  0  0  0
  8  9  1  0  0  0  0
 10 11  1  0  0  0  0
 10 15  2  0  0  0  0
 11 12  2  0  0  0  0
 12 13  1  0  0  0  0
 13 14  2  0  0  0  0
 14 15  1  0  0  0  0
M  END
>  <name>
C(C[C;amine])(c1ncccc1)c1ccccc1

>  <apo>
1

>  <freq>
1

>  <freq0>
0

>  <freq1>
1

>  <freqA>
0.99887151

>  <a_count>
30

$$$$

  MOE2015           2D

 16 17  0  0  1  0  0  0  0  0999 V2000
   10.2030   -1.1100    0.0000 Cl  0  0  0  0  0  0  0  0  0  0  0  0
    8.9040   -0.3600    0.0000 C   0  0  0  0  0  0  0  0  0  0  0  0
    7.6050   -1.1100    0.0000 C   0  0  0  0  0  0  0  0  0  0  0  0
    6.3050   -0.3600    0.0000 C   0  0  0  0  0  0  0  0  0  0  0  0
    6.3050    1.1400    0.0000 C   0  0  0  0  0  0  0  0  0  0  0  0
    5.0060    1.8900    0.0000 C   0  0  3  0  0  0  0  0  0  0  0  0
    5.0060    3.3900    0.0000 C   0  0  0  0  0  0  0  0  0  0  0  0
    3.7070    4.1400    0.0000 C   0  0  0  0  0  0  0  0  0  0  0  0
    3.7070    1.1400    0.0000 C   0  0  0  0  0  0  0  0  0  0  0  0
    3.7070   -0.3600    0.0000 N   0  0  0  0  0  0  0  0  0  0  0  0
    2.4080   -1.1100    0.0000 C   0  0  0  0  0  0  0  0  0  0  0  0
    1.1090   -0.3600    0.0000 C   0  0  0  0  0  0  0  0  0  0  0  0
    1.1090    1.1400    0.0000 C   0  0  0  0  0  0  0  0  0  0  0  0
    2.4080    1.8900    0.0000 C   0  0  0  0  0  0  0  0  0  0  0  0
    7.6050    1.8900    0.0000 C   0  0  0  0  0  0  0  0  0  0  0  0
    8.9040    1.1400    0.0000 C   0  0  0  0  0  0  0  0  0  0  0  0
  1  2  1  0  0  0  0
  2  3  1  0  0  0  0
  2 16  2  0  0  0  0
  3  4  2  0  0  0  0
  4  5  1  0  0  0  0
  5  6  1  0  0  0  0
  5 15  2  0  0  0  0
  6  7  1  0  0  0  0
  6  9  1  0  0  0  0
  7  8  1  0  0  0  0
  9 10  1  0  0  0  0
  9 14  2  0  0  0  0
 10 11  2  0  0  0  0
 11 12  1  0  0  0  0
 12 13  2  0  0  0  0
 13 14  1  0  0  0  0
 15 16  1  0  0  0  0
M  END
>  <name>
Clc1ccc(C(C[C;amine])c2ncccc2)cc1

>  <apo>
1

>  <freq>
1

>  <freq0>
0

>  <freq1>
1

>  <freqA>
0.99887151

>  <a_count>
30

$$$$

  MOE2015           2D

 16 17  0  0  1  0  0  0  0  0999 V2000
   10.2030   -1.1100    0.0000 Cl  0  0  0  0  0  0  0  0  0  0  0  0
    8.9040   -0.3600    0.0000 C   0  0  0  0  0  0  0  0  0  0  0  0
    7.6050   -1.1100    0.0000 C   0  0  0  0  0  0  0  0  0  0  0  0
    6.3050   -0.3600    0.0000 C   0  0  0  0  0  0  0  0  0  0  0  0
    6.3050    1.1400    0.0000 C   0  0  0  0  0  0  0  0  0  0  0  0
    5.0060    1.8900    0.0000 C   0  0  2  0  0  0  0  0  0  0  0  0
    5.0060    3.3900    0.0000 C   0  0  0  0  0  0  0  0  0  0  0  0
    3.7070    4.1400    0.0000 C   0  0  0  0  0  0  0  0  0  0  0  0
    3.7070    1.1400    0.0000 C   0  0  0  0  0  0  0  0  0  0  0  0
    3.7070   -0.3600    0.0000 N   0  0  0  0  0  0  0  0  0  0  0  0
    2.4080   -1.1100    0.0000 C   0  0  0  0  0  0  0  0  0  0  0  0
    1.1090   -0.3600    0.0000 C   0  0  0  0  0  0  0  0  0  0  0  0
    1.1090    1.1400    0.0000 C   0  0  0  0  0  0  0  0  0  0  0  0
    2.4080    1.8900    0.0000 C   0  0  0  0  0  0  0  0  0  0  0  0
    7.6050    1.8900    0.0000 C   0  0  0  0  0  0  0  0  0  0  0  0
    8.9040    1.1400    0.0000 C   0  0  0  0  0  0  0  0  0  0  0  0
  1  2  1  0  0  0  0
  2  3  1  0  0  0  0
  2 16  2  0  0  0  0
  3  4  2  0  0  0  0
  4  5  1  0  0  0  0
  6  5  1  1  0  0  0
  5 15  2  0  0  0  0
  6  7  1  0  0  0  0
  6  9  1  0  0  0  0
  7  8  1  0  0  0  0
  9 10  2  0  0  0  0
  9 14  1  0  0  0  0
 10 11  1  0  0  0  0
 11 12  2  0  0  0  0
 12 13  1  0  0  0  0
 13 14  2  0  0  0  0
 15 16  1  0  0  0  0
M  END
>  <name>
Clc1ccc([C@H](C[C;amine])c2ncccc2)cc1

>  <apo>
1

>  <freq>
1

>  <freq0>
0

>  <freq1>
1

>  <freqA>
0.99887151

>  <a_count>
30

$$$$

  MOE2015           2D

 19 21  0  0  0  0  0  0  0  0999 V2000
   -0.1200   -3.1710    0.0000 F   0  0  0  0  0  0  0  0  0  0  0  0
    1.1790   -2.4210    0.0000 C   0  0  0  0  0  0  0  0  0  0  0  0
    1.1790   -0.9210    0.0000 C   0  0  0  0  0  0  0  0  0  0  0  0
    2.4780   -0.1710    0.0000 C   0  0  0  0  0  0  0  0  0  0  0  0
    2.4780    1.3290    0.0000 F   0  0  0  0  0  0  0  0  0  0  0  0
    3.7770   -0.9210    0.0000 C   0  0  0  0  0  0  0  0  0  0  0  0
    3.7770   -2.4210    0.0000 C   0  0  0  0  0  0  0  0  0  0  0  0
    5.0760   -3.1710    0.0000 C   0  0  0  0  0  0  0  0  0  0  0  0
    6.3750   -2.4210    0.0000 C   0  0  0  0  0  0  0  0  0  0  0  0
    7.6740   -3.1710    0.0000 C   0  0  0  0  0  0  0  0  0  0  0  0
    8.9730   -2.4210    0.0000 C   0  0  0  0  0  0  0  0  0  0  0  0
   10.4000   -2.8850    0.0000 C   0  0  0  0  0  0  0  0  0  0  0  0
   10.8630   -4.3110    0.0000 N   0  0  0  0  0  0  0  0  0  0  0  0
   11.2810   -1.6710    0.0000 N   0  0  0  0  0  0  0  0  0  0  0  0
   10.4000   -0.4580    0.0000 N   0  0  0  0  0  0  0  0  0  0  0  0
    8.9730   -0.9210    0.0000 C   0  0  0  0  0  0  0  0  0  0  0  0
    7.6740   -0.1710    0.0000 C   0  0  0  0  0  0  0  0  0  0  0  0
    6.3750   -0.9210    0.0000 C   0  0  0  0  0  0  0  0  0  0  0  0
    2.4780   -3.1710    0.0000 C   0  0  0  0  0  0  0  0  0  0  0  0
  1  2  1  0  0  0  0
  2  3  1  0  0  0  0
  2 19  2  0  0  0  0
  3  4  2  0  0  0  0
  4  5  1  0  0  0  0
  4  6  1  0  0  0  0
  6  7  2  0  0  0  0
  7  8  1  0  0  0  0
  7 19  1  0  0  0  0
  8  9  1  0  0  0  0
  9 10  1  0  0  0  0
  9 18  2  0  0  0  0
 10 11  2  0  0  0  0
 11 12  1  0  0  0  0
 11 16  1  0  0  0  0
 12 13  1  0  0  0  0
 12 14  2  0  0  0  0
 14 15  1  0  0  0  0
 15 16  1  0  0  0  0
 16 17  2  0  0  0  0
 17 18  1  0  0  0  0
M  END
>  <name>
Fc1cc(F)cc(Cc2cc3c([N;amide])n[nH]c3cc2)c1

>  <apo>
1

>  <freq>
1

>  <freq0>
0

>  <freq1>
1

>  <freqA>
0.99887151

>  <a_count>
30

$$$$

  MOE2015           2D

 14 15  0  0  1  0  0  0  0  0999 V2000
    9.8570    0.0000    0.0000 F   0  0  0  0  0  0  0  0  0  0  0  0
    8.3570    0.0000    0.0000 C   0  0  0  0  0  0  0  0  0  0  0  0
    7.6070    1.2990    0.0000 C   0  0  0  0  0  0  0  0  0  0  0  0
    6.1070    1.2990    0.0000 C   0  0  0  0  0  0  0  0  0  0  0  0
    5.3570    0.0000    0.0000 C   0  0  0  0  0  0  0  0  0  0  0  0
    3.8570    0.0000    0.0000 C   0  0  1  0  0  0  0  0  0  0  0  0
    3.1070    1.2990    0.0000 C   0  0  2  0  0  0  0  0  0  0  0  0
    3.8570    2.5980    0.0000 C   0  0  0  0  0  0  0  0  0  0  0  0
    1.6070    1.2990    0.0000 C   0  0  0  0  0  0  0  0  0  0  0  0
    0.8570    0.0000    0.0000 N   0  0  0  0  0  0  0  0  0  0  0  0
    1.6070   -1.2990    0.0000 C   0  0  0  0  0  0  0  0  0  0  0  0
    3.1070   -1.2990    0.0000 C   0  0  0  0  0  0  0  0  0  0  0  0
    6.1070   -1.2990    0.0000 C   0  0  0  0  0  0  0  0  0  0  0  0
    7.6070   -1.2990    0.0000 C   0  0  0  0  0  0  0  0  0  0  0  0
  1  2  1  0  0  0  0
  2  3  1  0  0  0  0
  2 14  2  0  0  0  0
  3  4  2  0  0  0  0
  4  5  1  0  0  0  0
  6  5  1  6  0  0  0
  5 13  2  0  0  0  0
  6  7  1  0  0  0  0
  6 12  1  0  0  0  0
  7  8  1  1  0  0  0
  7  9  1  0  0  0  0
  9 10  1  0  0  0  0
 10 11  1  0  0  0  0
 11 12  1  0  0  0  0
 13 14  1  0  0  0  0
M  END
>  <name>
Fc1ccc([C@H]2[C@H]([C;ether])CNCC2)cc1

>  <apo>
1

>  <freq>
1

>  <freq0>
0

>  <freq1>
1

>  <freqA>
0.99887151

>  <a_count>
30

$$$$

  MOE2015           2D

 15 16  0  0  0  0  0  0  0  0999 V2000
    0.0000    0.0000    0.0000 O   0  0  0  0  0  0  0  0  0  0  0  0
    1.5000    0.0000    0.0000 C   0  0  0  0  0  0  0  0  0  0  0  0
   -0.7500    1.2990    0.0000 C   0  0  0  0  0  0  0  0  0  0  0  0
   -2.2500    1.2990    0.0000 C   0  0  0  0  0  0  0  0  0  0  0  0
   -3.0000    2.5980    0.0000 C   0  0  0  0  0  0  0  0  0  0  0  0
   -4.5000    2.5980    0.0000 C   0  0  0  0  0  0  0  0  0  0  0  0
   -5.2500    1.2990    0.0000 C   0  0  0  0  0  0  0  0  0  0  0  0
   -6.7500    1.2990    0.0000 C   0  0  0  0  0  0  0  0  0  0  0  0
   -7.5000    0.0000    0.0000 N   0  0  0  0  0  0  0  0  0  0  0  0
   -5.2500    3.8970    0.0000 C   0  0  0  0  0  0  0  0  0  0  0  0
   -4.5000    5.1960    0.0000 C   0  0  0  0  0  0  0  0  0  0  0  0
   -3.0000    5.1960    0.0000 C   0  0  0  0  0  0  0  0  0  0  0  0
   -2.2500    3.8970    0.0000 C   0  0  0  0  0  0  0  0  0  0  0  0
   -0.7500    3.8970    0.0000 C   0  0  0  0  0  0  0  0  0  0  0  0
    0.0000    2.5980    0.0000 C   0  0  0  0  0  0  0  0  0  0  0  0
  1  2  1  0  0  0  0
  1  3  1  0  0  0  0
  3  4  1  0  0  0  0
  3 15  2  0  0  0  0
  4  5  2  0  0  0  0
  5  6  1  0  0  0  0
  5 13  1  0  0  0  0
  6  7  1  0  0  0  0
  6 10  2  0  0  0  0
  7  8  1  0  0  0  0
  8  9  1  0  0  0  0
 10 11  1  0  0  0  0
 11 12  2  0  0  0  0
 12 13  1  0  0  0  0
 13 14  2  0  0  0  0
 14 15  1  0  0  0  0
M  END
>  <name>
O(C)c1cc2c(CC[N;amide])cccc2cc1

>  <apo>
1

>  <freq>
1

>  <freq0>
0

>  <freq1>
1

>  <freqA>
0.99887151

>  <a_count>
30

$$$$

  MOE2015           2D

 16 18  0  0  0  0  0  0  0  0999 V2000
    5.9220    1.3970    0.0000 O   0  0  0  0  0  0  0  0  0  0  0  0
    5.9830    2.8960    0.0000 C   0  0  0  0  0  0  0  0  0  0  0  0
    7.3110    3.5930    0.0000 N   0  0  0  0  0  0  0  0  0  0  0  0
    4.7150    3.6980    0.0000 C   0  0  0  0  0  0  0  0  0  0  0  0
    3.3870    3.0010    0.0000 C   0  0  0  0  0  0  0  0  0  0  0  0
    2.1190    3.8020    0.0000 C   0  0  0  0  0  0  0  0  0  0  0  0
    2.1800    5.3010    0.0000 C   0  0  0  0  0  0  0  0  0  0  0  0
    0.7730    5.8220    0.0000 N   0  0  0  0  0  0  0  0  0  0  0  0
   -0.1570    4.6450    0.0000 C   0  0  0  0  0  0  0  0  0  0  0  0
    0.6750    3.3970    0.0000 C   0  0  0  0  0  0  0  0  0  0  0  0
    0.0100    2.0520    0.0000 C   0  0  0  0  0  0  0  0  0  0  0  0
   -1.4870    1.9560    0.0000 C   0  0  0  0  0  0  0  0  0  0  0  0
   -2.3190    3.2040    0.0000 C   0  0  0  0  0  0  0  0  0  0  0  0
   -1.6540    4.5480    0.0000 C   0  0  0  0  0  0  0  0  0  0  0  0
    3.5080    5.9980    0.0000 C   0  0  0  0  0  0  0  0  0  0  0  0
    4.7760    5.1960    0.0000 C   0  0  0  0  0  0  0  0  0  0  0  0
  1  2  2  0  0  0  0
  2  3  1  0  0  0  0
  2  4  1  0  0  0  0
  4  5  1  0  0  0  0
  4 16  2  0  0  0  0
  5  6  2  0  0  0  0
  6  7  1  0  0  0  0
  6 10  1  0  0  0  0
  7  8  1  0  0  0  0
  7 15  2  0  0  0  0
  8  9  1  0  0  0  0
  9 10  2  0  0  0  0
  9 14  1  0  0  0  0
 10 11  1  0  0  0  0
 11 12  1  0  0  0  0
 12 13  1  0  0  0  0
 13 14  1  0  0  0  0
 15 16  1  0  0  0  0
M  END
>  <name>
O=C(N)c1cc2c([nH]c3c2C[C;amine]CC3)cc1

>  <apo>
1

>  <freq>
1

>  <freq0>
0

>  <freq1>
1

>  <freqA>
0.99887151

>  <a_count>
30

$$$$

  MOE2015           2D

 14 14  0  0  0  0  0  0  0  0999 V2000
   -0.9640    1.6700    0.0000 O   0  0  0  0  0  0  0  0  0  0  0  0
   -0.2140    2.9690    0.0000 C   0  0  0  0  0  0  0  0  0  0  0  0
   -0.9640    4.2680    0.0000 O   0  0  0  0  0  0  0  0  0  0  0  0
    1.2860    2.9690    0.0000 C   0  0  0  0  0  0  0  0  0  0  0  0
    1.2860    4.4690    0.0000 C   0  0  0  0  0  0  0  0  0  0  0  0
    1.2860    1.4690    0.0000 C   0  0  0  0  0  0  0  0  0  0  0  0
    2.7860    2.9690    0.0000 C   0  0  0  0  0  0  0  0  0  0  0  0
    3.5360    4.2680    0.0000 C   0  0  0  0  0  0  0  0  0  0  0  0
    5.0360    4.2680    0.0000 C   0  0  0  0  0  0  0  0  0  0  0  0
    5.7860    2.9690    0.0000 C   0  0  0  0  0  0  0  0  0  0  0  0
    7.2860    2.9690    0.0000 C   0  0  0  0  0  0  0  0  0  0  0  0
    8.0360    1.6700    0.0000 C   0  0  0  0  0  0  0  0  0  0  0  0
    5.0360    1.6700    0.0000 C   0  0  0  0  0  0  0  0  0  0  0  0
    3.5360    1.6700    0.0000 C   0  0  0  0  0  0  0  0  0  0  0  0
  1  2  2  0  0  0  0
  2  3  1  0  0  0  0
  2  4  1  0  0  0  0
  4  5  1  0  0  0  0
  4  6  1  0  0  0  0
  4  7  1  0  0  0  0
  7  8  1  0  0  0  0
  7 14  2  0  0  0  0
  8  9  2  0  0  0  0
  9 10  1  0  0  0  0
 10 11  1  0  0  0  0
 10 13  2  0  0  0  0
 11 12  1  0  0  0  0
 13 14  1  0  0  0  0
M  END
>  <name>
O=C(O)C(C)(C)c1ccc(C[C;amine])cc1

>  <apo>
1

>  <freq>
1

>  <freq0>
0

>  <freq1>
1

>  <freqA>
0.99887151

>  <a_count>
30

$$$$

  MOE2015           2D

 15 16  0  0  0  0  0  0  0  0999 V2000
    1.4060    1.6390    0.0000 O   0  0  0  0  0  0  0  0  0  0  0  0
    2.5550    0.6750    0.0000 C   0  0  0  0  0  0  0  0  0  0  0  0
    3.9650    1.1880    0.0000 O   0  0  0  0  0  0  0  0  0  0  0  0
    2.2950   -0.8020    0.0000 C   0  0  0  0  0  0  0  0  0  0  0  0
    3.7720   -1.0620    0.0000 C   0  0  0  0  0  0  0  0  0  0  0  0
    3.7720   -2.5620    0.0000 C   0  0  0  0  0  0  0  0  0  0  0  0
    5.0710   -3.3120    0.0000 C   0  0  0  0  0  0  0  0  0  0  0  0
    6.3700   -2.5620    0.0000 C   0  0  0  0  0  0  0  0  0  0  0  0
    6.3700   -1.0620    0.0000 C   0  0  0  0  0  0  0  0  0  0  0  0
    5.0710   -0.3120    0.0000 C   0  0  0  0  0  0  0  0  0  0  0  0
    0.9960   -0.0520    0.0000 C   0  0  0  0  0  0  0  0  0  0  0  0
   -0.3030   -0.8020    0.0000 C   0  0  0  0  0  0  0  0  0  0  0  0
   -0.3030   -2.3020    0.0000 N   0  0  0  0  0  0  0  0  0  0  0  0
    0.9960   -3.0520    0.0000 C   0  0  0  0  0  0  0  0  0  0  0  0
    2.2950   -2.3020    0.0000 C   0  0  0  0  0  0  0  0  0  0  0  0
  1  2  2  0  0  0  0
  2  3  1  0  0  0  0
  2  4  1  0  0  0  0
  4  5  1  0  0  0  0
  4 11  1  0  0  0  0
  4 15  1  0  0  0  0
  5  6  1  0  0  0  0
  5 10  2  0  0  0  0
  6  7  2  0  0  0  0
  7  8  1  0  0  0  0
  8  9  2  0  0  0  0
  9 10  1  0  0  0  0
 11 12  1  0  0  0  0
 12 13  1  0  0  0  0
 13 14  1  0  0  0  0
 14 15  1  0  0  0  0
M  END
>  <name>
O=C(O)C1(c2ccccc2)CC[N;amine]CC1

>  <apo>
1

>  <freq>
1

>  <freq0>
0

>  <freq1>
1

>  <freqA>
0.99887151

>  <a_count>
30

$$$$

  MOE2015           2D

 12 11  0  0  0  0  0  0  0  0999 V2000
   -0.5620    2.0980    0.0000 O   0  0  0  0  0  0  0  0  0  0  0  0
    0.7370    2.8480    0.0000 C   0  0  0  0  0  0  0  0  0  0  0  0
    0.7370    4.3480    0.0000 O   0  0  0  0  0  0  0  0  0  0  0  0
    2.0360    2.0980    0.0000 C   0  0  0  0  0  0  0  0  0  0  0  0
    3.3350    2.8480    0.0000 C   0  0  0  0  0  0  0  0  0  0  0  0
    4.6340    2.0980    0.0000 C   0  0  0  0  0  0  0  0  0  0  0  0
    5.9330    2.8480    0.0000 C   0  0  0  0  0  0  0  0  0  0  0  0
    7.2320    2.0980    0.0000 C   0  0  0  0  0  0  0  0  0  0  0  0
    8.5310    2.8480    0.0000 C   0  0  0  0  0  0  0  0  0  0  0  0
    9.8300    2.0980    0.0000 C   0  0  0  0  0  0  0  0  0  0  0  0
   11.1290    2.8480    0.0000 C   0  0  0  0  0  0  0  0  0  0  0  0
   12.4280    2.0980    0.0000 O   0  0  0  0  0  0  0  0  0  0  0  0
  1  2  2  0  0  0  0
  2  3  1  0  0  0  0
  2  4  1  0  0  0  0
  4  5  1  0  0  0  0
  5  6  1  0  0  0  0
  6  7  1  0  0  0  0
  7  8  1  0  0  0  0
  8  9  1  0  0  0  0
  9 10  1  0  0  0  0
 10 11  1  0  0  0  0
 11 12  1  0  0  0  0
M  END
>  <name>
O=C(O)CCCCCCCC[O;ester]

>  <apo>
1

>  <freq>
1

>  <freq0>
0

>  <freq1>
1

>  <freqA>
0.99887151

>  <a_count>
30

$$$$

  MOE2015           2D

 20 21  0  0  0  0  0  0  0  0999 V2000
   -0.5980   -3.3550    0.0000 O   0  0  0  0  0  0  0  0  0  0  0  0
    0.7010   -2.6050    0.0000 C   0  0  0  0  0  0  0  0  0  0  0  0
    0.7010   -1.1050    0.0000 O   0  0  0  0  0  0  0  0  0  0  0  0
    2.0000   -3.3550    0.0000 C   0  0  0  0  0  0  0  0  0  0  0  0
    2.0000   -4.8550    0.0000 C   0  0  0  0  0  0  0  0  0  0  0  0
    0.7010   -5.6050    0.0000 O   0  0  0  0  0  0  0  0  0  0  0  0
    3.2990   -5.6050    0.0000 C   0  0  0  0  0  0  0  0  0  0  0  0
    4.5990   -4.8550    0.0000 C   0  0  0  0  0  0  0  0  0  0  0  0
    4.5990   -3.3550    0.0000 C   0  0  0  0  0  0  0  0  0  0  0  0
    5.8980   -2.6050    0.0000 N   0  0  0  0  0  0  0  0  0  0  0  0
    7.1970   -3.3550    0.0000 N   0  0  0  0  0  0  0  0  0  0  0  0
    8.4960   -2.6050    0.0000 C   0  0  0  0  0  0  0  0  0  0  0  0
    8.4960   -1.1050    0.0000 C   0  0  0  0  0  0  0  0  0  0  0  0
    9.7950   -0.3550    0.0000 C   0  0  0  0  0  0  0  0  0  0  0  0
   11.0940   -1.1050    0.0000 C   0  0  0  0  0  0  0  0  0  0  0  0
   12.3930   -0.3550    0.0000 C   0  0  0  0  0  0  0  0  0  0  0  0
   13.6920   -1.1050    0.0000 O   0  0  0  0  0  0  0  0  0  0  0  0
   11.0940   -2.6050    0.0000 C   0  0  0  0  0  0  0  0  0  0  0  0
    9.7950   -3.3550    0.0000 C   0  0  0  0  0  0  0  0  0  0  0  0
    3.2990   -2.6050    0.0000 C   0  0  0  0  0  0  0  0  0  0  0  0
  1  2  2  0  0  0  0
  2  3  1  0  0  0  0
  2  4  1  0  0  0  0
  4  5  1  0  0  0  0
  4 20  2  0  0  0  0
  5  6  1  0  0  0  0
  5  7  2  0  0  0  0
  7  8  1  0  0  0  0
  8  9  2  0  0  0  0
  9 10  1  0  0  0  0
  9 20  1  0  0  0  0
 10 11  2  0  0  0  0
 11 12  1  0  0  0  0
 12 13  1  0  0  0  0
 12 19  2  0  0  0  0
 13 14  2  0  0  0  0
 14 15  1  0  0  0  0
 15 16  1  0  0  0  0
 15 18  2  0  0  0  0
 16 17  2  0  0  0  0
 18 19  1  0  0  0  0
M  END
>  <name>
O=C(O)c1c(O)ccc(N=Nc2ccc([C;amide]=O)cc2)c1

>  <apo>
1

>  <freq>
1

>  <freq0>
0

>  <freq1>
1

>  <freqA>
0.99887151

>  <a_count>
30

$$$$

  MOE2015           2D

 14 15  0  0  0  0  0  0  0  0999 V2000
    3.0110    3.0110    0.0000 O   0  0  0  0  0  0  0  0  0  0  0  0
    3.0110    1.5110    0.0000 C   0  0  0  0  0  0  0  0  0  0  0  0
    4.3100    0.7610    0.0000 C   0  0  0  0  0  0  0  0  0  0  0  0
    5.6090    1.5110    0.0000 C   0  0  0  0  0  0  0  0  0  0  0  0
    6.9080    0.7610    0.0000 C   0  0  0  0  0  0  0  0  0  0  0  0
    4.3100   -0.7390    0.0000 C   0  0  0  0  0  0  0  0  0  0  0  0
    5.6090   -1.4890    0.0000 C   0  0  0  0  0  0  0  0  0  0  0  0
    3.0110   -1.4890    0.0000 N   0  0  0  0  0  0  0  0  0  0  0  0
    1.7110   -0.7390    0.0000 C   0  0  0  0  0  0  0  0  0  0  0  0
    1.7110    0.7610    0.0000 N   0  0  0  0  0  0  0  0  0  0  0  0
    0.4120    1.5110    0.0000 C   0  0  0  0  0  0  0  0  0  0  0  0
   -0.8870    0.7610    0.0000 C   0  0  0  0  0  0  0  0  0  0  0  0
   -0.8870   -0.7390    0.0000 C   0  0  0  0  0  0  0  0  0  0  0  0
    0.4120   -1.4890    0.0000 C   0  0  0  0  0  0  0  0  0  0  0  0
  1  2  2  0  0  0  0
  2  3  1  0  0  0  0
  2 10  1  0  0  0  0
  3  4  1  0  0  0  0
  3  6  2  0  0  0  0
  4  5  1  0  0  0  0
  6  7  1  0  0  0  0
  6  8  1  0  0  0  0
  8  9  2  0  0  0  0
  9 10  1  0  0  0  0
  9 14  1  0  0  0  0
 10 11  1  0  0  0  0
 11 12  1  0  0  0  0
 12 13  1  0  0  0  0
 13 14  1  0  0  0  0
M  END
>  <name>
O=C1C(C[C;amine])=C(C)N=C2N1CCCC2

>  <apo>
1

>  <freq>
1

>  <freq0>
0

>  <freq1>
1

>  <freqA>
0.99887151

>  <a_count>
30

$$$$

  MOE2015           2D

 13 13  0  0  0  0  0  0  0  0999 V2000
    1.8800   -2.8340    0.0000 O   0  0  0  0  0  0  0  0  0  0  0  0
    2.1910   -1.3660    0.0000 C   0  0  0  0  0  0  0  0  0  0  0  0
    1.1880   -0.2520    0.0000 N   0  0  0  0  0  0  0  0  0  0  0  0
   -0.3040   -0.4080    0.0000 C   0  0  0  0  0  0  0  0  0  0  0  0
   -0.9140   -1.7790    0.0000 C   0  0  0  0  0  0  0  0  0  0  0  0
    1.9380    1.0470    0.0000 C   0  0  0  0  0  0  0  0  0  0  0  0
    1.3280    2.4180    0.0000 C   0  0  0  0  0  0  0  0  0  0  0  0
    2.2090    3.6310    0.0000 C   0  0  0  0  0  0  0  0  0  0  0  0
    3.4050    0.7360    0.0000 N   0  0  0  0  0  0  0  0  0  0  0  0
    3.5620   -0.7560    0.0000 N   0  0  0  0  0  0  0  0  0  0  0  0
    4.8610   -1.5060    0.0000 C   0  0  0  0  0  0  0  0  0  0  0  0
    6.1600   -0.7560    0.0000 C   0  0  0  0  0  0  0  0  0  0  0  0
    7.4590   -1.5060    0.0000 C   0  0  0  0  0  0  0  0  0  0  0  0
  1  2  2  0  0  0  0
  2  3  1  0  0  0  0
  2 10  1  0  0  0  0
  3  4  1  0  0  0  0
  3  6  1  0  0  0  0
  4  5  1  0  0  0  0
  6  7  1  0  0  0  0
  6  9  2  0  0  0  0
  7  8  1  0  0  0  0
  9 10  1  0  0  0  0
 10 11  1  0  0  0  0
 11 12  1  0  0  0  0
 12 13  1  0  0  0  0
M  END
>  <name>
O=C1N(C[C;ether])C(CC)=NN1CC[C;amine]

>  <apo>
2

>  <freq>
1

>  <freq0>
0

>  <freq1>
1

>  <freqA>
0.99887151

>  <a_count>
30

$$$$

  MOE2015           2D

 20 22  0  0  0  0  0  0  0  0999 V2000
    3.0000   -3.0000    0.0000 O   0  0  0  0  0  0  0  0  0  0  0  0
    3.0000   -1.5000    0.0000 C   0  0  0  0  0  0  0  0  0  0  0  0
    1.7010   -0.7500    0.0000 C   0  0  0  0  0  0  0  0  0  0  0  0
    0.4020   -1.5000    0.0000 C   0  0  0  0  0  0  0  0  0  0  0  0
    0.4020   -3.0000    0.0000 O   0  0  0  0  0  0  0  0  0  0  0  0
   -0.8970   -0.7500    0.0000 C   0  0  0  0  0  0  0  0  0  0  0  0
   -0.8970    0.7500    0.0000 C   0  0  0  0  0  0  0  0  0  0  0  0
    0.4020    1.5000    0.0000 C   0  0  0  0  0  0  0  0  0  0  0  0
    0.4020    3.0000    0.0000 O   0  0  0  0  0  0  0  0  0  0  0  0
    1.7010    0.7500    0.0000 C   0  0  0  0  0  0  0  0  0  0  0  0
    3.0000    1.5000    0.0000 C   0  0  0  0  0  0  0  0  0  0  0  0
    3.0000    3.0000    0.0000 O   0  0  0  0  0  0  0  0  0  0  0  0
    4.2990    0.7500    0.0000 C   0  0  0  0  0  0  0  0  0  0  0  0
    5.5980    1.5000    0.0000 C   0  0  0  0  0  0  0  0  0  0  0  0
    5.5980    3.0000    0.0000 N   0  0  0  0  0  0  0  0  0  0  0  0
    6.8970    0.7500    0.0000 C   0  0  0  0  0  0  0  0  0  0  0  0
    6.8970   -0.7500    0.0000 C   0  0  0  0  0  0  0  0  0  0  0  0
    5.5980   -1.5000    0.0000 C   0  0  0  0  0  0  0  0  0  0  0  0
    5.5980   -3.0000    0.0000 N   0  0  0  0  0  0  0  0  0  0  0  0
    4.2990   -0.7500    0.0000 C   0  0  0  0  0  0  0  0  0  0  0  0
  1  2  2  0  0  0  0
  2  3  1  0  0  0  0
  2 20  1  0  0  0  0
  3  4  1  0  0  0  0
  3 10  2  0  0  0  0
  4  5  1  0  0  0  0
  4  6  2  0  0  0  0
  6  7  1  0  0  0  0
  7  8  2  0  0  0  0
  8  9  1  0  0  0  0
  8 10  1  0  0  0  0
 10 11  1  0  0  0  0
 11 12  2  0  0  0  0
 11 13  1  0  0  0  0
 13 14  1  0  0  0  0
 13 20  2  0  0  0  0
 14 15  1  0  0  0  0
 14 16  2  0  0  0  0
 16 17  1  0  0  0  0
 17 18  2  0  0  0  0
 18 19  1  0  0  0  0
 18 20  1  0  0  0  0
M  END
>  <name>
O=C1c2c(O)ccc(O)c2C(=O)c2c([N;amine])ccc([N;amine])c12

>  <apo>
2

>  <freq>
1

>  <freq0>
0

>  <freq1>
1

>  <freqA>
0.99887151

>  <a_count>
30

$$$$

  MOE2015           2D

 14 14  0  0  1  0  0  0  0  0999 V2000
    4.5000    4.0830    0.0000 O   0  0  0  0  0  0  0  0  0  0  0  0
    3.7500    2.7840    0.0000 C   0  0  0  0  0  0  0  0  0  0  0  0
    4.5000    1.4850    0.0000 C   0  0  1  0  0  0  0  0  0  0  0  0
    6.0000    1.4850    0.0000 C   0  0  0  0  0  0  0  0  0  0  0  0
    6.7500    0.1860    0.0000 C   0  0  1  0  0  0  0  0  0  0  0  0
    6.0000   -1.1130    0.0000 O   0  0  0  0  0  0  0  0  0  0  0  0
    8.2500    0.1860    0.0000 C   0  0  0  0  0  0  0  0  0  0  0  0
    3.7500    0.1860    0.0000 C   0  0  0  0  0  0  0  0  0  0  0  0
    2.2500    0.1860    0.0000 C   0  0  0  0  0  0  0  0  0  0  0  0
    1.5000    1.4850    0.0000 C   0  0  0  0  0  0  0  0  0  0  0  0
    0.0000    1.4850    0.0000 C   0  0  0  0  0  0  0  0  0  0  0  0
   -0.7500    0.1860    0.0000 C   0  0  0  0  0  0  0  0  0  0  0  0
    0.0000   -1.1130    0.0000 C   0  0  0  0  0  0  0  0  0  0  0  0
    1.5000   -1.1130    0.0000 C   0  0  0  0  0  0  0  0  0  0  0  0
  1  2  2  0  0  0  0
  3  2  1  1  0  0  0
  3  4  1  0  0  0  0
  3  8  1  0  0  0  0
  4  5  1  0  0  0  0
  5  6  1  6  0  0  0
  5  7  1  0  0  0  0
  8  9  1  0  0  0  0
  9 10  1  0  0  0  0
  9 14  2  0  0  0  0
 10 11  2  0  0  0  0
 11 12  1  0  0  0  0
 12 13  2  0  0  0  0
 13 14  1  0  0  0  0
M  END
>  <name>
O=[C;amide][C@@H](C[C@@H](O)[C;amine])Cc1ccccc1

>  <apo>
2

>  <freq>
1

>  <freq0>
0

>  <freq1>
1

>  <freqA>
0.99887151

>  <a_count>
30

$$$$

  MOE2015           2D

 18 19  0  0  0  0  0  0  0  0999 V2000
    1.0390    2.2890    0.0000 O   0  0  0  0  0  0  0  0  0  0  0  0
    2.3380    1.5390    0.0000 C   0  0  0  0  0  0  0  0  0  0  0  0
    2.3380    0.0390    0.0000 C   0  0  0  0  0  0  0  0  0  0  0  0
    3.6370   -0.7110    0.0000 C   0  0  0  0  0  0  0  0  0  0  0  0
    4.9360    0.0390    0.0000 N   0  0  0  0  0  0  0  0  0  0  0  0
    6.2350   -0.7110    0.0000 C   0  0  0  0  0  0  0  0  0  0  0  0
    7.5340    0.0390    0.0000 C   0  0  0  0  0  0  0  0  0  0  0  0
    7.5340    1.5390    0.0000 O   0  0  0  0  0  0  0  0  0  0  0  0
    8.8330    2.2890    0.0000 C   0  0  0  0  0  0  0  0  0  0  0  0
    8.8330   -0.7110    0.0000 C   0  0  0  0  0  0  0  0  0  0  0  0
    8.8330   -2.2110    0.0000 C   0  0  0  0  0  0  0  0  0  0  0  0
    7.5340   -2.9610    0.0000 C   0  0  0  0  0  0  0  0  0  0  0  0
    6.2350   -2.2110    0.0000 C   0  0  0  0  0  0  0  0  0  0  0  0
    3.6370   -2.2110    0.0000 C   0  0  0  0  0  0  0  0  0  0  0  0
    2.3380   -2.9610    0.0000 C   0  0  0  0  0  0  0  0  0  0  0  0
    2.3380   -4.4610    0.0000 N   0  0  0  0  0  0  0  0  0  0  0  0
    1.0390   -2.2110    0.0000 N   0  0  0  0  0  0  0  0  0  0  0  0
    1.0390   -0.7110    0.0000 N   0  0  0  0  0  0  0  0  0  0  0  0
  1  2  2  0  0  0  0
  2  3  1  0  0  0  0
  3  4  1  0  0  0  0
  3 18  2  0  0  0  0
  4  5  1  0  0  0  0
  4 14  2  0  0  0  0
  5  6  1  0  0  0  0
  6  7  1  0  0  0  0
  6 13  2  0  0  0  0
  7  8  1  0  0  0  0
  7 10  2  0  0  0  0
  8  9  1  0  0  0  0
 10 11  1  0  0  0  0
 11 12  2  0  0  0  0
 12 13  1  0  0  0  0
 14 15  1  0  0  0  0
 15 16  1  0  0  0  0
 15 17  2  0  0  0  0
 17 18  1  0  0  0  0
M  END
>  <name>
O=[C;amide]c1c(Nc2c(OC)[c;biphenyl]ccc2)cc([N;amide])nn1

>  <apo>
3

>  <freq>
1

>  <freq0>
0

>  <freq1>
1

>  <freqA>
0.99887151

>  <a_count>
30

$$$$

  MOE2015           2D

 16 17  0  0  1  0  0  0  0  0999 V2000
    8.4400    4.8730    0.0000 O   0  0  0  0  0  0  0  0  0  0  0  0
    7.6900    3.5740    0.0000 C   0  0  0  0  0  0  0  0  0  0  0  0
    6.1900    3.5740    0.0000 C   0  0  0  0  0  0  0  0  0  0  0  0
    5.4400    2.2750    0.0000 C   0  0  0  0  0  0  0  0  0  0  0  0
    6.1900    0.9760    0.0000 N   0  0  0  0  0  0  0  0  0  0  0  0
    3.9400    2.2750    0.0000 N   0  0  0  0  0  0  0  0  0  0  0  0
    3.1900    3.5740    0.0000 C   0  0  0  0  0  0  0  0  0  0  0  0
    1.6900    3.5740    0.0000 N   0  0  0  0  0  0  0  0  0  0  0  0
    0.8080    4.7870    0.0000 C   0  0  2  0  0  0  0  0  0  0  0  0
    1.2720    6.2140    0.0000 C   0  0  0  0  0  0  0  0  0  0  0  0
    0.2680    7.3290    0.0000 O   0  0  0  0  0  0  0  0  0  0  0  0
   -0.6180    4.3240    0.0000 C   0  0  0  0  0  0  0  0  0  0  0  0
   -0.6180    2.8240    0.0000 C   0  0  0  0  0  0  0  0  0  0  0  0
    0.8080    2.3600    0.0000 C   0  0  0  0  0  0  0  0  0  0  0  0
    3.9400    4.8730    0.0000 N   0  0  0  0  0  0  0  0  0  0  0  0
    5.4400    4.8730    0.0000 C   0  0  0  0  0  0  0  0  0  0  0  0
  1  2  2  0  0  0  0
  2  3  1  0  0  0  0
  3  4  1  0  0  0  0
  3 16  2  0  0  0  0
  4  5  1  0  0  0  0
  4  6  2  0  0  0  0
  6  7  1  0  0  0  0
  7  8  1  0  0  0  0
  7 15  2  0  0  0  0
  8  9  1  0  0  0  0
  8 14  1  0  0  0  0
  9 10  1  1  0  0  0
  9 12  1  0  0  0  0
 10 11  1  0  0  0  0
 12 13  1  0  0  0  0
 13 14  1  0  0  0  0
 15 16  1  0  0  0  0
M  END
>  <name>
O=[C;amide]c1c([N;amine])nc(N2[C@H](CO)CCC2)nc1

>  <apo>
2

>  <freq>
1

>  <freq0>
0

>  <freq1>
1

>  <freqA>
0.99887151

>  <a_count>
30

$$$$

  MOE2015           2D

 10  9  0  0  1  0  0  0  0  0999 V2000
   -0.3770    1.4090    0.0000 O   0  0  0  0  0  0  0  0  0  0  0  0
    0.9220    2.1590    0.0000 C   0  0  1  0  0  0  0  0  0  0  0  0
    2.2210    1.4090    0.0000 C   0  0  0  0  0  0  0  0  0  0  0  0
    3.5200    0.6590    0.0000 C   0  0  0  0  0  0  0  0  0  0  0  0
    4.8190    1.4090    0.0000 C   0  0  0  0  0  0  0  0  0  0  0  0
    6.1180    0.6590    0.0000 C   0  0  0  0  0  0  0  0  0  0  0  0
    7.4170    1.4090    0.0000 C   0  0  0  0  0  0  0  0  0  0  0  0
    2.9710    2.7080    0.0000 C   0  0  0  0  0  0  0  0  0  0  0  0
    1.4710    0.1100    0.0000 C   0  0  0  0  0  0  0  0  0  0  0  0
    0.9220    3.6590    0.0000 C   0  0  0  0  0  0  0  0  0  0  0  0
  2  1  1  6  0  0  0
  2  3  1  0  0  0  0
  2 10  1  0  0  0  0
  3  4  1  0  0  0  0
  3  8  1  0  0  0  0
  3  9  1  0  0  0  0
  4  5  1  0  0  0  0
  5  6  1  0  0  0  0
  6  7  1  0  0  0  0
M  END
>  <name>
O[C@@H](C(CCCC)(C)C)[C;olefin]

>  <apo>
1

>  <freq>
1

>  <freq0>
0

>  <freq1>
1

>  <freqA>
0.99887151

>  <a_count>
30

$$$$

  MOE2015           2D

 15 16  0  0  1  0  0  0  0  0999 V2000
    4.8520    4.8520    0.0000 O   0  0  0  0  0  0  0  0  0  0  0  0
    4.8520    3.3520    0.0000 C   0  0  1  0  0  0  0  0  0  0  0  0
    6.1510    2.6020    0.0000 C   0  0  2  0  0  0  0  0  0  0  0  0
    6.1510    1.1020    0.0000 N   0  0  0  0  0  0  0  0  0  0  0  0
    7.4500    3.3520    0.0000 C   0  0  0  0  0  0  0  0  0  0  0  0
    3.5530    2.6020    0.0000 C   0  0  0  0  0  0  0  0  0  0  0  0
    2.2540    3.3520    0.0000 C   0  0  0  0  0  0  0  0  0  0  0  0
    0.9550    2.6020    0.0000 C   0  0  0  0  0  0  0  0  0  0  0  0
   -0.3440    3.3520    0.0000 O   0  0  0  0  0  0  0  0  0  0  0  0
   -1.6440    2.6020    0.0000 C   0  0  0  0  0  0  0  0  0  0  0  0
   -1.6440    1.1020    0.0000 C   0  0  0  0  0  0  0  0  0  0  0  0
   -0.3440    0.3520    0.0000 O   0  0  0  0  0  0  0  0  0  0  0  0
    0.9550    1.1020    0.0000 C   0  0  0  0  0  0  0  0  0  0  0  0
    2.2540    0.3520    0.0000 C   0  0  0  0  0  0  0  0  0  0  0  0
    3.5530    1.1020    0.0000 C   0  0  0  0  0  0  0  0  0  0  0  0
  2  1  1  1  0  0  0
  2  3  1  0  0  0  0
  2  6  1  0  0  0  0
  3  4  1  1  0  0  0
  3  5  1  0  0  0  0
  6  7  1  0  0  0  0
  6 15  2  0  0  0  0
  7  8  2  0  0  0  0
  8  9  1  0  0  0  0
  8 13  1  0  0  0  0
  9 10  1  0  0  0  0
 10 11  1  0  0  0  0
 11 12  1  0  0  0  0
 12 13  1  0  0  0  0
 13 14  2  0  0  0  0
 14 15  1  0  0  0  0
M  END
>  <name>
O[C@@H]([C@H]([N;amide])[C;amine])c1cc2OCCOc2cc1

>  <apo>
2

>  <freq>
1

>  <freq0>
0

>  <freq1>
1

>  <freqA>
0.99887151

>  <a_count>
30

$$$$

  MOE2015           2D

 15 14  0  0  1  0  0  0  0  0999 V2000
    0.0000    0.0000    0.0000 P   0  0  0  0  0  0  0  0  0  0  0  0
   -0.7500    1.2990    0.0000 O   0  0  0  0  0  0  0  0  0  0  0  0
   -1.2990   -0.7500    0.0000 O   0  0  0  0  0  0  0  0  0  0  0  0
   -2.5980    0.0000    0.0000 C   0  0  0  0  0  0  0  0  0  0  0  0
   -3.8970   -0.7500    0.0000 C   0  0  3  0  0  0  0  0  0  0  0  0
   -3.8970   -2.2500    0.0000 O   0  0  0  0  0  0  0  0  0  0  0  0
   -5.1960    0.0000    0.0000 C   0  0  0  0  0  0  0  0  0  0  0  0
   -6.4950   -0.7500    0.0000 O   0  0  0  0  0  0  0  0  0  0  0  0
    1.2990    0.7500    0.0000 O   0  0  0  0  0  0  0  0  0  0  0  0
    2.5980    0.0000    0.0000 C   0  0  0  0  0  0  0  0  0  0  0  0
    3.8970    0.7500    0.0000 C   0  0  3  0  0  0  0  0  0  0  0  0
    3.8970    2.2500    0.0000 O   0  0  0  0  0  0  0  0  0  0  0  0
    5.1960    0.0000    0.0000 C   0  0  0  0  0  0  0  0  0  0  0  0
    6.4950    0.7500    0.0000 O   0  0  0  0  0  0  0  0  0  0  0  0
    0.7500   -1.2990    0.0000 O   0  0  0  0  0  0  0  0  0  0  0  0
  1  2  2  0  0  0  0
  1  3  1  0  0  0  0
  1  9  1  0  0  0  0
  1 15  1  0  0  0  0
  3  4  1  0  0  0  0
  4  5  1  0  0  0  0
  5  6  1  0  0  0  0
  5  7  1  0  0  0  0
  7  8  1  0  0  0  0
  9 10  1  0  0  0  0
 10 11  1  0  0  0  0
 11 12  1  0  0  0  0
 11 13  1  0  0  0  0
 13 14  1  0  0  0  0
M  END
>  <name>
P(=O)(OCC([O;ester])C[O;ester])(OCC(O)CO)O

>  <apo>
2

>  <freq>
1

>  <freq0>
0

>  <freq1>
1

>  <freqA>
0.99887151

>  <a_count>
30

$$$$

  MOE2015           2D

 19 20  0  0  1  0  0  0  0  0999 V2000
    0.2600   -3.0410    0.0000 P   0  0  0  0  0  0  0  0  0  0  0  0
    1.5120   -3.8680    0.0000 O   0  0  0  0  0  0  0  0  0  0  0  0
   -0.9910   -2.2150    0.0000 O   0  0  0  0  0  0  0  0  0  0  0  0
   -2.3330   -2.8860    0.0000 C   0  0  0  0  0  0  0  0  0  0  0  0
   -3.5850   -2.0590    0.0000 C   0  0  2  0  0  0  0  0  0  0  0  0
   -3.6520   -0.5610    0.0000 O   0  0  0  0  0  0  0  0  0  0  0  0
   -5.0980   -0.1620    0.0000 C   0  0  0  0  0  0  0  0  0  0  0  0
   -5.6250    1.2430    0.0000 O   0  0  0  0  0  0  0  0  0  0  0  0
   -5.9240   -1.4140    0.0000 N   0  0  0  0  0  0  0  0  0  0  0  0
   -7.4230   -1.4810    0.0000 C   0  0  0  0  0  0  0  0  0  0  0  0
   -8.1140   -2.8120    0.0000 C   0  0  0  0  0  0  0  0  0  0  0  0
   -9.6120   -2.8790    0.0000 C   0  0  0  0  0  0  0  0  0  0  0  0
  -10.3030   -4.2110    0.0000 F   0  0  0  0  0  0  0  0  0  0  0  0
  -10.4200   -1.6150    0.0000 C   0  0  0  0  0  0  0  0  0  0  0  0
   -9.7290   -0.2840    0.0000 C   0  0  0  0  0  0  0  0  0  0  0  0
   -8.2300   -0.2170    0.0000 C   0  0  0  0  0  0  0  0  0  0  0  0
   -4.9890   -2.5860    0.0000 C   0  0  0  0  0  0  0  0  0  0  0  0
    1.0870   -1.7900    0.0000 O   0  0  0  0  0  0  0  0  0  0  0  0
   -0.5660   -4.2930    0.0000 O   0  0  0  0  0  0  0  0  0  0  0  0
  1  2  2  0  0  0  0
  1  3  1  0  0  0  0
  1 18  1  0  0  0  0
  1 19  1  0  0  0  0
  3  4  1  0  0  0  0
  5  4  1  1  0  0  0
  5  6  1  0  0  0  0
  5 17  1  0  0  0  0
  6  7  1  0  0  0  0
  7  8  2  0  0  0  0
  7  9  1  0  0  0  0
  9 10  1  0  0  0  0
  9 17  1  0  0  0  0
 10 11  2  0  0  0  0
 10 16  1  0  0  0  0
 11 12  1  0  0  0  0
 12 13  1  0  0  0  0
 12 14  2  0  0  0  0
 14 15  1  0  0  0  0
 15 16  2  0  0  0  0
M  END
>  <name>
P(=O)(OC[C@@H]1OC(=O)N(c2cc(F)[c;biphenyl]cc2)C1)(O)O

>  <apo>
1

>  <freq>
1

>  <freq0>
0

>  <freq1>
1

>  <freqA>
0.99887151

>  <a_count>
30

$$$$

  MOE2015           2D

 16 15  0  0  1  0  0  0  0  0999 V2000
    0.5680   -0.3280    0.0000 P   0  0  3  0  0  0  0  0  0  0  0  0
   -0.1820    0.9710    0.0000 O   0  0  0  0  0  0  0  0  0  0  0  0
   -0.7310   -1.0780    0.0000 O   0  0  0  0  0  0  0  0  0  0  0  0
   -2.0300   -0.3280    0.0000 C   0  0  0  0  0  0  0  0  0  0  0  0
   -3.3290   -1.0780    0.0000 C   0  0  2  0  0  0  0  0  0  0  0  0
   -3.3290   -2.5780    0.0000 N   0  0  0  0  0  0  0  0  0  0  0  0
   -4.6280   -0.3280    0.0000 C   0  0  0  0  0  0  0  0  0  0  0  0
   -5.9270   -1.0780    0.0000 O   0  0  0  0  0  0  0  0  0  0  0  0
   -4.6280    1.1720    0.0000 O   0  0  0  0  0  0  0  0  0  0  0  0
    1.8670    0.4220    0.0000 O   0  0  0  0  0  0  0  0  0  0  0  0
    3.1660   -0.3280    0.0000 C   0  0  0  0  0  0  0  0  0  0  0  0
    4.4650    0.4220    0.0000 C   0  0  2  0  0  0  0  0  0  0  0  0
    4.4650    1.9220    0.0000 O   0  0  0  0  0  0  0  0  0  0  0  0
    5.7640   -0.3280    0.0000 C   0  0  0  0  0  0  0  0  0  0  0  0
    7.0640    0.4220    0.0000 O   0  0  0  0  0  0  0  0  0  0  0  0
    1.3180   -1.6270    0.0000 O   0  0  0  0  0  0  0  0  0  0  0  0
  1  2  2  0  0  0  0
  1  3  1  0  0  0  0
  1 10  1  0  0  0  0
  1 16  1  0  0  0  0
  3  4  1  0  0  0  0
  4  5  1  0  0  0  0
  5  6  1  6  0  0  0
  5  7  1  0  0  0  0
  7  8  2  0  0  0  0
  7  9  1  0  0  0  0
 10 11  1  0  0  0  0
 11 12  1  0  0  0  0
 12 13  1  6  0  0  0
 12 14  1  0  0  0  0
 14 15  1  0  0  0  0
M  END
>  <name>
P(=O)(OC[C@H](N)C(=O)O)(OC[C@H]([O;ester])C[O;ester])O

>  <apo>
2

>  <freq>
1

>  <freq0>
0

>  <freq1>
1

>  <freqA>
0.99887151

>  <a_count>
30

$$$$

  MOE2015           2D

 15 14  0  0  1  0  0  0  0  0999 V2000
    0.0000    0.0000    0.0000 P   0  0  0  0  0  0  0  0  0  0  0  0
   -0.7500    1.2990    0.0000 O   0  0  0  0  0  0  0  0  0  0  0  0
   -1.2990   -0.7500    0.0000 O   0  0  0  0  0  0  0  0  0  0  0  0
   -2.5980    0.0000    0.0000 C   0  0  0  0  0  0  0  0  0  0  0  0
   -3.8970   -0.7500    0.0000 C   0  0  2  0  0  0  0  0  0  0  0  0
   -3.8970   -2.2500    0.0000 O   0  0  0  0  0  0  0  0  0  0  0  0
   -5.1960    0.0000    0.0000 C   0  0  0  0  0  0  0  0  0  0  0  0
   -6.4950   -0.7500    0.0000 O   0  0  0  0  0  0  0  0  0  0  0  0
    1.2990    0.7500    0.0000 O   0  0  0  0  0  0  0  0  0  0  0  0
    2.5980    0.0000    0.0000 C   0  0  0  0  0  0  0  0  0  0  0  0
    3.8970    0.7500    0.0000 C   0  0  3  0  0  0  0  0  0  0  0  0
    3.8970    2.2500    0.0000 O   0  0  0  0  0  0  0  0  0  0  0  0
    5.1960    0.0000    0.0000 C   0  0  0  0  0  0  0  0  0  0  0  0
    6.4950    0.7500    0.0000 O   0  0  0  0  0  0  0  0  0  0  0  0
    0.7500   -1.2990    0.0000 O   0  0  0  0  0  0  0  0  0  0  0  0
  1  2  2  0  0  0  0
  1  3  1  0  0  0  0
  1  9  1  0  0  0  0
  1 15  1  0  0  0  0
  3  4  1  0  0  0  0
  4  5  1  0  0  0  0
  5  6  1  6  0  0  0
  5  7  1  0  0  0  0
  7  8  1  0  0  0  0
  9 10  1  0  0  0  0
 10 11  1  0  0  0  0
 11 12  1  0  0  0  0
 11 13  1  0  0  0  0
 13 14  1  0  0  0  0
M  END
>  <name>
P(=O)(OC[C@H]([O;ester])C[O;ester])(OCC(O)CO)O

>  <apo>
2

>  <freq>
1

>  <freq0>
0

>  <freq1>
1

>  <freqA>
0.99887151

>  <a_count>
30

$$$$

  MOE2015           2D

 15 15  0  0  0  0  0  0  0  0999 V2000
   -2.4250   -3.6000    0.0000 S   0  0  0  0  0  0  0  0  0  0  0  0
   -3.1750   -2.3010    0.0000 O   0  0  0  0  0  0  0  0  0  0  0  0
   -1.6750   -4.8990    0.0000 O   0  0  0  0  0  0  0  0  0  0  0  0
   -3.7240   -4.3500    0.0000 N   0  0  0  0  0  0  0  0  0  0  0  0
   -1.1260   -2.8500    0.0000 C   0  0  0  0  0  0  0  0  0  0  0  0
   -1.1260   -1.3500    0.0000 C   0  0  0  0  0  0  0  0  0  0  0  0
   -2.4250   -0.6000    0.0000 O   0  0  0  0  0  0  0  0  0  0  0  0
   -2.4250    0.9000    0.0000 C   0  0  0  0  0  0  0  0  0  0  0  0
    0.1730   -0.6000    0.0000 C   0  0  0  0  0  0  0  0  0  0  0  0
    1.4720   -1.3500    0.0000 C   0  0  0  0  0  0  0  0  0  0  0  0
    1.4720   -2.8500    0.0000 C   0  0  0  0  0  0  0  0  0  0  0  0
    2.7710   -3.6000    0.0000 C   0  0  0  0  0  0  0  0  0  0  0  0
    4.0700   -2.8500    0.0000 C   0  0  0  0  0  0  0  0  0  0  0  0
    5.3690   -3.6000    0.0000 C   0  0  0  0  0  0  0  0  0  0  0  0
    0.1730   -3.6000    0.0000 C   0  0  0  0  0  0  0  0  0  0  0  0
  1  2  2  0  0  0  0
  1  3  2  0  0  0  0
  1  4  1  0  0  0  0
  1  5  1  0  0  0  0
  5  6  1  0  0  0  0
  5 15  2  0  0  0  0
  6  7  1  0  0  0  0
  6  9  2  0  0  0  0
  7  8  1  0  0  0  0
  9 10  1  0  0  0  0
 10 11  2  0  0  0  0
 11 12  1  0  0  0  0
 11 15  1  0  0  0  0
 12 13  1  0  0  0  0
 13 14  1  0  0  0  0
M  END
>  <name>
S(=O)(=O)(N)c1c(OC)ccc(C[C;amine]C)c1

>  <apo>
1

>  <freq>
1

>  <freq0>
0

>  <freq1>
1

>  <freqA>
0.99887151

>  <a_count>
30

$$$$

  MOE2015           2D

 18 19  0  0  0  0  0  0  0  0999 V2000
   -3.1030   -5.3750    0.0000 S   0  0  0  0  0  0  0  0  0  0  0  0
   -2.3530   -6.6740    0.0000 O   0  0  0  0  0  0  0  0  0  0  0  0
   -3.8530   -4.0760    0.0000 O   0  0  0  0  0  0  0  0  0  0  0  0
   -4.4020   -6.1250    0.0000 O   0  5  0  0  0  0  0  0  0  0  0  0
   -1.8040   -4.6250    0.0000 C   0  0  0  0  0  0  0  0  0  0  0  0
   -0.5050   -5.3750    0.0000 C   0  0  0  0  0  0  0  0  0  0  0  0
    0.7940   -4.6250    0.0000 C   0  0  0  0  0  0  0  0  0  0  0  0
    0.7940   -3.1250    0.0000 C   0  0  0  0  0  0  0  0  0  0  0  0
    2.0930   -2.3750    0.0000 C   0  0  0  0  0  0  0  0  0  0  0  0
    3.3920   -3.1250    0.0000 C   0  0  0  0  0  0  0  0  0  0  0  0
    3.3920   -4.6250    0.0000 C   0  0  0  0  0  0  0  0  0  0  0  0
    4.6910   -5.3750    0.0000 C   0  0  0  0  0  0  0  0  0  0  0  0
    5.9900   -4.6250    0.0000 C   0  0  0  0  0  0  0  0  0  0  0  0
    7.2890   -5.3750    0.0000 N   0  0  0  0  0  0  0  0  0  0  0  0
    5.9900   -3.1250    0.0000 C   0  0  0  0  0  0  0  0  0  0  0  0
    4.6910   -2.3750    0.0000 C   0  0  0  0  0  0  0  0  0  0  0  0
   -0.5050   -2.3750    0.0000 C   0  0  0  0  0  0  0  0  0  0  0  0
   -1.8040   -3.1250    0.0000 C   0  0  0  0  0  0  0  0  0  0  0  0
  1  2  2  0  0  0  0
  1  3  2  0  0  0  0
  1  4  1  0  0  0  0
  1  5  1  0  0  0  0
  5  6  1  0  0  0  0
  5 18  2  0  0  0  0
  6  7  2  0  0  0  0
  7  8  1  0  0  0  0
  8  9  1  0  0  0  0
  8 17  2  0  0  0  0
  9 10  1  0  0  0  0
 10 11  1  0  0  0  0
 10 16  2  0  0  0  0
 11 12  2  0  0  0  0
 12 13  1  0  0  0  0
 13 14  1  0  0  0  0
 13 15  2  0  0  0  0
 15 16  1  0  0  0  0
 17 18  1  0  0  0  0
M  CHG  1   4  -1
M  END
>  <name>
S(=O)(=O)([O-])c1ccc([C;olefin]c2ccc([N;amine])cc2)cc1

>  <apo>
2

>  <freq>
1

>  <freq0>
0

>  <freq1>
1

>  <freqA>
0.99887151

>  <a_count>
30

$$$$

  MOE2015           2D

 15 16  0  0  0  0  0  0  0  0999 V2000
    0.7000   -2.6120    0.0000 C   0  0  0  0  0  0  0  0  0  0  0  0
   -0.5990   -1.8620    0.0000 C   0  0  0  0  0  0  0  0  0  0  0  0
   -1.8980   -2.6120    0.0000 N   0  0  0  0  0  0  0  0  0  0  0  0
   -3.1970   -1.8620    0.0000 C   0  0  0  0  0  0  0  0  0  0  0  0
   -4.4960   -2.6120    0.0000 C   0  0  0  0  0  0  0  0  0  0  0  0
   -3.1970   -0.3620    0.0000 C   0  0  0  0  0  0  0  0  0  0  0  0
   -1.8980    0.3880    0.0000 C   0  0  0  0  0  0  0  0  0  0  0  0
   -0.5990   -0.3620    0.0000 C   0  0  0  0  0  0  0  0  0  0  0  0
    1.9990   -1.8620    0.0000 C   0  0  0  0  0  0  0  0  0  0  0  0
    1.9990   -0.3620    0.0000 C   0  0  0  0  0  0  0  0  0  0  0  0
    3.2980    0.3880    0.0000 C   0  0  0  0  0  0  0  0  0  0  0  0
    4.5970   -0.3620    0.0000 C   0  0  0  0  0  0  0  0  0  0  0  0
    5.8960    0.3880    0.0000 C   0  0  0  0  0  0  0  0  0  0  0  0
    4.5970   -1.8620    0.0000 C   0  0  0  0  0  0  0  0  0  0  0  0
    3.2980   -2.6120    0.0000 C   0  0  0  0  0  0  0  0  0  0  0  0
  1  2  1  0  0  0  0
  1  9  1  0  0  0  0
  2  3  1  0  0  0  0
  2  8  2  0  0  0  0
  3  4  2  0  0  0  0
  4  5  1  0  0  0  0
  4  6  1  0  0  0  0
  6  7  2  0  0  0  0
  7  8  1  0  0  0  0
  9 10  1  0  0  0  0
  9 15  2  0  0  0  0
 10 11  2  0  0  0  0
 11 12  1  0  0  0  0
 12 13  1  0  0  0  0
 12 14  2  0  0  0  0
 14 15  1  0  0  0  0
M  END
>  <name>
[C;olefin](c1nc([C;olefin])ccc1)c1ccc(C)cc1

>  <apo>
2

>  <freq>
1

>  <freq0>
0

>  <freq1>
1

>  <freqA>
0.99887151

>  <a_count>
30

$$$$

  MOE2015           2D

 15 17  0  0  0  0  0  0  0  0999 V2000
    0.3600   -0.3600    0.0000 C   0  0  0  0  0  0  0  0  0  0  0  0
    1.8600   -0.3600    0.0000 C   0  0  0  0  0  0  0  0  0  0  0  0
    2.6100   -1.6600    0.0000 C   0  0  0  0  0  0  0  0  0  0  0  0
    4.1100   -1.6600    0.0000 C   0  0  0  0  0  0  0  0  0  0  0  0
    4.8600   -0.3600    0.0000 N   0  0  0  0  0  0  0  0  0  0  0  0
    4.1100    0.9390    0.0000 C   0  0  0  0  0  0  0  0  0  0  0  0
    2.6100    0.9390    0.0000 C   0  0  0  0  0  0  0  0  0  0  0  0
   -0.5210    0.8530    0.0000 N   0  0  0  0  0  0  0  0  0  0  0  0
   -1.9480    0.3900    0.0000 C   0  0  0  0  0  0  0  0  0  0  0  0
   -1.9480   -1.1100    0.0000 C   0  0  0  0  0  0  0  0  0  0  0  0
   -0.5210   -1.5740    0.0000 N   0  0  0  0  0  0  0  0  0  0  0  0
   -3.2470   -1.8600    0.0000 C   0  0  0  0  0  0  0  0  0  0  0  0
   -4.5460   -1.1100    0.0000 C   0  0  0  0  0  0  0  0  0  0  0  0
   -4.5460    0.3900    0.0000 C   0  0  0  0  0  0  0  0  0  0  0  0
   -3.2470    1.1400    0.0000 C   0  0  0  0  0  0  0  0  0  0  0  0
  1  2  1  0  0  0  0
  1  8  1  0  0  0  0
  1 11  2  0  0  0  0
  2  3  1  0  0  0  0
  2  7  1  0  0  0  0
  3  4  1  0  0  0  0
  4  5  1  0  0  0  0
  5  6  1  0  0  0  0
  6  7  1  0  0  0  0
  8  9  1  0  0  0  0
  9 10  1  0  0  0  0
  9 15  2  0  0  0  0
 10 11  1  0  0  0  0
 10 12  2  0  0  0  0
 12 13  1  0  0  0  0
 13 14  2  0  0  0  0
 14 15  1  0  0  0  0
M  END
>  <name>
c1(C2CC[N;amine]CC2)[nH;NaroC]c2c(n1)cccc2

>  <apo>
2

>  <freq>
1

>  <freq0>
0

>  <freq1>
1

>  <freqA>
0.99887151

>  <a_count>
30

$$$$

  MOE2015           2D

  9  8  0  0  0  0  0  0  0  0999 V2000
    0.1670   -0.0450    0.0000 C   0  0  0  0  0  0  0  0  0  0  0  0
    1.4660    0.7050    0.0000 C   0  0  0  0  0  0  0  0  0  0  0  0
    2.7650   -0.0450    0.0000 C   0  0  0  0  0  0  0  0  0  0  0  0
    4.0640    0.7050    0.0000 C   0  0  0  0  0  0  0  0  0  0  0  0
    5.3630   -0.0450    0.0000 C   0  0  0  0  0  0  0  0  0  0  0  0
   -1.1320    0.7050    0.0000 C   0  0  0  0  0  0  0  0  0  0  0  0
   -2.4310   -0.0450    0.0000 C   0  0  0  0  0  0  0  0  0  0  0  0
   -3.7300    0.7050    0.0000 C   0  0  0  0  0  0  0  0  0  0  0  0
   -5.0290   -0.0450    0.0000 C   0  0  0  0  0  0  0  0  0  0  0  0
  1  2  1  0  0  0  0
  1  6  1  0  0  0  0
  2  3  1  0  0  0  0
  3  4  1  0  0  0  0
  4  5  1  0  0  0  0
  6  7  1  0  0  0  0
  7  8  1  0  0  0  0
  8  9  1  0  0  0  0
M  END
>  <name>
C(CCCC)CCC[C;olefin]

>  <apo>
1

>  <freq>
1

>  <freq0>
0

>  <freq1>
1

>  <freqA>
0.99887151

>  <a_count>
29

$$$$

  MOE2015           2D

 10 10  0  0  0  0  0  0  0  0999 V2000
    0.1280    0.4790    0.0000 C   0  0  0  0  0  0  0  0  0  0  0  0
    1.4270   -0.2710    0.0000 C   0  0  0  0  0  0  0  0  0  0  0  0
    2.7270    0.4790    0.0000 C   0  0  0  0  0  0  0  0  0  0  0  0
   -1.1710   -0.2710    0.0000 C   0  0  0  0  0  0  0  0  0  0  0  0
   -2.4700    0.4790    0.0000 C   0  0  0  0  0  0  0  0  0  0  0  0
   -2.4700    1.9790    0.0000 C   0  0  0  0  0  0  0  0  0  0  0  0
   -3.7690    2.7290    0.0000 C   0  0  0  0  0  0  0  0  0  0  0  0
   -5.0680    1.9790    0.0000 N   0  0  0  0  0  0  0  0  0  0  0  0
   -5.0680    0.4790    0.0000 C   0  0  0  0  0  0  0  0  0  0  0  0
   -3.7690   -0.2710    0.0000 C   0  0  0  0  0  0  0  0  0  0  0  0
  1  2  1  0  0  0  0
  1  4  1  0  0  0  0
  2  3  1  0  0  0  0
  4  5  1  0  0  0  0
  5  6  1  0  0  0  0
  5 10  1  0  0  0  0
  6  7  1  0  0  0  0
  7  8  1  0  0  0  0
  8  9  1  0  0  0  0
  9 10  1  0  0  0  0
M  END
>  <name>
C(C[C;ether])CC1CCNCC1

>  <apo>
1

>  <freq>
1

>  <freq0>
0

>  <freq1>
1

>  <freqA>
0.99887151

>  <a_count>
29

$$$$

  MOE2015           2D

 13 14  0  0  0  0  0  0  0  0999 V2000
    1.0380    4.1970    0.0000 C   0  0  0  0  0  0  0  0  0  0  0  0
    0.2880    2.8980    0.0000 C   0  0  0  0  0  0  0  0  0  0  0  0
    1.0380    1.5990    0.0000 C   0  0  0  0  0  0  0  0  0  0  0  0
    2.5380    1.5990    0.0000 N   0  0  0  0  0  0  0  0  0  0  0  0
    3.2880    0.3000    0.0000 C   0  0  0  0  0  0  0  0  0  0  0  0
    4.7880    0.3000    0.0000 C   0  0  0  0  0  0  0  0  0  0  0  0
    5.5380    1.5990    0.0000 N   0  0  0  0  0  0  0  0  0  0  0  0
    4.7880    2.8980    0.0000 C   0  0  0  0  0  0  0  0  0  0  0  0
    3.2880    2.8980    0.0000 C   0  0  0  0  0  0  0  0  0  0  0  0
    0.2880    0.3000    0.0000 C   0  0  0  0  0  0  0  0  0  0  0  0
   -1.2120    0.3000    0.0000 C   0  0  0  0  0  0  0  0  0  0  0  0
   -1.9620    1.5990    0.0000 C   0  0  0  0  0  0  0  0  0  0  0  0
   -1.2120    2.8980    0.0000 C   0  0  0  0  0  0  0  0  0  0  0  0
  1  2  1  0  0  0  0
  2  3  1  0  0  0  0
  2 13  2  0  0  0  0
  3  4  1  0  0  0  0
  3 10  2  0  0  0  0
  4  5  1  0  0  0  0
  4  9  1  0  0  0  0
  5  6  1  0  0  0  0
  6  7  1  0  0  0  0
  7  8  1  0  0  0  0
  8  9  1  0  0  0  0
 10 11  1  0  0  0  0
 11 12  2  0  0  0  0
 12 13  1  0  0  0  0
M  END
>  <name>
Cc1c(N2CC[N;amine]CC2)cccc1

>  <apo>
1

>  <freq>
1

>  <freq0>
0

>  <freq1>
1

>  <freqA>
0.99887151

>  <a_count>
29

$$$$

  MOE2015           2D

 14 15  0  0  0  0  0  0  0  0999 V2000
    1.1510   -0.8440    0.0000 C   0  0  0  0  0  0  0  0  0  0  0  0
    0.7010    0.5860    0.0000 C   0  0  0  0  0  0  0  0  0  0  0  0
    1.5930    1.7920    0.0000 N   0  0  0  0  0  0  0  0  0  0  0  0
    0.7220    3.0130    0.0000 C   0  0  0  0  0  0  0  0  0  0  0  0
    1.1980    4.4360    0.0000 C   0  0  0  0  0  0  0  0  0  0  0  0
   -0.7090    2.5620    0.0000 C   0  0  0  0  0  0  0  0  0  0  0  0
   -0.7220    1.0620    0.0000 C   0  0  0  0  0  0  0  0  0  0  0  0
   -1.9430    0.1920    0.0000 C   0  0  0  0  0  0  0  0  0  0  0  0
    3.0930    1.7790    0.0000 C   0  0  0  0  0  0  0  0  0  0  0  0
    3.8310    0.4730    0.0000 C   0  0  0  0  0  0  0  0  0  0  0  0
    5.3310    0.4600    0.0000 C   0  0  0  0  0  0  0  0  0  0  0  0
    6.0930    1.7520    0.0000 C   0  0  0  0  0  0  0  0  0  0  0  0
    5.3540    3.0580    0.0000 C   0  0  0  0  0  0  0  0  0  0  0  0
    3.8540    3.0710    0.0000 C   0  0  0  0  0  0  0  0  0  0  0  0
  1  2  1  0  0  0  0
  2  3  1  0  0  0  0
  2  7  2  0  0  0  0
  3  4  1  0  0  0  0
  3  9  1  0  0  0  0
  4  5  1  0  0  0  0
  4  6  2  0  0  0  0
  6  7  1  0  0  0  0
  7  8  1  0  0  0  0
  9 10  1  0  0  0  0
  9 14  2  0  0  0  0
 10 11  2  0  0  0  0
 11 12  1  0  0  0  0
 12 13  2  0  0  0  0
 13 14  1  0  0  0  0
M  END
>  <name>
Cc1n(c(C)cc1[C;olefin])-c1ccccc1

>  <apo>
1

>  <freq>
1

>  <freq0>
0

>  <freq1>
1

>  <freqA>
0.99887151

>  <a_count>
29

$$$$

  MOE2015           2D

 18 19  0  0  0  0  0  0  0  0999 V2000
   -0.7500    0.4330    0.0000 Cl  0  0  0  0  0  0  0  0  0  0  0  0
   -1.5000    1.7320    0.0000 C   0  0  0  0  0  0  0  0  0  0  0  0
   -0.7500    3.0310    0.0000 C   0  0  0  0  0  0  0  0  0  0  0  0
    0.7500    3.0310    0.0000 N   0  0  0  0  0  0  0  0  0  0  0  0
    1.5000    1.7320    0.0000 C   0  0  0  0  0  0  0  0  0  0  0  0
    3.0000    1.7320    0.0000 C   0  0  0  0  0  0  0  0  0  0  0  0
    3.7500    3.0310    0.0000 C   0  0  0  0  0  0  0  0  0  0  0  0
    5.2500    3.0310    0.0000 C   0  0  0  0  0  0  0  0  0  0  0  0
    6.0000    4.3300    0.0000 O   0  0  0  0  0  0  0  0  0  0  0  0
    3.7500    0.4330    0.0000 C   0  0  0  0  0  0  0  0  0  0  0  0
    3.0000   -0.8660    0.0000 C   0  0  0  0  0  0  0  0  0  0  0  0
    1.5000   -0.8660    0.0000 C   0  0  0  0  0  0  0  0  0  0  0  0
    0.7500    0.4330    0.0000 C   0  0  0  0  0  0  0  0  0  0  0  0
   -1.5000    4.3300    0.0000 C   0  0  0  0  0  0  0  0  0  0  0  0
   -0.7500    5.6290    0.0000 Cl  0  0  0  0  0  0  0  0  0  0  0  0
   -3.0000    4.3300    0.0000 C   0  0  0  0  0  0  0  0  0  0  0  0
   -3.7500    3.0310    0.0000 C   0  0  0  0  0  0  0  0  0  0  0  0
   -3.0000    1.7320    0.0000 C   0  0  0  0  0  0  0  0  0  0  0  0
  1  2  1  0  0  0  0
  2  3  1  0  0  0  0
  2 18  2  0  0  0  0
  3  4  1  0  0  0  0
  3 14  2  0  0  0  0
  4  5  1  0  0  0  0
  5  6  1  0  0  0  0
  5 13  2  0  0  0  0
  6  7  1  0  0  0  0
  6 10  2  0  0  0  0
  7  8  1  0  0  0  0
  8  9  2  0  0  0  0
 10 11  1  0  0  0  0
 11 12  2  0  0  0  0
 12 13  1  0  0  0  0
 14 15  1  0  0  0  0
 14 16  1  0  0  0  0
 16 17  2  0  0  0  0
 17 18  1  0  0  0  0
M  END
>  <name>
Clc1c(Nc2c(C[C;ester]=O)cccc2)c(Cl)ccc1

>  <apo>
1

>  <freq>
1

>  <freq0>
0

>  <freq1>
1

>  <freqA>
0.99887151

>  <a_count>
29

$$$$

  MOE2015           2D

 19 21  0  0  0  0  0  0  0  0999 V2000
   10.7490    1.2220    0.0000 Cl  0  0  0  0  0  0  0  0  0  0  0  0
    9.4490    1.9720    0.0000 C   0  0  0  0  0  0  0  0  0  0  0  0
    9.4490    3.4720    0.0000 C   0  0  0  0  0  0  0  0  0  0  0  0
   10.7490    4.2220    0.0000 O   0  0  0  0  0  0  0  0  0  0  0  0
    8.1500    4.2220    0.0000 C   0  0  0  0  0  0  0  0  0  0  0  0
    6.8510    3.4720    0.0000 C   0  0  0  0  0  0  0  0  0  0  0  0
    6.8510    1.9720    0.0000 C   0  0  0  0  0  0  0  0  0  0  0  0
    5.5520    1.2220    0.0000 N   0  0  0  0  0  0  0  0  0  0  0  0
    4.2530    1.9720    0.0000 C   0  0  0  0  0  0  0  0  0  0  0  0
    4.2530    3.4720    0.0000 N   0  0  0  0  0  0  0  0  0  0  0  0
    2.9540    4.2220    0.0000 C   0  0  0  0  0  0  0  0  0  0  0  0
    1.6550    3.4720    0.0000 N   0  0  0  0  0  0  0  0  0  0  0  0
    1.6550    1.9720    0.0000 C   0  0  0  0  0  0  0  0  0  0  0  0
    2.9540    1.2220    0.0000 C   0  0  0  0  0  0  0  0  0  0  0  0
    2.9540   -0.2780    0.0000 C   0  0  0  0  0  0  0  0  0  0  0  0
    1.6550   -1.0280    0.0000 C   0  0  0  0  0  0  0  0  0  0  0  0
    0.3560   -0.2780    0.0000 C   0  0  0  0  0  0  0  0  0  0  0  0
    0.3560    1.2220    0.0000 C   0  0  0  0  0  0  0  0  0  0  0  0
    8.1500    1.2220    0.0000 C   0  0  0  0  0  0  0  0  0  0  0  0
  1  2  1  0  0  0  0
  2  3  1  0  0  0  0
  2 19  2  0  0  0  0
  3  4  1  0  0  0  0
  3  5  2  0  0  0  0
  5  6  1  0  0  0  0
  6  7  2  0  0  0  0
  7  8  1  0  0  0  0
  7 19  1  0  0  0  0
  8  9  1  0  0  0  0
  9 10  2  0  0  0  0
  9 14  1  0  0  0  0
 10 11  1  0  0  0  0
 11 12  2  0  0  0  0
 12 13  1  0  0  0  0
 13 14  1  0  0  0  0
 13 18  2  0  0  0  0
 14 15  2  0  0  0  0
 15 16  1  0  0  0  0
 16 17  2  0  0  0  0
 17 18  1  0  0  0  0
M  END
>  <name>
Clc1c([O;ether])ccc(Nc2ncnc3c2c[c;biphenyl]cc3)c1

>  <apo>
2

>  <freq>
1

>  <freq0>
0

>  <freq1>
1

>  <freqA>
0.99887151

>  <a_count>
29

$$$$

  MOE2015           2D

 18 20  0  0  0  0  0  0  0  0999 V2000
    0.6290   -6.6110    0.0000 Cl  0  0  0  0  0  0  0  0  0  0  0  0
    1.1040   -5.1880    0.0000 C   0  0  0  0  0  0  0  0  0  0  0  0
    0.1090   -4.0650    0.0000 C   0  0  0  0  0  0  0  0  0  0  0  0
    0.5830   -2.6420    0.0000 N   0  0  0  0  0  0  0  0  0  0  0  0
    2.0530   -2.3420    0.0000 C   0  0  0  0  0  0  0  0  0  0  0  0
    2.8130   -1.0480    0.0000 N   0  0  0  0  0  0  0  0  0  0  0  0
    4.2770   -1.3710    0.0000 C   0  0  0  0  0  0  0  0  0  0  0  0
    4.4230   -2.8640    0.0000 C   0  0  0  0  0  0  0  0  0  0  0  0
    5.7160   -3.6240    0.0000 C   0  0  0  0  0  0  0  0  0  0  0  0
    7.0210   -2.8840    0.0000 C   0  0  0  0  0  0  0  0  0  0  0  0
    7.0320   -1.3840    0.0000 C   0  0  0  0  0  0  0  0  0  0  0  0
    8.3370   -0.6440    0.0000 N   0  0  0  0  0  0  0  0  0  0  0  0
    9.6300   -1.4040    0.0000 C   0  0  0  0  0  0  0  0  0  0  0  0
   10.9350   -0.6640    0.0000 N   0  0  0  0  0  0  0  0  0  0  0  0
    9.6190   -2.9040    0.0000 C   0  0  0  0  0  0  0  0  0  0  0  0
    8.3140   -3.6440    0.0000 C   0  0  0  0  0  0  0  0  0  0  0  0
    3.0480   -3.4640    0.0000 C   0  0  0  0  0  0  0  0  0  0  0  0
    2.5730   -4.8870    0.0000 C   0  0  0  0  0  0  0  0  0  0  0  0
  1  2  1  0  0  0  0
  2  3  1  0  0  0  0
  2 18  2  0  0  0  0
  3  4  2  0  0  0  0
  4  5  1  0  0  0  0
  5  6  1  0  0  0  0
  5 17  2  0  0  0  0
  6  7  1  0  0  0  0
  7  8  2  0  0  0  0
  8  9  1  0  0  0  0
  8 17  1  0  0  0  0
  9 10  1  0  0  0  0
 10 11  1  0  0  0  0
 10 16  2  0  0  0  0
 11 12  2  0  0  0  0
 12 13  1  0  0  0  0
 13 14  1  0  0  0  0
 13 15  2  0  0  0  0
 15 16  1  0  0  0  0
 17 18  1  0  0  0  0
M  END
>  <name>
Clc1cnc2[nH]cc(Cc3cnc([N;amine])cc3)c2c1

>  <apo>
1

>  <freq>
1

>  <freq0>
0

>  <freq1>
1

>  <freqA>
0.99887151

>  <a_count>
29

$$$$

  MOE2015           2D

 19 20  0  0  0  0  0  0  0  0999 V2000
   -1.9980   -3.7680    0.0000 F   0  0  0  0  0  0  0  0  0  0  0  0
   -1.1560   -5.0090    0.0000 C   0  0  0  0  0  0  0  0  0  0  0  0
   -2.3970   -5.8510    0.0000 F   0  0  0  0  0  0  0  0  0  0  0  0
   -0.3140   -6.2510    0.0000 F   0  0  0  0  0  0  0  0  0  0  0  0
    0.0860   -4.1670    0.0000 C   0  0  0  0  0  0  0  0  0  0  0  0
    1.4960   -4.6770    0.0000 N   0  0  0  0  0  0  0  0  0  0  0  0
    2.4170   -3.4930    0.0000 N   0  0  0  0  0  0  0  0  0  0  0  0
    1.5750   -2.2510    0.0000 C   0  0  0  0  0  0  0  0  0  0  0  0
    2.0850   -0.8410    0.0000 C   0  0  0  0  0  0  0  0  0  0  0  0
    1.1180    0.3060    0.0000 O   0  0  0  0  0  0  0  0  0  0  0  0
    0.1350   -2.6680    0.0000 C   0  0  0  0  0  0  0  0  0  0  0  0
    3.9160   -3.5420    0.0000 C   0  0  0  0  0  0  0  0  0  0  0  0
    4.6240   -4.8650    0.0000 C   0  0  0  0  0  0  0  0  0  0  0  0
    6.1230   -4.9130    0.0000 C   0  0  0  0  0  0  0  0  0  0  0  0
    6.8300   -6.2360    0.0000 C   0  0  0  0  0  0  0  0  0  0  0  0
    8.3290   -6.2850    0.0000 N   0  0  0  0  0  0  0  0  0  0  0  0
    6.9150   -3.6390    0.0000 C   0  0  0  0  0  0  0  0  0  0  0  0
    6.2070   -2.3170    0.0000 C   0  0  0  0  0  0  0  0  0  0  0  0
    4.7080   -2.2680    0.0000 C   0  0  0  0  0  0  0  0  0  0  0  0
  1  2  1  0  0  0  0
  2  3  1  0  0  0  0
  2  4  1  0  0  0  0
  2  5  1  0  0  0  0
  5  6  2  0  0  0  0
  5 11  1  0  0  0  0
  6  7  1  0  0  0  0
  7  8  1  0  0  0  0
  7 12  1  0  0  0  0
  8  9  1  0  0  0  0
  8 11  2  0  0  0  0
  9 10  2  0  0  0  0
 12 13  1  0  0  0  0
 12 19  2  0  0  0  0
 13 14  2  0  0  0  0
 14 15  1  0  0  0  0
 14 17  1  0  0  0  0
 15 16  1  0  0  0  0
 17 18  2  0  0  0  0
 18 19  1  0  0  0  0
M  END
>  <name>
FC(F)(F)c1nn(c([C;amide]=O)c1)-c1cc(CN)ccc1

>  <apo>
1

>  <freq>
1

>  <freq0>
0

>  <freq1>
1

>  <freqA>
0.99887151

>  <a_count>
29

$$$$

  MOE2015           2D

 20 22  0  0  0  0  0  0  0  0999 V2000
   -0.7650   -0.7610    0.0000 F   0  0  0  0  0  0  0  0  0  0  0  0
   -0.7740   -2.2610    0.0000 C   0  0  0  0  0  0  0  0  0  0  0  0
    0.5200   -3.0180    0.0000 C   0  0  0  0  0  0  0  0  0  0  0  0
    1.8240   -2.2760    0.0000 C   0  0  0  0  0  0  0  0  0  0  0  0
    1.8330   -0.7760    0.0000 O   0  0  0  0  0  0  0  0  0  0  0  0
    3.1190   -3.0340    0.0000 C   0  0  0  0  0  0  0  0  0  0  0  0
    4.4920   -2.4320    0.0000 C   0  0  0  0  0  0  0  0  0  0  0  0
    5.4890   -3.5520    0.0000 C   0  0  0  0  0  0  0  0  0  0  0  0
    4.7320   -4.8470    0.0000 N   0  0  0  0  0  0  0  0  0  0  0  0
    3.2660   -4.5260    0.0000 C   0  0  0  0  0  0  0  0  0  0  0  0
    6.9590   -3.2490    0.0000 N   0  0  0  0  0  0  0  0  0  0  0  0
    7.4310   -1.8260    0.0000 C   0  0  0  0  0  0  0  0  0  0  0  0
    6.4330   -0.7050    0.0000 C   0  0  0  0  0  0  0  0  0  0  0  0
    4.9640   -1.0080    0.0000 C   0  0  0  0  0  0  0  0  0  0  0  0
    0.5120   -4.5180    0.0000 C   0  0  0  0  0  0  0  0  0  0  0  0
    1.8060   -5.2760    0.0000 F   0  0  0  0  0  0  0  0  0  0  0  0
   -0.7920   -5.2610    0.0000 C   0  0  0  0  0  0  0  0  0  0  0  0
   -2.0860   -4.5030    0.0000 C   0  0  0  0  0  0  0  0  0  0  0  0
   -2.0780   -3.0030    0.0000 C   0  0  0  0  0  0  0  0  0  0  0  0
   -3.3720   -2.2450    0.0000 N   0  0  0  0  0  0  0  0  0  0  0  0
  1  2  1  0  0  0  0
  2  3  1  0  0  0  0
  2 19  2  0  0  0  0
  3  4  1  0  0  0  0
  3 15  2  0  0  0  0
  4  5  2  0  0  0  0
  4  6  1  0  0  0  0
  6  7  1  0  0  0  0
  6 10  2  0  0  0  0
  7  8  1  0  0  0  0
  7 14  2  0  0  0  0
  8  9  1  0  0  0  0
  8 11  2  0  0  0  0
  9 10  1  0  0  0  0
 11 12  1  0  0  0  0
 12 13  2  0  0  0  0
 13 14  1  0  0  0  0
 15 16  1  0  0  0  0
 15 17  1  0  0  0  0
 17 18  2  0  0  0  0
 18 19  1  0  0  0  0
 19 20  1  0  0  0  0
M  END
>  <name>
Fc1c(C(=O)c2c3c([nH]c2)nc[c;biphenyl]c3)c(F)ccc1[N;so2amide]

>  <apo>
2

>  <freq>
1

>  <freq0>
0

>  <freq1>
1

>  <freqA>
0.99887151

>  <a_count>
29

$$$$

  MOE2015           2D

 15 16  0  0  1  0  0  0  0  0999 V2000
    1.3920    3.7620    0.0000 F   0  0  0  0  0  0  0  0  0  0  0  0
    0.6500    2.4580    0.0000 C   0  0  0  0  0  0  0  0  0  0  0  0
    1.4090    1.1640    0.0000 C   0  0  0  0  0  0  0  0  0  0  0  0
    2.9090    1.1740    0.0000 C   0  0  2  0  0  0  0  0  0  0  0  0
    2.2140   -0.1560    0.0000 C   0  0  0  0  0  0  0  0  0  0  0  0
    3.0820    2.6640    0.0000 O   0  0  0  0  0  0  0  0  0  0  0  0
    4.5520    2.9600    0.0000 C   0  0  0  0  0  0  0  0  0  0  0  0
    5.2880    1.6520    0.0000 C   0  0  2  0  0  0  0  0  0  0  0  0
    6.7780    1.4790    0.0000 C   0  0  0  0  0  0  0  0  0  0  0  0
    4.2730    0.5490    0.0000 C   0  0  0  0  0  0  0  0  0  0  0  0
    0.6680   -0.1400    0.0000 C   0  0  0  0  0  0  0  0  0  0  0  0
   -0.8320   -0.1500    0.0000 C   0  0  0  0  0  0  0  0  0  0  0  0
   -1.5910    1.1440    0.0000 C   0  0  0  0  0  0  0  0  0  0  0  0
   -3.0910    1.1340    0.0000 F   0  0  0  0  0  0  0  0  0  0  0  0
   -0.8490    2.4480    0.0000 C   0  0  0  0  0  0  0  0  0  0  0  0
  1  2  1  0  0  0  0
  2  3  1  0  0  0  0
  2 15  2  0  0  0  0
  4  3  1  6  0  0  0
  3 11  2  0  0  0  0
  4  5  1  1  0  0  0
  4  6  1  0  0  0  0
  4 10  1  0  0  0  0
  6  7  1  0  0  0  0
  7  8  1  0  0  0  0
  8  9  1  6  0  0  0
  8 10  1  0  0  0  0
 11 12  1  0  0  0  0
 12 13  2  0  0  0  0
 13 14  1  0  0  0  0
 13 15  1  0  0  0  0
M  END
>  <name>
Fc1c([C@]2([C;NaroC])OC[C@H]([C;ether])C2)ccc(F)c1

>  <apo>
2

>  <freq>
1

>  <freq0>
0

>  <freq1>
1

>  <freqA>
0.99887151

>  <a_count>
29

$$$$

  MOE2015           2D

 19 21  0  0  0  0  0  0  0  0999 V2000
    0.0290   -0.1790    0.0000 F   0  0  0  0  0  0  0  0  0  0  0  0
    1.5280   -0.1280    0.0000 C   0  0  0  0  0  0  0  0  0  0  0  0
    2.2340    1.1950    0.0000 C   0  0  0  0  0  0  0  0  0  0  0  0
    3.7330    1.2460    0.0000 C   0  0  0  0  0  0  0  0  0  0  0  0
    4.2330    2.6600    0.0000 C   0  0  0  0  0  0  0  0  0  0  0  0
    3.1760    3.7240    0.0000 O   0  0  0  0  0  0  0  0  0  0  0  0
    5.6510    3.1520    0.0000 N   0  0  0  0  0  0  0  0  0  0  0  0
    5.8220    4.6420    0.0000 C   0  0  0  0  0  0  0  0  0  0  0  0
    6.9190    2.3510    0.0000 C   0  0  0  0  0  0  0  0  0  0  0  0
    7.0820    0.8590    0.0000 C   0  0  0  0  0  0  0  0  0  0  0  0
    8.4160    0.1740    0.0000 C   0  0  0  0  0  0  0  0  0  0  0  0
    9.7550    0.8510    0.0000 C   0  0  0  0  0  0  0  0  0  0  0  0
   11.0100    0.0310    0.0000 O   0  0  0  0  0  0  0  0  0  0  0  0
    8.1770   -1.3060    0.0000 N   0  0  0  0  0  0  0  0  0  0  0  0
    6.6940   -1.5380    0.0000 C   0  0  0  0  0  0  0  0  0  0  0  0
    6.0170   -0.1990    0.0000 N   0  0  0  0  0  0  0  0  0  0  0  0
    4.5270   -0.0270    0.0000 C   0  0  0  0  0  0  0  0  0  0  0  0
    3.8210   -1.3510    0.0000 C   0  0  0  0  0  0  0  0  0  0  0  0
    2.3220   -1.4010    0.0000 C   0  0  0  0  0  0  0  0  0  0  0  0
  1  2  1  0  0  0  0
  2  3  1  0  0  0  0
  2 19  2  0  0  0  0
  3  4  2  0  0  0  0
  4  5  1  0  0  0  0
  4 17  1  0  0  0  0
  5  6  2  0  0  0  0
  5  7  1  0  0  0  0
  7  8  1  0  0  0  0
  7  9  1  0  0  0  0
  9 10  1  0  0  0  0
 10 11  2  0  0  0  0
 10 16  1  0  0  0  0
 11 12  1  0  0  0  0
 11 14  1  0  0  0  0
 12 13  2  0  0  0  0
 14 15  2  0  0  0  0
 15 16  1  0  0  0  0
 16 17  1  0  0  0  0
 17 18  2  0  0  0  0
 18 19  1  0  0  0  0
M  END
>  <name>
Fc1cc2C(=O)N(C)Cc3c([C;ester]=O)ncn3-c2cc1

>  <apo>
1

>  <freq>
1

>  <freq0>
0

>  <freq1>
1

>  <freqA>
0.99887151

>  <a_count>
29

$$$$

  MOE2015           2D

 15 16  0  0  0  0  0  0  0  0999 V2000
    9.5390    0.0000    0.0000 F   0  0  0  0  0  0  0  0  0  0  0  0
    8.0390    0.0000    0.0000 C   0  0  0  0  0  0  0  0  0  0  0  0
    7.2890    1.2990    0.0000 C   0  0  0  0  0  0  0  0  0  0  0  0
    5.7890    1.2990    0.0000 C   0  0  0  0  0  0  0  0  0  0  0  0
    5.0390    0.0000    0.0000 C   0  0  0  0  0  0  0  0  0  0  0  0
    3.5390    0.0000    0.0000 C   0  0  0  0  0  0  0  0  0  0  0  0
    4.2890    1.2990    0.0000 C   0  0  0  0  0  0  0  0  0  0  0  0
    5.0390    2.5980    0.0000 N   0  0  0  0  0  0  0  0  0  0  0  0
    3.5390   -1.5000    0.0000 C   0  0  0  0  0  0  0  0  0  0  0  0
    2.2400   -2.2500    0.0000 C   0  0  0  0  0  0  0  0  0  0  0  0
    0.9410   -1.5000    0.0000 C   0  0  0  0  0  0  0  0  0  0  0  0
    0.9410    0.0000    0.0000 C   0  0  0  0  0  0  0  0  0  0  0  0
    2.2400    0.7500    0.0000 C   0  0  0  0  0  0  0  0  0  0  0  0
    5.7890   -1.2990    0.0000 C   0  0  0  0  0  0  0  0  0  0  0  0
    7.2890   -1.2990    0.0000 C   0  0  0  0  0  0  0  0  0  0  0  0
  1  2  1  0  0  0  0
  2  3  1  0  0  0  0
  2 15  2  0  0  0  0
  3  4  2  0  0  0  0
  4  5  1  0  0  0  0
  5  6  1  0  0  0  0
  5 14  2  0  0  0  0
  6  7  1  0  0  0  0
  6  9  1  0  0  0  0
  6 13  1  0  0  0  0
  7  8  3  0  0  0  0
  9 10  1  0  0  0  0
 10 11  1  0  0  0  0
 11 12  1  0  0  0  0
 12 13  1  0  0  0  0
 14 15  1  0  0  0  0
M  END
>  <name>
Fc1ccc(C2(C#N)CC[C;amine]CC2)cc1

>  <apo>
1

>  <freq>
1

>  <freq0>
0

>  <freq1>
1

>  <freqA>
0.99887151

>  <a_count>
29

$$$$

  MOE2015           2D

 17 17  0  0  1  0  0  0  0  0999 V2000
    0.8450    0.8450    0.0000 I   0  0  0  0  0  0  0  0  0  0  0  0
    0.8450   -0.6550    0.0000 C   0  0  0  0  0  0  0  0  0  0  0  0
   -0.4540   -1.4050    0.0000 C   0  0  0  0  0  0  0  0  0  0  0  0
   -1.7530   -0.6550    0.0000 N   0  0  0  0  0  0  0  0  0  0  0  0
   -0.4540   -2.9050    0.0000 C   0  0  0  0  0  0  0  0  0  0  0  0
   -1.7530   -3.6550    0.0000 I   0  0  0  0  0  0  0  0  0  0  0  0
    0.8450   -3.6550    0.0000 C   0  0  0  0  0  0  0  0  0  0  0  0
    2.1440   -2.9050    0.0000 C   0  0  0  0  0  0  0  0  0  0  0  0
    3.4430   -3.6550    0.0000 I   0  0  0  0  0  0  0  0  0  0  0  0
    2.1440   -1.4050    0.0000 C   0  0  0  0  0  0  0  0  0  0  0  0
    3.4430   -0.6550    0.0000 C   0  0  0  0  0  0  0  0  0  0  0  0
    4.7430   -1.4050    0.0000 C   0  0  3  0  0  0  0  0  0  0  0  0
    6.0420   -0.6550    0.0000 C   0  0  0  0  0  0  0  0  0  0  0  0
    6.0420    0.8450    0.0000 O   0  0  0  0  0  0  0  0  0  0  0  0
    7.3410   -1.4050    0.0000 O   0  0  0  0  0  0  0  0  0  0  0  0
    4.7430   -2.9050    0.0000 C   0  0  0  0  0  0  0  0  0  0  0  0
    6.0420   -3.6550    0.0000 C   0  0  0  0  0  0  0  0  0  0  0  0
  1  2  1  0  0  0  0
  2  3  1  0  0  0  0
  2 10  2  0  0  0  0
  3  4  1  0  0  0  0
  3  5  2  0  0  0  0
  5  6  1  0  0  0  0
  5  7  1  0  0  0  0
  7  8  2  0  0  0  0
  8  9  1  0  0  0  0
  8 10  1  0  0  0  0
 10 11  1  0  0  0  0
 11 12  1  0  0  0  0
 12 13  1  0  0  0  0
 12 16  1  0  0  0  0
 13 14  2  0  0  0  0
 13 15  1  0  0  0  0
 16 17  1  0  0  0  0
M  END
>  <name>
Ic1c([N;amide])c(I)cc(I)c1CC(C(=O)O)CC

>  <apo>
1

>  <freq>
1

>  <freq0>
0

>  <freq1>
1

>  <freqA>
0.99887151

>  <a_count>
29

$$$$

  MOE2015           2D

 15 16  0  0  0  0  0  0  0  0999 V2000
    1.0570   -5.4110    0.0000 N   0  0  0  0  0  0  0  0  0  0  0  0
    1.7940   -4.1050    0.0000 C   0  0  0  0  0  0  0  0  0  0  0  0
    2.5320   -2.7980    0.0000 C   0  0  0  0  0  0  0  0  0  0  0  0
    4.0320   -2.7840    0.0000 C   0  0  0  0  0  0  0  0  0  0  0  0
    4.7700   -1.4780    0.0000 C   0  0  0  0  0  0  0  0  0  0  0  0
    6.2340   -1.1520    0.0000 C   0  0  0  0  0  0  0  0  0  0  0  0
    7.3580   -2.1450    0.0000 C   0  0  0  0  0  0  0  0  0  0  0  0
    8.7800   -1.6680    0.0000 C   0  0  0  0  0  0  0  0  0  0  0  0
    9.9040   -2.6610    0.0000 C   0  0  0  0  0  0  0  0  0  0  0  0
   11.3260   -2.1840    0.0000 C   0  0  0  0  0  0  0  0  0  0  0  0
    6.3760    0.3410    0.0000 C   0  0  0  0  0  0  0  0  0  0  0  0
    5.0000    0.9380    0.0000 N   0  0  0  0  0  0  0  0  0  0  0  0
    4.0070   -0.1860    0.0000 C   0  0  0  0  0  0  0  0  0  0  0  0
    2.5070   -0.2010    0.0000 C   0  0  0  0  0  0  0  0  0  0  0  0
    1.7700   -1.5070    0.0000 C   0  0  0  0  0  0  0  0  0  0  0  0
  1  2  3  0  0  0  0
  2  3  1  0  0  0  0
  3  4  1  0  0  0  0
  3 15  2  0  0  0  0
  4  5  2  0  0  0  0
  5  6  1  0  0  0  0
  5 13  1  0  0  0  0
  6  7  1  0  0  0  0
  6 11  2  0  0  0  0
  7  8  1  0  0  0  0
  8  9  1  0  0  0  0
  9 10  1  0  0  0  0
 11 12  1  0  0  0  0
 12 13  1  0  0  0  0
 13 14  2  0  0  0  0
 14 15  1  0  0  0  0
M  END
>  <name>
N#Cc1cc2c(CCC[C;amine])c[nH]c2cc1

>  <apo>
1

>  <freq>
1

>  <freq0>
0

>  <freq1>
1

>  <freqA>
0.99887151

>  <a_count>
29

$$$$

  MOE2015           2D

 15 17  0  0  0  0  0  0  0  0999 V2000
    2.4640    0.6600    0.0000 N   0  0  0  0  0  0  0  0  0  0  0  0
    1.1650    1.4100    0.0000 C   0  0  0  0  0  0  0  0  0  0  0  0
   -0.1340    0.6600    0.0000 C   0  0  0  0  0  0  0  0  0  0  0  0
   -1.4330    1.4100    0.0000 C   0  0  0  0  0  0  0  0  0  0  0  0
   -2.5480    0.4070    0.0000 S   0  0  0  0  0  0  0  0  0  0  0  0
   -1.9380   -0.9640    0.0000 C   0  0  0  0  0  0  0  0  0  0  0  0
   -0.4460   -0.8070    0.0000 C   0  0  0  0  0  0  0  0  0  0  0  0
   -1.4330    2.9100    0.0000 C   0  0  0  0  0  0  0  0  0  0  0  0
   -0.1340    3.6600    0.0000 C   0  0  0  0  0  0  0  0  0  0  0  0
    1.1650    2.9100    0.0000 C   0  0  0  0  0  0  0  0  0  0  0  0
    3.7630    1.4100    0.0000 C   0  0  0  0  0  0  0  0  0  0  0  0
    5.0620    0.6600    0.0000 C   0  0  0  0  0  0  0  0  0  0  0  0
    5.0620   -0.8400    0.0000 N   0  0  0  0  0  0  0  0  0  0  0  0
    3.7630   -1.5900    0.0000 C   0  0  0  0  0  0  0  0  0  0  0  0
    2.4640   -0.8400    0.0000 C   0  0  0  0  0  0  0  0  0  0  0  0
  1  2  1  0  0  0  0
  1 11  1  0  0  0  0
  1 15  1  0  0  0  0
  2  3  1  0  0  0  0
  2 10  2  0  0  0  0
  3  4  2  0  0  0  0
  3  7  1  0  0  0  0
  4  5  1  0  0  0  0
  4  8  1  0  0  0  0
  5  6  1  0  0  0  0
  6  7  2  0  0  0  0
  8  9  2  0  0  0  0
  9 10  1  0  0  0  0
 11 12  1  0  0  0  0
 12 13  1  0  0  0  0
 13 14  1  0  0  0  0
 14 15  1  0  0  0  0
M  END
>  <name>
N1(c2c3c(scc3)ccc2)CC[N;amine]CC1

>  <apo>
1

>  <freq>
1

>  <freq0>
0

>  <freq1>
1

>  <freqA>
0.99887151

>  <a_count>
29

$$$$

  MOE2015           2D

 17 17  0  0  0  0  0  0  0  0999 V2000
    1.6230    0.7860    0.0000 O   0  0  0  0  0  0  0  0  0  0  0  0
    0.8650    2.0800    0.0000 N   0  0  0  0  0  0  0  0  0  0  0  0
   -0.6350    2.0710    0.0000 C   0  0  0  0  0  0  0  0  0  0  0  0
   -1.3930    3.3660    0.0000 C   0  0  0  0  0  0  0  0  0  0  0  0
   -0.6510    4.6690    0.0000 O   0  0  0  0  0  0  0  0  0  0  0  0
   -1.3770    0.7680    0.0000 C   0  0  0  0  0  0  0  0  0  0  0  0
   -2.8680    0.6020    0.0000 N   0  0  0  0  0  0  0  0  0  0  0  0
   -3.1710   -0.8670    0.0000 C   0  0  0  0  0  0  0  0  0  0  0  0
   -4.5380   -1.4860    0.0000 N   0  3  0  0  0  0  0  0  0  0  0  0
   -1.8670   -1.6090    0.0000 S   0  0  0  0  0  0  0  0  0  0  0  0
   -0.7590   -0.5990    0.0000 C   0  0  0  0  0  0  0  0  0  0  0  0
    3.1230    0.7950    0.0000 C   0  0  0  0  0  0  0  0  0  0  0  0
    4.6230    0.8040    0.0000 C   0  0  0  0  0  0  0  0  0  0  0  0
    5.3650    2.1080    0.0000 O   0  0  0  0  0  0  0  0  0  0  0  0
    5.3800   -0.4900    0.0000 O   0  0  0  0  0  0  0  0  0  0  0  0
    3.1130    2.2950    0.0000 C   0  0  0  0  0  0  0  0  0  0  0  0
    3.1320   -0.7050    0.0000 C   0  0  0  0  0  0  0  0  0  0  0  0
  1  2  1  0  0  0  0
  1 12  1  0  0  0  0
  2  3  2  0  0  0  0
  3  4  1  0  0  0  0
  3  6  1  0  0  0  0
  4  5  2  0  0  0  0
  6  7  1  0  0  0  0
  6 11  2  0  0  0  0
  7  8  2  0  0  0  0
  8  9  1  0  0  0  0
  8 10  1  0  0  0  0
 10 11  1  0  0  0  0
 12 13  1  0  0  0  0
 12 16  1  0  0  0  0
 12 17  1  0  0  0  0
 13 14  2  0  0  0  0
 13 15  1  0  0  0  0
M  CHG  1   9   1
M  END
>  <name>
O(/N=C(/[C;amide]=O)\c1nc([N+])sc1)C(C(=O)O)(C)C

>  <apo>
1

>  <freq>
1

>  <freq0>
0

>  <freq1>
1

>  <freqA>
0.99887151

>  <a_count>
29

$$$$

  MOE2015           2D

 15 15  0  0  0  0  0  0  0  0999 V2000
   -2.9000    0.0000    0.0000 O   0  0  0  0  0  0  0  0  0  0  0  0
   -2.1500    1.2990    0.0000 C   0  0  0  0  0  0  0  0  0  0  0  0
   -2.1500   -1.2990    0.0000 C   0  0  0  0  0  0  0  0  0  0  0  0
   -0.6500   -1.2990    0.0000 C   0  0  0  0  0  0  0  0  0  0  0  0
    0.1000    0.0000    0.0000 O   0  0  0  0  0  0  0  0  0  0  0  0
    0.1000   -2.5980    0.0000 C   0  0  0  0  0  0  0  0  0  0  0  0
    1.6000   -2.5980    0.0000 C   0  0  0  0  0  0  0  0  0  0  0  0
    2.3500   -3.8970    0.0000 C   0  0  0  0  0  0  0  0  0  0  0  0
   -0.6500   -3.8970    0.0000 C   0  0  0  0  0  0  0  0  0  0  0  0
    0.1000   -5.1960    0.0000 C   0  0  0  0  0  0  0  0  0  0  0  0
   -2.1500   -3.8970    0.0000 C   0  0  0  0  0  0  0  0  0  0  0  0
   -2.9000   -5.1960    0.0000 O   0  0  0  0  0  0  0  0  0  0  0  0
   -2.9000   -2.5980    0.0000 C   0  0  0  0  0  0  0  0  0  0  0  0
   -4.4000   -2.5980    0.0000 O   0  0  0  0  0  0  0  0  0  0  0  0
   -5.1500   -3.8970    0.0000 C   0  0  0  0  0  0  0  0  0  0  0  0
  1  2  1  0  0  0  0
  1  3  1  0  0  0  0
  3  4  1  0  0  0  0
  3 13  2  0  0  0  0
  4  5  2  0  0  0  0
  4  6  1  0  0  0  0
  6  7  1  0  0  0  0
  6  9  2  0  0  0  0
  7  8  1  0  0  0  0
  9 10  1  0  0  0  0
  9 11  1  0  0  0  0
 11 12  2  0  0  0  0
 11 13  1  0  0  0  0
 13 14  1  0  0  0  0
 14 15  1  0  0  0  0
M  END
>  <name>
O(C)C=1C(=O)C(C[C;olefin])=C(C)C(=O)C=1OC

>  <apo>
1

>  <freq>
1

>  <freq0>
0

>  <freq1>
1

>  <freqA>
0.99887151

>  <a_count>
29

$$$$

  MOE2015           2D

 14 14  0  0  1  0  0  0  0  0999 V2000
   -3.7450    3.7450    0.0000 O   0  0  0  0  0  0  0  0  0  0  0  0
   -3.7450    5.2450    0.0000 C   0  0  0  0  0  0  0  0  0  0  0  0
   -2.4460    2.9950    0.0000 C   0  0  0  0  0  0  0  0  0  0  0  0
   -2.4460    1.4950    0.0000 C   0  0  0  0  0  0  0  0  0  0  0  0
   -3.7450    0.7450    0.0000 C   0  0  3  0  0  0  0  0  0  0  0  0
   -5.0440    1.4950    0.0000 O   0  0  0  0  0  0  0  0  0  0  0  0
   -3.7450   -0.7550    0.0000 C   0  0  0  0  0  0  0  0  0  0  0  0
   -5.0440   -1.5050    0.0000 N   0  0  0  0  0  0  0  0  0  0  0  0
   -1.1470    0.7450    0.0000 C   0  0  0  0  0  0  0  0  0  0  0  0
    0.1520    1.4950    0.0000 C   0  0  0  0  0  0  0  0  0  0  0  0
    1.4510    0.7450    0.0000 O   0  0  0  0  0  0  0  0  0  0  0  0
    2.7500    1.4950    0.0000 C   0  0  0  0  0  0  0  0  0  0  0  0
    0.1520    2.9950    0.0000 C   0  0  0  0  0  0  0  0  0  0  0  0
   -1.1470    3.7450    0.0000 C   0  0  0  0  0  0  0  0  0  0  0  0
  1  2  1  0  0  0  0
  1  3  1  0  0  0  0
  3  4  1  0  0  0  0
  3 14  2  0  0  0  0
  4  5  1  0  0  0  0
  4  9  2  0  0  0  0
  5  6  1  0  0  0  0
  5  7  1  0  0  0  0
  7  8  1  0  0  0  0
  9 10  1  0  0  0  0
 10 11  1  0  0  0  0
 10 13  2  0  0  0  0
 11 12  1  0  0  0  0
 13 14  1  0  0  0  0
M  END
>  <name>
O(C)c1c(C(O)C[N;amide])cc(OC)cc1

>  <apo>
1

>  <freq>
1

>  <freq0>
0

>  <freq1>
1

>  <freqA>
0.99887151

>  <a_count>
29

$$$$

  MOE2015           2D

 17 19  0  0  0  0  0  0  0  0999 V2000
    0.0000    0.0000    0.0000 O   0  0  0  0  0  0  0  0  0  0  0  0
    1.5000    0.0000    0.0000 C   0  0  0  0  0  0  0  0  0  0  0  0
   -0.7500   -1.2990    0.0000 C   0  0  0  0  0  0  0  0  0  0  0  0
    0.0000   -2.5980    0.0000 C   0  0  0  0  0  0  0  0  0  0  0  0
    1.5000   -2.5980    0.0000 O   0  0  0  0  0  0  0  0  0  0  0  0
   -0.7500   -3.8970    0.0000 C   0  0  0  0  0  0  0  0  0  0  0  0
   -2.2500   -3.8970    0.0000 C   0  0  0  0  0  0  0  0  0  0  0  0
   -3.0000   -2.5980    0.0000 C   0  0  0  0  0  0  0  0  0  0  0  0
   -2.2500   -1.2990    0.0000 C   0  0  0  0  0  0  0  0  0  0  0  0
   -3.0000    0.0000    0.0000 N   0  0  0  0  0  0  0  0  0  0  0  0
   -4.5000    0.0000    0.0000 C   0  0  0  0  0  0  0  0  0  0  0  0
   -5.2500    1.2990    0.0000 N   0  0  0  0  0  0  0  0  0  0  0  0
   -5.2500   -1.2990    0.0000 N   0  0  0  0  0  0  0  0  0  0  0  0
   -4.5000   -2.5980    0.0000 C   0  0  0  0  0  0  0  0  0  0  0  0
   -5.5040   -3.7130    0.0000 N   0  0  0  0  0  0  0  0  0  0  0  0
   -6.8740   -3.1030    0.0000 C   0  0  0  0  0  0  0  0  0  0  0  0
   -6.7170   -1.6110    0.0000 C   0  0  0  0  0  0  0  0  0  0  0  0
  1  2  1  0  0  0  0
  1  3  1  0  0  0  0
  3  4  1  0  0  0  0
  3  9  2  0  0  0  0
  4  5  1  0  0  0  0
  4  6  2  0  0  0  0
  6  7  1  0  0  0  0
  7  8  2  0  0  0  0
  8  9  1  0  0  0  0
  8 14  1  0  0  0  0
  9 10  1  0  0  0  0
 10 11  2  0  0  0  0
 11 12  1  0  0  0  0
 11 13  1  0  0  0  0
 13 14  1  0  0  0  0
 13 17  1  0  0  0  0
 14 15  2  0  0  0  0
 15 16  1  0  0  0  0
 16 17  1  0  0  0  0
M  END
>  <name>
O(C)c1c([O;ether])ccc2c1N=C([N;amide])N1C2=NCC1

>  <apo>
2

>  <freq>
1

>  <freq0>
0

>  <freq1>
1

>  <freqA>
0.99887151

>  <a_count>
29

$$$$

  MOE2015           2D

 15 16  0  0  0  0  0  0  0  0999 V2000
    1.3170    2.0140    0.0000 O   0  0  0  0  0  0  0  0  0  0  0  0
    2.6160    2.7640    0.0000 C   0  0  0  0  0  0  0  0  0  0  0  0
    0.0180    2.7640    0.0000 C   0  0  0  0  0  0  0  0  0  0  0  0
   -1.2810    2.0140    0.0000 C   0  0  0  0  0  0  0  0  0  0  0  0
   -2.5800    2.7640    0.0000 C   0  0  0  0  0  0  0  0  0  0  0  0
   -2.5800    4.2640    0.0000 C   0  0  0  0  0  0  0  0  0  0  0  0
   -3.8790    5.0140    0.0000 C   0  0  0  0  0  0  0  0  0  0  0  0
   -5.1780    4.2640    0.0000 C   0  0  0  0  0  0  0  0  0  0  0  0
   -5.1780    2.7640    0.0000 C   0  0  0  0  0  0  0  0  0  0  0  0
   -6.4770    2.0140    0.0000 C   0  0  0  0  0  0  0  0  0  0  0  0
   -7.7770    2.7640    0.0000 C   0  0  0  0  0  0  0  0  0  0  0  0
   -7.7770    4.2640    0.0000 C   0  0  0  0  0  0  0  0  0  0  0  0
   -6.4770    5.0140    0.0000 C   0  0  0  0  0  0  0  0  0  0  0  0
   -1.2810    5.0140    0.0000 C   0  0  0  0  0  0  0  0  0  0  0  0
    0.0180    4.2640    0.0000 C   0  0  0  0  0  0  0  0  0  0  0  0
  1  2  1  0  0  0  0
  1  3  1  0  0  0  0
  3  4  1  0  0  0  0
  3 15  2  0  0  0  0
  4  5  2  0  0  0  0
  5  6  1  0  0  0  0
  6  7  1  0  0  0  0
  6 14  2  0  0  0  0
  7  8  1  0  0  0  0
  8  9  1  0  0  0  0
  8 13  2  0  0  0  0
  9 10  2  0  0  0  0
 10 11  1  0  0  0  0
 11 12  2  0  0  0  0
 12 13  1  0  0  0  0
 14 15  1  0  0  0  0
M  END
>  <name>
O(C)c1ccc([C;olefin]c2ccccc2)cc1

>  <apo>
1

>  <freq>
1

>  <freq0>
0

>  <freq1>
1

>  <freqA>
0.99887151

>  <a_count>
29

$$$$

  MOE2015           2D

 17 18  0  0  1  0  0  0  0  0999 V2000
    9.9050   -2.3890    0.0000 O   0  0  0  0  0  0  0  0  0  0  0  0
    8.6060   -3.1390    0.0000 C   0  0  0  0  0  0  0  0  0  0  0  0
    8.6060   -4.6390    0.0000 O   0  0  0  0  0  0  0  0  0  0  0  0
    7.3070   -2.3890    0.0000 C   0  0  3  0  0  0  0  0  0  0  0  0
    7.3070   -0.8890    0.0000 N   0  0  0  0  0  0  0  0  0  0  0  0
    6.0080   -3.1390    0.0000 C   0  0  0  0  0  0  0  0  0  0  0  0
    4.7090   -2.3890    0.0000 C   0  0  0  0  0  0  0  0  0  0  0  0
    3.4100   -3.1390    0.0000 C   0  0  0  0  0  0  0  0  0  0  0  0
    2.1110   -2.3890    0.0000 C   0  0  0  0  0  0  0  0  0  0  0  0
    2.1110   -0.8890    0.0000 N   0  0  0  0  0  0  0  0  0  0  0  0
    3.4100   -0.1390    0.0000 C   0  0  0  0  0  0  0  0  0  0  0  0
    3.4100    1.3610    0.0000 O   0  0  0  0  0  0  0  0  0  0  0  0
    4.7090   -0.8890    0.0000 C   0  0  0  0  0  0  0  0  0  0  0  0
    0.8120   -3.1390    0.0000 C   0  0  0  0  0  0  0  0  0  0  0  0
    0.8120   -4.6390    0.0000 C   0  0  0  0  0  0  0  0  0  0  0  0
    2.1110   -5.3890    0.0000 C   0  0  0  0  0  0  0  0  0  0  0  0
    3.4100   -4.6390    0.0000 C   0  0  0  0  0  0  0  0  0  0  0  0
  1  2  2  0  0  0  0
  2  3  1  0  0  0  0
  2  4  1  0  0  0  0
  4  5  1  0  0  0  0
  4  6  1  0  0  0  0
  6  7  1  0  0  0  0
  7  8  1  0  0  0  0
  7 13  2  0  0  0  0
  8  9  1  0  0  0  0
  8 17  2  0  0  0  0
  9 10  1  0  0  0  0
  9 14  2  0  0  0  0
 10 11  1  0  0  0  0
 11 12  2  0  0  0  0
 11 13  1  0  0  0  0
 14 15  1  0  0  0  0
 15 16  2  0  0  0  0
 16 17  1  0  0  0  0
M  END
>  <name>
O=C(O)C([N;amide])CC=1c2c(NC(=O)C=1)cccc2

>  <apo>
1

>  <freq>
1

>  <freq0>
0

>  <freq1>
1

>  <freqA>
0.99887151

>  <a_count>
29

$$$$

  MOE2015           2D

 16 17  0  0  0  0  0  0  0  0999 V2000
    5.0280    4.0580    0.0000 O   0  0  0  0  0  0  0  0  0  0  0  0
    4.7110    2.5910    0.0000 C   0  0  0  0  0  0  0  0  0  0  0  0
    5.8220    1.5840    0.0000 O   0  0  0  0  0  0  0  0  0  0  0  0
    3.2830    2.1330    0.0000 C   0  0  0  0  0  0  0  0  0  0  0  0
    2.1720    3.1400    0.0000 N   0  0  0  0  0  0  0  0  0  0  0  0
    2.5960    4.5790    0.0000 C   0  0  0  0  0  0  0  0  0  0  0  0
    4.0770    4.8200    0.0000 O   0  0  0  0  0  0  0  0  0  0  0  0
    1.7370    5.8080    0.0000 C   0  0  0  0  0  0  0  0  0  0  0  0
    0.2400    5.9030    0.0000 C   0  0  0  0  0  0  0  0  0  0  0  0
   -0.7690    4.7930    0.0000 C   0  0  0  0  0  0  0  0  0  0  0  0
   -0.5260    3.3120    0.0000 C   0  0  0  0  0  0  0  0  0  0  0  0
    0.7810    2.5770    0.0000 C   0  0  0  0  0  0  0  0  0  0  0  0
    0.7990    1.0770    0.0000 C   0  0  0  0  0  0  0  0  0  0  0  0
   -0.4920    0.3120    0.0000 C   0  0  0  0  0  0  0  0  0  0  0  0
   -1.7990    1.0470    0.0000 C   0  0  0  0  0  0  0  0  0  0  0  0
   -1.8170    2.5470    0.0000 C   0  0  0  0  0  0  0  0  0  0  0  0
  1  2  2  0  0  0  0
  2  3  1  0  0  0  0
  2  4  1  0  0  0  0
  4  5  1  0  0  0  0
  5  6  1  0  0  0  0
  5 12  1  0  0  0  0
  6  7  2  0  0  0  0
  6  8  1  0  0  0  0
  8  9  1  0  0  0  0
  9 10  1  0  0  0  0
 10 11  1  0  0  0  0
 11 12  1  0  0  0  0
 11 16  2  0  0  0  0
 12 13  2  0  0  0  0
 13 14  1  0  0  0  0
 14 15  2  0  0  0  0
 15 16  1  0  0  0  0
M  END
>  <name>
O=C(O)CN1C(=O)[C;amine]CCc2c1cccc2

>  <apo>
1

>  <freq>
1

>  <freq0>
0

>  <freq1>
1

>  <freqA>
0.99887151

>  <a_count>
29

$$$$

  MOE2015           2D

 21 23  0  0  0  0  0  0  0  0999 V2000
   10.2270    2.7400    0.0000 O   0  0  0  0  0  0  0  0  0  0  0  0
    8.9280    1.9900    0.0000 C   0  0  0  0  0  0  0  0  0  0  0  0
    8.9280    0.4900    0.0000 O   0  0  0  0  0  0  0  0  0  0  0  0
    7.6290    2.7400    0.0000 C   0  0  0  0  0  0  0  0  0  0  0  0
    7.6290    4.2400    0.0000 C   0  0  0  0  0  0  0  0  0  0  0  0
    6.3300    4.9900    0.0000 C   0  0  0  0  0  0  0  0  0  0  0  0
    6.3300    6.4900    0.0000 O   0  0  0  0  0  0  0  0  0  0  0  0
    5.0310    4.2400    0.0000 C   0  0  0  0  0  0  0  0  0  0  0  0
    3.7320    4.9900    0.0000 C   0  0  0  0  0  0  0  0  0  0  0  0
    3.7320    6.4900    0.0000 O   0  0  0  0  0  0  0  0  0  0  0  0
    2.4330    4.2400    0.0000 C   0  0  0  0  0  0  0  0  0  0  0  0
    1.1330    4.9900    0.0000 C   0  0  0  0  0  0  0  0  0  0  0  0
    1.1330    6.4900    0.0000 O   0  0  0  0  0  0  0  0  0  0  0  0
   -0.1660    4.2400    0.0000 C   0  0  0  0  0  0  0  0  0  0  0  0
   -0.1660    2.7400    0.0000 C   0  0  0  0  0  0  0  0  0  0  0  0
    1.1330    1.9900    0.0000 C   0  0  0  0  0  0  0  0  0  0  0  0
    2.4330    2.7400    0.0000 C   0  0  0  0  0  0  0  0  0  0  0  0
    3.7320    1.9900    0.0000 C   0  0  0  0  0  0  0  0  0  0  0  0
    3.7320    0.4900    0.0000 O   0  0  0  0  0  0  0  0  0  0  0  0
    5.0310    2.7400    0.0000 C   0  0  0  0  0  0  0  0  0  0  0  0
    6.3300    1.9900    0.0000 C   0  0  0  0  0  0  0  0  0  0  0  0
  1  2  2  0  0  0  0
  2  3  1  0  0  0  0
  2  4  1  0  0  0  0
  4  5  1  0  0  0  0
  4 21  2  0  0  0  0
  5  6  2  0  0  0  0
  6  7  1  0  0  0  0
  6  8  1  0  0  0  0
  8  9  1  0  0  0  0
  8 20  2  0  0  0  0
  9 10  2  0  0  0  0
  9 11  1  0  0  0  0
 11 12  1  0  0  0  0
 11 17  2  0  0  0  0
 12 13  1  0  0  0  0
 12 14  2  0  0  0  0
 14 15  1  0  0  0  0
 15 16  2  0  0  0  0
 16 17  1  0  0  0  0
 17 18  1  0  0  0  0
 18 19  2  0  0  0  0
 18 20  1  0  0  0  0
 20 21  1  0  0  0  0
M  END
>  <name>
O=C(O)c1cc([O;ester])c2C(=O)c3c([O;ester])cccc3C(=O)c2c1

>  <apo>
2

>  <freq>
1

>  <freq0>
0

>  <freq1>
1

>  <freqA>
0.99887151

>  <a_count>
29

$$$$

  MOE2015           2D

 13 13  0  0  1  0  0  0  0  0999 V2000
    2.1950    2.1950    0.0000 O   0  0  0  0  0  0  0  0  0  0  0  0
    2.1950    0.6950    0.0000 C   0  0  0  0  0  0  0  0  0  0  0  0
    3.4940   -0.0550    0.0000 O   0  0  0  0  0  0  0  0  0  0  0  0
    4.7930    0.6950    0.0000 C   0  0  3  0  0  0  0  0  0  0  0  0
    6.0920   -0.0550    0.0000 O   0  0  0  0  0  0  0  0  0  0  0  0
    4.7930    2.1950    0.0000 C   0  0  0  0  0  0  0  0  0  0  0  0
    0.8960   -0.0550    0.0000 O   0  0  0  0  0  0  0  0  0  0  0  0
   -0.4030    0.6950    0.0000 C   0  0  0  0  0  0  0  0  0  0  0  0
   -0.4030    2.1950    0.0000 C   0  0  0  0  0  0  0  0  0  0  0  0
   -1.7020    2.9450    0.0000 C   0  0  0  0  0  0  0  0  0  0  0  0
   -3.0010    2.1950    0.0000 C   0  0  0  0  0  0  0  0  0  0  0  0
   -3.0010    0.6950    0.0000 C   0  0  0  0  0  0  0  0  0  0  0  0
   -1.7020   -0.0550    0.0000 C   0  0  0  0  0  0  0  0  0  0  0  0
  1  2  2  0  0  0  0
  2  3  1  0  0  0  0
  2  7  1  0  0  0  0
  3  4  1  0  0  0  0
  4  5  1  0  0  0  0
  4  6  1  0  0  0  0
  7  8  1  0  0  0  0
  8  9  1  0  0  0  0
  8 13  1  0  0  0  0
  9 10  1  0  0  0  0
 10 11  1  0  0  0  0
 11 12  1  0  0  0  0
 12 13  1  0  0  0  0
M  END
>  <name>
O=C(OC([O;ester])C)OC1CCCCC1

>  <apo>
1

>  <freq>
1

>  <freq0>
0

>  <freq1>
1

>  <freqA>
0.99887151

>  <a_count>
29

$$$$

  MOE2015           2D

 18 19  0  0  1  0  0  0  0  0999 V2000
   11.2020   -3.0010    0.0000 O   0  0  0  0  0  0  0  0  0  0  0  0
    9.9030   -2.2510    0.0000 C   0  0  0  0  0  0  0  0  0  0  0  0
    8.6040   -3.0010    0.0000 O   0  0  0  0  0  0  0  0  0  0  0  0
    7.3050   -2.2510    0.0000 C   0  0  0  0  0  0  0  0  0  0  0  0
    6.0060   -3.0010    0.0000 C   0  0  0  0  0  0  0  0  0  0  0  0
    4.7070   -2.2510    0.0000 C   0  0  0  0  0  0  0  0  0  0  0  0
    4.7070   -0.7510    0.0000 C   0  0  0  0  0  0  0  0  0  0  0  0
    3.4080   -0.0010    0.0000 O   0  0  0  0  0  0  0  0  0  0  0  0
    6.0060   -0.0010    0.0000 O   0  0  0  0  0  0  0  0  0  0  0  0
    3.4080   -3.0010    0.0000 N   0  0  0  0  0  0  0  0  0  0  0  0
    1.9080   -3.0010    0.0000 C   0  0  0  0  0  0  0  0  0  0  0  0
    0.8470   -1.9410    0.0000 O   0  0  0  0  0  0  0  0  0  0  0  0
    1.9080   -4.5010    0.0000 C   0  0  1  0  0  0  0  0  0  0  0  0
    0.8470   -5.5620    0.0000 N   0  0  0  0  0  0  0  0  0  0  0  0
    3.4080   -4.5010    0.0000 C   0  0  1  0  0  0  0  0  0  0  0  0
    4.7070   -5.2510    0.0000 S   0  0  0  0  0  0  0  0  0  0  0  0
    6.0060   -4.5010    0.0000 C   0  0  0  0  0  0  0  0  0  0  0  0
    9.9030   -0.7510    0.0000 N   0  0  0  0  0  0  0  0  0  0  0  0
  1  2  2  0  0  0  0
  2  3  1  0  0  0  0
  2 18  1  0  0  0  0
  3  4  1  0  0  0  0
  4  5  1  0  0  0  0
  5  6  2  0  0  0  0
  5 17  1  0  0  0  0
  6  7  1  0  0  0  0
  6 10  1  0  0  0  0
  7  8  2  0  0  0  0
  7  9  1  0  0  0  0
 10 11  1  0  0  0  0
 15 10  1  6  0  0  0
 11 12  2  0  0  0  0
 11 13  1  0  0  0  0
 13 14  1  6  0  0  0
 13 15  1  0  0  0  0
 15 16  1  0  0  0  0
 16 17  1  0  0  0  0
M  END
>  <name>
O=C(OCC1=C(C(=O)O)N2C(=O)[C@@H]([N;amide])[C@H]2SC1)N

>  <apo>
1

>  <freq>
1

>  <freq0>
0

>  <freq1>
1

>  <freqA>
0.99887151

>  <a_count>
29

$$$$

  MOE2015           2D

 18 19  0  0  1  0  0  0  0  0999 V2000
   11.2020   -3.0010    0.0000 O   0  0  0  0  0  0  0  0  0  0  0  0
    9.9030   -2.2510    0.0000 C   0  0  0  0  0  0  0  0  0  0  0  0
    8.6040   -3.0010    0.0000 O   0  0  0  0  0  0  0  0  0  0  0  0
    7.3050   -2.2510    0.0000 C   0  0  0  0  0  0  0  0  0  0  0  0
    6.0060   -3.0010    0.0000 C   0  0  0  0  0  0  0  0  0  0  0  0
    4.7070   -2.2510    0.0000 C   0  0  0  0  0  0  0  0  0  0  0  0
    4.7070   -0.7510    0.0000 C   0  0  0  0  0  0  0  0  0  0  0  0
    3.4080   -0.0010    0.0000 O   0  0  0  0  0  0  0  0  0  0  0  0
    6.0060   -0.0010    0.0000 O   0  0  0  0  0  0  0  0  0  0  0  0
    3.4080   -3.0010    0.0000 N   0  0  0  0  0  0  0  0  0  0  0  0
    1.9080   -3.0010    0.0000 C   0  0  0  0  0  0  0  0  0  0  0  0
    0.8470   -1.9410    0.0000 O   0  0  0  0  0  0  0  0  0  0  0  0
    1.9080   -4.5010    0.0000 C   0  0  2  0  0  0  0  0  0  0  0  0
    0.8470   -5.5620    0.0000 N   0  0  0  0  0  0  0  0  0  0  0  0
    3.4080   -4.5010    0.0000 C   0  0  1  0  0  0  0  0  0  0  0  0
    4.7070   -5.2510    0.0000 S   0  0  0  0  0  0  0  0  0  0  0  0
    6.0060   -4.5010    0.0000 C   0  0  0  0  0  0  0  0  0  0  0  0
    9.9030   -0.7510    0.0000 N   0  0  0  0  0  0  0  0  0  0  0  0
  1  2  2  0  0  0  0
  2  3  1  0  0  0  0
  2 18  1  0  0  0  0
  3  4  1  0  0  0  0
  4  5  1  0  0  0  0
  5  6  2  0  0  0  0
  5 17  1  0  0  0  0
  6  7  1  0  0  0  0
  6 10  1  0  0  0  0
  7  8  2  0  0  0  0
  7  9  1  0  0  0  0
 10 11  1  0  0  0  0
 15 10  1  6  0  0  0
 11 12  2  0  0  0  0
 11 13  1  0  0  0  0
 13 14  1  1  0  0  0
 13 15  1  0  0  0  0
 15 16  1  0  0  0  0
 16 17  1  0  0  0  0
M  END
>  <name>
O=C(OCC1=C(C(=O)O)N2C(=O)[C@H;ether]([N;amide])[C@H]2SC1)N

>  <apo>
2

>  <freq>
1

>  <freq0>
0

>  <freq1>
1

>  <freqA>
0.99887151

>  <a_count>
29

$$$$

  MOE2015           2D

 16 17  0  0  0  0  0  0  0  0999 V2000
    4.3410   -0.6430    0.0000 O   0  0  0  0  0  0  0  0  0  0  0  0
    4.2980    0.8560    0.0000 C   0  0  0  0  0  0  0  0  0  0  0  0
    2.9780    1.5690    0.0000 O   0  0  0  0  0  0  0  0  0  0  0  0
    1.7010    0.7820    0.0000 C   0  0  0  0  0  0  0  0  0  0  0  0
    0.3810    1.4940    0.0000 C   0  0  0  0  0  0  0  0  0  0  0  0
   -0.9710    0.8450    0.0000 C   0  0  0  0  0  0  0  0  0  0  0  0
   -1.2410   -0.6310    0.0000 C   0  0  0  0  0  0  0  0  0  0  0  0
   -2.0070    1.9300    0.0000 O   0  0  0  0  0  0  0  0  0  0  0  0
   -1.2950    3.2500    0.0000 C   0  0  0  0  0  0  0  0  0  0  0  0
   -1.9440    4.6020    0.0000 O   0  0  0  0  0  0  0  0  0  0  0  0
    0.1810    2.9800    0.0000 O   0  0  0  0  0  0  0  0  0  0  0  0
    5.5750    1.6430    0.0000 N   0  0  0  0  0  0  0  0  0  0  0  0
    6.9620    1.0730    0.0000 C   0  0  0  0  0  0  0  0  0  0  0  0
    7.9330    2.2160    0.0000 C   0  0  0  0  0  0  0  0  0  0  0  0
    7.1460    3.4930    0.0000 C   0  0  0  0  0  0  0  0  0  0  0  0
    5.6890    3.1390    0.0000 C   0  0  0  0  0  0  0  0  0  0  0  0
  1  2  2  0  0  0  0
  2  3  1  0  0  0  0
  2 12  1  0  0  0  0
  3  4  1  0  0  0  0
  4  5  1  0  0  0  0
  5  6  2  0  0  0  0
  5 11  1  0  0  0  0
  6  7  1  0  0  0  0
  6  8  1  0  0  0  0
  8  9  1  0  0  0  0
  9 10  2  0  0  0  0
  9 11  1  0  0  0  0
 12 13  1  0  0  0  0
 12 16  1  0  0  0  0
 13 14  1  0  0  0  0
 14 15  1  0  0  0  0
 15 16  1  0  0  0  0
M  END
>  <name>
O=C(OCC1=C(C)OC(=O)O1)N1C[C;lactam]CC1

>  <apo>
1

>  <freq>
1

>  <freq0>
0

>  <freq1>
1

>  <freqA>
0.99887151

>  <a_count>
29

$$$$

  MOE2015           2D

 14 14  0  0  1  0  0  0  0  0999 V2000
    2.6830    2.6380    0.0000 O   0  0  0  0  0  0  0  0  0  0  0  0
    2.6580    1.1380    0.0000 C   0  0  0  0  0  0  0  0  0  0  0  0
    1.3460    0.4100    0.0000 O   0  0  0  0  0  0  0  0  0  0  0  0
    0.0600    1.1820    0.0000 C   0  0  2  0  0  0  0  0  0  0  0  0
   -1.3200    0.5950    0.0000 C   0  0  0  0  0  0  0  0  0  0  0  0
   -2.3050    1.7270    0.0000 C   0  0  1  0  0  0  0  0  0  0  0  0
   -3.7990    1.5950    0.0000 C   0  0  0  0  0  0  0  0  0  0  0  0
   -4.6600    2.8240    0.0000 O   0  0  0  0  0  0  0  0  0  0  0  0
   -1.5330    3.0130    0.0000 N   0  0  0  0  0  0  0  0  0  0  0  0
   -0.0720    2.6760    0.0000 C   0  0  0  0  0  0  0  0  0  0  0  0
    3.9440    0.3660    0.0000 N   0  0  0  0  0  0  0  0  0  0  0  0
    5.2550    1.0940    0.0000 C   0  0  0  0  0  0  0  0  0  0  0  0
    6.5420    0.3220    0.0000 C   0  0  0  0  0  0  0  0  0  0  0  0
    7.8530    1.0500    0.0000 N   0  0  0  0  0  0  0  0  0  0  0  0
  1  2  2  0  0  0  0
  2  3  1  0  0  0  0
  2 11  1  0  0  0  0
  4  3  1  6  0  0  0
  4  5  1  0  0  0  0
  4 10  1  0  0  0  0
  5  6  1  0  0  0  0
  6  7  1  1  0  0  0
  6  9  1  0  0  0  0
  7  8  2  0  0  0  0
  9 10  1  0  0  0  0
 11 12  1  0  0  0  0
 12 13  1  0  0  0  0
 13 14  1  0  0  0  0
M  END
>  <name>
O=C(O[C@@H]1C[C@@H]([C;amide]=O)[N;amide]C1)NCCN

>  <apo>
2

>  <freq>
1

>  <freq0>
0

>  <freq1>
1

>  <freqA>
0.99887151

>  <a_count>
29

$$$$

  MOE2015           2D

 12 12  0  0  1  0  0  0  0  0999 V2000
    1.3030    1.2650    0.0000 O   0  0  0  0  0  0  0  0  0  0  0  0
    1.2580   -0.2340    0.0000 C   0  0  0  0  0  0  0  0  0  0  0  0
    2.5340   -1.0230    0.0000 C   0  0  1  0  0  0  0  0  0  0  0  0
    2.4900   -2.5220    0.0000 N   0  0  0  0  0  0  0  0  0  0  0  0
    3.8550   -0.3120    0.0000 C   0  0  0  0  0  0  0  0  0  0  0  0
    5.1310   -1.1010    0.0000 C   0  0  0  0  0  0  0  0  0  0  0  0
    6.4520   -0.3900    0.0000 C   0  0  0  0  0  0  0  0  0  0  0  0
    5.0870   -2.6000    0.0000 C   0  0  0  0  0  0  0  0  0  0  0  0
   -0.0620   -0.9450    0.0000 C   0  0  2  0  0  0  0  0  0  0  0  0
   -0.4070    0.5150    0.0000 C   0  0  0  0  0  0  0  0  0  0  0  0
   -1.2790   -1.8220    0.0000 O   0  0  0  0  0  0  0  0  0  0  0  0
    0.0890   -2.4380    0.0000 C   0  0  0  0  0  0  0  0  0  0  0  0
  1  2  2  0  0  0  0
  2  3  1  0  0  0  0
  9  2  1  1  0  0  0
  3  4  1  6  0  0  0
  3  5  1  0  0  0  0
  5  6  1  0  0  0  0
  6  7  1  0  0  0  0
  6  8  1  0  0  0  0
  9 10  1  6  0  0  0
  9 11  1  0  0  0  0
  9 12  1  0  0  0  0
 11 12  1  0  0  0  0
M  END
>  <name>
O=C([C@@H]([N;amide])CC(C)C)[C@]1(C)OC1

>  <apo>
1

>  <freq>
1

>  <freq0>
0

>  <freq1>
1

>  <freqA>
0.99887151

>  <a_count>
29

$$$$

  MOE2015           2D

 18 19  0  0  0  0  0  0  0  0999 V2000
    2.2190    2.3640    0.0000 O   0  0  0  0  0  0  0  0  0  0  0  0
    2.2190    0.8640    0.0000 C   0  0  0  0  0  0  0  0  0  0  0  0
    3.5190    0.1140    0.0000 C   0  0  0  0  0  0  0  0  0  0  0  0
    4.8180    0.8640    0.0000 C   0  0  0  0  0  0  0  0  0  0  0  0
    4.8180    2.3640    0.0000 O   0  0  0  0  0  0  0  0  0  0  0  0
    6.1170    0.1140    0.0000 C   0  0  0  0  0  0  0  0  0  0  0  0
    6.1170   -1.3860    0.0000 C   0  0  0  0  0  0  0  0  0  0  0  0
    7.4160   -2.1360    0.0000 N   0  0  0  0  0  0  0  0  0  0  0  0
    4.8180   -2.1360    0.0000 C   0  0  0  0  0  0  0  0  0  0  0  0
    3.5190   -1.3860    0.0000 C   0  0  0  0  0  0  0  0  0  0  0  0
    0.9200    0.1140    0.0000 C   0  0  0  0  0  0  0  0  0  0  0  0
   -0.3790    0.8640    0.0000 C   0  0  0  0  0  0  0  0  0  0  0  0
   -0.3790    2.3640    0.0000 C   0  0  0  0  0  0  0  0  0  0  0  0
   -1.6780    3.1140    0.0000 O   0  0  0  0  0  0  0  0  0  0  0  0
   -1.6780    0.1140    0.0000 C   0  0  0  0  0  0  0  0  0  0  0  0
   -1.6780   -1.3860    0.0000 C   0  0  0  0  0  0  0  0  0  0  0  0
   -0.3790   -2.1360    0.0000 C   0  0  0  0  0  0  0  0  0  0  0  0
    0.9200   -1.3860    0.0000 C   0  0  0  0  0  0  0  0  0  0  0  0
  1  2  2  0  0  0  0
  2  3  1  0  0  0  0
  2 11  1  0  0  0  0
  3  4  1  0  0  0  0
  3 10  2  0  0  0  0
  4  5  1  0  0  0  0
  4  6  2  0  0  0  0
  6  7  1  0  0  0  0
  7  8  1  0  0  0  0
  7  9  2  0  0  0  0
  9 10  1  0  0  0  0
 11 12  1  0  0  0  0
 11 18  2  0  0  0  0
 12 13  1  0  0  0  0
 12 15  2  0  0  0  0
 13 14  2  0  0  0  0
 15 16  1  0  0  0  0
 16 17  2  0  0  0  0
 17 18  1  0  0  0  0
M  END
>  <name>
O=C(c1c(O)cc([N;amine])cc1)c1c([C;ester]=O)cccc1

>  <apo>
2

>  <freq>
1

>  <freq0>
0

>  <freq1>
1

>  <freqA>
0.99887151

>  <a_count>
29

$$$$

  MOE2015           2D

 19 21  0  0  0  0  0  0  0  0999 V2000
    3.1160    1.3710    0.0000 O   0  0  0  0  0  0  0  0  0  0  0  0
    3.1260   -0.1290    0.0000 C   0  0  0  0  0  0  0  0  0  0  0  0
    1.8330   -0.8880    0.0000 C   0  0  0  0  0  0  0  0  0  0  0  0
    0.4580   -0.2870    0.0000 C   0  0  0  0  0  0  0  0  0  0  0  0
   -0.5380   -1.4090    0.0000 C   0  0  0  0  0  0  0  0  0  0  0  0
    0.2210   -2.7030    0.0000 S   0  0  0  0  0  0  0  0  0  0  0  0
    1.6860   -2.3810    0.0000 C   0  0  0  0  0  0  0  0  0  0  0  0
   -2.0070   -1.1080    0.0000 C   0  0  0  0  0  0  0  0  0  0  0  0
   -2.4810    0.3160    0.0000 C   0  0  0  0  0  0  0  0  0  0  0  0
   -3.9500    0.6170    0.0000 O   0  0  0  0  0  0  0  0  0  0  0  0
   -1.4850    1.4370    0.0000 C   0  0  0  0  0  0  0  0  0  0  0  0
   -0.0150    1.1360    0.0000 C   0  0  0  0  0  0  0  0  0  0  0  0
    4.4310   -0.8700    0.0000 C   0  0  0  0  0  0  0  0  0  0  0  0
    4.4410   -2.3700    0.0000 C   0  0  0  0  0  0  0  0  0  0  0  0
    5.7450   -3.1110    0.0000 C   0  0  0  0  0  0  0  0  0  0  0  0
    7.0390   -2.3520    0.0000 C   0  0  0  0  0  0  0  0  0  0  0  0
    8.3430   -3.0920    0.0000 O   0  0  0  0  0  0  0  0  0  0  0  0
    7.0290   -0.8520    0.0000 C   0  0  0  0  0  0  0  0  0  0  0  0
    5.7240   -0.1110    0.0000 C   0  0  0  0  0  0  0  0  0  0  0  0
  1  2  2  0  0  0  0
  2  3  1  0  0  0  0
  2 13  1  0  0  0  0
  3  4  1  0  0  0  0
  3  7  2  0  0  0  0
  4  5  1  0  0  0  0
  4 12  2  0  0  0  0
  5  6  1  0  0  0  0
  5  8  2  0  0  0  0
  6  7  1  0  0  0  0
  8  9  1  0  0  0  0
  9 10  1  0  0  0  0
  9 11  2  0  0  0  0
 11 12  1  0  0  0  0
 13 14  1  0  0  0  0
 13 19  2  0  0  0  0
 14 15  2  0  0  0  0
 15 16  1  0  0  0  0
 16 17  1  0  0  0  0
 16 18  2  0  0  0  0
 18 19  1  0  0  0  0
M  END
>  <name>
O=C(c1c2c(s[c;biphenyl]1)cc(O)cc2)c1ccc([O;ether])cc1

>  <apo>
2

>  <freq>
1

>  <freq0>
0

>  <freq1>
1

>  <freqA>
0.99887151

>  <a_count>
29

$$$$

  MOE2015           2D

 16 18  0  0  0  0  0  0  0  0999 V2000
    4.2230    1.4050    0.0000 O   0  0  0  0  0  0  0  0  0  0  0  0
    3.0210    0.5060    0.0000 C   0  0  0  0  0  0  0  0  0  0  0  0
    3.0420   -0.9940    0.0000 N   0  0  0  0  0  0  0  0  0  0  0  0
    4.2680   -1.8580    0.0000 C   0  0  0  0  0  0  0  0  0  0  0  0
    4.1320   -3.3520    0.0000 C   0  0  0  0  0  0  0  0  0  0  0  0
    5.3580   -4.2170    0.0000 C   0  0  0  0  0  0  0  0  0  0  0  0
    6.7190   -3.5880    0.0000 N   0  0  0  0  0  0  0  0  0  0  0  0
    6.8550   -2.0940    0.0000 C   0  0  0  0  0  0  0  0  0  0  0  0
    5.6300   -1.2290    0.0000 C   0  0  0  0  0  0  0  0  0  0  0  0
    1.6220   -1.4770    0.0000 C   0  0  0  0  0  0  0  0  0  0  0  0
    0.7240   -0.2760    0.0000 C   0  0  0  0  0  0  0  0  0  0  0  0
    1.5890    0.9500    0.0000 N   0  0  0  0  0  0  0  0  0  0  0  0
   -0.7660   -0.4540    0.0000 C   0  0  0  0  0  0  0  0  0  0  0  0
   -1.3570   -1.8320    0.0000 C   0  0  0  0  0  0  0  0  0  0  0  0
   -0.4580   -3.0330    0.0000 C   0  0  0  0  0  0  0  0  0  0  0  0
    1.0310   -2.8560    0.0000 C   0  0  0  0  0  0  0  0  0  0  0  0
  1  2  2  0  0  0  0
  2  3  1  0  0  0  0
  2 12  1  0  0  0  0
  3  4  1  0  0  0  0
  3 10  1  0  0  0  0
  4  5  2  0  0  0  0
  4  9  1  0  0  0  0
  5  6  1  0  0  0  0
  6  7  1  0  0  0  0
  7  8  1  0  0  0  0
  8  9  1  0  0  0  0
 10 11  1  0  0  0  0
 10 16  2  0  0  0  0
 11 12  1  0  0  0  0
 11 13  2  0  0  0  0
 13 14  1  0  0  0  0
 14 15  2  0  0  0  0
 15 16  1  0  0  0  0
M  END
>  <name>
O=C1N(C2=CC[N;amine]CC2)c2c(N1)cccc2

>  <apo>
1

>  <freq>
1

>  <freq0>
0

>  <freq1>
1

>  <freqA>
0.99887151

>  <a_count>
29

$$$$

  MOE2015           2D

 17 18  0  0  1  0  0  0  0  0999 V2000
    2.5830   -4.5090    0.0000 O   0  0  0  0  0  0  0  0  0  0  0  0
    3.3410   -3.2150    0.0000 C   0  0  0  0  0  0  0  0  0  0  0  0
    2.6000   -1.9110    0.0000 N   0  0  0  0  0  0  0  0  0  0  0  0
    1.1000   -1.9000    0.0000 C   0  0  1  0  0  0  0  0  0  0  0  0
    0.2270   -0.6810    0.0000 C   0  0  2  0  0  0  0  0  0  0  0  0
    0.7000    0.7430    0.0000 O   0  0  0  0  0  0  0  0  0  0  0  0
   -1.2030   -1.1350    0.0000 C   0  0  1  0  0  0  0  0  0  0  0  0
   -2.4100   -0.2450    0.0000 O   0  0  0  0  0  0  0  0  0  0  0  0
   -1.2130   -2.6350    0.0000 C   0  0  1  0  0  0  0  0  0  0  0  0
   -2.4330   -3.5080    0.0000 C   0  0  0  0  0  0  0  0  0  0  0  0
   -2.2860   -5.0010    0.0000 O   0  0  0  0  0  0  0  0  0  0  0  0
    0.2100   -3.1080    0.0000 O   0  0  0  0  0  0  0  0  0  0  0  0
    3.3590   -0.6170    0.0000 C   0  0  0  0  0  0  0  0  0  0  0  0
    4.8590   -0.6270    0.0000 C   0  0  0  0  0  0  0  0  0  0  0  0
    5.6000   -1.9310    0.0000 C   0  0  0  0  0  0  0  0  0  0  0  0
    7.1000   -1.9410    0.0000 O   0  0  0  0  0  0  0  0  0  0  0  0
    4.8410   -3.2250    0.0000 N   0  0  0  0  0  0  0  0  0  0  0  0
  1  2  2  0  0  0  0
  2  3  1  0  0  0  0
  2 17  1  0  0  0  0
  4  3  1  6  0  0  0
  3 13  1  0  0  0  0
  4  5  1  0  0  0  0
  4 12  1  0  0  0  0
  5  6  1  1  0  0  0
  5  7  1  0  0  0  0
  7  8  1  6  0  0  0
  7  9  1  0  0  0  0
  9 10  1  6  0  0  0
  9 12  1  0  0  0  0
 10 11  1  0  0  0  0
 13 14  2  0  0  0  0
 14 15  1  0  0  0  0
 15 16  2  0  0  0  0
 15 17  1  0  0  0  0
M  END
>  <name>
O=C1N([C@H]2[C@H]([O;ester])[C@@H]([O;ester])[C@@H](C[O;ester])O2)C=CC(=O)N1

>  <apo>
3

>  <freq>
1

>  <freq0>
0

>  <freq1>
1

>  <freqA>
0.99887151

>  <a_count>
29

$$$$

  MOE2015           2D

 15 17  0  0  1  0  0  0  0  0999 V2000
    0.0500    4.0700    0.0000 O   0  0  0  0  0  0  0  0  0  0  0  0
    0.8000    2.7710    0.0000 C   0  0  0  0  0  0  0  0  0  0  0  0
    2.3000    2.7710    0.0000 N   0  0  0  0  0  0  0  0  0  0  0  0
    3.0500    1.4720    0.0000 C   0  0  3  0  0  0  0  0  0  0  0  0
    4.5500    1.4720    0.0000 C   0  0  0  0  0  0  0  0  0  0  0  0
    5.3000    2.7710    0.0000 C   0  0  0  0  0  0  0  0  0  0  0  0
    6.8000    2.7710    0.0000 C   0  0  0  0  0  0  0  0  0  0  0  0
    7.5500    1.4720    0.0000 C   0  0  0  0  0  0  0  0  0  0  0  0
    6.8000    0.1730    0.0000 C   0  0  0  0  0  0  0  0  0  0  0  0
    5.3000    0.1730    0.0000 C   0  0  0  0  0  0  0  0  0  0  0  0
    4.5500    4.0700    0.0000 C   0  0  0  0  0  0  0  0  0  0  0  0
    3.0500    4.0700    0.0000 C   0  0  0  0  0  0  0  0  0  0  0  0
    2.3000    0.1730    0.0000 C   0  0  0  0  0  0  0  0  0  0  0  0
    0.8000    0.1730    0.0000 N   0  0  0  0  0  0  0  0  0  0  0  0
    0.0500    1.4720    0.0000 C   0  0  0  0  0  0  0  0  0  0  0  0
  1  2  2  0  0  0  0
  2  3  1  0  0  0  0
  2 15  1  0  0  0  0
  3  4  1  0  0  0  0
  3 12  1  0  0  0  0
  4  5  1  0  0  0  0
  4 13  1  0  0  0  0
  5  6  1  0  0  0  0
  5 10  2  0  0  0  0
  6  7  2  0  0  0  0
  6 11  1  0  0  0  0
  7  8  1  0  0  0  0
  8  9  2  0  0  0  0
  9 10  1  0  0  0  0
 11 12  1  0  0  0  0
 13 14  1  0  0  0  0
 14 15  1  0  0  0  0
M  END
>  <name>
O=C1N2C(c3c(cccc3)CC2)C[N;amide]C1

>  <apo>
1

>  <freq>
1

>  <freq0>
0

>  <freq1>
1

>  <freqA>
0.99887151

>  <a_count>
29

$$$$

  MOE2015           2D

 11 11  0  0  0  0  0  0  0  0999 V2000
    7.1590   -4.1330    0.0000 O   0  0  0  0  0  0  0  0  0  0  0  0
    6.4090   -2.8340    0.0000 C   0  0  0  0  0  0  0  0  0  0  0  0
    4.9090   -2.8340    0.0000 C   0  0  0  0  0  0  0  0  0  0  0  0
    4.1590   -1.5350    0.0000 C   0  0  0  0  0  0  0  0  0  0  0  0
    2.6590   -1.5350    0.0000 C   0  0  0  0  0  0  0  0  0  0  0  0
    1.9090   -2.8340    0.0000 C   0  0  0  0  0  0  0  0  0  0  0  0
    0.4090   -2.8340    0.0000 C   0  0  0  0  0  0  0  0  0  0  0  0
   -0.3410   -1.5350    0.0000 C   0  0  0  0  0  0  0  0  0  0  0  0
   -0.3410   -4.1330    0.0000 C   0  0  0  0  0  0  0  0  0  0  0  0
    2.6590   -4.1330    0.0000 C   0  0  0  0  0  0  0  0  0  0  0  0
    4.1590   -4.1330    0.0000 C   0  0  0  0  0  0  0  0  0  0  0  0
  1  2  2  0  0  0  0
  2  3  1  0  0  0  0
  3  4  1  0  0  0  0
  3 11  1  0  0  0  0
  4  5  1  0  0  0  0
  5  6  1  0  0  0  0
  6  7  1  0  0  0  0
  6 10  1  0  0  0  0
  7  8  1  0  0  0  0
  7  9  1  0  0  0  0
 10 11  1  0  0  0  0
M  END
>  <name>
O=[C;amide]C1CCC(C(C)C)CC1

>  <apo>
1

>  <freq>
1

>  <freq0>
0

>  <freq1>
1

>  <freqA>
0.99887151

>  <a_count>
29

$$$$

  MOE2015           2D

 13 13  0  0  1  0  0  0  0  0999 V2000
    6.5770    0.0000    0.0000 O   0  0  0  0  0  0  0  0  0  0  0  0
    5.0770    0.0000    0.0000 C   0  0  0  0  0  0  0  0  0  0  0  0
    4.3270   -1.2990    0.0000 C   0  0  2  0  0  0  0  0  0  0  0  0
    5.0770   -2.5980    0.0000 C   0  0  0  0  0  0  0  0  0  0  0  0
    4.3270   -3.8970    0.0000 C   0  0  0  0  0  0  0  0  0  0  0  0
    6.5770   -2.5980    0.0000 C   0  0  0  0  0  0  0  0  0  0  0  0
    2.8270   -1.2990    0.0000 N   0  0  0  0  0  0  0  0  0  0  0  0
    2.0770    0.0000    0.0000 C   0  0  0  0  0  0  0  0  0  0  0  0
    2.8270    1.2990    0.0000 O   0  0  0  0  0  0  0  0  0  0  0  0
    0.5770    0.0000    0.0000 N   0  0  0  0  0  0  0  0  0  0  0  0
   -0.1730   -1.2990    0.0000 C   0  0  0  0  0  0  0  0  0  0  0  0
    0.5770   -2.5980    0.0000 C   0  0  0  0  0  0  0  0  0  0  0  0
    2.0770   -2.5980    0.0000 C   0  0  0  0  0  0  0  0  0  0  0  0
  1  2  2  0  0  0  0
  3  2  1  6  0  0  0
  3  4  1  0  0  0  0
  3  7  1  0  0  0  0
  4  5  1  0  0  0  0
  4  6  1  0  0  0  0
  7  8  1  0  0  0  0
  7 13  1  0  0  0  0
  8  9  2  0  0  0  0
  8 10  1  0  0  0  0
 10 11  1  0  0  0  0
 11 12  1  0  0  0  0
 12 13  1  0  0  0  0
M  END
>  <name>
O=[C;amide][C@H](C(C)C)N1C(=O)NCCC1

>  <apo>
1

>  <freq>
1

>  <freq0>
0

>  <freq1>
1

>  <freqA>
0.99887151

>  <a_count>
29

$$$$

  MOE2015           2D

 13 13  0  0  1  0  0  0  0  0999 V2000
    8.9330   -4.6590    0.0000 O   0  0  0  0  0  0  0  0  0  0  0  0
    8.0750   -3.4290    0.0000 C   0  0  0  0  0  0  0  0  0  0  0  0
    6.5800   -3.5570    0.0000 C   0  0  1  0  0  0  0  0  0  0  0  0
    5.5980   -2.4240    0.0000 N   0  0  0  0  0  0  0  0  0  0  0  0
    4.2160   -3.0080    0.0000 C   0  0  0  0  0  0  0  0  0  0  0  0
    2.9320   -2.2330    0.0000 C   0  0  1  0  0  0  0  0  0  0  0  0
    2.9600   -0.7340    0.0000 N   0  0  0  0  0  0  0  0  0  0  0  0
    1.6190   -2.9590    0.0000 C   0  0  2  0  0  0  0  0  0  0  0  0
    0.3340   -2.1840    0.0000 C   0  0  0  0  0  0  0  0  0  0  0  0
   -0.9790   -2.9100    0.0000 C   0  0  0  0  0  0  0  0  0  0  0  0
    1.5900   -4.4580    0.0000 C   0  0  0  0  0  0  0  0  0  0  0  0
    4.3450   -4.5020    0.0000 S   0  0  0  0  0  0  0  0  0  0  0  0
    5.8060   -4.8420    0.0000 C   0  0  0  0  0  0  0  0  0  0  0  0
  1  2  2  0  0  0  0
  3  2  1  6  0  0  0
  3  4  1  0  0  0  0
  3 13  1  0  0  0  0
  4  5  2  0  0  0  0
  5  6  1  0  0  0  0
  5 12  1  0  0  0  0
  6  7  1  6  0  0  0
  6  8  1  0  0  0  0
  8  9  1  0  0  0  0
  8 11  1  1  0  0  0
  9 10  1  0  0  0  0
 12 13  1  0  0  0  0
M  END
>  <name>
O=[C;amide][C@H]1N=C([C@@H](N)[C@H](CC)C)SC1

>  <apo>
1

>  <freq>
1

>  <freq0>
0

>  <freq1>
1

>  <freqA>
0.99887151

>  <a_count>
29

$$$$

  MOE2015           2D

 13 13  0  0  0  0  0  0  0  0999 V2000
    0.8810    1.4130    0.0000 O   0  0  0  0  0  0  0  0  0  0  0  0
    2.1800    0.6630    0.0000 C   0  0  0  0  0  0  0  0  0  0  0  0
    2.1800   -0.8370    0.0000 C   0  0  0  0  0  0  0  0  0  0  0  0
    2.1800   -2.3370    0.0000 C   0  0  0  0  0  0  0  0  0  0  0  0
    0.8810   -3.0870    0.0000 C   0  0  0  0  0  0  0  0  0  0  0  0
    0.6800   -0.8370    0.0000 C   0  0  0  0  0  0  0  0  0  0  0  0
   -0.0700   -2.1370    0.0000 C   0  0  0  0  0  0  0  0  0  0  0  0
    3.6800   -0.8370    0.0000 C   0  0  0  0  0  0  0  0  0  0  0  0
    4.4300   -2.1370    0.0000 C   0  0  0  0  0  0  0  0  0  0  0  0
    5.9300   -2.1370    0.0000 C   0  0  0  0  0  0  0  0  0  0  0  0
    6.6800   -0.8370    0.0000 C   0  0  0  0  0  0  0  0  0  0  0  0
    5.9300    0.4620    0.0000 C   0  0  0  0  0  0  0  0  0  0  0  0
    4.4300    0.4620    0.0000 C   0  0  0  0  0  0  0  0  0  0  0  0
  1  2  2  0  0  0  0
  2  3  1  0  0  0  0
  3  4  1  0  0  0  0
  3  6  1  0  0  0  0
  3  8  1  0  0  0  0
  4  5  1  0  0  0  0
  6  7  1  0  0  0  0
  8  9  1  0  0  0  0
  8 13  2  0  0  0  0
  9 10  2  0  0  0  0
 10 11  1  0  0  0  0
 11 12  2  0  0  0  0
 12 13  1  0  0  0  0
M  END
>  <name>
O=[C;ester]C(CC)(CC)c1ccccc1

>  <apo>
1

>  <freq>
1

>  <freq0>
0

>  <freq1>
1

>  <freqA>
0.99887151

>  <a_count>
29

$$$$

  MOE2015           2D

 16 18  0  0  1  0  0  0  0  0999 V2000
    1.3020    2.8410    0.0000 O   0  0  0  0  0  0  0  0  0  0  0  0
    2.2810    1.7050    0.0000 C   0  0  2  0  0  0  0  0  0  0  0  0
    1.6820    0.3290    0.0000 C   0  0  0  0  0  0  0  0  0  0  0  0
    2.3830   -0.9970    0.0000 C   0  0  0  0  0  0  0  0  0  0  0  0
    3.8560   -1.2770    0.0000 N   0  0  0  0  0  0  0  0  0  0  0  0
    4.9930   -0.2970    0.0000 C   0  0  0  0  0  0  0  0  0  0  0  0
    4.9360    1.2030    0.0000 C   0  0  0  0  0  0  0  0  0  0  0  0
    6.2060    2.0010    0.0000 C   0  0  0  0  0  0  0  0  0  0  0  0
    7.5330    1.3000    0.0000 C   0  0  0  0  0  0  0  0  0  0  0  0
    7.5890   -0.2000    0.0000 C   0  0  0  0  0  0  0  0  0  0  0  0
    6.3190   -0.9980    0.0000 C   0  0  0  0  0  0  0  0  0  0  0  0
    3.7300    2.0940    0.0000 C   0  0  0  0  0  0  0  0  0  0  0  0
    1.5840   -2.2670    0.0000 C   0  0  0  0  0  0  0  0  0  0  0  0
    0.0860   -2.2110    0.0000 C   0  0  0  0  0  0  0  0  0  0  0  0
   -0.6150   -0.8840    0.0000 C   0  0  0  0  0  0  0  0  0  0  0  0
    0.1830    0.3860    0.0000 C   0  0  0  0  0  0  0  0  0  0  0  0
  2  1  1  1  0  0  0
  2  3  1  0  0  0  0
  2 12  1  0  0  0  0
  3  4  2  0  0  0  0
  3 16  1  0  0  0  0
  4  5  1  0  0  0  0
  4 13  1  0  0  0  0
  5  6  1  0  0  0  0
  6  7  2  0  0  0  0
  6 11  1  0  0  0  0
  7  8  1  0  0  0  0
  7 12  1  0  0  0  0
  8  9  2  0  0  0  0
  9 10  1  0  0  0  0
 10 11  2  0  0  0  0
 13 14  2  0  0  0  0
 14 15  1  0  0  0  0
 15 16  2  0  0  0  0
M  END
>  <name>
O[C@@H]1c2c([N;urea]c3c(cccc3)C1)cccc2

>  <apo>
1

>  <freq>
1

>  <freq0>
0

>  <freq1>
1

>  <freqA>
0.99887151

>  <a_count>
29

$$$$

  MOE2015           2D

 11 11  0  0  1  0  0  0  0  0999 V2000
    6.4300   -1.7230    0.0000 O   0  0  0  0  0  0  0  0  0  0  0  0
    5.1310   -0.9730    0.0000 C   0  0  1  0  0  0  0  0  0  0  0  0
    5.1310    0.5270    0.0000 C   0  0  0  0  0  0  0  0  0  0  0  0
    3.8320    1.2770    0.0000 C   0  0  0  0  0  0  0  0  0  0  0  0
    3.8320    2.7770    0.0000 C   0  0  0  0  0  0  0  0  0  0  0  0
    2.5330    0.5270    0.0000 C   0  0  2  0  0  0  0  0  0  0  0  0
    1.2330    1.2770    0.0000 C   0  0  0  0  0  0  0  0  0  0  0  0
    2.5330   -0.9730    0.0000 C   0  0  0  0  0  0  0  0  0  0  0  0
    1.0330   -0.9730    0.0000 C   0  0  0  0  0  0  0  0  0  0  0  0
    1.7830   -2.2720    0.0000 C   0  0  0  0  0  0  0  0  0  0  0  0
    3.8320   -1.7230    0.0000 C   0  0  0  0  0  0  0  0  0  0  0  0
  2  1  1  6  0  0  0
  2  3  1  0  0  0  0
  2 11  1  0  0  0  0
  3  4  2  0  0  0  0
  4  5  1  0  0  0  0
  4  6  1  0  0  0  0
  6  7  1  1  0  0  0
  6  8  1  0  0  0  0
  8  9  1  0  0  0  0
  8 10  1  0  0  0  0
  8 11  1  0  0  0  0
M  END
>  <name>
O[C@H]1C=C(C)[C@H]([C;olefin])C(C)(C)C1

>  <apo>
1

>  <freq>
1

>  <freq0>
0

>  <freq1>
1

>  <freqA>
0.99887151

>  <a_count>
29

$$$$

  MOE2015           2D

 15 14  0  0  1  0  0  0  0  0999 V2000
    0.0000    0.0000    0.0000 P   0  0  0  0  0  0  0  0  0  0  0  0
   -0.7500    1.2990    0.0000 O   0  0  0  0  0  0  0  0  0  0  0  0
   -1.2990   -0.7500    0.0000 O   0  0  0  0  0  0  0  0  0  0  0  0
   -2.5980    0.0000    0.0000 C   0  0  0  0  0  0  0  0  0  0  0  0
   -3.8970   -0.7500    0.0000 C   0  0  2  0  0  0  0  0  0  0  0  0
   -3.8970   -2.2500    0.0000 O   0  0  0  0  0  0  0  0  0  0  0  0
   -5.1960    0.0000    0.0000 C   0  0  0  0  0  0  0  0  0  0  0  0
   -6.4950   -0.7500    0.0000 O   0  0  0  0  0  0  0  0  0  0  0  0
    1.2990    0.7500    0.0000 O   0  0  0  0  0  0  0  0  0  0  0  0
    2.5980    0.0000    0.0000 C   0  0  0  0  0  0  0  0  0  0  0  0
    3.8970    0.7500    0.0000 C   0  0  3  0  0  0  0  0  0  0  0  0
    3.8970    2.2500    0.0000 O   0  0  0  0  0  0  0  0  0  0  0  0
    5.1960    0.0000    0.0000 C   0  0  0  0  0  0  0  0  0  0  0  0
    6.4950    0.7500    0.0000 O   0  0  0  0  0  0  0  0  0  0  0  0
    0.7500   -1.2990    0.0000 O   0  5  0  0  0  0  0  0  0  0  0  0
  1  2  2  0  0  0  0
  1  3  1  0  0  0  0
  1  9  1  0  0  0  0
  1 15  1  0  0  0  0
  3  4  1  0  0  0  0
  4  5  1  0  0  0  0
  5  6  1  6  0  0  0
  5  7  1  0  0  0  0
  7  8  1  0  0  0  0
  9 10  1  0  0  0  0
 10 11  1  0  0  0  0
 11 12  1  0  0  0  0
 11 13  1  0  0  0  0
 13 14  1  0  0  0  0
M  CHG  1  15  -1
M  END
>  <name>
P(=O)(OC[C@H]([O;ester])C[O;ester])(OCC(O)CO)[O-]

>  <apo>
2

>  <freq>
1

>  <freq0>
0

>  <freq1>
1

>  <freqA>
0.99887151

>  <a_count>
29

$$$$

  MOE2015           2D

 16 16  0  0  1  0  0  0  0  0999 V2000
   -2.3550   -4.0780    0.0000 S   0  0  0  0  0  0  0  0  0  0  0  0
   -1.6050   -5.3770    0.0000 O   0  0  0  0  0  0  0  0  0  0  0  0
   -3.1050   -2.7790    0.0000 O   0  0  0  0  0  0  0  0  0  0  0  0
   -3.6540   -4.8280    0.0000 C   0  0  0  0  0  0  0  0  0  0  0  0
   -1.0550   -3.3280    0.0000 C   0  0  0  0  0  0  0  0  0  0  0  0
    0.2440   -4.0780    0.0000 C   0  0  0  0  0  0  0  0  0  0  0  0
    1.5430   -3.3280    0.0000 C   0  0  0  0  0  0  0  0  0  0  0  0
    2.8420   -4.0780    0.0000 C   0  0  0  0  0  0  0  0  0  0  0  0
    4.1410   -3.3280    0.0000 C   0  0  2  0  0  0  0  0  0  0  0  0
    4.1410   -1.8280    0.0000 N   0  0  0  0  0  0  0  0  0  0  0  0
    5.4400   -4.0780    0.0000 C   0  0  0  0  0  0  0  0  0  0  0  0
    6.7390   -3.3280    0.0000 O   0  0  0  0  0  0  0  0  0  0  0  0
    5.4400   -5.5780    0.0000 O   0  0  0  0  0  0  0  0  0  0  0  0
    1.5430   -1.8280    0.0000 C   0  0  0  0  0  0  0  0  0  0  0  0
    0.2440   -1.0780    0.0000 C   0  0  0  0  0  0  0  0  0  0  0  0
   -1.0550   -1.8280    0.0000 C   0  0  0  0  0  0  0  0  0  0  0  0
  1  2  2  0  0  0  0
  1  3  2  0  0  0  0
  1  4  1  0  0  0  0
  1  5  1  0  0  0  0
  5  6  2  0  0  0  0
  5 16  1  0  0  0  0
  6  7  1  0  0  0  0
  7  8  1  0  0  0  0
  7 14  2  0  0  0  0
  8  9  1  0  0  0  0
  9 10  1  6  0  0  0
  9 11  1  0  0  0  0
 11 12  2  0  0  0  0
 11 13  1  0  0  0  0
 14 15  1  0  0  0  0
 15 16  2  0  0  0  0
M  END
>  <name>
S(=O)(=O)(C)c1cc(C[C@H]([N;amide])C(=O)O)ccc1

>  <apo>
1

>  <freq>
1

>  <freq0>
0

>  <freq1>
1

>  <freqA>
0.99887151

>  <a_count>
29

$$$$

  MOE2015           2D

 16 16  0  0  0  0  0  0  0  0999 V2000
    2.0530   -2.5400    0.0000 S   0  0  0  0  0  0  0  0  0  0  0  0
    2.0530   -4.0400    0.0000 O   0  0  0  0  0  0  0  0  0  0  0  0
    2.0530   -1.0400    0.0000 O   0  0  0  0  0  0  0  0  0  0  0  0
    3.5530   -2.5400    0.0000 C   0  0  0  0  0  0  0  0  0  0  0  0
    4.3030   -1.2410    0.0000 C   0  0  0  0  0  0  0  0  0  0  0  0
    0.5530   -2.5400    0.0000 C   0  0  0  0  0  0  0  0  0  0  0  0
   -0.1970   -3.8390    0.0000 C   0  0  0  0  0  0  0  0  0  0  0  0
    0.5530   -5.1390    0.0000 N   0  0  0  0  0  0  0  0  0  0  0  0
   -1.6970   -3.8390    0.0000 C   0  0  0  0  0  0  0  0  0  0  0  0
   -2.4470   -2.5400    0.0000 C   0  0  0  0  0  0  0  0  0  0  0  0
   -3.9470   -2.5400    0.0000 O   0  0  0  0  0  0  0  0  0  0  0  0
   -4.6970   -3.8390    0.0000 C   0  0  0  0  0  0  0  0  0  0  0  0
   -1.6970   -1.2410    0.0000 C   0  0  0  0  0  0  0  0  0  0  0  0
   -2.4470    0.0580    0.0000 C   0  0  0  0  0  0  0  0  0  0  0  0
   -1.6970    1.3570    0.0000 O   0  0  0  0  0  0  0  0  0  0  0  0
   -0.1970   -1.2410    0.0000 C   0  0  0  0  0  0  0  0  0  0  0  0
  1  2  2  0  0  0  0
  1  3  2  0  0  0  0
  1  4  1  0  0  0  0
  1  6  1  0  0  0  0
  4  5  1  0  0  0  0
  6  7  1  0  0  0  0
  6 16  2  0  0  0  0
  7  8  1  0  0  0  0
  7  9  2  0  0  0  0
  9 10  1  0  0  0  0
 10 11  1  0  0  0  0
 10 13  2  0  0  0  0
 11 12  1  0  0  0  0
 13 14  1  0  0  0  0
 13 16  1  0  0  0  0
 14 15  2  0  0  0  0
M  END
>  <name>
S(=O)(=O)(CC)c1c(N)cc(OC)c([C;amide]=O)c1

>  <apo>
1

>  <freq>
1

>  <freq0>
0

>  <freq1>
1

>  <freqA>
0.99887151

>  <a_count>
29

$$$$

  MOE2015           2D

 17 18  0  0  0  0  0  0  0  0999 V2000
    0.0000    0.0000    0.0000 S   0  0  0  0  0  0  0  0  0  0  0  0
    0.0000    1.5000    0.0000 O   0  0  0  0  0  0  0  0  0  0  0  0
    0.0000   -1.5000    0.0000 O   0  0  0  0  0  0  0  0  0  0  0  0
   -1.5000    0.0000    0.0000 C   0  0  0  0  0  0  0  0  0  0  0  0
   -2.2500   -1.2990    0.0000 C   0  0  0  0  0  0  0  0  0  0  0  0
   -3.7500   -1.2990    0.0000 C   0  0  0  0  0  0  0  0  0  0  0  0
   -4.5000    0.0000    0.0000 C   0  0  0  0  0  0  0  0  0  0  0  0
   -6.0000    0.0000    0.0000 N   0  0  0  0  0  0  0  0  0  0  0  0
   -3.7500    1.2990    0.0000 C   0  0  0  0  0  0  0  0  0  0  0  0
   -2.2500    1.2990    0.0000 C   0  0  0  0  0  0  0  0  0  0  0  0
    1.5000    0.0000    0.0000 C   0  0  0  0  0  0  0  0  0  0  0  0
    2.2500    1.2990    0.0000 C   0  0  0  0  0  0  0  0  0  0  0  0
    3.7500    1.2990    0.0000 C   0  0  0  0  0  0  0  0  0  0  0  0
    4.5000    0.0000    0.0000 C   0  0  0  0  0  0  0  0  0  0  0  0
    6.0000    0.0000    0.0000 N   0  0  0  0  0  0  0  0  0  0  0  0
    3.7500   -1.2990    0.0000 C   0  0  0  0  0  0  0  0  0  0  0  0
    2.2500   -1.2990    0.0000 C   0  0  0  0  0  0  0  0  0  0  0  0
  1  2  2  0  0  0  0
  1  3  2  0  0  0  0
  1  4  1  0  0  0  0
  1 11  1  0  0  0  0
  4  5  1  0  0  0  0
  4 10  2  0  0  0  0
  5  6  2  0  0  0  0
  6  7  1  0  0  0  0
  7  8  1  0  0  0  0
  7  9  2  0  0  0  0
  9 10  1  0  0  0  0
 11 12  1  0  0  0  0
 11 17  2  0  0  0  0
 12 13  2  0  0  0  0
 13 14  1  0  0  0  0
 14 15  1  0  0  0  0
 14 16  2  0  0  0  0
 16 17  1  0  0  0  0
M  END
>  <name>
S(=O)(=O)(c1ccc([N;amine])cc1)c1ccc([N;amine])cc1

>  <apo>
2

>  <freq>
1

>  <freq0>
0

>  <freq1>
1

>  <freqA>
0.99887151

>  <a_count>
29

$$$$

  MOE2015           2D

 13 14  0  0  0  0  0  0  0  0999 V2000
    0.6920   -2.5840    0.0000 N   0  0  0  0  0  0  0  0  0  0  0  0
   -0.6070   -1.8340    0.0000 C   0  0  0  0  0  0  0  0  0  0  0  0
   -1.9060   -2.5840    0.0000 C   0  0  0  0  0  0  0  0  0  0  0  0
   -3.2050   -1.8340    0.0000 C   0  0  0  0  0  0  0  0  0  0  0  0
   -3.2050   -0.3340    0.0000 C   0  0  0  0  0  0  0  0  0  0  0  0
   -1.9060    0.4160    0.0000 C   0  0  0  0  0  0  0  0  0  0  0  0
   -0.6070   -0.3340    0.0000 C   0  0  0  0  0  0  0  0  0  0  0  0
    1.9910   -1.8340    0.0000 C   0  0  0  0  0  0  0  0  0  0  0  0
    1.9910   -0.3340    0.0000 C   0  0  0  0  0  0  0  0  0  0  0  0
    3.2900    0.4160    0.0000 C   0  0  0  0  0  0  0  0  0  0  0  0
    4.5890   -0.3340    0.0000 N   0  0  0  0  0  0  0  0  0  0  0  0
    4.5890   -1.8340    0.0000 C   0  0  0  0  0  0  0  0  0  0  0  0
    3.2900   -2.5840    0.0000 C   0  0  0  0  0  0  0  0  0  0  0  0
  1  2  1  0  0  0  0
  1  8  1  0  0  0  0
  2  3  1  0  0  0  0
  2  7  2  0  0  0  0
  3  4  2  0  0  0  0
  4  5  1  0  0  0  0
  5  6  2  0  0  0  0
  6  7  1  0  0  0  0
  8  9  1  0  0  0  0
  8 13  1  0  0  0  0
  9 10  1  0  0  0  0
 10 11  1  0  0  0  0
 11 12  1  0  0  0  0
 12 13  1  0  0  0  0
M  END
>  <name>
[N;amide](c1ccccc1)C1CC[N;amine]CC1

>  <apo>
2

>  <freq>
1

>  <freq0>
0

>  <freq1>
1

>  <freqA>
0.99887151

>  <a_count>
29

$$$$

  MOE2015           2D

 11 12  0  0  1  0  0  0  0  0999 V2000
   -0.2730   -1.0850    0.0000 N   0  0  0  0  0  0  0  0  0  0  0  0
    1.0490   -1.7950    0.0000 C   0  0  0  0  0  0  0  0  0  0  0  0
    2.0290   -2.9350    0.0000 C   0  0  0  0  0  0  0  0  0  0  0  0
    3.5480   -2.0230    0.0000 C   0  0  2  0  0  0  0  0  0  0  0  0
    4.9280   -1.5460    0.0000 N   0  0  0  0  0  0  0  0  0  0  0  0
    6.4270   -1.6030    0.0000 C   0  0  0  0  0  0  0  0  0  0  0  0
    3.7670   -1.0430    0.0000 C   0  0  2  0  0  0  0  0  0  0  0  0
    2.3200   -1.9540    0.0000 C   0  0  0  0  0  0  0  0  0  0  0  0
    2.9840    0.4070    0.0000 C   0  0  0  0  0  0  0  0  0  0  0  0
    1.6150   -0.0780    0.0000 C   0  0  0  0  0  0  0  0  0  0  0  0
    2.7120   -0.5130    0.0000 C   0  0  0  0  0  0  0  0  0  0  0  0
  1  2  1  0  0  0  0
  2  3  1  0  0  0  0
  2  8  1  0  0  0  0
  4  3  1  1  0  0  0
  4  5  1  0  0  0  0
  4 11  1  0  0  0  0
  5  6  1  0  0  0  0
  5  7  1  0  0  0  0
  7  8  1  0  0  0  0
  7  9  1  6  0  0  0
  9 10  1  0  0  0  0
 10 11  1  0  0  0  0
M  END
>  <name>
[N;amide]C1C[C@@H]2N(C)[C@H](C1)CCC2

>  <apo>
1

>  <freq>
1

>  <freq0>
0

>  <freq1>
1

>  <freqA>
0.99887151

>  <a_count>
29

$$$$

  MOE2015           2D

 14 16  0  0  1  0  0  0  0  0999 V2000
   10.3310    2.0390    0.0000 N   0  0  0  0  0  0  0  0  0  0  0  0
    9.0320    2.7890    0.0000 C   0  0  0  0  0  0  0  0  0  0  0  0
    7.7330    2.0390    0.0000 C   0  0  1  0  0  0  0  0  0  0  0  0
    6.2330    2.0390    0.0000 C   0  0  2  0  0  0  0  0  0  0  0  0
    4.9330    2.7890    0.0000 C   0  0  0  0  0  0  0  0  0  0  0  0
    3.6340    2.0390    0.0000 C   0  0  0  0  0  0  0  0  0  0  0  0
    2.3350    2.7890    0.0000 C   0  0  0  0  0  0  0  0  0  0  0  0
    1.2210    1.7850    0.0000 O   0  0  0  0  0  0  0  0  0  0  0  0
    1.8310    0.4150    0.0000 C   0  0  0  0  0  0  0  0  0  0  0  0
    3.3230    0.5710    0.0000 C   0  0  0  0  0  0  0  0  0  0  0  0
    2.3350    4.2890    0.0000 C   0  0  0  0  0  0  0  0  0  0  0  0
    3.6340    5.0390    0.0000 C   0  0  0  0  0  0  0  0  0  0  0  0
    4.9330    4.2890    0.0000 C   0  0  0  0  0  0  0  0  0  0  0  0
    6.9830    0.7400    0.0000 C   0  0  0  0  0  0  0  0  0  0  0  0
  1  2  1  0  0  0  0
  3  2  1  6  0  0  0
  3  4  1  0  0  0  0
  3 14  1  0  0  0  0
  4  5  1  1  0  0  0
  4 14  1  0  0  0  0
  5  6  2  0  0  0  0
  5 13  1  0  0  0  0
  6  7  1  0  0  0  0
  6 10  1  0  0  0  0
  7  8  1  0  0  0  0
  7 11  2  0  0  0  0
  8  9  1  0  0  0  0
  9 10  1  0  0  0  0
 11 12  1  0  0  0  0
 12 13  2  0  0  0  0
M  END
>  <name>
[N;amide]C[C@H]1[C@H](c2c3c(OCC3)ccc2)C1

>  <apo>
1

>  <freq>
1

>  <freq0>
0

>  <freq1>
1

>  <freqA>
0.99887151

>  <a_count>
29

$$$$

  MOE2015           2D

 17 19  0  0  0  0  0  0  0  0999 V2000
    0.3790    4.7160    0.0000 N   0  0  0  0  0  0  0  0  0  0  0  0
    1.1290    3.4170    0.0000 C   0  0  0  0  0  0  0  0  0  0  0  0
    2.6210    3.2600    0.0000 N   0  0  0  0  0  0  0  0  0  0  0  0
    2.9330    1.7930    0.0000 N   0  0  0  0  0  0  0  0  0  0  0  0
    4.2320    1.0430    0.0000 C   0  0  0  0  0  0  0  0  0  0  0  0
    5.5310    1.7930    0.0000 C   0  0  0  0  0  0  0  0  0  0  0  0
    5.5310    3.2930    0.0000 C   0  0  0  0  0  0  0  0  0  0  0  0
    6.8300    4.0430    0.0000 C   0  0  0  0  0  0  0  0  0  0  0  0
    8.1290    3.2930    0.0000 C   0  0  0  0  0  0  0  0  0  0  0  0
    9.4280    4.0430    0.0000 C   0  0  0  0  0  0  0  0  0  0  0  0
    8.1290    1.7930    0.0000 C   0  0  0  0  0  0  0  0  0  0  0  0
    6.8300    1.0430    0.0000 C   0  0  0  0  0  0  0  0  0  0  0  0
    4.2320   -0.4570    0.0000 C   0  0  0  0  0  0  0  0  0  0  0  0
    2.9330   -1.2070    0.0000 C   0  0  0  0  0  0  0  0  0  0  0  0
    1.6340   -0.4570    0.0000 C   0  0  0  0  0  0  0  0  0  0  0  0
    1.6340    1.0430    0.0000 C   0  0  0  0  0  0  0  0  0  0  0  0
    0.5190    2.0470    0.0000 N   0  0  0  0  0  0  0  0  0  0  0  0
  1  2  1  0  0  0  0
  2  3  2  0  0  0  0
  2 17  1  0  0  0  0
  3  4  1  0  0  0  0
  4  5  1  0  0  0  0
  4 16  1  0  0  0  0
  5  6  1  0  0  0  0
  5 13  2  0  0  0  0
  6  7  1  0  0  0  0
  6 12  2  0  0  0  0
  7  8  2  0  0  0  0
  8  9  1  0  0  0  0
  9 10  1  0  0  0  0
  9 11  2  0  0  0  0
 11 12  1  0  0  0  0
 13 14  1  0  0  0  0
 14 15  2  0  0  0  0
 15 16  1  0  0  0  0
 16 17  2  0  0  0  0
M  END
>  <name>
[N;amide]c1nn2C(c3ccc([C;amine])cc3)=CC=Cc2n1

>  <apo>
2

>  <freq>
1

>  <freq0>
0

>  <freq1>
1

>  <freqA>
0.99887151

>  <a_count>
29

$$$$

  MOE2015           2D

 11 10  0  0  1  0  0  0  0  0999 V2000
    0.0000    0.0000    0.0000 O   0  0  0  0  0  0  0  0  0  0  0  0
    0.7500    1.2990    0.0000 C   0  0  1  0  0  0  0  0  0  0  0  0
    2.2500    1.2990    0.0000 C   0  0  0  0  0  0  0  0  0  0  0  0
    2.2500   -0.2010    0.0000 O   0  0  0  0  0  0  0  0  0  0  0  0
    3.7500    1.2990    0.0000 C   0  0  2  0  0  0  0  0  0  0  0  0
    4.5000    2.5980    0.0000 O   0  0  0  0  0  0  0  0  0  0  0  0
    4.5000    0.0000    0.0000 C   0  0  0  0  0  0  0  0  0  0  0  0
    6.0000    0.0000    0.0000 C   0  0  0  0  0  0  0  0  0  0  0  0
    2.2500    2.7990    0.0000 C   0  0  0  0  0  0  0  0  0  0  0  0
    0.0000    2.5980    0.0000 C   0  0  0  0  0  0  0  0  0  0  0  0
   -1.5000    2.5980    0.0000 C   0  0  0  0  0  0  0  0  0  0  0  0
  2  1  1  6  0  0  0
  2  3  1  0  0  0  0
  2 10  1  0  0  0  0
  3  4  1  0  0  0  0
  3  5  1  0  0  0  0
  3  9  1  0  0  0  0
  5  6  1  6  0  0  0
  5  7  1  0  0  0  0
  7  8  1  0  0  0  0
 10 11  1  0  0  0  0
M  END
>  <name>
[O;ester][C@@H](C(O)([C@H](O)[C;amine]C)C)CC

>  <apo>
2

>  <freq>
1

>  <freq0>
0

>  <freq1>
1

>  <freqA>
0.99887151

>  <a_count>
29

$$$$

  MOE2015           2D

 16 18  0  0  1  0  0  0  0  0999 V2000
    1.3020    2.8410    0.0000 O   0  0  0  0  0  0  0  0  0  0  0  0
    2.2810    1.7050    0.0000 C   0  0  2  0  0  0  0  0  0  0  0  0
    1.6820    0.3290    0.0000 C   0  0  0  0  0  0  0  0  0  0  0  0
    2.3830   -0.9970    0.0000 C   0  0  0  0  0  0  0  0  0  0  0  0
    3.8560   -1.2770    0.0000 N   0  0  0  0  0  0  0  0  0  0  0  0
    4.9930   -0.2970    0.0000 C   0  0  0  0  0  0  0  0  0  0  0  0
    4.9360    1.2030    0.0000 C   0  0  0  0  0  0  0  0  0  0  0  0
    6.2060    2.0010    0.0000 C   0  0  0  0  0  0  0  0  0  0  0  0
    7.5330    1.3000    0.0000 C   0  0  0  0  0  0  0  0  0  0  0  0
    7.5890   -0.2000    0.0000 C   0  0  0  0  0  0  0  0  0  0  0  0
    6.3190   -0.9980    0.0000 C   0  0  0  0  0  0  0  0  0  0  0  0
    3.7300    2.0940    0.0000 C   0  0  0  0  0  0  0  0  0  0  0  0
    1.5840   -2.2670    0.0000 C   0  0  0  0  0  0  0  0  0  0  0  0
    0.0860   -2.2110    0.0000 C   0  0  0  0  0  0  0  0  0  0  0  0
   -0.6150   -0.8840    0.0000 C   0  0  0  0  0  0  0  0  0  0  0  0
    0.1830    0.3860    0.0000 C   0  0  0  0  0  0  0  0  0  0  0  0
  2  1  1  1  0  0  0
  2  3  1  0  0  0  0
  2 12  1  0  0  0  0
  3  4  2  0  0  0  0
  3 16  1  0  0  0  0
  4  5  1  0  0  0  0
  4 13  1  0  0  0  0
  5  6  1  0  0  0  0
  6  7  2  0  0  0  0
  6 11  1  0  0  0  0
  7  8  1  0  0  0  0
  7 12  1  0  0  0  0
  8  9  2  0  0  0  0
  9 10  1  0  0  0  0
 10 11  2  0  0  0  0
 13 14  2  0  0  0  0
 14 15  1  0  0  0  0
 15 16  2  0  0  0  0
M  END
>  <name>
[O;ester][C@@H]1c2c([N;urea]c3c(cccc3)C1)cccc2

>  <apo>
2

>  <freq>
1

>  <freq0>
0

>  <freq1>
1

>  <freqA>
0.99887151

>  <a_count>
29

$$$$

  MOE2015           2D

 15 15  0  0  1  0  0  0  0  0999 V2000
    1.1260   -0.1500    0.0000 P   0  0  1  0  0  0  0  0  0  0  0  0
    0.3760   -1.4490    0.0000 O   0  0  0  0  0  0  0  0  0  0  0  0
   -0.1730    0.6000    0.0000 O   0  0  0  0  0  0  0  0  0  0  0  0
   -1.4720   -0.1500    0.0000 C   0  0  0  0  0  0  0  0  0  0  0  0
   -1.4720   -1.6500    0.0000 C   0  0  0  0  0  0  0  0  0  0  0  0
   -2.7710   -2.4000    0.0000 C   0  0  0  0  0  0  0  0  0  0  0  0
   -4.0700   -1.6500    0.0000 C   0  0  0  0  0  0  0  0  0  0  0  0
   -4.0700   -0.1500    0.0000 C   0  0  0  0  0  0  0  0  0  0  0  0
   -2.7710    0.6000    0.0000 C   0  0  0  0  0  0  0  0  0  0  0  0
    2.4250   -0.9000    0.0000 N   0  0  0  0  0  0  0  0  0  0  0  0
    3.7240   -0.1500    0.0000 C   0  0  2  0  0  0  0  0  0  0  0  0
    5.0230   -0.9000    0.0000 C   0  0  0  0  0  0  0  0  0  0  0  0
    6.3220   -0.1500    0.0000 O   0  0  0  0  0  0  0  0  0  0  0  0
    3.7240    1.3500    0.0000 C   0  0  0  0  0  0  0  0  0  0  0  0
    1.8760    1.1490    0.0000 C   0  0  0  0  0  0  0  0  0  0  0  0
  1  2  2  0  0  0  0
  1  3  1  1  0  0  0
  1 10  1  0  0  0  0
  1 15  1  6  0  0  0
  3  4  1  0  0  0  0
  4  5  1  0  0  0  0
  4  9  2  0  0  0  0
  5  6  2  0  0  0  0
  6  7  1  0  0  0  0
  7  8  2  0  0  0  0
  8  9  1  0  0  0  0
 10 11  1  0  0  0  0
 11 12  1  0  0  0  0
 11 14  1  1  0  0  0
 12 13  2  0  0  0  0
M  END
>  <name>
[P@@](=O)(Oc1ccccc1)(N[C@H]([C;ester]=O)C)[C;ether]

>  <apo>
2

>  <freq>
1

>  <freq0>
0

>  <freq1>
1

>  <freqA>
0.99887151

>  <a_count>
29

$$$$

  MOE2015           2D

 17 18  0  0  0  0  0  0  0  0999 V2000
   -5.6660    2.8940    0.0000 S   0  0  0  0  0  0  0  0  0  0  0  0
   -6.9650    3.6440    0.0000 O   0  0  0  0  0  0  0  0  0  0  0  0
   -4.3670    3.6440    0.0000 O   0  0  0  0  0  0  0  0  0  0  0  0
   -5.6660    1.3940    0.0000 C   0  0  0  0  0  0  0  0  0  0  0  0
   -4.3670    0.6440    0.0000 C   0  0  0  0  0  0  0  0  0  0  0  0
   -3.0680    1.3940    0.0000 N   0  0  0  0  0  0  0  0  0  0  0  0
   -1.7690    0.6440    0.0000 C   0  0  0  0  0  0  0  0  0  0  0  0
   -0.4700    1.3940    0.0000 C   0  0  0  0  0  0  0  0  0  0  0  0
    0.8290    0.6440    0.0000 C   0  0  0  0  0  0  0  0  0  0  0  0
    2.1280    1.3940    0.0000 C   0  0  0  0  0  0  0  0  0  0  0  0
    0.8290   -0.8560    0.0000 C   0  0  0  0  0  0  0  0  0  0  0  0
   -0.4700   -1.6060    0.0000 C   0  0  0  0  0  0  0  0  0  0  0  0
   -1.7690   -0.8560    0.0000 C   0  0  0  0  0  0  0  0  0  0  0  0
   -4.3670   -0.8560    0.0000 C   0  0  0  0  0  0  0  0  0  0  0  0
   -5.6660   -1.6060    0.0000 C   0  0  0  0  0  0  0  0  0  0  0  0
   -6.9650   -0.8560    0.0000 N   0  0  0  0  0  0  0  0  0  0  0  0
   -6.9650    0.6440    0.0000 C   0  0  0  0  0  0  0  0  0  0  0  0
  1  2  2  0  0  0  0
  1  3  2  0  0  0  0
  1  4  1  0  0  0  0
  4  5  1  0  0  0  0
  4 17  2  0  0  0  0
  5  6  1  0  0  0  0
  5 14  2  0  0  0  0
  6  7  1  0  0  0  0
  7  8  1  0  0  0  0
  7 13  2  0  0  0  0
  8  9  2  0  0  0  0
  9 10  1  0  0  0  0
  9 11  1  0  0  0  0
 11 12  2  0  0  0  0
 12 13  1  0  0  0  0
 14 15  1  0  0  0  0
 15 16  2  0  0  0  0
 16 17  1  0  0  0  0
M  END
>  <name>
[SH;so2amide](=O)(=O)c1c(Nc2cc(C)ccc2)ccnc1

>  <apo>
1

>  <freq>
1

>  <freq0>
0

>  <freq1>
1

>  <freqA>
0.99887151

>  <a_count>
29

$$$$

  MOE2015           2D

 14 15  0  0  0  0  0  0  0  0999 V2000
    9.5780    0.0000    0.0000 Br  0  0  0  0  0  0  0  0  0  0  0  0
    8.0780    0.0000    0.0000 C   0  0  0  0  0  0  0  0  0  0  0  0
    7.3280    1.2990    0.0000 C   0  0  0  0  0  0  0  0  0  0  0  0
    5.8280    1.2990    0.0000 C   0  0  0  0  0  0  0  0  0  0  0  0
    5.0780    0.0000    0.0000 C   0  0  0  0  0  0  0  0  0  0  0  0
    3.5780    0.0000    0.0000 C   0  0  0  0  0  0  0  0  0  0  0  0
    4.3280   -1.2990    0.0000 O   0  0  0  0  0  0  0  0  0  0  0  0
    2.2790   -0.7500    0.0000 C   0  0  0  0  0  0  0  0  0  0  0  0
    0.9800    0.0000    0.0000 C   0  0  0  0  0  0  0  0  0  0  0  0
    0.9800    1.5000    0.0000 N   0  0  0  0  0  0  0  0  0  0  0  0
    2.2790    2.2500    0.0000 C   0  0  0  0  0  0  0  0  0  0  0  0
    3.5780    1.5000    0.0000 C   0  0  0  0  0  0  0  0  0  0  0  0
    5.8280   -1.2990    0.0000 C   0  0  0  0  0  0  0  0  0  0  0  0
    7.3280   -1.2990    0.0000 C   0  0  0  0  0  0  0  0  0  0  0  0
  1  2  1  0  0  0  0
  2  3  1  0  0  0  0
  2 14  2  0  0  0  0
  3  4  2  0  0  0  0
  4  5  1  0  0  0  0
  5  6  1  0  0  0  0
  5 13  2  0  0  0  0
  6  7  1  0  0  0  0
  6  8  1  0  0  0  0
  6 12  1  0  0  0  0
  8  9  1  0  0  0  0
  9 10  1  0  0  0  0
 10 11  1  0  0  0  0
 11 12  1  0  0  0  0
 13 14  1  0  0  0  0
M  END
>  <name>
Brc1ccc(C2(O)CC[N;amine]CC2)cc1

>  <apo>
1

>  <freq>
1

>  <freq0>
0

>  <freq1>
1

>  <freqA>
0.99887151

>  <a_count>
28

$$$$

  MOE2015           2D

 13 15  0  0  1  0  0  0  0  0999 V2000
    0.6790    1.7670    0.0000 C   0  0  0  0  0  0  0  0  0  0  0  0
    1.9490    2.5650    0.0000 C   0  0  0  0  0  0  0  0  0  0  0  0
   -0.6470    2.4680    0.0000 C   0  0  0  0  0  0  0  0  0  0  0  0
   -1.9940    1.8070    0.0000 N   0  0  0  0  0  0  0  0  0  0  0  0
   -3.0390    2.8830    0.0000 C   0  0  0  0  0  0  0  0  0  0  0  0
   -2.3380    4.2090    0.0000 N   0  0  0  0  0  0  0  0  0  0  0  0
   -0.8600    3.9520    0.0000 N   0  0  0  0  0  0  0  0  0  0  0  0
   -4.3850    2.2220    0.0000 C   0  0  2  0  0  0  0  0  0  0  0  0
   -4.1730    0.7370    0.0000 C   0  0  2  0  0  0  0  0  0  0  0  0
   -2.6950    0.4810    0.0000 C   0  0  0  0  0  0  0  0  0  0  0  0
   -5.5190    0.0760    0.0000 C   0  0  0  0  0  0  0  0  0  0  0  0
   -6.5640    1.1530    0.0000 C   0  0  0  0  0  0  0  0  0  0  0  0
   -5.8630    2.4790    0.0000 C   0  0  0  0  0  0  0  0  0  0  0  0
  1  2  1  0  0  0  0
  1  3  1  0  0  0  0
  3  4  1  0  0  0  0
  3  7  2  0  0  0  0
  4  5  1  0  0  0  0
  4 10  1  0  0  0  0
  5  6  2  0  0  0  0
  8  5  1  6  0  0  0
  6  7  1  0  0  0  0
  8  9  1  0  0  0  0
  8 13  1  0  0  0  0
  9 10  1  0  0  0  0
  9 11  1  6  0  0  0
 11 12  1  0  0  0  0
 12 13  1  0  0  0  0
M  END
>  <name>
C([C;amine])c1n2c(nn1)[C@@H]1[C@H](C2)CCC1

>  <apo>
1

>  <freq>
1

>  <freq0>
0

>  <freq1>
1

>  <freqA>
0.99887151

>  <a_count>
28

$$$$

  MOE2015           2D

 10 11  0  0  1  0  0  0  0  0999 V2000
    4.8160   -0.3790    0.0000 C   0  0  0  0  0  0  0  0  0  0  0  0
    3.5060   -1.1090    0.0000 C   0  0  0  0  0  0  0  0  0  0  0  0
    4.4390   -2.2830    0.0000 C   0  0  0  0  0  0  0  0  0  0  0  0
    2.4180   -0.4830    0.0000 C   0  0  3  0  0  0  0  0  0  0  0  0
    2.8530    0.9530    0.0000 C   0  0  0  0  0  0  0  0  0  0  0  0
    1.1160   -0.3960    0.0000 C   0  0  3  0  0  0  0  0  0  0  0  0
    0.6370    0.9000    0.0000 C   0  0  0  0  0  0  0  0  0  0  0  0
    2.0680   -1.2190    0.0000 C   0  0  3  0  0  0  0  0  0  0  0  0
    1.3510   -2.3850    0.0000 C   0  0  0  0  0  0  0  0  0  0  0  0
    0.3860   -1.7470    0.0000 C   0  0  0  0  0  0  0  0  0  0  0  0
  1  2  1  0  0  0  0
  2  3  1  0  0  0  0
  2  4  1  0  0  0  0
  2  8  1  0  0  0  0
  4  5  1  0  0  0  0
  4  6  1  0  0  0  0
  6  7  1  0  0  0  0
  6 10  1  0  0  0  0
  7  8  1  0  0  0  0
  8  9  1  0  0  0  0
  9 10  1  0  0  0  0
M  END
>  <name>
CC1(C)[C;amine](C)C2CC1CC2

>  <apo>
1

>  <freq>
1

>  <freq0>
0

>  <freq1>
1

>  <freqA>
0.99887151

>  <a_count>
28

$$$$

  MOE2015           2D

 15 17  0  0  0  0  0  0  0  0999 V2000
    9.1870   -1.3950    0.0000 C   0  0  0  0  0  0  0  0  0  0  0  0
    7.7550   -0.9490    0.0000 C   0  0  0  0  0  0  0  0  0  0  0  0
    7.2730    0.4710    0.0000 N   0  0  0  0  0  0  0  0  0  0  0  0
    5.7730    0.4520    0.0000 C   0  0  0  0  0  0  0  0  0  0  0  0
    5.3280   -0.9810    0.0000 C   0  0  0  0  0  0  0  0  0  0  0  0
    6.5530   -1.8470    0.0000 N   0  0  0  0  0  0  0  0  0  0  0  0
    3.9300   -1.5240    0.0000 C   0  0  0  0  0  0  0  0  0  0  0  0
    2.6330   -0.7700    0.0000 C   0  0  0  0  0  0  0  0  0  0  0  0
    2.4130    0.7130    0.0000 N   0  0  0  0  0  0  0  0  0  0  0  0
    3.4360    1.8100    0.0000 C   0  0  0  0  0  0  0  0  0  0  0  0
    4.9310    1.6930    0.0000 C   0  0  0  0  0  0  0  0  0  0  0  0
    1.3320   -1.5170    0.0000 C   0  0  0  0  0  0  0  0  0  0  0  0
    1.3270   -3.0170    0.0000 C   0  0  0  0  0  0  0  0  0  0  0  0
    2.6240   -3.7700    0.0000 C   0  0  0  0  0  0  0  0  0  0  0  0
    3.9250   -3.0240    0.0000 C   0  0  0  0  0  0  0  0  0  0  0  0
  1  2  1  0  0  0  0
  2  3  1  0  0  0  0
  2  6  2  0  0  0  0
  3  4  1  0  0  0  0
  4  5  2  0  0  0  0
  4 11  1  0  0  0  0
  5  6  1  0  0  0  0
  5  7  1  0  0  0  0
  7  8  1  0  0  0  0
  7 15  2  0  0  0  0
  8  9  1  0  0  0  0
  8 12  2  0  0  0  0
  9 10  1  0  0  0  0
 10 11  1  0  0  0  0
 12 13  1  0  0  0  0
 13 14  2  0  0  0  0
 14 15  1  0  0  0  0
M  END
>  <name>
Cc1[nH]c2c(n1)-c1c([N;amide]CC2)cccc1

>  <apo>
1

>  <freq>
1

>  <freq0>
0

>  <freq1>
1

>  <freqA>
0.99887151

>  <a_count>
28

$$$$

  MOE2015           2D

 18 19  0  0  1  0  0  0  0  0999 V2000
   -0.1270    0.0340    0.0000 Cl  0  0  0  0  0  0  0  0  0  0  0  0
   -1.4260    0.7840    0.0000 C   0  0  0  0  0  0  0  0  0  0  0  0
   -1.4260    2.2840    0.0000 C   0  0  0  0  0  0  0  0  0  0  0  0
   -0.1270    3.0340    0.0000 C   0  0  2  0  0  0  0  0  0  0  0  0
    1.1720    2.2840    0.0000 N   0  0  0  0  0  0  0  0  0  0  0  0
    2.4710    3.0340    0.0000 C   0  0  0  0  0  0  0  0  0  0  0  0
    3.7700    2.2840    0.0000 C   0  0  0  0  0  0  0  0  0  0  0  0
    5.0690    3.0340    0.0000 C   0  0  0  0  0  0  0  0  0  0  0  0
    6.3680    2.2840    0.0000 F   0  0  0  0  0  0  0  0  0  0  0  0
    5.0690    4.5340    0.0000 C   0  0  0  0  0  0  0  0  0  0  0  0
    3.7700    5.2840    0.0000 N   0  0  0  0  0  0  0  0  0  0  0  0
    2.4710    4.5340    0.0000 C   0  0  0  0  0  0  0  0  0  0  0  0
   -0.1270    4.5340    0.0000 C   0  0  0  0  0  0  0  0  0  0  0  0
   -1.4260    5.2840    0.0000 O   0  0  0  0  0  0  0  0  0  0  0  0
   -2.7250    3.0340    0.0000 C   0  0  0  0  0  0  0  0  0  0  0  0
   -4.0240    2.2840    0.0000 C   0  0  0  0  0  0  0  0  0  0  0  0
   -4.0240    0.7840    0.0000 C   0  0  0  0  0  0  0  0  0  0  0  0
   -2.7250    0.0340    0.0000 C   0  0  0  0  0  0  0  0  0  0  0  0
  1  2  1  0  0  0  0
  2  3  2  0  0  0  0
  2 18  1  0  0  0  0
  4  3  1  1  0  0  0
  3 15  1  0  0  0  0
  4  5  1  0  0  0  0
  4 13  1  0  0  0  0
  5  6  1  0  0  0  0
  6  7  2  0  0  0  0
  6 12  1  0  0  0  0
  7  8  1  0  0  0  0
  8  9  1  0  0  0  0
  8 10  2  0  0  0  0
 10 11  1  0  0  0  0
 11 12  2  0  0  0  0
 13 14  2  0  0  0  0
 15 16  2  0  0  0  0
 16 17  1  0  0  0  0
 17 18  2  0  0  0  0
M  END
>  <name>
Clc1c([C@H]([N;amide]c2cc(F)cnc2)[C;amide]=O)cccc1

>  <apo>
2

>  <freq>
1

>  <freq0>
0

>  <freq1>
1

>  <freqA>
0.99887151

>  <a_count>
28

$$$$

  MOE2015           2D

 18 19  0  0  0  0  0  0  0  0999 V2000
    3.5690    5.6040    0.0000 Cl  0  0  0  0  0  0  0  0  0  0  0  0
    3.5610    4.1040    0.0000 C   0  0  0  0  0  0  0  0  0  0  0  0
    4.8560    3.3470    0.0000 C   0  0  0  0  0  0  0  0  0  0  0  0
    4.8480    1.8470    0.0000 C   0  0  0  0  0  0  0  0  0  0  0  0
    6.1430    1.0900    0.0000 N   0  0  0  0  0  0  0  0  0  0  0  0
    7.5170    1.6930    0.0000 N   0  0  0  0  0  0  0  0  0  0  0  0
    8.5140    0.5730    0.0000 C   0  0  0  0  0  0  0  0  0  0  0  0
   10.0070    0.7220    0.0000 C   0  0  0  0  0  0  0  0  0  0  0  0
    7.7580   -0.7220    0.0000 C   0  0  0  0  0  0  0  0  0  0  0  0
    6.2920   -0.4020    0.0000 C   0  0  0  0  0  0  0  0  0  0  0  0
    3.5450    1.1040    0.0000 C   0  0  0  0  0  0  0  0  0  0  0  0
    3.5370   -0.3960    0.0000 C   0  0  0  0  0  0  0  0  0  0  0  0
    2.2340   -1.1390    0.0000 C   0  0  0  0  0  0  0  0  0  0  0  0
    1.4910    0.1640    0.0000 F   0  0  0  0  0  0  0  0  0  0  0  0
    2.9770   -2.4420    0.0000 F   0  0  0  0  0  0  0  0  0  0  0  0
    0.9310   -1.8820    0.0000 F   0  0  0  0  0  0  0  0  0  0  0  0
    2.2500    1.8610    0.0000 C   0  0  0  0  0  0  0  0  0  0  0  0
    2.2580    3.3610    0.0000 C   0  0  0  0  0  0  0  0  0  0  0  0
  1  2  1  0  0  0  0
  2  3  1  0  0  0  0
  2 18  2  0  0  0  0
  3  4  2  0  0  0  0
  4  5  1  0  0  0  0
  4 11  1  0  0  0  0
  5  6  1  0  0  0  0
  5 10  1  0  0  0  0
  6  7  2  0  0  0  0
  7  8  1  0  0  0  0
  7  9  1  0  0  0  0
  9 10  2  0  0  0  0
 11 12  1  0  0  0  0
 11 17  2  0  0  0  0
 12 13  1  0  0  0  0
 13 14  1  0  0  0  0
 13 15  1  0  0  0  0
 13 16  1  0  0  0  0
 17 18  1  0  0  0  0
M  END
>  <name>
Clc1cc(-n2nc(C)cc2)c([C;ether]C(F)(F)F)cc1

>  <apo>
1

>  <freq>
1

>  <freq0>
0

>  <freq1>
1

>  <freqA>
0.99887151

>  <a_count>
28

$$$$

  MOE2015           2D

 16 18  0  0  0  0  0  0  0  0999 V2000
    9.9250   -2.4770    0.0000 Cl  0  0  0  0  0  0  0  0  0  0  0  0
    8.6010   -1.7720    0.0000 C   0  0  0  0  0  0  0  0  0  0  0  0
    7.3290   -2.5660    0.0000 C   0  0  0  0  0  0  0  0  0  0  0  0
    6.0040   -1.8620    0.0000 C   0  0  0  0  0  0  0  0  0  0  0  0
    4.8650   -2.8370    0.0000 N   0  0  0  0  0  0  0  0  0  0  0  0
    3.3920   -2.5530    0.0000 C   0  0  0  0  0  0  0  0  0  0  0  0
    2.6950   -1.2250    0.0000 C   0  0  0  0  0  0  0  0  0  0  0  0
    1.1970   -1.1640    0.0000 C   0  0  0  0  0  0  0  0  0  0  0  0
    0.3950   -2.4320    0.0000 C   0  0  0  0  0  0  0  0  0  0  0  0
    1.0910   -3.7600    0.0000 C   0  0  0  0  0  0  0  0  0  0  0  0
    2.5900   -3.8210    0.0000 C   0  0  0  0  0  0  0  0  0  0  0  0
    3.2990    0.1490    0.0000 C   0  0  0  0  0  0  0  0  0  0  0  0
    4.7490    0.5320    0.0000 C   0  0  0  0  0  0  0  0  0  0  0  0
    5.9530   -0.3620    0.0000 C   0  0  0  0  0  0  0  0  0  0  0  0
    7.2250    0.4320    0.0000 C   0  0  0  0  0  0  0  0  0  0  0  0
    8.5490   -0.2730    0.0000 C   0  0  0  0  0  0  0  0  0  0  0  0
  1  2  1  0  0  0  0
  2  3  1  0  0  0  0
  2 16  2  0  0  0  0
  3  4  2  0  0  0  0
  4  5  1  0  0  0  0
  4 14  1  0  0  0  0
  5  6  1  0  0  0  0
  6  7  1  0  0  0  0
  6 11  2  0  0  0  0
  7  8  2  0  0  0  0
  7 12  1  0  0  0  0
  8  9  1  0  0  0  0
  9 10  2  0  0  0  0
 10 11  1  0  0  0  0
 12 13  1  0  0  0  0
 13 14  1  0  0  0  0
 14 15  2  0  0  0  0
 15 16  1  0  0  0  0
M  END
>  <name>
Clc1cc2[N;amine]c3c(cccc3)CCc2cc1

>  <apo>
1

>  <freq>
1

>  <freq0>
0

>  <freq1>
1

>  <freqA>
0.99887151

>  <a_count>
28

$$$$

  MOE2015           2D

 15 16  0  0  1  0  0  0  0  0999 V2000
    9.9000   -0.7470    0.0000 Cl  0  0  0  0  0  0  0  0  0  0  0  0
    8.6010    0.0030    0.0000 C   0  0  0  0  0  0  0  0  0  0  0  0
    7.3020   -0.7470    0.0000 C   0  0  0  0  0  0  0  0  0  0  0  0
    6.0030    0.0030    0.0000 C   0  0  0  0  0  0  0  0  0  0  0  0
    6.0030    1.5030    0.0000 C   0  0  0  0  0  0  0  0  0  0  0  0
    4.7040    2.2530    0.0000 C   0  0  2  0  0  0  0  0  0  0  0  0
    4.7040    3.7530    0.0000 C   0  0  0  0  0  0  0  0  0  0  0  0
    3.4050    1.5030    0.0000 C   0  0  0  0  0  0  0  0  0  0  0  0
    3.4050    0.0030    0.0000 C   0  0  0  0  0  0  0  0  0  0  0  0
    2.1060   -0.7470    0.0000 C   0  0  0  0  0  0  0  0  0  0  0  0
    0.8060    0.0030    0.0000 C   0  0  0  0  0  0  0  0  0  0  0  0
    0.8060    1.5030    0.0000 C   0  0  0  0  0  0  0  0  0  0  0  0
    2.1060    2.2530    0.0000 C   0  0  0  0  0  0  0  0  0  0  0  0
    7.3020    2.2530    0.0000 C   0  0  0  0  0  0  0  0  0  0  0  0
    8.6010    1.5030    0.0000 C   0  0  0  0  0  0  0  0  0  0  0  0
  1  2  1  0  0  0  0
  2  3  1  0  0  0  0
  2 15  2  0  0  0  0
  3  4  2  0  0  0  0
  4  5  1  0  0  0  0
  5  6  1  0  0  0  0
  5 14  2  0  0  0  0
  6  7  1  1  0  0  0
  6  8  1  0  0  0  0
  8  9  1  0  0  0  0
  8 13  2  0  0  0  0
  9 10  2  0  0  0  0
 10 11  1  0  0  0  0
 11 12  2  0  0  0  0
 12 13  1  0  0  0  0
 14 15  1  0  0  0  0
M  END
>  <name>
Clc1ccc([C@H;ether](C)c2ccccc2)cc1

>  <apo>
1

>  <freq>
1

>  <freq0>
0

>  <freq1>
1

>  <freqA>
0.99887151

>  <a_count>
28

$$$$

  MOE2015           2D

 17 18  0  0  0  0  0  0  0  0999 V2000
    0.1980    2.8790    0.0000 F   0  0  0  0  0  0  0  0  0  0  0  0
    1.4970    2.1290    0.0000 C   0  0  0  0  0  0  0  0  0  0  0  0
    1.4970    0.6290    0.0000 C   0  0  0  0  0  0  0  0  0  0  0  0
    0.1980   -0.1210    0.0000 N   0  0  0  0  0  0  0  0  0  0  0  0
    2.7960   -0.1210    0.0000 C   0  0  0  0  0  0  0  0  0  0  0  0
    4.0950    0.6290    0.0000 C   0  0  0  0  0  0  0  0  0  0  0  0
    5.3940   -0.1210    0.0000 C   0  0  0  0  0  0  0  0  0  0  0  0
    6.6930    0.6290    0.0000 C   0  0  0  0  0  0  0  0  0  0  0  0
    7.9920   -0.1210    0.0000 C   0  0  0  0  0  0  0  0  0  0  0  0
    9.2910    0.6290    0.0000 C   0  0  0  0  0  0  0  0  0  0  0  0
   10.5900   -0.1210    0.0000 C   0  0  0  0  0  0  0  0  0  0  0  0
   11.8890   -0.8710    0.0000 N   0  0  0  0  0  0  0  0  0  0  0  0
    9.2910    2.1290    0.0000 C   0  0  0  0  0  0  0  0  0  0  0  0
    7.9920    2.8790    0.0000 C   0  0  0  0  0  0  0  0  0  0  0  0
    6.6930    2.1290    0.0000 C   0  0  0  0  0  0  0  0  0  0  0  0
    4.0950    2.1290    0.0000 C   0  0  0  0  0  0  0  0  0  0  0  0
    2.7960    2.8790    0.0000 C   0  0  0  0  0  0  0  0  0  0  0  0
  1  2  1  0  0  0  0
  2  3  1  0  0  0  0
  2 17  2  0  0  0  0
  3  4  1  0  0  0  0
  3  5  2  0  0  0  0
  5  6  1  0  0  0  0
  6  7  1  0  0  0  0
  6 16  2  0  0  0  0
  7  8  1  0  0  0  0
  8  9  1  0  0  0  0
  8 15  2  0  0  0  0
  9 10  2  0  0  0  0
 10 11  1  0  0  0  0
 10 13  1  0  0  0  0
 11 12  3  0  0  0  0
 13 14  2  0  0  0  0
 14 15  1  0  0  0  0
 16 17  1  0  0  0  0
M  END
>  <name>
Fc1c([N;amide])cc([C;amine]c2cc(C#N)ccc2)cc1

>  <apo>
2

>  <freq>
1

>  <freq0>
0

>  <freq1>
1

>  <freqA>
0.99887151

>  <a_count>
28

$$$$

  MOE2015           2D

 17 17  0  0  1  0  0  0  0  0999 V2000
    0.3630    4.4900    0.0000 I   0  0  0  0  0  0  0  0  0  0  0  0
    0.3630    2.9900    0.0000 C   0  0  0  0  0  0  0  0  0  0  0  0
    1.6620    2.2400    0.0000 C   0  0  0  0  0  0  0  0  0  0  0  0
    2.9610    2.9900    0.0000 N   0  0  0  0  0  0  0  0  0  0  0  0
    4.2600    2.2400    0.0000 C   0  0  0  0  0  0  0  0  0  0  0  0
    5.5590    2.9900    0.0000 C   0  0  3  0  0  0  0  0  0  0  0  0
    6.8580    2.2400    0.0000 C   0  0  0  0  0  0  0  0  0  0  0  0
    6.8580    0.7400    0.0000 O   0  0  0  0  0  0  0  0  0  0  0  0
    8.1580    2.9900    0.0000 O   0  0  0  0  0  0  0  0  0  0  0  0
    5.5590    4.4900    0.0000 C   0  0  0  0  0  0  0  0  0  0  0  0
    1.6620    0.7400    0.0000 C   0  0  0  0  0  0  0  0  0  0  0  0
    2.9610   -0.0100    0.0000 I   0  0  0  0  0  0  0  0  0  0  0  0
    0.3630   -0.0100    0.0000 C   0  0  0  0  0  0  0  0  0  0  0  0
   -0.9360    0.7400    0.0000 C   0  0  0  0  0  0  0  0  0  0  0  0
   -2.2350   -0.0100    0.0000 I   0  0  0  0  0  0  0  0  0  0  0  0
   -0.9360    2.2400    0.0000 C   0  0  0  0  0  0  0  0  0  0  0  0
   -2.2350    2.9900    0.0000 N   0  0  0  0  0  0  0  0  0  0  0  0
  1  2  1  0  0  0  0
  2  3  1  0  0  0  0
  2 16  2  0  0  0  0
  3  4  1  0  0  0  0
  3 11  2  0  0  0  0
  4  5  1  0  0  0  0
  5  6  1  0  0  0  0
  6  7  1  0  0  0  0
  6 10  1  0  0  0  0
  7  8  2  0  0  0  0
  7  9  1  0  0  0  0
 11 12  1  0  0  0  0
 11 13  1  0  0  0  0
 13 14  2  0  0  0  0
 14 15  1  0  0  0  0
 14 16  1  0  0  0  0
 16 17  1  0  0  0  0
M  END
>  <name>
Ic1c([N;amide]CC(C(=O)O)C)c(I)cc(I)c1N

>  <apo>
1

>  <freq>
1

>  <freq0>
0

>  <freq1>
1

>  <freqA>
0.99887151

>  <a_count>
28

$$$$

  MOE2015           2D

 15 17  0  0  1  0  0  0  0  0999 V2000
   -0.3520   -2.2830    0.0000 N   0  0  0  0  0  0  0  0  0  0  0  0
    0.9470   -1.5330    0.0000 C   0  0  0  0  0  0  0  0  0  0  0  0
    0.9470   -0.0330    0.0000 N   0  0  0  0  0  0  0  0  0  0  0  0
    2.2460    0.7170    0.0000 C   0  0  0  0  0  0  0  0  0  0  0  0
    3.5450   -0.0330    0.0000 C   0  0  0  0  0  0  0  0  0  0  0  0
    3.5450   -1.5330    0.0000 N   0  0  0  0  0  0  0  0  0  0  0  0
    4.6600   -2.5370    0.0000 C   0  0  0  0  0  0  0  0  0  0  0  0
    6.1270   -2.2250    0.0000 C   0  0  1  0  0  0  0  0  0  0  0  0
    7.2420   -3.2290    0.0000 N   0  0  0  0  0  0  0  0  0  0  0  0
    8.5410   -2.4790    0.0000 C   0  0  0  0  0  0  0  0  0  0  0  0
    8.2290   -1.0120    0.0000 C   0  0  0  0  0  0  0  0  0  0  0  0
    6.7370   -0.8550    0.0000 C   0  0  0  0  0  0  0  0  0  0  0  0
    4.0500   -3.9070    0.0000 N   0  0  0  0  0  0  0  0  0  0  0  0
    2.5580   -3.7500    0.0000 C   0  0  0  0  0  0  0  0  0  0  0  0
    2.2460   -2.2830    0.0000 C   0  0  0  0  0  0  0  0  0  0  0  0
  1  2  1  0  0  0  0
  2  3  2  0  0  0  0
  2 15  1  0  0  0  0
  3  4  1  0  0  0  0
  4  5  2  0  0  0  0
  5  6  1  0  0  0  0
  6  7  1  0  0  0  0
  6 15  1  0  0  0  0
  8  7  1  6  0  0  0
  7 13  2  0  0  0  0
  8  9  1  0  0  0  0
  8 12  1  0  0  0  0
  9 10  1  0  0  0  0
 10 11  1  0  0  0  0
 11 12  1  0  0  0  0
 13 14  1  0  0  0  0
 14 15  2  0  0  0  0
M  END
>  <name>
NC1=NC=Cn2c([C@H]3[N;amide]CCC3)n[c;biphenyl]c12

>  <apo>
2

>  <freq>
1

>  <freq0>
0

>  <freq1>
1

>  <freqA>
0.99887151

>  <a_count>
28

$$$$

  MOE2015           2D

 12 12  0  0  0  0  0  0  0  0999 V2000
    1.3130    2.2730    0.0000 O   0  0  0  0  0  0  0  0  0  0  0  0
    2.0620    0.9740    0.0000 C   0  0  0  0  0  0  0  0  0  0  0  0
   -0.1870    2.2730    0.0000 C   0  0  0  0  0  0  0  0  0  0  0  0
   -0.9370    3.5720    0.0000 C   0  0  0  0  0  0  0  0  0  0  0  0
   -0.1870    4.8710    0.0000 C   0  0  0  0  0  0  0  0  0  0  0  0
   -2.4370    3.5720    0.0000 C   0  0  0  0  0  0  0  0  0  0  0  0
   -3.1870    4.8710    0.0000 C   0  0  0  0  0  0  0  0  0  0  0  0
   -3.1870    2.2730    0.0000 C   0  0  0  0  0  0  0  0  0  0  0  0
   -4.6880    2.2730    0.0000 C   0  0  0  0  0  0  0  0  0  0  0  0
   -2.4380    0.9740    0.0000 C   0  0  0  0  0  0  0  0  0  0  0  0
   -3.1880   -0.3250    0.0000 C   0  0  0  0  0  0  0  0  0  0  0  0
   -0.9370    0.9740    0.0000 C   0  0  0  0  0  0  0  0  0  0  0  0
  1  2  1  0  0  0  0
  1  3  1  0  0  0  0
  3  4  1  0  0  0  0
  3 12  2  0  0  0  0
  4  5  1  0  0  0  0
  4  6  2  0  0  0  0
  6  7  1  0  0  0  0
  6  8  1  0  0  0  0
  8  9  1  0  0  0  0
  8 10  2  0  0  0  0
 10 11  1  0  0  0  0
 10 12  1  0  0  0  0
M  END
>  <name>
O(C)c1c(C)c(C)c([C;olefin])c(C)c1

>  <apo>
1

>  <freq>
1

>  <freq0>
0

>  <freq1>
1

>  <freqA>
0.99887151

>  <a_count>
28

$$$$

  MOE2015           2D

 17 18  0  0  0  0  0  0  0  0999 V2000
   -5.6340    3.3430    0.0000 O   0  0  0  0  0  0  0  0  0  0  0  0
   -6.9330    4.0930    0.0000 C   0  0  0  0  0  0  0  0  0  0  0  0
   -5.6340    1.8430    0.0000 C   0  0  0  0  0  0  0  0  0  0  0  0
   -4.3350    1.0930    0.0000 C   0  0  0  0  0  0  0  0  0  0  0  0
   -3.0350    1.8430    0.0000 O   0  0  0  0  0  0  0  0  0  0  0  0
   -1.7360    1.0930    0.0000 C   0  0  0  0  0  0  0  0  0  0  0  0
   -1.7360   -0.4070    0.0000 C   0  0  0  0  0  0  0  0  0  0  0  0
   -3.0350   -1.1570    0.0000 O   0  0  0  0  0  0  0  0  0  0  0  0
   -0.4370   -1.1570    0.0000 N   0  0  0  0  0  0  0  0  0  0  0  0
    0.8620   -0.4070    0.0000 C   0  0  0  0  0  0  0  0  0  0  0  0
    0.8620    1.0930    0.0000 N   0  0  0  0  0  0  0  0  0  0  0  0
   -0.4370    1.8430    0.0000 C   0  0  0  0  0  0  0  0  0  0  0  0
   -0.4370    3.3430    0.0000 N   0  0  0  0  0  0  0  0  0  0  0  0
   -4.3350   -0.4070    0.0000 C   0  0  0  0  0  0  0  0  0  0  0  0
   -5.6340   -1.1570    0.0000 C   0  0  0  0  0  0  0  0  0  0  0  0
   -6.9330   -0.4070    0.0000 C   0  0  0  0  0  0  0  0  0  0  0  0
   -6.9330    1.0930    0.0000 C   0  0  0  0  0  0  0  0  0  0  0  0
  1  2  1  0  0  0  0
  1  3  1  0  0  0  0
  3  4  1  0  0  0  0
  3 17  2  0  0  0  0
  4  5  1  0  0  0  0
  4 14  2  0  0  0  0
  5  6  1  0  0  0  0
  6  7  1  0  0  0  0
  6 12  2  0  0  0  0
  7  8  1  0  0  0  0
  7  9  2  0  0  0  0
  9 10  1  0  0  0  0
 10 11  2  0  0  0  0
 11 12  1  0  0  0  0
 12 13  1  0  0  0  0
 14 15  1  0  0  0  0
 15 16  2  0  0  0  0
 16 17  1  0  0  0  0
M  END
>  <name>
O(C)c1c(Oc2c([O;ether])n[c;biphenyl]nc2[N;so2amide])cccc1

>  <apo>
3

>  <freq>
1

>  <freq0>
0

>  <freq1>
1

>  <freqA>
0.99887151

>  <a_count>
28

$$$$

  MOE2015           2D

 14 15  0  0  0  0  0  0  0  0999 V2000
   -5.7710   -0.0270    0.0000 O   0  0  0  0  0  0  0  0  0  0  0  0
   -7.2710   -0.0420    0.0000 C   0  0  0  0  0  0  0  0  0  0  0  0
   -5.0340    1.2790    0.0000 C   0  0  0  0  0  0  0  0  0  0  0  0
   -3.5340    1.2930    0.0000 C   0  0  0  0  0  0  0  0  0  0  0  0
   -2.7960    2.5990    0.0000 C   0  0  0  0  0  0  0  0  0  0  0  0
   -1.3320    2.9250    0.0000 C   0  0  0  0  0  0  0  0  0  0  0  0
   -0.2080    1.9320    0.0000 C   0  0  0  0  0  0  0  0  0  0  0  0
    1.2150    2.4090    0.0000 C   0  0  0  0  0  0  0  0  0  0  0  0
    2.3390    1.4160    0.0000 N   0  0  0  0  0  0  0  0  0  0  0  0
   -1.1890    4.4180    0.0000 C   0  0  0  0  0  0  0  0  0  0  0  0
   -2.5650    5.0150    0.0000 N   0  0  0  0  0  0  0  0  0  0  0  0
   -3.5580    3.8910    0.0000 C   0  0  0  0  0  0  0  0  0  0  0  0
   -5.0580    3.8770    0.0000 C   0  0  0  0  0  0  0  0  0  0  0  0
   -5.7960    2.5710    0.0000 C   0  0  0  0  0  0  0  0  0  0  0  0
  1  2  1  0  0  0  0
  1  3  1  0  0  0  0
  3  4  1  0  0  0  0
  3 14  2  0  0  0  0
  4  5  2  0  0  0  0
  5  6  1  0  0  0  0
  5 12  1  0  0  0  0
  6  7  1  0  0  0  0
  6 10  2  0  0  0  0
  7  8  1  0  0  0  0
  8  9  1  0  0  0  0
 10 11  1  0  0  0  0
 11 12  1  0  0  0  0
 12 13  2  0  0  0  0
 13 14  1  0  0  0  0
M  END
>  <name>
O(C)c1cc2c(CC[N;amide])c[nH]c2cc1

>  <apo>
1

>  <freq>
1

>  <freq0>
0

>  <freq1>
1

>  <freqA>
0.99887151

>  <a_count>
28

$$$$

  MOE2015           2D

 12 12  0  0  0  0  0  0  0  0999 V2000
    1.2310    4.5940    0.0000 O   0  0  0  0  0  0  0  0  0  0  0  0
    2.5300    3.8440    0.0000 C   0  0  0  0  0  0  0  0  0  0  0  0
   -0.0680    3.8440    0.0000 C   0  0  0  0  0  0  0  0  0  0  0  0
   -1.3670    4.5940    0.0000 C   0  0  0  0  0  0  0  0  0  0  0  0
   -2.6660    3.8440    0.0000 C   0  0  0  0  0  0  0  0  0  0  0  0
   -2.6660    2.3440    0.0000 C   0  0  0  0  0  0  0  0  0  0  0  0
   -3.9650    1.5940    0.0000 C   0  0  0  0  0  0  0  0  0  0  0  0
   -5.2640    2.3440    0.0000 C   0  0  0  0  0  0  0  0  0  0  0  0
   -6.5630    1.5940    0.0000 C   0  0  0  0  0  0  0  0  0  0  0  0
   -5.2640    3.8440    0.0000 C   0  0  0  0  0  0  0  0  0  0  0  0
   -1.3670    1.5940    0.0000 C   0  0  0  0  0  0  0  0  0  0  0  0
   -0.0680    2.3440    0.0000 C   0  0  0  0  0  0  0  0  0  0  0  0
  1  2  1  0  0  0  0
  1  3  1  0  0  0  0
  3  4  1  0  0  0  0
  3 12  2  0  0  0  0
  4  5  2  0  0  0  0
  5  6  1  0  0  0  0
  6  7  1  0  0  0  0
  6 11  2  0  0  0  0
  7  8  1  0  0  0  0
  8  9  1  0  0  0  0
  8 10  1  0  0  0  0
 11 12  1  0  0  0  0
M  END
>  <name>
O(C)c1ccc(C[C;amine](C)C)cc1

>  <apo>
1

>  <freq>
1

>  <freq0>
0

>  <freq1>
1

>  <freqA>
0.99887151

>  <a_count>
28

$$$$

  MOE2015           2D

 18 20  0  0  0  0  0  0  0  0999 V2000
    2.1700   -0.5900    0.0000 O   0  0  0  0  0  0  0  0  0  0  0  0
    0.8770    0.1700    0.0000 C   0  0  0  0  0  0  0  0  0  0  0  0
   -0.4980   -0.4300    0.0000 C   0  0  0  0  0  0  0  0  0  0  0  0
   -1.4930    0.6920    0.0000 C   0  0  0  0  0  0  0  0  0  0  0  0
   -0.7340    1.9860    0.0000 S   0  0  0  0  0  0  0  0  0  0  0  0
    0.7310    1.6630    0.0000 C   0  0  0  0  0  0  0  0  0  0  0  0
   -2.9630    0.3920    0.0000 C   0  0  0  0  0  0  0  0  0  0  0  0
   -3.4380   -1.0310    0.0000 C   0  0  0  0  0  0  0  0  0  0  0  0
   -4.9070   -1.3320    0.0000 O   0  0  0  0  0  0  0  0  0  0  0  0
   -2.4420   -2.1540    0.0000 C   0  0  0  0  0  0  0  0  0  0  0  0
   -0.9730   -1.8530    0.0000 C   0  0  0  0  0  0  0  0  0  0  0  0
    3.4750    0.1500    0.0000 C   0  0  0  0  0  0  0  0  0  0  0  0
    4.7680   -0.6100    0.0000 C   0  0  0  0  0  0  0  0  0  0  0  0
    6.0730    0.1300    0.0000 C   0  0  0  0  0  0  0  0  0  0  0  0
    6.0840    1.6300    0.0000 C   0  0  0  0  0  0  0  0  0  0  0  0
    7.3890    2.3700    0.0000 O   0  0  0  0  0  0  0  0  0  0  0  0
    4.7910    2.3900    0.0000 C   0  0  0  0  0  0  0  0  0  0  0  0
    3.4860    1.6500    0.0000 C   0  0  0  0  0  0  0  0  0  0  0  0
  1  2  1  0  0  0  0
  1 12  1  0  0  0  0
  2  3  1  0  0  0  0
  2  6  2  0  0  0  0
  3  4  1  0  0  0  0
  3 11  2  0  0  0  0
  4  5  1  0  0  0  0
  4  7  2  0  0  0  0
  5  6  1  0  0  0  0
  7  8  1  0  0  0  0
  8  9  1  0  0  0  0
  8 10  2  0  0  0  0
 10 11  1  0  0  0  0
 12 13  1  0  0  0  0
 12 18  2  0  0  0  0
 13 14  2  0  0  0  0
 14 15  1  0  0  0  0
 15 16  1  0  0  0  0
 15 17  2  0  0  0  0
 17 18  1  0  0  0  0
M  END
>  <name>
O(c1c2c(s[c;biphenyl]1)cc(O)cc2)c1ccc([O;ether])cc1

>  <apo>
2

>  <freq>
1

>  <freq0>
0

>  <freq1>
1

>  <freqA>
0.99887151

>  <a_count>
28

$$$$

  MOE2015           2D

 17 19  0  0  0  0  0  0  0  0999 V2000
   10.0460    2.6920    0.0000 O   0  0  0  0  0  0  0  0  0  0  0  0
    8.7470    1.9420    0.0000 C   0  0  0  0  0  0  0  0  0  0  0  0
    8.7470    0.4420    0.0000 C   0  0  0  0  0  0  0  0  0  0  0  0
    7.4480    2.6920    0.0000 C   0  0  0  0  0  0  0  0  0  0  0  0
    6.1490    1.9420    0.0000 C   0  0  0  0  0  0  0  0  0  0  0  0
    4.8500    2.6920    0.0000 C   0  0  0  0  0  0  0  0  0  0  0  0
    3.5510    1.9420    0.0000 N   0  0  0  0  0  0  0  0  0  0  0  0
    2.2520    2.6920    0.0000 C   0  0  0  0  0  0  0  0  0  0  0  0
    2.2520    4.1920    0.0000 C   0  0  0  0  0  0  0  0  0  0  0  0
    3.5510    4.9420    0.0000 S   0  0  0  0  0  0  0  0  0  0  0  0
    4.8500    4.1920    0.0000 C   0  0  0  0  0  0  0  0  0  0  0  0
    6.1490    4.9420    0.0000 C   0  0  0  0  0  0  0  0  0  0  0  0
    7.4480    4.1920    0.0000 C   0  0  0  0  0  0  0  0  0  0  0  0
    0.9530    4.9420    0.0000 C   0  0  0  0  0  0  0  0  0  0  0  0
   -0.3460    4.1920    0.0000 C   0  0  0  0  0  0  0  0  0  0  0  0
   -0.3460    2.6920    0.0000 C   0  0  0  0  0  0  0  0  0  0  0  0
    0.9530    1.9420    0.0000 C   0  0  0  0  0  0  0  0  0  0  0  0
  1  2  2  0  0  0  0
  2  3  1  0  0  0  0
  2  4  1  0  0  0  0
  4  5  1  0  0  0  0
  4 13  2  0  0  0  0
  5  6  2  0  0  0  0
  6  7  1  0  0  0  0
  6 11  1  0  0  0  0
  7  8  1  0  0  0  0
  8  9  1  0  0  0  0
  8 17  2  0  0  0  0
  9 10  1  0  0  0  0
  9 14  2  0  0  0  0
 10 11  1  0  0  0  0
 11 12  2  0  0  0  0
 12 13  1  0  0  0  0
 14 15  1  0  0  0  0
 15 16  2  0  0  0  0
 16 17  1  0  0  0  0
M  END
>  <name>
O=C(C)c1cc2[N;amine]c3c(Sc2cc1)cccc3

>  <apo>
1

>  <freq>
1

>  <freq0>
0

>  <freq1>
1

>  <freqA>
0.99887151

>  <a_count>
28

$$$$

  MOE2015           2D

 14 14  0  0  1  0  0  0  0  0999 V2000
   -0.7240    1.5590    0.0000 O   0  0  0  0  0  0  0  0  0  0  0  0
    0.6330    0.9180    0.0000 C   0  0  0  0  0  0  0  0  0  0  0  0
    0.7560   -0.5770    0.0000 O   0  0  0  0  0  0  0  0  0  0  0  0
    1.8660    1.7720    0.0000 C   0  0  1  0  0  0  0  0  0  0  0  0
    1.9000    3.2720    0.0000 C   0  0  0  0  0  0  0  0  0  0  0  0
    0.4110    3.4560    0.0000 C   0  0  0  0  0  0  0  0  0  0  0  0
    1.3760    4.6770    0.0000 C   0  0  0  0  0  0  0  0  0  0  0  0
    3.3360    3.7030    0.0000 S   0  0  0  0  0  0  0  0  0  0  0  0
    4.1900    2.4700    0.0000 C   0  0  2  0  0  0  0  0  0  0  0  0
    5.6900    2.4360    0.0000 C   0  0  3  0  0  0  0  0  0  0  0  0
    6.4110    1.1200    0.0000 N   0  0  0  0  0  0  0  0  0  0  0  0
    6.4690    3.7170    0.0000 C   0  0  0  0  0  0  0  0  0  0  0  0
    7.9690    3.6840    0.0000 O   0  0  0  0  0  0  0  0  0  0  0  0
    3.2820    1.2760    0.0000 N   0  0  0  0  0  0  0  0  0  0  0  0
  1  2  2  0  0  0  0
  2  3  1  0  0  0  0
  4  2  1  1  0  0  0
  4  5  1  0  0  0  0
  4 14  1  0  0  0  0
  5  6  1  0  0  0  0
  5  7  1  0  0  0  0
  5  8  1  0  0  0  0
  8  9  1  0  0  0  0
  9 10  1  6  0  0  0
  9 14  1  0  0  0  0
 10 11  1  0  0  0  0
 10 12  1  0  0  0  0
 12 13  2  0  0  0  0
M  END
>  <name>
O=C(O)[C@H]1C(C)(C)S[C@H](C([N;amide])[C;amide]=O)N1

>  <apo>
2

>  <freq>
1

>  <freq0>
0

>  <freq1>
1

>  <freqA>
0.99887151

>  <a_count>
28

$$$$

  MOE2015           2D

 13 13  0  0  1  0  0  0  0  0999 V2000
    8.3920    0.0000    0.0000 O   0  0  0  0  0  0  0  0  0  0  0  0
    6.8920    0.0000    0.0000 C   0  0  0  0  0  0  0  0  0  0  0  0
    6.1420    1.2990    0.0000 O   0  0  0  0  0  0  0  0  0  0  0  0
    4.6420    1.2990    0.0000 C   0  0  2  0  0  0  0  0  0  0  0  0
    3.8920    2.5980    0.0000 C   0  0  2  0  0  0  0  0  0  0  0  0
    4.6420    3.8970    0.0000 O   0  0  0  0  0  0  0  0  0  0  0  0
    2.3920    2.5980    0.0000 C   0  0  0  0  0  0  0  0  0  0  0  0
    1.6420    1.2990    0.0000 O   0  0  0  0  0  0  0  0  0  0  0  0
    2.3920    0.0000    0.0000 C   0  0  0  0  0  0  0  0  0  0  0  0
    2.3920   -1.5000    0.0000 C   0  0  0  0  0  0  0  0  0  0  0  0
    1.0930   -0.7500    0.0000 C   0  0  0  0  0  0  0  0  0  0  0  0
    3.8920    0.0000    0.0000 C   0  0  0  0  0  0  0  0  0  0  0  0
    6.1420   -1.2990    0.0000 N   0  0  0  0  0  0  0  0  0  0  0  0
  1  2  2  0  0  0  0
  2  3  1  0  0  0  0
  2 13  1  0  0  0  0
  4  3  1  1  0  0  0
  4  5  1  0  0  0  0
  4 12  1  0  0  0  0
  5  6  1  1  0  0  0
  5  7  1  0  0  0  0
  7  8  1  0  0  0  0
  8  9  1  0  0  0  0
  9 10  1  0  0  0  0
  9 11  1  0  0  0  0
  9 12  1  0  0  0  0
M  END
>  <name>
O=C(O[C@@H]1[C@H](O)[C;ether]OC(C)(C)[C;ether]1)N

>  <apo>
2

>  <freq>
1

>  <freq0>
0

>  <freq1>
1

>  <freqA>
0.99887151

>  <a_count>
28

$$$$

  MOE2015           2D

 13 15  0  0  1  0  0  0  0  0999 V2000
   -0.0450    1.2510    0.0000 O   0  0  0  0  0  0  0  0  0  0  0  0
    1.3870    0.8040    0.0000 C   0  0  0  0  0  0  0  0  0  0  0  0
    2.5380    1.1100    0.0000 C   0  0  0  0  0  0  0  0  0  0  0  0
    3.3040   -0.2330    0.0000 C   0  0  0  0  0  0  0  0  0  0  0  0
    4.4940   -0.7400    0.0000 C   0  0  1  0  0  0  0  0  0  0  0  0
    3.6770    0.6880    0.0000 N   0  0  0  0  0  0  0  0  0  0  0  0
    4.4940    2.1090    0.0000 C   0  0  2  0  0  0  0  0  0  0  0  0
    6.1470    2.1060    0.0000 C   0  0  0  0  0  0  0  0  0  0  0  0
    6.9560    0.6800    0.0000 C   0  0  0  0  0  0  0  0  0  0  0  0
    8.4560    0.6720    0.0000 O   0  0  0  0  0  0  0  0  0  0  0  0
    6.1350   -0.7320    0.0000 C   0  0  0  0  0  0  0  0  0  0  0  0
    3.3010    2.4140    0.0000 C   0  0  0  0  0  0  0  0  0  0  0  0
    2.1360   -0.0770    0.0000 C   0  0  0  0  0  0  0  0  0  0  0  0
  1  2  2  0  0  0  0
  2  3  1  0  0  0  0
  2 13  1  0  0  0  0
  3  4  1  0  0  0  0
  3 12  1  0  0  0  0
  5  4  1  1  0  0  0
  5  6  1  0  0  0  0
  5 11  1  0  0  0  0
  6  7  1  0  0  0  0
  6 13  1  0  0  0  0
  7  8  1  0  0  0  0
  7 12  1  1  0  0  0
  8  9  1  0  0  0  0
  9 10  1  0  0  0  0
  9 11  1  0  0  0  0
M  END
>  <name>
O=C1C2C[C@H]3N([C@H](CC([O;ester])C3)C2)C1

>  <apo>
1

>  <freq>
1

>  <freq0>
0

>  <freq1>
1

>  <freqA>
0.99887151

>  <a_count>
28

$$$$

  MOE2015           2D

 14 15  0  0  1  0  0  0  0  0999 V2000
    1.6000    4.1930    0.0000 O   0  0  0  0  0  0  0  0  0  0  0  0
    1.1190    2.7720    0.0000 C   0  0  0  0  0  0  0  0  0  0  0  0
    1.9860    1.5480    0.0000 C   0  0  1  0  0  0  0  0  0  0  0  0
    3.4860    1.5300    0.0000 C   0  0  0  0  0  0  0  0  0  0  0  0
    4.2510    2.8190    0.0000 C   0  0  0  0  0  0  0  0  0  0  0  0
    5.7510    2.8010    0.0000 C   0  0  0  0  0  0  0  0  0  0  0  0
    6.4850    1.4930    0.0000 C   0  0  0  0  0  0  0  0  0  0  0  0
    5.7200    0.2030    0.0000 C   0  0  0  0  0  0  0  0  0  0  0  0
    4.2200    0.2220    0.0000 C   0  0  0  0  0  0  0  0  0  0  0  0
    1.0890    0.3450    0.0000 N   0  0  0  0  0  0  0  0  0  0  0  0
   -0.3310    0.8260    0.0000 C   0  0  0  0  0  0  0  0  0  0  0  0
   -1.8300    0.7650    0.0000 C   0  0  0  0  0  0  0  0  0  0  0  0
   -0.9820   -0.5260    0.0000 C   0  0  0  0  0  0  0  0  0  0  0  0
   -0.3130    2.3260    0.0000 N   0  0  0  0  0  0  0  0  0  0  0  0
  1  2  2  0  0  0  0
  2  3  1  0  0  0  0
  2 14  1  0  0  0  0
  3  4  1  1  0  0  0
  3 10  1  0  0  0  0
  4  5  1  0  0  0  0
  4  9  2  0  0  0  0
  5  6  2  0  0  0  0
  6  7  1  0  0  0  0
  7  8  2  0  0  0  0
  8  9  1  0  0  0  0
 10 11  1  0  0  0  0
 11 12  1  0  0  0  0
 11 13  1  0  0  0  0
 11 14  1  0  0  0  0
M  END
>  <name>
O=C1[C@@H](c2ccccc2)NC(C)(C)[N;lactam]1

>  <apo>
1

>  <freq>
1

>  <freq0>
0

>  <freq1>
1

>  <freqA>
0.99887151

>  <a_count>
28

$$$$

  MOE2015           2D

 10  9  0  0  1  0  0  0  0  0999 V2000
    9.1020   -2.4390    0.0000 O   0  0  0  0  0  0  0  0  0  0  0  0
    7.8020   -1.6890    0.0000 C   0  0  0  0  0  0  0  0  0  0  0  0
    6.5030   -2.4390    0.0000 C   0  0  0  0  0  0  0  0  0  0  0  0
    5.2040   -1.6890    0.0000 C   0  0  1  0  0  0  0  0  0  0  0  0
    3.9050   -2.4390    0.0000 C   0  0  0  0  0  0  0  0  0  0  0  0
    2.6060   -1.6890    0.0000 C   0  0  1  0  0  0  0  0  0  0  0  0
    1.3070   -2.4390    0.0000 C   0  0  0  0  0  0  0  0  0  0  0  0
    0.0080   -1.6890    0.0000 C   0  0  0  0  0  0  0  0  0  0  0  0
    2.6060   -0.1890    0.0000 C   0  0  0  0  0  0  0  0  0  0  0  0
    5.2040   -0.1890    0.0000 C   0  0  0  0  0  0  0  0  0  0  0  0
  1  2  2  0  0  0  0
  2  3  1  0  0  0  0
  3  4  1  0  0  0  0
  4  5  1  0  0  0  0
  4 10  1  1  0  0  0
  5  6  1  0  0  0  0
  6  7  1  0  0  0  0
  6  9  1  1  0  0  0
  7  8  1  0  0  0  0
M  END
>  <name>
O=CC[C@@H](C[C@@H]([C;ether][C;olefin])C)[C;ether]

>  <apo>
3

>  <freq>
1

>  <freq0>
0

>  <freq1>
1

>  <freqA>
0.99887151

>  <a_count>
28

$$$$

  MOE2015           2D

 15 16  0  0  1  0  0  0  0  0999 V2000
   11.9140   -3.7690    0.0000 O   0  0  0  0  0  0  0  0  0  0  0  0
   10.6870   -2.9060    0.0000 C   0  0  0  0  0  0  0  0  0  0  0  0
    9.3260   -3.5370    0.0000 N   0  0  0  0  0  0  0  0  0  0  0  0
    8.0990   -2.6750    0.0000 C   0  0  1  0  0  0  0  0  0  0  0  0
    8.2330   -1.1810    0.0000 N   0  0  0  0  0  0  0  0  0  0  0  0
    6.7380   -3.3060    0.0000 C   0  0  0  0  0  0  0  0  0  0  0  0
    5.5110   -2.4430    0.0000 C   0  0  0  0  0  0  0  0  0  0  0  0
    4.0920   -2.9290    0.0000 C   0  0  0  0  0  0  0  0  0  0  0  0
    3.1920   -1.7300    0.0000 C   0  0  0  0  0  0  0  0  0  0  0  0
    4.0540   -0.5020    0.0000 N   0  0  0  0  0  0  0  0  0  0  0  0
    5.4880   -0.9440    0.0000 C   0  0  0  0  0  0  0  0  0  0  0  0
    1.7020   -1.9100    0.0000 C   0  0  0  0  0  0  0  0  0  0  0  0
    1.1140   -3.2890    0.0000 C   0  0  0  0  0  0  0  0  0  0  0  0
    2.0140   -4.4890    0.0000 C   0  0  0  0  0  0  0  0  0  0  0  0
    3.5030   -4.3090    0.0000 C   0  0  0  0  0  0  0  0  0  0  0  0
  1  2  2  0  0  0  0
  2  3  1  0  0  0  0
  3  4  1  0  0  0  0
  4  5  1  6  0  0  0
  4  6  1  0  0  0  0
  6  7  1  0  0  0  0
  7  8  1  0  0  0  0
  7 11  2  0  0  0  0
  8  9  2  0  0  0  0
  8 15  1  0  0  0  0
  9 10  1  0  0  0  0
  9 12  1  0  0  0  0
 10 11  1  0  0  0  0
 12 13  2  0  0  0  0
 13 14  1  0  0  0  0
 14 15  2  0  0  0  0
M  END
>  <name>
O=CN[C@@H]([N;amide])Cc1c2c([nH]c1)cccc2

>  <apo>
1

>  <freq>
1

>  <freq0>
0

>  <freq1>
1

>  <freqA>
0.99887151

>  <a_count>
28

$$$$

  MOE2015           2D

 16 18  0  0  0  0  0  0  0  0999 V2000
   10.4770    1.1320    0.0000 O   0  0  0  0  0  0  0  0  0  0  0  0
    9.0120    0.8120    0.0000 C   0  0  0  0  0  0  0  0  0  0  0  0
    8.0020    1.9210    0.0000 C   0  0  0  0  0  0  0  0  0  0  0  0
    6.5110    1.7550    0.0000 N   0  0  0  0  0  0  0  0  0  0  0  0
    5.8930    3.1220    0.0000 C   0  0  0  0  0  0  0  0  0  0  0  0
    7.0010    4.1320    0.0000 N   0  0  0  0  0  0  0  0  0  0  0  0
    8.3050    3.3900    0.0000 C   0  0  0  0  0  0  0  0  0  0  0  0
    4.4390    3.4910    0.0000 C   0  0  0  0  0  0  0  0  0  0  0  0
    3.2450    2.5840    0.0000 C   0  0  0  0  0  0  0  0  0  0  0  0
    3.2090    1.0840    0.0000 C   0  0  0  0  0  0  0  0  0  0  0  0
    1.8920    0.3650    0.0000 C   0  0  0  0  0  0  0  0  0  0  0  0
    0.6120    1.1460    0.0000 C   0  0  0  0  0  0  0  0  0  0  0  0
    0.6470    2.6450    0.0000 C   0  0  0  0  0  0  0  0  0  0  0  0
    1.9640    3.3640    0.0000 C   0  0  0  0  0  0  0  0  0  0  0  0
    4.3590    0.1190    0.0000 C   0  0  0  0  0  0  0  0  0  0  0  0
    5.8280    0.4190    0.0000 C   0  0  0  0  0  0  0  0  0  0  0  0
  1  2  2  0  0  0  0
  2  3  1  0  0  0  0
  3  4  1  0  0  0  0
  3  7  2  0  0  0  0
  4  5  1  0  0  0  0
  4 16  1  0  0  0  0
  5  6  2  0  0  0  0
  5  8  1  0  0  0  0
  6  7  1  0  0  0  0
  8  9  1  0  0  0  0
  9 10  1  0  0  0  0
  9 14  2  0  0  0  0
 10 11  2  0  0  0  0
 10 15  1  0  0  0  0
 11 12  1  0  0  0  0
 12 13  2  0  0  0  0
 13 14  1  0  0  0  0
 15 16  1  0  0  0  0
M  END
>  <name>
O=Cc1n2c(nc1)[C;olefin]c1c(cccc1)CC2

>  <apo>
1

>  <freq>
1

>  <freq0>
0

>  <freq1>
1

>  <freqA>
0.99887151

>  <a_count>
28

$$$$

  MOE2015           2D

 15 16  0  0  1  0  0  0  0  0999 V2000
   10.7390    2.8770    0.0000 O   0  0  0  0  0  0  0  0  0  0  0  0
    9.4400    2.1270    0.0000 C   0  0  0  0  0  0  0  0  0  0  0  0
    8.1410    2.8770    0.0000 C   0  0  3  0  0  0  0  0  0  0  0  0
    8.1410    4.3770    0.0000 N   0  0  0  0  0  0  0  0  0  0  0  0
    6.8420    2.1270    0.0000 C   0  0  0  0  0  0  0  0  0  0  0  0
    5.5430    2.8770    0.0000 C   0  0  0  0  0  0  0  0  0  0  0  0
    4.2440    2.1270    0.0000 C   0  0  0  0  0  0  0  0  0  0  0  0
    2.9450    2.8770    0.0000 C   0  0  0  0  0  0  0  0  0  0  0  0
    2.9450    4.3770    0.0000 C   0  0  0  0  0  0  0  0  0  0  0  0
    4.2440    5.1270    0.0000 C   0  0  0  0  0  0  0  0  0  0  0  0
    5.5430    4.3770    0.0000 C   0  0  0  0  0  0  0  0  0  0  0  0
    1.6460    5.1270    0.0000 C   0  0  0  0  0  0  0  0  0  0  0  0
    0.3470    4.3770    0.0000 C   0  0  0  0  0  0  0  0  0  0  0  0
    0.3470    2.8770    0.0000 C   0  0  0  0  0  0  0  0  0  0  0  0
    1.6460    2.1270    0.0000 C   0  0  0  0  0  0  0  0  0  0  0  0
  1  2  2  0  0  0  0
  2  3  1  0  0  0  0
  3  4  1  0  0  0  0
  3  5  1  0  0  0  0
  5  6  1  0  0  0  0
  6  7  1  0  0  0  0
  6 11  2  0  0  0  0
  7  8  2  0  0  0  0
  8  9  1  0  0  0  0
  8 15  1  0  0  0  0
  9 10  2  0  0  0  0
  9 12  1  0  0  0  0
 10 11  1  0  0  0  0
 12 13  2  0  0  0  0
 13 14  1  0  0  0  0
 14 15  2  0  0  0  0
M  END
>  <name>
O=[C;amide]C(N)Cc1cc2c(cc1)cccc2

>  <apo>
1

>  <freq>
1

>  <freq0>
0

>  <freq1>
1

>  <freqA>
0.99887151

>  <a_count>
28

$$$$

  MOE2015           2D

 15 15  0  0  0  0  0  0  0  0999 V2000
   -0.3810   -5.6810    0.0000 O   0  0  0  0  0  0  0  0  0  0  0  0
   -0.3810   -4.1810    0.0000 C   0  0  0  0  0  0  0  0  0  0  0  0
    0.9180   -3.4310    0.0000 C   0  0  0  0  0  0  0  0  0  0  0  0
    0.9180   -1.9310    0.0000 C   0  0  0  0  0  0  0  0  0  0  0  0
   -0.3810   -1.1810    0.0000 O   0  0  0  0  0  0  0  0  0  0  0  0
    2.2170   -1.1810    0.0000 C   0  0  0  0  0  0  0  0  0  0  0  0
    2.2170    0.3190    0.0000 O   0  0  0  0  0  0  0  0  0  0  0  0
    3.5160   -1.9310    0.0000 N   0  0  0  0  0  0  0  0  0  0  0  0
    4.8150   -1.1810    0.0000 C   0  0  0  0  0  0  0  0  0  0  0  0
    3.5160   -3.4310    0.0000 C   0  0  0  0  0  0  0  0  0  0  0  0
    4.8150   -4.1810    0.0000 C   0  0  0  0  0  0  0  0  0  0  0  0
    5.5650   -2.8820    0.0000 N   0  0  0  0  0  0  0  0  0  0  0  0
    4.0650   -5.4800    0.0000 C   0  0  0  0  0  0  0  0  0  0  0  0
    6.1140   -4.9310    0.0000 C   0  0  0  0  0  0  0  0  0  0  0  0
    2.2170   -4.1810    0.0000 N   0  0  0  0  0  0  0  0  0  0  0  0
  1  2  2  0  0  0  0
  2  3  1  0  0  0  0
  3  4  2  0  0  0  0
  3 15  1  0  0  0  0
  4  5  1  0  0  0  0
  4  6  1  0  0  0  0
  6  7  2  0  0  0  0
  6  8  1  0  0  0  0
  8  9  1  0  0  0  0
  8 10  1  0  0  0  0
 10 11  1  0  0  0  0
 10 15  2  0  0  0  0
 11 12  1  0  0  0  0
 11 13  1  0  0  0  0
 11 14  1  0  0  0  0
M  END
>  <name>
O=[C;amide]C1=C(O)C(=O)N(C)C(C([N;amide])(C)C)=N1

>  <apo>
2

>  <freq>
1

>  <freq0>
0

>  <freq1>
1

>  <freqA>
0.99887151

>  <a_count>
28

$$$$

  MOE2015           2D

 15 16  0  0  1  0  0  0  0  0999 V2000
   10.7390    2.8770    0.0000 O   0  0  0  0  0  0  0  0  0  0  0  0
    9.4400    2.1270    0.0000 C   0  0  0  0  0  0  0  0  0  0  0  0
    8.1410    2.8770    0.0000 C   0  0  1  0  0  0  0  0  0  0  0  0
    8.1410    4.3770    0.0000 N   0  0  0  0  0  0  0  0  0  0  0  0
    6.8420    2.1270    0.0000 C   0  0  0  0  0  0  0  0  0  0  0  0
    5.5430    2.8770    0.0000 C   0  0  0  0  0  0  0  0  0  0  0  0
    4.2440    2.1270    0.0000 C   0  0  0  0  0  0  0  0  0  0  0  0
    2.9450    2.8770    0.0000 C   0  0  0  0  0  0  0  0  0  0  0  0
    2.9450    4.3770    0.0000 C   0  0  0  0  0  0  0  0  0  0  0  0
    4.2440    5.1270    0.0000 C   0  0  0  0  0  0  0  0  0  0  0  0
    5.5430    4.3770    0.0000 C   0  0  0  0  0  0  0  0  0  0  0  0
    1.6460    5.1270    0.0000 C   0  0  0  0  0  0  0  0  0  0  0  0
    0.3470    4.3770    0.0000 C   0  0  0  0  0  0  0  0  0  0  0  0
    0.3470    2.8770    0.0000 C   0  0  0  0  0  0  0  0  0  0  0  0
    1.6460    2.1270    0.0000 C   0  0  0  0  0  0  0  0  0  0  0  0
  1  2  2  0  0  0  0
  2  3  1  0  0  0  0
  3  4  1  6  0  0  0
  3  5  1  0  0  0  0
  5  6  1  0  0  0  0
  6  7  2  0  0  0  0
  6 11  1  0  0  0  0
  7  8  1  0  0  0  0
  8  9  1  0  0  0  0
  8 15  2  0  0  0  0
  9 10  1  0  0  0  0
  9 12  2  0  0  0  0
 10 11  2  0  0  0  0
 12 13  1  0  0  0  0
 13 14  2  0  0  0  0
 14 15  1  0  0  0  0
M  END
>  <name>
O=[C;amide][C@@H]([N;amide])Cc1cc2c(cc1)cccc2

>  <apo>
2

>  <freq>
1

>  <freq0>
0

>  <freq1>
1

>  <freqA>
0.99887151

>  <a_count>
28

$$$$

  MOE2015           2D

 10  9  0  0  0  0  0  0  0  0999 V2000
   -0.5960   -2.9730    0.0000 O   0  0  0  0  0  0  0  0  0  0  0  0
    0.7030   -2.2230    0.0000 C   0  0  0  0  0  0  0  0  0  0  0  0
    2.0020   -2.9730    0.0000 C   0  0  0  0  0  0  0  0  0  0  0  0
    3.3010   -2.2230    0.0000 C   0  0  0  0  0  0  0  0  0  0  0  0
    4.6000   -2.9730    0.0000 C   0  0  0  0  0  0  0  0  0  0  0  0
    5.9000   -2.2230    0.0000 C   0  0  0  0  0  0  0  0  0  0  0  0
    7.1990   -2.9730    0.0000 C   0  0  0  0  0  0  0  0  0  0  0  0
    8.4980   -2.2230    0.0000 C   0  0  0  0  0  0  0  0  0  0  0  0
    9.7970   -2.9730    0.0000 C   0  0  0  0  0  0  0  0  0  0  0  0
   11.0960   -2.2230    0.0000 C   0  0  0  0  0  0  0  0  0  0  0  0
  1  2  2  0  0  0  0
  2  3  1  0  0  0  0
  3  4  1  0  0  0  0
  4  5  1  0  0  0  0
  5  6  1  0  0  0  0
  6  7  1  0  0  0  0
  7  8  1  0  0  0  0
  8  9  1  0  0  0  0
  9 10  1  0  0  0  0
M  END
>  <name>
O=[C;ester]CCCCCCC[C;olefin]

>  <apo>
2

>  <freq>
1

>  <freq0>
0

>  <freq1>
1

>  <freqA>
0.99887151

>  <a_count>
28

$$$$

  MOE2015           2D

 15 16  0  0  0  0  0  0  0  0999 V2000
    0.0040   -0.0140    0.0000 O   0  0  0  0  0  0  0  0  0  0  0  0
    1.3030    0.7360    0.0000 C   0  0  0  0  0  0  0  0  0  0  0  0
    2.6020   -0.0140    0.0000 C   0  0  0  0  0  0  0  0  0  0  0  0
    3.9010    0.7360    0.0000 C   0  0  0  0  0  0  0  0  0  0  0  0
    5.2000   -0.0140    0.0000 N   0  0  0  0  0  0  0  0  0  0  0  0
    6.4990    0.7360    0.0000 C   0  0  0  0  0  0  0  0  0  0  0  0
    7.7980   -0.0140    0.0000 C   0  0  0  0  0  0  0  0  0  0  0  0
    9.0970    0.7360    0.0000 C   0  0  0  0  0  0  0  0  0  0  0  0
    9.0970    2.2360    0.0000 C   0  0  0  0  0  0  0  0  0  0  0  0
   10.3960    2.9860    0.0000 C   0  0  0  0  0  0  0  0  0  0  0  0
    7.7980    2.9860    0.0000 C   0  0  0  0  0  0  0  0  0  0  0  0
    6.4990    2.2360    0.0000 C   0  0  0  0  0  0  0  0  0  0  0  0
    3.9010    2.2360    0.0000 C   0  0  0  0  0  0  0  0  0  0  0  0
    2.6020    2.9860    0.0000 C   0  0  0  0  0  0  0  0  0  0  0  0
    1.3030    2.2360    0.0000 C   0  0  0  0  0  0  0  0  0  0  0  0
  1  2  1  0  0  0  0
  2  3  1  0  0  0  0
  2 15  2  0  0  0  0
  3  4  2  0  0  0  0
  4  5  1  0  0  0  0
  4 13  1  0  0  0  0
  5  6  1  0  0  0  0
  6  7  1  0  0  0  0
  6 12  2  0  0  0  0
  7  8  2  0  0  0  0
  8  9  1  0  0  0  0
  9 10  1  0  0  0  0
  9 11  2  0  0  0  0
 11 12  1  0  0  0  0
 13 14  2  0  0  0  0
 14 15  1  0  0  0  0
M  END
>  <name>
Oc1cc([N;amine]c2ccc(C)cc2)ccc1

>  <apo>
1

>  <freq>
1

>  <freq0>
0

>  <freq1>
1

>  <freqA>
0.99887151

>  <a_count>
28

$$$$

  MOE2015           2D

 14 15  0  0  0  0  0  0  0  0999 V2000
    0.9360    0.2510    0.0000 C   0  0  0  0  0  0  0  0  0  0  0  0
   -0.3630   -0.4990    0.0000 C   0  0  0  0  0  0  0  0  0  0  0  0
   -1.6620    0.2510    0.0000 C   0  0  0  0  0  0  0  0  0  0  0  0
   -1.6620    1.7510    0.0000 C   0  0  0  0  0  0  0  0  0  0  0  0
   -2.9620   -0.4990    0.0000 C   0  0  0  0  0  0  0  0  0  0  0  0
   -2.9620   -1.9990    0.0000 C   0  0  0  0  0  0  0  0  0  0  0  0
   -1.6620   -2.7490    0.0000 C   0  0  0  0  0  0  0  0  0  0  0  0
   -0.3630   -1.9990    0.0000 C   0  0  0  0  0  0  0  0  0  0  0  0
    2.2350   -0.4990    0.0000 C   0  0  0  0  0  0  0  0  0  0  0  0
    2.2350   -1.9990    0.0000 C   0  0  0  0  0  0  0  0  0  0  0  0
    3.5340   -2.7490    0.0000 C   0  0  0  0  0  0  0  0  0  0  0  0
    4.8330   -1.9990    0.0000 C   0  0  0  0  0  0  0  0  0  0  0  0
    4.8330   -0.4990    0.0000 C   0  0  0  0  0  0  0  0  0  0  0  0
    3.5340    0.2510    0.0000 C   0  0  0  0  0  0  0  0  0  0  0  0
  1  2  1  0  0  0  0
  1  9  1  0  0  0  0
  2  3  1  0  0  0  0
  2  8  2  0  0  0  0
  3  4  1  0  0  0  0
  3  5  2  0  0  0  0
  5  6  1  0  0  0  0
  6  7  2  0  0  0  0
  7  8  1  0  0  0  0
  9 10  1  0  0  0  0
  9 14  2  0  0  0  0
 10 11  2  0  0  0  0
 11 12  1  0  0  0  0
 12 13  2  0  0  0  0
 13 14  1  0  0  0  0
M  END
>  <name>
[C;ether](c1c(C)cccc1)c1ccccc1

>  <apo>
1

>  <freq>
1

>  <freq0>
0

>  <freq1>
1

>  <freqA>
0.99887151

>  <a_count>
28

$$$$

  MOE2015           2D

 11 13  0  0  0  0  0  0  0  0999 V2000
    5.9900    0.0470    0.0000 N   0  0  0  0  0  0  0  0  0  0  0  0
    4.5190    0.3450    0.0000 C   0  0  0  0  0  0  0  0  0  0  0  0
    3.1230   -0.3690    0.0000 C   0  0  0  0  0  0  0  0  0  0  0  0
    1.6130   -0.0160    0.0000 C   0  0  0  0  0  0  0  0  0  0  0  0
    1.3810    1.4410    0.0000 C   0  0  0  0  0  0  0  0  0  0  0  0
    2.8190    2.1220    0.0000 C   0  0  0  0  0  0  0  0  0  0  0  0
    4.2720    1.7960    0.0000 C   0  0  0  0  0  0  0  0  0  0  0  0
    2.1850    0.8720    0.0000 C   0  0  0  0  0  0  0  0  0  0  0  0
    2.3620   -0.4960    0.0000 C   0  0  0  0  0  0  0  0  0  0  0  0
    3.7680   -0.8320    0.0000 C   0  0  0  0  0  0  0  0  0  0  0  0
    0.8850   -1.3510    0.0000 C   0  0  0  0  0  0  0  0  0  0  0  0
  1  2  1  0  0  0  0
  2  3  1  0  0  0  0
  2  7  1  0  0  0  0
  2 10  1  0  0  0  0
  3  4  1  0  0  0  0
  4  5  1  0  0  0  0
  4 11  1  0  0  0  0
  5  6  1  0  0  0  0
  6  7  1  0  0  0  0
  6  8  1  0  0  0  0
  8  9  1  0  0  0  0
  9 10  1  0  0  0  0
  9 11  1  0  0  0  0
M  END
>  <name>
[N;amide]C12CC3CC(C1)CC(C2)C3

>  <apo>
1

>  <freq>
1

>  <freq0>
0

>  <freq1>
1

>  <freqA>
0.99887151

>  <a_count>
28

$$$$

  MOE2015           2D

 13 14  0  0  0  0  0  0  0  0999 V2000
    9.6920    0.0000    0.0000 O   0  0  0  0  0  0  0  0  0  0  0  0
    8.1920    0.0000    0.0000 C   0  0  0  0  0  0  0  0  0  0  0  0
    7.4420    1.2990    0.0000 C   0  0  0  0  0  0  0  0  0  0  0  0
    5.9420    1.2990    0.0000 C   0  0  0  0  0  0  0  0  0  0  0  0
    5.1920    0.0000    0.0000 C   0  0  0  0  0  0  0  0  0  0  0  0
    3.6920    0.0000    0.0000 N   0  0  0  0  0  0  0  0  0  0  0  0
    2.9420    1.2990    0.0000 C   0  0  0  0  0  0  0  0  0  0  0  0
    1.4420    1.2990    0.0000 C   0  0  0  0  0  0  0  0  0  0  0  0
    0.6920    0.0000    0.0000 C   0  0  0  0  0  0  0  0  0  0  0  0
    1.4420   -1.2990    0.0000 C   0  0  0  0  0  0  0  0  0  0  0  0
    2.9420   -1.2990    0.0000 C   0  0  0  0  0  0  0  0  0  0  0  0
    5.9420   -1.2990    0.0000 C   0  0  0  0  0  0  0  0  0  0  0  0
    7.4420   -1.2990    0.0000 C   0  0  0  0  0  0  0  0  0  0  0  0
  1  2  1  0  0  0  0
  2  3  1  0  0  0  0
  2 13  2  0  0  0  0
  3  4  2  0  0  0  0
  4  5  1  0  0  0  0
  5  6  1  0  0  0  0
  5 12  2  0  0  0  0
  6  7  1  0  0  0  0
  6 11  1  0  0  0  0
  7  8  1  0  0  0  0
  8  9  1  0  0  0  0
  9 10  1  0  0  0  0
 10 11  1  0  0  0  0
 12 13  1  0  0  0  0
M  END
>  <name>
[O;ether]c1ccc(N2CC[C;ether]CC2)cc1

>  <apo>
2

>  <freq>
1

>  <freq0>
0

>  <freq1>
1

>  <freqA>
0.99887151

>  <a_count>
28

$$$$

  MOE2015           2D

 17 19  0  0  0  0  0  0  0  0999 V2000
    3.0120    3.0120    0.0000 S   0  0  0  0  0  0  0  0  0  0  0  0
    3.0120    1.5120    0.0000 O   0  0  0  0  0  0  0  0  0  0  0  0
    4.3110    3.7620    0.0000 C   0  0  0  0  0  0  0  0  0  0  0  0
    1.7130    3.7620    0.0000 C   0  0  0  0  0  0  0  0  0  0  0  0
    0.4140    3.0120    0.0000 C   0  0  0  0  0  0  0  0  0  0  0  0
   -0.8860    3.7620    0.0000 C   0  0  0  0  0  0  0  0  0  0  0  0
   -2.1850    3.0120    0.0000 N   0  0  0  0  0  0  0  0  0  0  0  0
   -3.4840    3.7620    0.0000 C   0  0  0  0  0  0  0  0  0  0  0  0
   -3.4840    5.2620    0.0000 C   0  0  0  0  0  0  0  0  0  0  0  0
   -2.1850    6.0120    0.0000 S   0  0  0  0  0  0  0  0  0  0  0  0
   -0.8860    5.2620    0.0000 C   0  0  0  0  0  0  0  0  0  0  0  0
    0.4140    6.0120    0.0000 C   0  0  0  0  0  0  0  0  0  0  0  0
    1.7130    5.2620    0.0000 C   0  0  0  0  0  0  0  0  0  0  0  0
   -4.7830    6.0120    0.0000 C   0  0  0  0  0  0  0  0  0  0  0  0
   -6.0820    5.2620    0.0000 C   0  0  0  0  0  0  0  0  0  0  0  0
   -6.0820    3.7620    0.0000 C   0  0  0  0  0  0  0  0  0  0  0  0
   -4.7830    3.0120    0.0000 C   0  0  0  0  0  0  0  0  0  0  0  0
  1  2  2  0  0  0  0
  1  3  1  0  0  0  0
  1  4  1  0  0  0  0
  4  5  1  0  0  0  0
  4 13  2  0  0  0  0
  5  6  2  0  0  0  0
  6  7  1  0  0  0  0
  6 11  1  0  0  0  0
  7  8  1  0  0  0  0
  8  9  1  0  0  0  0
  8 17  2  0  0  0  0
  9 10  1  0  0  0  0
  9 14  2  0  0  0  0
 10 11  1  0  0  0  0
 11 12  2  0  0  0  0
 12 13  1  0  0  0  0
 14 15  1  0  0  0  0
 15 16  2  0  0  0  0
 16 17  1  0  0  0  0
M  END
>  <name>
[SH0](=O)(C)c1cc2[N;amine]c3c(Sc2cc1)cccc3

>  <apo>
1

>  <freq>
1

>  <freq0>
0

>  <freq1>
1

>  <freqA>
0.99887151

>  <a_count>
28

$$$$

  MOE2015           2D

 15 17  0  0  0  0  0  0  0  0999 V2000
    4.9880    1.0250    0.0000 N   0  0  0  0  0  0  0  0  0  0  0  0
    3.6620    1.7250    0.0000 C   0  0  0  0  0  0  0  0  0  0  0  0
    3.6050    3.2240    0.0000 C   0  0  0  0  0  0  0  0  0  0  0  0
    4.8750    4.0230    0.0000 C   0  0  0  0  0  0  0  0  0  0  0  0
    6.2020    3.3220    0.0000 C   0  0  0  0  0  0  0  0  0  0  0  0
    6.2580    1.8230    0.0000 C   0  0  0  0  0  0  0  0  0  0  0  0
    2.3990    4.1160    0.0000 C   0  0  0  0  0  0  0  0  0  0  0  0
    0.9500    3.7290    0.0000 C   0  0  0  0  0  0  0  0  0  0  0  0
    0.3500    2.3540    0.0000 C   0  0  0  0  0  0  0  0  0  0  0  0
    1.0520    1.0260    0.0000 C   0  0  0  0  0  0  0  0  0  0  0  0
    0.2530   -0.2440    0.0000 C   0  0  0  0  0  0  0  0  0  0  0  0
   -1.2450   -0.1880    0.0000 C   0  0  0  0  0  0  0  0  0  0  0  0
   -1.9470    1.1400    0.0000 C   0  0  0  0  0  0  0  0  0  0  0  0
   -1.1490    2.4100    0.0000 C   0  0  0  0  0  0  0  0  0  0  0  0
    2.5250    0.7460    0.0000 C   0  0  0  0  0  0  0  0  0  0  0  0
  1  2  1  0  0  0  0
  1  6  2  0  0  0  0
  2  3  2  0  0  0  0
  2 15  1  0  0  0  0
  3  4  1  0  0  0  0
  3  7  1  0  0  0  0
  4  5  2  0  0  0  0
  5  6  1  0  0  0  0
  7  8  1  0  0  0  0
  8  9  1  0  0  0  0
  9 10  1  0  0  0  0
  9 14  2  0  0  0  0
 10 11  2  0  0  0  0
 10 15  1  0  0  0  0
 11 12  1  0  0  0  0
 12 13  2  0  0  0  0
 13 14  1  0  0  0  0
M  END
>  <name>
n1c2c(ccc1)CCc1c(cccc1)[C;olefin]2

>  <apo>
1

>  <freq>
1

>  <freq0>
0

>  <freq1>
1

>  <freqA>
0.99887151

>  <a_count>
28

$$$$

  MOE2015           2D

 13 14  0  0  0  0  0  0  0  0999 V2000
    6.7780   -3.9140    0.0000 C   0  0  0  0  0  0  0  0  0  0  0  0
    6.0280   -2.6140    0.0000 C   0  0  0  0  0  0  0  0  0  0  0  0
    4.5280   -2.6140    0.0000 C   0  0  0  0  0  0  0  0  0  0  0  0
    3.6470   -3.8280    0.0000 N   0  0  0  0  0  0  0  0  0  0  0  0
    2.2200   -3.3640    0.0000 C   0  0  0  0  0  0  0  0  0  0  0  0
    2.2200   -1.8640    0.0000 C   0  0  0  0  0  0  0  0  0  0  0  0
    0.9210   -1.1140    0.0000 C   0  0  0  0  0  0  0  0  0  0  0  0
    0.9210    0.3860    0.0000 C   0  0  0  0  0  0  0  0  0  0  0  0
   -0.3780   -1.8640    0.0000 C   0  0  0  0  0  0  0  0  0  0  0  0
   -0.3780   -3.3640    0.0000 C   0  0  0  0  0  0  0  0  0  0  0  0
    0.9210   -4.1140    0.0000 C   0  0  0  0  0  0  0  0  0  0  0  0
    3.6470   -1.4010    0.0000 N   0  0  0  0  0  0  0  0  0  0  0  0
    8.2780   -3.9140    0.0000 C   0  0  0  0  0  0  0  0  0  0  0  0
  1  2  1  0  0  0  0
  1 13  1  0  0  0  0
  2  3  1  0  0  0  0
  3  4  1  0  0  0  0
  3 12  2  0  0  0  0
  4  5  1  0  0  0  0
  5  6  1  0  0  0  0
  5 11  2  0  0  0  0
  6  7  2  0  0  0  0
  6 12  1  0  0  0  0
  7  8  1  0  0  0  0
  7  9  1  0  0  0  0
  9 10  2  0  0  0  0
 10 11  1  0  0  0  0
M  END
>  <name>
C(Cc1[nH;NaroC]c2c(c(C)c[c;biphenyl]c2)n1)C

>  <apo>
2

>  <freq>
1

>  <freq0>
0

>  <freq1>
1

>  <freqA>
0.99887151

>  <a_count>
27

$$$$

  MOE2015           2D

 13 14  0  0  0  0  0  0  0  0999 V2000
    5.7960    1.4450    0.0000 C   0  0  0  0  0  0  0  0  0  0  0  0
    5.0460    2.7440    0.0000 C   0  0  0  0  0  0  0  0  0  0  0  0
    3.5460    2.7440    0.0000 C   0  0  0  0  0  0  0  0  0  0  0  0
    2.7960    4.0430    0.0000 C   0  0  0  0  0  0  0  0  0  0  0  0
    3.5460    5.3420    0.0000 C   0  0  0  0  0  0  0  0  0  0  0  0
    1.2960    4.0430    0.0000 C   0  0  0  0  0  0  0  0  0  0  0  0
    0.5460    2.7440    0.0000 C   0  0  0  0  0  0  0  0  0  0  0  0
   -0.9210    2.4320    0.0000 O   0  0  0  0  0  0  0  0  0  0  0  0
   -1.0780    0.9400    0.0000 C   0  0  0  0  0  0  0  0  0  0  0  0
    0.2920    0.3300    0.0000 O   0  0  0  0  0  0  0  0  0  0  0  0
    1.2960    1.4450    0.0000 C   0  0  0  0  0  0  0  0  0  0  0  0
    2.7960    1.4450    0.0000 C   0  0  0  0  0  0  0  0  0  0  0  0
    7.2960    1.4450    0.0000 C   0  0  0  0  0  0  0  0  0  0  0  0
  1  2  1  0  0  0  0
  1 13  1  0  0  0  0
  2  3  1  0  0  0  0
  3  4  1  0  0  0  0
  3 12  2  0  0  0  0
  4  5  1  0  0  0  0
  4  6  2  0  0  0  0
  6  7  1  0  0  0  0
  7  8  1  0  0  0  0
  7 11  2  0  0  0  0
  8  9  1  0  0  0  0
  9 10  1  0  0  0  0
 10 11  1  0  0  0  0
 11 12  1  0  0  0  0
M  END
>  <name>
C(Cc1c([C;ether])cc2OCOc2c1)C

>  <apo>
1

>  <freq>
1

>  <freq0>
0

>  <freq1>
1

>  <freqA>
0.99887151

>  <a_count>
27

$$$$

  MOE2015           2D

 14 15  0  0  1  0  0  0  0  0999 V2000
    2.6250    4.5470    0.0000 Cl  0  0  0  0  0  0  0  0  0  0  0  0
    3.3750    3.2480    0.0000 C   0  0  0  0  0  0  0  0  0  0  0  0
    2.6250    1.9490    0.0000 C   0  0  0  0  0  0  0  0  0  0  0  0
    1.1250    1.9490    0.0000 C   0  0  3  0  0  0  0  0  0  0  0  0
    0.3750    0.6500    0.0000 C   0  0  0  0  0  0  0  0  0  0  0  0
    1.1250   -0.6500    0.0000 O   0  0  0  0  0  0  0  0  0  0  0  0
   -1.1250    0.6500    0.0000 C   0  0  0  0  0  0  0  0  0  0  0  0
   -1.8750    1.9490    0.0000 C   0  0  0  0  0  0  0  0  0  0  0  0
   -1.1250    3.2480    0.0000 C   0  0  0  0  0  0  0  0  0  0  0  0
    0.3750    3.2480    0.0000 C   0  0  0  0  0  0  0  0  0  0  0  0
    3.3750    0.6500    0.0000 C   0  0  0  0  0  0  0  0  0  0  0  0
    4.8750    0.6500    0.0000 C   0  0  0  0  0  0  0  0  0  0  0  0
    5.6250    1.9490    0.0000 C   0  0  0  0  0  0  0  0  0  0  0  0
    4.8750    3.2480    0.0000 C   0  0  0  0  0  0  0  0  0  0  0  0
  1  2  1  0  0  0  0
  2  3  1  0  0  0  0
  2 14  2  0  0  0  0
  3  4  1  0  0  0  0
  3 11  2  0  0  0  0
  4  5  1  0  0  0  0
  4 10  1  0  0  0  0
  5  6  2  0  0  0  0
  5  7  1  0  0  0  0
  7  8  1  0  0  0  0
  8  9  1  0  0  0  0
  9 10  1  0  0  0  0
 11 12  1  0  0  0  0
 12 13  2  0  0  0  0
 13 14  1  0  0  0  0
M  END
>  <name>
Clc1c([C;amine]2C(=O)CCCC2)cccc1

>  <apo>
1

>  <freq>
1

>  <freq0>
0

>  <freq1>
1

>  <freqA>
0.99887151

>  <a_count>
27

$$$$

  MOE2015           2D

 14 15  0  0  1  0  0  0  0  0999 V2000
    2.6250    4.5470    0.0000 Cl  0  0  0  0  0  0  0  0  0  0  0  0
    3.3750    3.2480    0.0000 C   0  0  0  0  0  0  0  0  0  0  0  0
    2.6250    1.9490    0.0000 C   0  0  0  0  0  0  0  0  0  0  0  0
    1.1250    1.9490    0.0000 C   0  0  1  0  0  0  0  0  0  0  0  0
    0.3750    0.6500    0.0000 C   0  0  0  0  0  0  0  0  0  0  0  0
    1.1250   -0.6500    0.0000 O   0  0  0  0  0  0  0  0  0  0  0  0
   -1.1250    0.6500    0.0000 C   0  0  0  0  0  0  0  0  0  0  0  0
   -1.8750    1.9490    0.0000 C   0  0  0  0  0  0  0  0  0  0  0  0
   -1.1250    3.2480    0.0000 C   0  0  0  0  0  0  0  0  0  0  0  0
    0.3750    3.2480    0.0000 C   0  0  0  0  0  0  0  0  0  0  0  0
    3.3750    0.6500    0.0000 C   0  0  0  0  0  0  0  0  0  0  0  0
    4.8750    0.6500    0.0000 C   0  0  0  0  0  0  0  0  0  0  0  0
    5.6250    1.9490    0.0000 C   0  0  0  0  0  0  0  0  0  0  0  0
    4.8750    3.2480    0.0000 C   0  0  0  0  0  0  0  0  0  0  0  0
  1  2  1  0  0  0  0
  2  3  2  0  0  0  0
  2 14  1  0  0  0  0
  4  3  1  1  0  0  0
  3 11  1  0  0  0  0
  4  5  1  0  0  0  0
  4 10  1  0  0  0  0
  5  6  2  0  0  0  0
  5  7  1  0  0  0  0
  7  8  1  0  0  0  0
  8  9  1  0  0  0  0
  9 10  1  0  0  0  0
 11 12  2  0  0  0  0
 12 13  1  0  0  0  0
 13 14  2  0  0  0  0
M  END
>  <name>
Clc1c([C@H;amine]2C(=O)CCCC2)cccc1

>  <apo>
1

>  <freq>
1

>  <freq0>
0

>  <freq1>
1

>  <freqA>
0.99887151

>  <a_count>
27

$$$$

  MOE2015           2D

 17 18  0  0  0  0  0  0  0  0999 V2000
   -2.3610   -5.0240    0.0000 F   0  0  0  0  0  0  0  0  0  0  0  0
   -3.1030   -3.7210    0.0000 C   0  0  0  0  0  0  0  0  0  0  0  0
   -4.4070   -4.4630    0.0000 F   0  0  0  0  0  0  0  0  0  0  0  0
   -3.8460   -2.4170    0.0000 F   0  0  0  0  0  0  0  0  0  0  0  0
   -1.8000   -2.9780    0.0000 C   0  0  0  0  0  0  0  0  0  0  0  0
   -1.7920   -1.4780    0.0000 C   0  0  0  0  0  0  0  0  0  0  0  0
   -0.4880   -0.7350    0.0000 C   0  0  0  0  0  0  0  0  0  0  0  0
   -0.4800    0.7650    0.0000 N   0  0  0  0  0  0  0  0  0  0  0  0
    0.8070   -1.4930    0.0000 C   0  0  0  0  0  0  0  0  0  0  0  0
    0.7980   -2.9930    0.0000 C   0  0  0  0  0  0  0  0  0  0  0  0
    2.0930   -3.7500    0.0000 N   0  0  0  0  0  0  0  0  0  0  0  0
    3.4670   -3.1480    0.0000 C   0  0  0  0  0  0  0  0  0  0  0  0
    4.4640   -4.2680    0.0000 C   0  0  0  0  0  0  0  0  0  0  0  0
    5.9570   -4.1200    0.0000 C   0  0  0  0  0  0  0  0  0  0  0  0
    3.7060   -5.5630    0.0000 N   0  0  0  0  0  0  0  0  0  0  0  0
    2.2410   -5.2430    0.0000 C   0  0  0  0  0  0  0  0  0  0  0  0
   -0.5050   -3.7350    0.0000 C   0  0  0  0  0  0  0  0  0  0  0  0
  1  2  1  0  0  0  0
  2  3  1  0  0  0  0
  2  4  1  0  0  0  0
  2  5  1  0  0  0  0
  5  6  1  0  0  0  0
  5 17  2  0  0  0  0
  6  7  2  0  0  0  0
  7  8  1  0  0  0  0
  7  9  1  0  0  0  0
  9 10  2  0  0  0  0
 10 11  1  0  0  0  0
 10 17  1  0  0  0  0
 11 12  1  0  0  0  0
 11 16  1  0  0  0  0
 12 13  2  0  0  0  0
 13 14  1  0  0  0  0
 13 15  1  0  0  0  0
 15 16  2  0  0  0  0
M  END
>  <name>
FC(F)(F)c1cc([N;amide])cc(-n2cc(C)nc2)c1

>  <apo>
1

>  <freq>
1

>  <freq0>
0

>  <freq1>
1

>  <freqA>
0.99887151

>  <a_count>
27

$$$$

  MOE2015           2D

 18 20  0  0  0  0  0  0  0  0999 V2000
    0.2320   -0.8650    0.0000 F   0  0  0  0  0  0  0  0  0  0  0  0
    1.5310   -0.1150    0.0000 C   0  0  0  0  0  0  0  0  0  0  0  0
    0.7810    1.1840    0.0000 F   0  0  0  0  0  0  0  0  0  0  0  0
    2.2810   -1.4140    0.0000 F   0  0  0  0  0  0  0  0  0  0  0  0
    2.8300    0.6350    0.0000 C   0  0  0  0  0  0  0  0  0  0  0  0
    4.1290   -0.1150    0.0000 C   0  0  0  0  0  0  0  0  0  0  0  0
    5.4280    0.6350    0.0000 C   0  0  0  0  0  0  0  0  0  0  0  0
    5.4280    2.1350    0.0000 C   0  0  0  0  0  0  0  0  0  0  0  0
    6.7270    2.8850    0.0000 S   0  0  0  0  0  0  0  0  0  0  0  0
    8.0260    2.1350    0.0000 C   0  0  0  0  0  0  0  0  0  0  0  0
    8.0260    0.6350    0.0000 C   0  0  0  0  0  0  0  0  0  0  0  0
    9.3250   -0.1150    0.0000 C   0  0  0  0  0  0  0  0  0  0  0  0
   10.6240    0.6350    0.0000 C   0  0  0  0  0  0  0  0  0  0  0  0
   10.6240    2.1350    0.0000 C   0  0  0  0  0  0  0  0  0  0  0  0
    9.3250    2.8850    0.0000 C   0  0  0  0  0  0  0  0  0  0  0  0
    6.7270   -0.1150    0.0000 C   0  0  0  0  0  0  0  0  0  0  0  0
    4.1290    2.8850    0.0000 C   0  0  0  0  0  0  0  0  0  0  0  0
    2.8300    2.1350    0.0000 C   0  0  0  0  0  0  0  0  0  0  0  0
  1  2  1  0  0  0  0
  2  3  1  0  0  0  0
  2  4  1  0  0  0  0
  2  5  1  0  0  0  0
  5  6  1  0  0  0  0
  5 18  2  0  0  0  0
  6  7  2  0  0  0  0
  7  8  1  0  0  0  0
  7 16  1  0  0  0  0
  8  9  1  0  0  0  0
  8 17  2  0  0  0  0
  9 10  1  0  0  0  0
 10 11  1  0  0  0  0
 10 15  2  0  0  0  0
 11 12  2  0  0  0  0
 11 16  1  0  0  0  0
 12 13  1  0  0  0  0
 13 14  2  0  0  0  0
 14 15  1  0  0  0  0
 17 18  1  0  0  0  0
M  END
>  <name>
FC(F)(F)c1cc2c(Sc3c(cccc3)[C;olefin]2)cc1

>  <apo>
1

>  <freq>
1

>  <freq0>
0

>  <freq1>
1

>  <freqA>
0.99887151

>  <a_count>
27

$$$$

  MOE2015           2D

 17 18  0  0  0  0  0  0  0  0999 V2000
    0.0780   -3.5020    0.0000 N   0  0  0  0  0  0  0  0  0  0  0  0
    1.3770   -2.7520    0.0000 C   0  0  0  0  0  0  0  0  0  0  0  0
    2.6760   -2.0020    0.0000 C   0  0  0  0  0  0  0  0  0  0  0  0
    2.6760   -0.5020    0.0000 C   0  0  0  0  0  0  0  0  0  0  0  0
    3.9750    0.2480    0.0000 C   0  0  0  0  0  0  0  0  0  0  0  0
    5.2740   -0.5020    0.0000 C   0  0  0  0  0  0  0  0  0  0  0  0
    6.5740    0.2480    0.0000 C   0  0  0  0  0  0  0  0  0  0  0  0
    7.8730   -0.5020    0.0000 C   0  0  0  0  0  0  0  0  0  0  0  0
    7.8730   -2.0020    0.0000 C   0  0  0  0  0  0  0  0  0  0  0  0
    9.1720   -2.7520    0.0000 C   0  0  0  0  0  0  0  0  0  0  0  0
   10.4710   -2.0020    0.0000 C   0  0  0  0  0  0  0  0  0  0  0  0
   11.7700   -2.7520    0.0000 C   0  0  0  0  0  0  0  0  0  0  0  0
   13.0690   -3.5020    0.0000 N   0  0  0  0  0  0  0  0  0  0  0  0
   10.4710   -0.5020    0.0000 C   0  0  0  0  0  0  0  0  0  0  0  0
    9.1720    0.2480    0.0000 C   0  0  0  0  0  0  0  0  0  0  0  0
    5.2740   -2.0020    0.0000 C   0  0  0  0  0  0  0  0  0  0  0  0
    3.9750   -2.7520    0.0000 C   0  0  0  0  0  0  0  0  0  0  0  0
  1  2  3  0  0  0  0
  2  3  1  0  0  0  0
  3  4  1  0  0  0  0
  3 17  2  0  0  0  0
  4  5  2  0  0  0  0
  5  6  1  0  0  0  0
  6  7  1  0  0  0  0
  6 16  2  0  0  0  0
  7  8  1  0  0  0  0
  8  9  1  0  0  0  0
  8 15  2  0  0  0  0
  9 10  2  0  0  0  0
 10 11  1  0  0  0  0
 11 12  1  0  0  0  0
 11 14  2  0  0  0  0
 12 13  3  0  0  0  0
 14 15  1  0  0  0  0
 16 17  1  0  0  0  0
M  END
>  <name>
N#Cc1ccc([C;NaroC]c2ccc(C#N)cc2)cc1

>  <apo>
1

>  <freq>
1

>  <freq0>
0

>  <freq1>
1

>  <freqA>
0.99887151

>  <a_count>
27

$$$$

  MOE2015           2D

 15 16  0  0  0  0  0  0  0  0999 V2000
    0.7460   -0.0140    0.0000 N   0  0  0  0  0  0  0  0  0  0  0  0
    2.0450    0.7360    0.0000 C   0  0  0  0  0  0  0  0  0  0  0  0
    2.0450    2.2360    0.0000 N   0  0  0  0  0  0  0  0  0  0  0  0
    3.3440    2.9860    0.0000 C   0  0  0  0  0  0  0  0  0  0  0  0
    4.6440    2.2360    0.0000 C   0  0  0  0  0  0  0  0  0  0  0  0
    4.6440    0.7360    0.0000 C   0  0  0  0  0  0  0  0  0  0  0  0
    3.3440   -0.0140    0.0000 N   0  0  0  0  0  0  0  0  0  0  0  0
   -0.5530    0.7360    0.0000 C   0  0  0  0  0  0  0  0  0  0  0  0
   -1.8520   -0.0140    0.0000 C   0  0  0  0  0  0  0  0  0  0  0  0
   -1.8520   -1.5140    0.0000 C   0  0  0  0  0  0  0  0  0  0  0  0
   -3.1510    0.7360    0.0000 C   0  0  0  0  0  0  0  0  0  0  0  0
   -3.1510    2.2360    0.0000 C   0  0  0  0  0  0  0  0  0  0  0  0
   -1.8520    2.9860    0.0000 C   0  0  0  0  0  0  0  0  0  0  0  0
   -1.8520    4.4860    0.0000 N   0  0  0  0  0  0  0  0  0  0  0  0
   -0.5530    2.2360    0.0000 C   0  0  0  0  0  0  0  0  0  0  0  0
  1  2  1  0  0  0  0
  1  8  1  0  0  0  0
  2  3  1  0  0  0  0
  2  7  2  0  0  0  0
  3  4  2  0  0  0  0
  4  5  1  0  0  0  0
  5  6  2  0  0  0  0
  6  7  1  0  0  0  0
  8  9  1  0  0  0  0
  8 15  2  0  0  0  0
  9 10  1  0  0  0  0
  9 11  2  0  0  0  0
 11 12  1  0  0  0  0
 12 13  2  0  0  0  0
 13 14  1  0  0  0  0
 13 15  1  0  0  0  0
M  END
>  <name>
N(c1n[c;biphenyl]ccn1)c1c(C)ccc([N;amide])c1

>  <apo>
2

>  <freq>
1

>  <freq0>
0

>  <freq1>
1

>  <freqA>
0.99887151

>  <a_count>
27

$$$$

  MOE2015           2D

 17 17  0  0  0  0  0  0  0  0999 V2000
    1.6230    0.7860    0.0000 O   0  0  0  0  0  0  0  0  0  0  0  0
    0.8650    2.0800    0.0000 N   0  0  0  0  0  0  0  0  0  0  0  0
   -0.6350    2.0710    0.0000 C   0  0  0  0  0  0  0  0  0  0  0  0
   -1.3930    3.3660    0.0000 C   0  0  0  0  0  0  0  0  0  0  0  0
   -0.6510    4.6690    0.0000 O   0  0  0  0  0  0  0  0  0  0  0  0
   -1.3770    0.7680    0.0000 C   0  0  0  0  0  0  0  0  0  0  0  0
   -2.8680    0.6020    0.0000 N   0  0  0  0  0  0  0  0  0  0  0  0
   -3.1710   -0.8670    0.0000 C   0  0  0  0  0  0  0  0  0  0  0  0
   -4.5380   -1.4860    0.0000 N   0  0  0  0  0  0  0  0  0  0  0  0
   -1.8670   -1.6090    0.0000 S   0  0  0  0  0  0  0  0  0  0  0  0
   -0.7590   -0.5990    0.0000 N   0  0  0  0  0  0  0  0  0  0  0  0
    3.1230    0.7950    0.0000 C   0  0  0  0  0  0  0  0  0  0  0  0
    4.6230    0.8040    0.0000 C   0  0  0  0  0  0  0  0  0  0  0  0
    5.3650    2.1080    0.0000 O   0  0  0  0  0  0  0  0  0  0  0  0
    5.3800   -0.4900    0.0000 O   0  0  0  0  0  0  0  0  0  0  0  0
    3.1130    2.2950    0.0000 C   0  0  0  0  0  0  0  0  0  0  0  0
    3.1320   -0.7050    0.0000 C   0  0  0  0  0  0  0  0  0  0  0  0
  1  2  1  0  0  0  0
  1 12  1  0  0  0  0
  2  3  2  0  0  0  0
  3  4  1  0  0  0  0
  3  6  1  0  0  0  0
  4  5  2  0  0  0  0
  6  7  1  0  0  0  0
  6 11  2  0  0  0  0
  7  8  2  0  0  0  0
  8  9  1  0  0  0  0
  8 10  1  0  0  0  0
 10 11  1  0  0  0  0
 12 13  1  0  0  0  0
 12 16  1  0  0  0  0
 12 17  1  0  0  0  0
 13 14  2  0  0  0  0
 13 15  1  0  0  0  0
M  END
>  <name>
O(/N=C(/[C;amide]=O)\c1nc(N)sn1)C(C(=O)O)(C)C

>  <apo>
1

>  <freq>
1

>  <freq0>
0

>  <freq1>
1

>  <freqA>
0.99887151

>  <a_count>
27

$$$$

  MOE2015           2D

 13 13  0  0  0  0  0  0  0  0999 V2000
    0.0000    3.7970    0.0000 O   0  0  0  0  0  0  0  0  0  0  0  0
    1.5000    3.7970    0.0000 C   0  0  0  0  0  0  0  0  0  0  0  0
   -0.7500    2.4980    0.0000 C   0  0  0  0  0  0  0  0  0  0  0  0
   -2.2500    2.4980    0.0000 C   0  0  0  0  0  0  0  0  0  0  0  0
   -3.0000    3.7970    0.0000 O   0  0  0  0  0  0  0  0  0  0  0  0
   -4.5000    3.7970    0.0000 C   0  0  0  0  0  0  0  0  0  0  0  0
   -3.0000    1.1990    0.0000 C   0  0  0  0  0  0  0  0  0  0  0  0
   -4.5000    1.1990    0.0000 C   0  0  0  0  0  0  0  0  0  0  0  0
   -2.2500   -0.1000    0.0000 C   0  0  0  0  0  0  0  0  0  0  0  0
   -0.7500   -0.1000    0.0000 C   0  0  0  0  0  0  0  0  0  0  0  0
    0.0000    1.1990    0.0000 C   0  0  0  0  0  0  0  0  0  0  0  0
    1.5000    1.1990    0.0000 O   0  0  0  0  0  0  0  0  0  0  0  0
    2.2500   -0.1000    0.0000 C   0  0  0  0  0  0  0  0  0  0  0  0
  1  2  1  0  0  0  0
  1  3  1  0  0  0  0
  3  4  1  0  0  0  0
  3 11  2  0  0  0  0
  4  5  1  0  0  0  0
  4  7  2  0  0  0  0
  5  6  1  0  0  0  0
  7  8  1  0  0  0  0
  7  9  1  0  0  0  0
  9 10  2  0  0  0  0
 10 11  1  0  0  0  0
 11 12  1  0  0  0  0
 12 13  1  0  0  0  0
M  END
>  <name>
O(C)c1c(OC)c([C;amine])ccc1OC

>  <apo>
1

>  <freq>
1

>  <freq0>
0

>  <freq1>
1

>  <freqA>
0.99887151

>  <a_count>
27

$$$$

  MOE2015           2D

 13 13  0  0  0  0  0  0  0  0999 V2000
    0.0000    0.0000    0.0000 O   0  0  0  0  0  0  0  0  0  0  0  0
    1.5000    0.0000    0.0000 C   0  0  0  0  0  0  0  0  0  0  0  0
   -0.7500    1.2990    0.0000 C   0  0  0  0  0  0  0  0  0  0  0  0
   -2.2500    1.2990    0.0000 C   0  0  0  0  0  0  0  0  0  0  0  0
   -3.0000    0.0000    0.0000 O   0  0  0  0  0  0  0  0  0  0  0  0
   -4.5000    0.0000    0.0000 C   0  0  0  0  0  0  0  0  0  0  0  0
   -3.0000    2.5980    0.0000 C   0  0  0  0  0  0  0  0  0  0  0  0
   -2.2500    3.8970    0.0000 C   0  0  0  0  0  0  0  0  0  0  0  0
   -3.0000    5.1960    0.0000 C   0  0  0  0  0  0  0  0  0  0  0  0
   -0.7500    3.8970    0.0000 C   0  0  0  0  0  0  0  0  0  0  0  0
    0.0000    2.5980    0.0000 C   0  0  0  0  0  0  0  0  0  0  0  0
    1.5000    2.5980    0.0000 O   0  0  0  0  0  0  0  0  0  0  0  0
    2.2500    3.8970    0.0000 C   0  0  0  0  0  0  0  0  0  0  0  0
  1  2  1  0  0  0  0
  1  3  1  0  0  0  0
  3  4  1  0  0  0  0
  3 11  2  0  0  0  0
  4  5  1  0  0  0  0
  4  7  2  0  0  0  0
  5  6  1  0  0  0  0
  7  8  1  0  0  0  0
  8  9  1  0  0  0  0
  8 10  2  0  0  0  0
 10 11  1  0  0  0  0
 11 12  1  0  0  0  0
 12 13  1  0  0  0  0
M  END
>  <name>
O(C)c1c(OC)cc([C;olefin])cc1OC

>  <apo>
1

>  <freq>
1

>  <freq0>
0

>  <freq1>
1

>  <freqA>
0.99887151

>  <a_count>
27

$$$$

  MOE2015           2D

 13 14  0  0  1  0  0  0  0  0999 V2000
   -3.8870    3.8870    0.0000 O   0  0  0  0  0  0  0  0  0  0  0  0
   -3.8870    5.3870    0.0000 C   0  0  0  0  0  0  0  0  0  0  0  0
   -2.5880    3.1370    0.0000 C   0  0  0  0  0  0  0  0  0  0  0  0
   -2.5880    1.6370    0.0000 C   0  0  0  0  0  0  0  0  0  0  0  0
   -3.8870    0.8870    0.0000 O   0  0  0  0  0  0  0  0  0  0  0  0
   -3.8870   -0.6130    0.0000 C   0  0  0  0  0  0  0  0  0  0  0  0
   -1.2890    0.8870    0.0000 C   0  0  0  0  0  0  0  0  0  0  0  0
    0.0100    1.6370    0.0000 C   0  0  0  0  0  0  0  0  0  0  0  0
    0.0100    3.1370    0.0000 C   0  0  0  0  0  0  0  0  0  0  0  0
    1.5100    3.1370    0.0000 C   0  0  1  0  0  0  0  0  0  0  0  0
    2.5710    4.1980    0.0000 C   0  0  0  0  0  0  0  0  0  0  0  0
    1.5100    1.6370    0.0000 C   0  0  0  0  0  0  0  0  0  0  0  0
   -1.2890    3.8870    0.0000 C   0  0  0  0  0  0  0  0  0  0  0  0
  1  2  1  0  0  0  0
  1  3  1  0  0  0  0
  3  4  1  0  0  0  0
  3 13  2  0  0  0  0
  4  5  1  0  0  0  0
  4  7  2  0  0  0  0
  5  6  1  0  0  0  0
  7  8  1  0  0  0  0
  8  9  2  0  0  0  0
  8 12  1  0  0  0  0
  9 10  1  0  0  0  0
  9 13  1  0  0  0  0
 10 11  1  1  0  0  0
 10 12  1  0  0  0  0
M  END
>  <name>
O(C)c1c(OC)cc2c([C@@H]([C;amine])C2)c1

>  <apo>
1

>  <freq>
1

>  <freq0>
0

>  <freq1>
1

>  <freqA>
0.99887151

>  <a_count>
27

$$$$

  MOE2015           2D

 16 18  0  0  0  0  0  0  0  0999 V2000
    1.2780   -4.7690    0.0000 O   0  0  0  0  0  0  0  0  0  0  0  0
    2.5770   -4.0190    0.0000 C   0  0  0  0  0  0  0  0  0  0  0  0
   -0.0210   -4.0190    0.0000 C   0  0  0  0  0  0  0  0  0  0  0  0
   -1.3200   -4.7690    0.0000 C   0  0  0  0  0  0  0  0  0  0  0  0
   -2.6190   -4.0190    0.0000 C   0  0  0  0  0  0  0  0  0  0  0  0
   -3.9180   -4.7690    0.0000 N   0  0  0  0  0  0  0  0  0  0  0  0
   -5.2170   -4.0190    0.0000 C   0  0  0  0  0  0  0  0  0  0  0  0
   -5.2170   -2.5190    0.0000 C   0  0  0  0  0  0  0  0  0  0  0  0
   -3.9180   -1.7690    0.0000 S   0  0  0  0  0  0  0  0  0  0  0  0
   -2.6190   -2.5190    0.0000 C   0  0  0  0  0  0  0  0  0  0  0  0
   -1.3200   -1.7690    0.0000 C   0  0  0  0  0  0  0  0  0  0  0  0
   -0.0210   -2.5190    0.0000 C   0  0  0  0  0  0  0  0  0  0  0  0
   -6.5160   -1.7690    0.0000 C   0  0  0  0  0  0  0  0  0  0  0  0
   -7.8150   -2.5190    0.0000 C   0  0  0  0  0  0  0  0  0  0  0  0
   -7.8150   -4.0190    0.0000 C   0  0  0  0  0  0  0  0  0  0  0  0
   -6.5160   -4.7690    0.0000 C   0  0  0  0  0  0  0  0  0  0  0  0
  1  2  1  0  0  0  0
  1  3  1  0  0  0  0
  3  4  1  0  0  0  0
  3 12  2  0  0  0  0
  4  5  2  0  0  0  0
  5  6  1  0  0  0  0
  5 10  1  0  0  0  0
  6  7  1  0  0  0  0
  7  8  1  0  0  0  0
  7 16  2  0  0  0  0
  8  9  1  0  0  0  0
  8 13  2  0  0  0  0
  9 10  1  0  0  0  0
 10 11  2  0  0  0  0
 11 12  1  0  0  0  0
 13 14  1  0  0  0  0
 14 15  2  0  0  0  0
 15 16  1  0  0  0  0
M  END
>  <name>
O(C)c1cc2[N;amine]c3c(Sc2cc1)cccc3

>  <apo>
1

>  <freq>
1

>  <freq0>
0

>  <freq1>
1

>  <freqA>
0.99887151

>  <a_count>
27

$$$$

  MOE2015           2D

 15 16  0  0  0  0  0  0  0  0999 V2000
    0.5210   -1.9430    0.0000 O   0  0  0  0  0  0  0  0  0  0  0  0
    1.8200   -1.1930    0.0000 C   0  0  0  0  0  0  0  0  0  0  0  0
    3.1190   -1.9430    0.0000 C   0  0  0  0  0  0  0  0  0  0  0  0
    4.4180   -1.1930    0.0000 C   0  0  0  0  0  0  0  0  0  0  0  0
    5.7170   -1.9430    0.0000 C   0  0  0  0  0  0  0  0  0  0  0  0
    7.0160   -1.1930    0.0000 O   0  0  0  0  0  0  0  0  0  0  0  0
    4.4180    0.3070    0.0000 C   0  0  0  0  0  0  0  0  0  0  0  0
    3.1190    1.0570    0.0000 C   0  0  0  0  0  0  0  0  0  0  0  0
    1.8200    0.3070    0.0000 C   0  0  0  0  0  0  0  0  0  0  0  0
   -0.7780   -1.1930    0.0000 C   0  0  0  0  0  0  0  0  0  0  0  0
   -0.7780    0.3070    0.0000 C   0  0  0  0  0  0  0  0  0  0  0  0
   -2.0770    1.0570    0.0000 C   0  0  0  0  0  0  0  0  0  0  0  0
   -3.3770    0.3070    0.0000 C   0  0  0  0  0  0  0  0  0  0  0  0
   -3.3770   -1.1930    0.0000 C   0  0  0  0  0  0  0  0  0  0  0  0
   -2.0770   -1.9430    0.0000 C   0  0  0  0  0  0  0  0  0  0  0  0
  1  2  1  0  0  0  0
  1 10  1  0  0  0  0
  2  3  1  0  0  0  0
  2  9  2  0  0  0  0
  3  4  2  0  0  0  0
  4  5  1  0  0  0  0
  4  7  1  0  0  0  0
  5  6  1  0  0  0  0
  7  8  2  0  0  0  0
  8  9  1  0  0  0  0
 10 11  1  0  0  0  0
 10 15  2  0  0  0  0
 11 12  2  0  0  0  0
 12 13  1  0  0  0  0
 13 14  2  0  0  0  0
 14 15  1  0  0  0  0
M  END
>  <name>
O(c1cc(C[O;ester])ccc1)c1ccccc1

>  <apo>
1

>  <freq>
1

>  <freq0>
0

>  <freq1>
1

>  <freqA>
0.99887151

>  <a_count>
27

$$$$

  MOE2015           2D

 15 17  0  0  0  0  0  0  0  0999 V2000
    1.9710    0.9300    0.0000 O   0  0  0  0  0  0  0  0  0  0  0  0
    3.1770    0.0390    0.0000 C   0  0  0  0  0  0  0  0  0  0  0  0
    3.2340   -1.4600    0.0000 C   0  0  0  0  0  0  0  0  0  0  0  0
    4.5600   -2.1610    0.0000 C   0  0  0  0  0  0  0  0  0  0  0  0
    5.8300   -1.3620    0.0000 C   0  0  0  0  0  0  0  0  0  0  0  0
    5.7740    0.1360    0.0000 C   0  0  0  0  0  0  0  0  0  0  0  0
    4.4470    0.8370    0.0000 C   0  0  0  0  0  0  0  0  0  0  0  0
    2.0970   -2.4390    0.0000 C   0  0  0  0  0  0  0  0  0  0  0  0
    0.6240   -2.1590    0.0000 C   0  0  0  0  0  0  0  0  0  0  0  0
   -0.0780   -0.8320    0.0000 C   0  0  0  0  0  0  0  0  0  0  0  0
   -1.5770   -0.7760    0.0000 C   0  0  0  0  0  0  0  0  0  0  0  0
   -2.3750   -2.0460    0.0000 C   0  0  0  0  0  0  0  0  0  0  0  0
   -1.6740   -3.3730    0.0000 C   0  0  0  0  0  0  0  0  0  0  0  0
   -0.1750   -3.4290    0.0000 C   0  0  0  0  0  0  0  0  0  0  0  0
    0.5220    0.5430    0.0000 C   0  0  0  0  0  0  0  0  0  0  0  0
  1  2  1  0  0  0  0
  1 15  1  0  0  0  0
  2  3  1  0  0  0  0
  2  7  2  0  0  0  0
  3  4  2  0  0  0  0
  3  8  1  0  0  0  0
  4  5  1  0  0  0  0
  5  6  2  0  0  0  0
  6  7  1  0  0  0  0
  8  9  1  0  0  0  0
  9 10  1  0  0  0  0
  9 14  2  0  0  0  0
 10 11  2  0  0  0  0
 10 15  1  0  0  0  0
 11 12  1  0  0  0  0
 12 13  2  0  0  0  0
 13 14  1  0  0  0  0
M  END
>  <name>
O1c2c(cccc2)[C;olefin]c2c(cccc2)C1

>  <apo>
1

>  <freq>
1

>  <freq0>
0

>  <freq1>
1

>  <freqA>
0.99887151

>  <a_count>
27

$$$$

  MOE2015           2D

 11 10  0  0  0  0  0  0  0  0999 V2000
   -0.4470   -1.6670    0.0000 O   0  0  0  0  0  0  0  0  0  0  0  0
    0.8520   -2.4170    0.0000 C   0  0  0  0  0  0  0  0  0  0  0  0
    2.1510   -1.6670    0.0000 N   0  0  0  0  0  0  0  0  0  0  0  0
    2.1510   -0.1670    0.0000 O   0  0  0  0  0  0  0  0  0  0  0  0
    3.4510   -2.4170    0.0000 C   0  0  0  0  0  0  0  0  0  0  0  0
    4.7500   -1.6670    0.0000 C   0  0  0  0  0  0  0  0  0  0  0  0
    6.0490   -2.4170    0.0000 C   0  0  0  0  0  0  0  0  0  0  0  0
    7.3480   -1.6670    0.0000 C   0  0  0  0  0  0  0  0  0  0  0  0
    8.6470   -2.4170    0.0000 C   0  0  0  0  0  0  0  0  0  0  0  0
    9.9460   -1.6670    0.0000 N   0  0  0  0  0  0  0  0  0  0  0  0
    0.8520   -3.9170    0.0000 C   0  0  0  0  0  0  0  0  0  0  0  0
  1  2  2  0  0  0  0
  2  3  1  0  0  0  0
  2 11  1  0  0  0  0
  3  4  1  0  0  0  0
  3  5  1  0  0  0  0
  5  6  1  0  0  0  0
  6  7  1  0  0  0  0
  7  8  1  0  0  0  0
  8  9  1  0  0  0  0
  9 10  1  0  0  0  0
M  END
>  <name>
O=C(N(O)CCCCC[N;amide])C

>  <apo>
1

>  <freq>
1

>  <freq0>
0

>  <freq1>
1

>  <freqA>
0.99887151

>  <a_count>
27

$$$$

  MOE2015           2D

 15 15  0  0  0  0  0  0  0  0999 V2000
    6.6570   -1.6570    0.0000 O   0  0  0  0  0  0  0  0  0  0  0  0
    6.6570   -3.1570    0.0000 C   0  0  0  0  0  0  0  0  0  0  0  0
    7.9560   -3.9070    0.0000 N   0  0  0  0  0  0  0  0  0  0  0  0
    5.3580   -3.9070    0.0000 C   0  0  0  0  0  0  0  0  0  0  0  0
    4.0590   -3.1570    0.0000 C   0  0  0  0  0  0  0  0  0  0  0  0
    2.7600   -3.9070    0.0000 C   0  0  0  0  0  0  0  0  0  0  0  0
    2.7600   -5.4070    0.0000 N   0  0  0  0  0  0  0  0  0  0  0  0
    1.4610   -6.1570    0.0000 C   0  0  0  0  0  0  0  0  0  0  0  0
    1.4610   -7.6570    0.0000 N   0  0  0  0  0  0  0  0  0  0  0  0
    0.1620   -5.4070    0.0000 C   0  0  0  0  0  0  0  0  0  0  0  0
   -1.1370   -6.1570    0.0000 C   0  0  0  0  0  0  0  0  0  0  0  0
    0.1620   -3.9070    0.0000 C   0  0  0  0  0  0  0  0  0  0  0  0
   -1.1370   -3.1570    0.0000 C   0  0  0  0  0  0  0  0  0  0  0  0
   -1.1370   -1.6570    0.0000 O   0  0  0  0  0  0  0  0  0  0  0  0
    1.4610   -3.1570    0.0000 N   0  0  0  0  0  0  0  0  0  0  0  0
  1  2  2  0  0  0  0
  2  3  1  0  0  0  0
  2  4  1  0  0  0  0
  4  5  1  0  0  0  0
  5  6  1  0  0  0  0
  6  7  1  0  0  0  0
  6 15  2  0  0  0  0
  7  8  2  0  0  0  0
  8  9  1  0  0  0  0
  8 10  1  0  0  0  0
 10 11  1  0  0  0  0
 10 12  2  0  0  0  0
 12 13  1  0  0  0  0
 12 15  1  0  0  0  0
 13 14  2  0  0  0  0
M  END
>  <name>
O=C(N)C[C;amine]c1nc(N)c(C)c([C;amide]=O)n1

>  <apo>
2

>  <freq>
1

>  <freq0>
0

>  <freq1>
1

>  <freqA>
0.99887151

>  <a_count>
27

$$$$

  MOE2015           2D

 12 11  0  0  1  0  0  0  0  0999 V2000
   -0.4170   -2.5570    0.0000 O   0  0  0  0  0  0  0  0  0  0  0  0
    0.8820   -1.8070    0.0000 C   0  0  0  0  0  0  0  0  0  0  0  0
    0.8820   -0.3070    0.0000 N   0  0  0  0  0  0  0  0  0  0  0  0
    2.1810   -2.5570    0.0000 C   0  0  2  0  0  0  0  0  0  0  0  0
    2.1810   -4.0570    0.0000 N   0  0  0  0  0  0  0  0  0  0  0  0
    3.4800   -1.8070    0.0000 C   0  0  0  0  0  0  0  0  0  0  0  0
    4.7790   -2.5570    0.0000 C   0  0  0  0  0  0  0  0  0  0  0  0
    6.0780   -1.8070    0.0000 C   0  0  0  0  0  0  0  0  0  0  0  0
    7.3770   -2.5570    0.0000 N   0  0  0  0  0  0  0  0  0  0  0  0
    8.6760   -1.8070    0.0000 C   0  0  0  0  0  0  0  0  0  0  0  0
    9.9750   -2.5570    0.0000 N   0  0  0  0  0  0  0  0  0  0  0  0
    8.6760   -0.3070    0.0000 N   0  0  0  0  0  0  0  0  0  0  0  0
  1  2  2  0  0  0  0
  2  3  1  0  0  0  0
  2  4  1  0  0  0  0
  4  5  1  1  0  0  0
  4  6  1  0  0  0  0
  6  7  1  0  0  0  0
  7  8  1  0  0  0  0
  8  9  1  0  0  0  0
  9 10  1  0  0  0  0
 10 11  2  0  0  0  0
 10 12  1  0  0  0  0
M  END
>  <name>
O=C(N)[C@H]([N;amide])CCCNC(=N)N

>  <apo>
1

>  <freq>
1

>  <freq0>
0

>  <freq1>
1

>  <freqA>
0.99887151

>  <a_count>
27

$$$$

  MOE2015           2D

 11 11  0  0  0  0  0  0  0  0999 V2000
    3.6030    1.8300    0.0000 O   0  0  0  0  0  0  0  0  0  0  0  0
    3.6030    3.3300    0.0000 C   0  0  0  0  0  0  0  0  0  0  0  0
    2.3030    4.0800    0.0000 N   0  0  0  0  0  0  0  0  0  0  0  0
    1.0040    3.3300    0.0000 C   0  0  0  0  0  0  0  0  0  0  0  0
    1.0040    1.8300    0.0000 C   0  0  0  0  0  0  0  0  0  0  0  0
   -0.2950    1.0800    0.0000 C   0  0  0  0  0  0  0  0  0  0  0  0
   -1.5940    1.8300    0.0000 C   0  0  0  0  0  0  0  0  0  0  0  0
   -2.8930    1.0800    0.0000 C   0  0  0  0  0  0  0  0  0  0  0  0
   -1.5940    3.3300    0.0000 C   0  0  0  0  0  0  0  0  0  0  0  0
   -0.2950    4.0800    0.0000 C   0  0  0  0  0  0  0  0  0  0  0  0
    4.9020    4.0800    0.0000 N   0  0  0  0  0  0  0  0  0  0  0  0
  1  2  2  0  0  0  0
  2  3  1  0  0  0  0
  2 11  1  0  0  0  0
  3  4  1  0  0  0  0
  4  5  1  0  0  0  0
  4 10  1  0  0  0  0
  5  6  1  0  0  0  0
  6  7  1  0  0  0  0
  7  8  1  0  0  0  0
  7  9  1  0  0  0  0
  9 10  1  0  0  0  0
M  END
>  <name>
O=C(NC1CCC(C)CC1)[N;so2amide]

>  <apo>
1

>  <freq>
1

>  <freq0>
0

>  <freq1>
1

>  <freqA>
0.99887151

>  <a_count>
27

$$$$

  MOE2015           2D

 12 13  0  0  1  0  0  0  0  0999 V2000
    3.0190    5.2300    0.0000 O   0  0  0  0  0  0  0  0  0  0  0  0
    3.7690    3.9310    0.0000 C   0  0  0  0  0  0  0  0  0  0  0  0
    3.0190    2.6320    0.0000 N   0  0  0  0  0  0  0  0  0  0  0  0
    1.5190    2.6320    0.0000 N   0  0  0  0  0  0  0  0  0  0  0  0
    0.6380    3.8450    0.0000 C   0  0  0  0  0  0  0  0  0  0  0  0
   -0.7890    3.3820    0.0000 C   0  0  1  0  0  0  0  0  0  0  0  0
   -0.7890    1.8820    0.0000 C   0  0  1  0  0  0  0  0  0  0  0  0
    0.6380    1.4180    0.0000 C   0  0  0  0  0  0  0  0  0  0  0  0
   -2.2150    1.4180    0.0000 C   0  0  0  0  0  0  0  0  0  0  0  0
   -3.0970    2.6320    0.0000 C   0  0  0  0  0  0  0  0  0  0  0  0
   -2.2150    3.8450    0.0000 C   0  0  0  0  0  0  0  0  0  0  0  0
    5.2690    3.9310    0.0000 N   0  0  0  0  0  0  0  0  0  0  0  0
  1  2  2  0  0  0  0
  2  3  1  0  0  0  0
  2 12  1  0  0  0  0
  3  4  1  0  0  0  0
  4  5  1  0  0  0  0
  4  8  1  0  0  0  0
  6  5  1  1  0  0  0
  6  7  1  0  0  0  0
  6 11  1  0  0  0  0
  7  8  1  0  0  0  0
  7  9  1  1  0  0  0
  9 10  1  0  0  0  0
 10 11  1  0  0  0  0
M  END
>  <name>
O=C(NN1C[C@H]2[C@@H](C1)CCC2)[N;so2amide]

>  <apo>
1

>  <freq>
1

>  <freq0>
0

>  <freq1>
1

>  <freqA>
0.99887151

>  <a_count>
27

$$$$

  MOE2015           2D

 12 11  0  0  0  0  0  0  0  0999 V2000
   -1.8850    5.2600    0.0000 O   0  0  0  0  0  0  0  0  0  0  0  0
   -1.8850    3.7600    0.0000 C   0  0  0  0  0  0  0  0  0  0  0  0
   -3.1840    3.0100    0.0000 N   0  0  0  0  0  0  0  0  0  0  0  0
   -4.4830    3.7600    0.0000 O   0  0  0  0  0  0  0  0  0  0  0  0
   -0.5860    3.0100    0.0000 C   0  0  0  0  0  0  0  0  0  0  0  0
    0.7130    3.7600    0.0000 C   0  0  0  0  0  0  0  0  0  0  0  0
    2.0120    3.0100    0.0000 C   0  0  0  0  0  0  0  0  0  0  0  0
    3.3110    3.7600    0.0000 C   0  0  0  0  0  0  0  0  0  0  0  0
    4.6100    3.0100    0.0000 C   0  0  0  0  0  0  0  0  0  0  0  0
    5.9090    3.7600    0.0000 C   0  0  0  0  0  0  0  0  0  0  0  0
    7.2080    3.0100    0.0000 C   0  0  0  0  0  0  0  0  0  0  0  0
    8.5070    3.7600    0.0000 O   0  0  0  0  0  0  0  0  0  0  0  0
  1  2  2  0  0  0  0
  2  3  1  0  0  0  0
  2  5  1  0  0  0  0
  3  4  1  0  0  0  0
  5  6  1  0  0  0  0
  6  7  1  0  0  0  0
  7  8  1  0  0  0  0
  8  9  1  0  0  0  0
  9 10  1  0  0  0  0
 10 11  1  0  0  0  0
 11 12  2  0  0  0  0
M  END
>  <name>
O=C(NO)CCCCCC[C;amide]=O

>  <apo>
1

>  <freq>
1

>  <freq0>
0

>  <freq1>
1

>  <freqA>
0.99887151

>  <a_count>
27

$$$$

  MOE2015           2D

 16 17  0  0  0  0  0  0  0  0999 V2000
    7.0310    4.0590    0.0000 O   0  0  0  0  0  0  0  0  0  0  0  0
    6.2810    2.7600    0.0000 C   0  0  0  0  0  0  0  0  0  0  0  0
    7.0310    1.4610    0.0000 O   0  0  0  0  0  0  0  0  0  0  0  0
    4.7810    2.7600    0.0000 C   0  0  0  0  0  0  0  0  0  0  0  0
    4.0310    1.4610    0.0000 C   0  0  0  0  0  0  0  0  0  0  0  0
    4.7810    0.1620    0.0000 O   0  0  0  0  0  0  0  0  0  0  0  0
    2.5310    1.4610    0.0000 C   0  0  0  0  0  0  0  0  0  0  0  0
    1.7810    2.7600    0.0000 C   0  0  0  0  0  0  0  0  0  0  0  0
    2.5310    4.0590    0.0000 N   0  0  0  0  0  0  0  0  0  0  0  0
    1.7810    5.3590    0.0000 C   0  0  0  0  0  0  0  0  0  0  0  0
    2.5310    6.6580    0.0000 C   0  0  0  0  0  0  0  0  0  0  0  0
    4.0310    4.0590    0.0000 C   0  0  0  0  0  0  0  0  0  0  0  0
    0.2810    2.7600    0.0000 C   0  0  0  0  0  0  0  0  0  0  0  0
   -0.4690    1.4610    0.0000 C   0  0  0  0  0  0  0  0  0  0  0  0
    0.2810    0.1620    0.0000 C   0  0  0  0  0  0  0  0  0  0  0  0
    1.7810    0.1620    0.0000 C   0  0  0  0  0  0  0  0  0  0  0  0
  1  2  2  0  0  0  0
  2  3  1  0  0  0  0
  2  4  1  0  0  0  0
  4  5  1  0  0  0  0
  4 12  2  0  0  0  0
  5  6  2  0  0  0  0
  5  7  1  0  0  0  0
  7  8  1  0  0  0  0
  7 16  2  0  0  0  0
  8  9  1  0  0  0  0
  8 13  2  0  0  0  0
  9 10  1  0  0  0  0
  9 12  1  0  0  0  0
 10 11  1  0  0  0  0
 13 14  1  0  0  0  0
 14 15  2  0  0  0  0
 15 16  1  0  0  0  0
M  END
>  <name>
O=C(O)C=1C(=O)c2c(N(CC)C=1)c[c;biphenyl]cc2

>  <apo>
1

>  <freq>
1

>  <freq0>
0

>  <freq1>
1

>  <freqA>
0.99887151

>  <a_count>
27

$$$$

  MOE2015           2D

 12 13  0  0  1  0  0  0  0  0999 V2000
    6.6760   -3.8540    0.0000 O   0  0  0  0  0  0  0  0  0  0  0  0
    5.9260   -2.5550    0.0000 C   0  0  0  0  0  0  0  0  0  0  0  0
    6.6760   -1.2560    0.0000 O   0  0  0  0  0  0  0  0  0  0  0  0
    4.4260   -2.5550    0.0000 C   0  0  1  0  0  0  0  0  0  0  0  0
    3.5440   -1.3420    0.0000 N   0  0  0  0  0  0  0  0  0  0  0  0
    2.1180   -1.8050    0.0000 C   0  0  2  0  0  0  0  0  0  0  0  0
    2.1180   -3.3050    0.0000 C   0  0  1  0  0  0  0  0  0  0  0  0
    3.5440   -3.7690    0.0000 C   0  0  0  0  0  0  0  0  0  0  0  0
    0.8190   -4.0550    0.0000 C   0  0  0  0  0  0  0  0  0  0  0  0
   -0.4800   -3.3050    0.0000 C   0  0  0  0  0  0  0  0  0  0  0  0
   -0.4800   -1.8050    0.0000 C   0  0  0  0  0  0  0  0  0  0  0  0
    0.8190   -1.0550    0.0000 C   0  0  0  0  0  0  0  0  0  0  0  0
  1  2  2  0  0  0  0
  2  3  1  0  0  0  0
  4  2  1  6  0  0  0
  4  5  1  0  0  0  0
  4  8  1  0  0  0  0
  5  6  1  0  0  0  0
  6  7  1  0  0  0  0
  6 12  1  6  0  0  0
  7  8  1  0  0  0  0
  7  9  1  1  0  0  0
  9 10  1  0  0  0  0
 10 11  1  0  0  0  0
 11 12  1  0  0  0  0
M  END
>  <name>
O=C(O)[C@H]1[N;amide][C@@H]2[C@@H](C1)CCCC2

>  <apo>
1

>  <freq>
1

>  <freq0>
0

>  <freq1>
1

>  <freqA>
0.99887151

>  <a_count>
27

$$$$

  MOE2015           2D

 12 13  0  0  1  0  0  0  0  0999 V2000
    6.6760   -3.8540    0.0000 O   0  0  0  0  0  0  0  0  0  0  0  0
    5.9260   -2.5550    0.0000 C   0  0  0  0  0  0  0  0  0  0  0  0
    6.6760   -1.2560    0.0000 O   0  0  0  0  0  0  0  0  0  0  0  0
    4.4260   -2.5550    0.0000 C   0  0  1  0  0  0  0  0  0  0  0  0
    3.5440   -1.3420    0.0000 N   0  0  0  0  0  0  0  0  0  0  0  0
    2.1180   -1.8050    0.0000 C   0  0  2  0  0  0  0  0  0  0  0  0
    2.1180   -3.3050    0.0000 C   0  0  2  0  0  0  0  0  0  0  0  0
    3.5440   -3.7690    0.0000 C   0  0  0  0  0  0  0  0  0  0  0  0
    0.8190   -4.0550    0.0000 C   0  0  0  0  0  0  0  0  0  0  0  0
   -0.4800   -3.3050    0.0000 C   0  0  0  0  0  0  0  0  0  0  0  0
   -0.4800   -1.8050    0.0000 C   0  0  0  0  0  0  0  0  0  0  0  0
    0.8190   -1.0550    0.0000 C   0  0  0  0  0  0  0  0  0  0  0  0
  1  2  2  0  0  0  0
  2  3  1  0  0  0  0
  4  2  1  6  0  0  0
  4  5  1  0  0  0  0
  4  8  1  0  0  0  0
  5  6  1  0  0  0  0
  6  7  1  0  0  0  0
  6 12  1  6  0  0  0
  7  8  1  0  0  0  0
  7  9  1  6  0  0  0
  9 10  1  0  0  0  0
 10 11  1  0  0  0  0
 11 12  1  0  0  0  0
M  END
>  <name>
O=C(O)[C@H]1[N;amide][C@@H]2[C@H](C1)CCCC2

>  <apo>
1

>  <freq>
1

>  <freq0>
0

>  <freq1>
1

>  <freqA>
0.99887151

>  <a_count>
27

$$$$

  MOE2015           2D

 12 11  0  0  0  0  0  0  0  0999 V2000
    1.0210    1.0210    0.0000 O   0  0  0  0  0  0  0  0  0  0  0  0
    1.0210   -0.4790    0.0000 C   0  0  0  0  0  0  0  0  0  0  0  0
   -0.2780   -1.2290    0.0000 O   0  0  0  0  0  0  0  0  0  0  0  0
   -1.5770   -0.4790    0.0000 C   0  0  0  0  0  0  0  0  0  0  0  0
   -0.8270    0.8200    0.0000 C   0  0  0  0  0  0  0  0  0  0  0  0
   -2.3270   -1.7780    0.0000 C   0  0  0  0  0  0  0  0  0  0  0  0
   -2.8760    0.2710    0.0000 C   0  0  0  0  0  0  0  0  0  0  0  0
    2.3200   -1.2290    0.0000 N   0  0  0  0  0  0  0  0  0  0  0  0
    3.6190   -0.4790    0.0000 C   0  0  0  0  0  0  0  0  0  0  0  0
    4.9180   -1.2290    0.0000 C   0  0  0  0  0  0  0  0  0  0  0  0
    6.2170   -0.4790    0.0000 C   0  0  0  0  0  0  0  0  0  0  0  0
    7.5160   -1.2290    0.0000 O   0  0  0  0  0  0  0  0  0  0  0  0
  1  2  2  0  0  0  0
  2  3  1  0  0  0  0
  2  8  1  0  0  0  0
  3  4  1  0  0  0  0
  4  5  1  0  0  0  0
  4  6  1  0  0  0  0
  4  7  1  0  0  0  0
  8  9  1  0  0  0  0
  9 10  1  0  0  0  0
 10 11  1  0  0  0  0
 11 12  2  0  0  0  0
M  END
>  <name>
O=C(OC(C)(C)C)NCC[C;amide]=O

>  <apo>
1

>  <freq>
1

>  <freq0>
0

>  <freq1>
1

>  <freqA>
0.99887151

>  <a_count>
27

$$$$

  MOE2015           2D

 12 11  0  0  1  0  0  0  0  0999 V2000
    3.4490   -0.4490    0.0000 O   0  0  0  0  0  0  0  0  0  0  0  0
    3.4490   -1.9490    0.0000 C   0  0  0  0  0  0  0  0  0  0  0  0
    4.7480   -2.6990    0.0000 O   0  0  0  0  0  0  0  0  0  0  0  0
    6.0470   -1.9490    0.0000 C   0  0  0  0  0  0  0  0  0  0  0  0
    2.1500   -2.6990    0.0000 N   0  0  0  0  0  0  0  0  0  0  0  0
    0.8500   -1.9490    0.0000 C   0  0  1  0  0  0  0  0  0  0  0  0
   -0.4490   -2.6990    0.0000 C   0  0  0  0  0  0  0  0  0  0  0  0
   -1.1990   -1.4000    0.0000 C   0  0  0  0  0  0  0  0  0  0  0  0
    0.3010   -3.9980    0.0000 C   0  0  0  0  0  0  0  0  0  0  0  0
   -1.7480   -3.4490    0.0000 C   0  0  0  0  0  0  0  0  0  0  0  0
    0.8500   -0.4490    0.0000 C   0  0  0  0  0  0  0  0  0  0  0  0
   -0.4490    0.3010    0.0000 O   0  0  0  0  0  0  0  0  0  0  0  0
  1  2  2  0  0  0  0
  2  3  1  0  0  0  0
  2  5  1  0  0  0  0
  3  4  1  0  0  0  0
  6  5  1  1  0  0  0
  6  7  1  0  0  0  0
  6 11  1  0  0  0  0
  7  8  1  0  0  0  0
  7  9  1  0  0  0  0
  7 10  1  0  0  0  0
 11 12  2  0  0  0  0
M  END
>  <name>
O=C(OC)N[C@@H](C(C)(C)C)[C;amide]=O

>  <apo>
1

>  <freq>
1

>  <freq0>
0

>  <freq1>
1

>  <freqA>
0.99887151

>  <a_count>
27

$$$$

  MOE2015           2D

 14 14  0  0  1  0  0  0  0  0999 V2000
   -1.8300   -1.8300    0.0000 O   0  0  0  0  0  0  0  0  0  0  0  0
   -1.8300   -3.3300    0.0000 C   0  0  0  0  0  0  0  0  0  0  0  0
   -0.5310   -4.0800    0.0000 O   0  0  0  0  0  0  0  0  0  0  0  0
    0.7680   -3.3300    0.0000 C   0  0  3  0  0  0  0  0  0  0  0  0
    2.0670   -4.0800    0.0000 C   0  0  3  0  0  0  0  0  0  0  0  0
    2.0670   -5.5800    0.0000 O   0  0  0  0  0  0  0  0  0  0  0  0
    3.3660   -3.3300    0.0000 C   0  0  3  0  0  0  0  0  0  0  0  0
    4.6650   -4.0800    0.0000 C   0  0  0  0  0  0  0  0  0  0  0  0
    5.9640   -3.3300    0.0000 O   0  0  0  0  0  0  0  0  0  0  0  0
    3.3660   -1.8300    0.0000 O   0  0  0  0  0  0  0  0  0  0  0  0
    2.0670   -1.0800    0.0000 C   0  0  0  0  0  0  0  0  0  0  0  0
    0.7680   -1.8300    0.0000 C   0  0  3  0  0  0  0  0  0  0  0  0
   -0.5310   -1.0800    0.0000 O   0  0  0  0  0  0  0  0  0  0  0  0
   -3.1290   -4.0800    0.0000 N   0  0  0  0  0  0  0  0  0  0  0  0
  1  2  2  0  0  0  0
  2  3  1  0  0  0  0
  2 14  1  0  0  0  0
  3  4  1  0  0  0  0
  4  5  1  0  0  0  0
  4 12  1  0  0  0  0
  5  6  1  0  0  0  0
  5  7  1  0  0  0  0
  7  8  1  0  0  0  0
  7 10  1  0  0  0  0
  8  9  1  0  0  0  0
 10 11  1  0  0  0  0
 11 12  1  0  0  0  0
 12 13  1  0  0  0  0
M  END
>  <name>
O=C(OC1C(O)C(CO)O[C;ether]C1O)N

>  <apo>
1

>  <freq>
1

>  <freq0>
0

>  <freq1>
1

>  <freqA>
0.99887151

>  <a_count>
27

$$$$

  MOE2015           2D

 14 14  0  0  0  0  0  0  0  0999 V2000
    3.1810    0.7160    0.0000 O   0  0  0  0  0  0  0  0  0  0  0  0
    3.1810    2.2160    0.0000 C   0  0  0  0  0  0  0  0  0  0  0  0
    4.4800    2.9660    0.0000 O   0  0  0  0  0  0  0  0  0  0  0  0
    5.7790    2.2160    0.0000 C   0  0  0  0  0  0  0  0  0  0  0  0
    7.0780    2.9660    0.0000 C   0  0  0  0  0  0  0  0  0  0  0  0
    1.8820    2.9660    0.0000 N   0  0  0  0  0  0  0  0  0  0  0  0
    0.5830    2.2160    0.0000 C   0  0  0  0  0  0  0  0  0  0  0  0
   -0.7160    2.9660    0.0000 C   0  0  0  0  0  0  0  0  0  0  0  0
   -0.7160    4.4660    0.0000 N   0  0  0  0  0  0  0  0  0  0  0  0
   -2.0150    2.2160    0.0000 C   0  0  0  0  0  0  0  0  0  0  0  0
   -2.0150    0.7160    0.0000 C   0  0  0  0  0  0  0  0  0  0  0  0
   -3.3140   -0.0340    0.0000 N   0  0  0  0  0  0  0  0  0  0  0  0
   -0.7160   -0.0340    0.0000 C   0  0  0  0  0  0  0  0  0  0  0  0
    0.5830    0.7160    0.0000 C   0  0  0  0  0  0  0  0  0  0  0  0
  1  2  2  0  0  0  0
  2  3  1  0  0  0  0
  2  6  1  0  0  0  0
  3  4  1  0  0  0  0
  4  5  1  0  0  0  0
  6  7  1  0  0  0  0
  7  8  1  0  0  0  0
  7 14  2  0  0  0  0
  8  9  1  0  0  0  0
  8 10  2  0  0  0  0
 10 11  1  0  0  0  0
 11 12  1  0  0  0  0
 11 13  2  0  0  0  0
 13 14  1  0  0  0  0
M  END
>  <name>
O=C(OCC)Nc1c(N)cc([N;amine])cc1

>  <apo>
1

>  <freq>
1

>  <freq0>
0

>  <freq1>
1

>  <freqA>
0.99887151

>  <a_count>
27

$$$$

  MOE2015           2D

 15 16  0  0  0  0  0  0  0  0999 V2000
    0.3960   -1.4770    0.0000 O   0  0  0  0  0  0  0  0  0  0  0  0
    1.6950   -0.7270    0.0000 C   0  0  0  0  0  0  0  0  0  0  0  0
    1.6950    0.7730    0.0000 C   0  0  0  0  0  0  0  0  0  0  0  0
    0.3960    1.5230    0.0000 C   0  0  0  0  0  0  0  0  0  0  0  0
   -0.9030    0.7730    0.0000 C   0  0  0  0  0  0  0  0  0  0  0  0
    2.9940    1.5230    0.0000 C   0  0  0  0  0  0  0  0  0  0  0  0
    2.9940    3.0230    0.0000 C   0  0  0  0  0  0  0  0  0  0  0  0
    4.2930    0.7730    0.0000 C   0  0  0  0  0  0  0  0  0  0  0  0
    4.2930   -0.7270    0.0000 C   0  0  0  0  0  0  0  0  0  0  0  0
    2.9940   -1.4770    0.0000 O   0  0  0  0  0  0  0  0  0  0  0  0
    5.5920   -1.4770    0.0000 C   0  0  0  0  0  0  0  0  0  0  0  0
    6.8910   -0.7270    0.0000 C   0  0  0  0  0  0  0  0  0  0  0  0
    8.1900   -1.4770    0.0000 O   0  0  0  0  0  0  0  0  0  0  0  0
    6.8910    0.7730    0.0000 C   0  0  0  0  0  0  0  0  0  0  0  0
    5.5920    1.5230    0.0000 C   0  0  0  0  0  0  0  0  0  0  0  0
  1  2  2  0  0  0  0
  2  3  1  0  0  0  0
  2 10  1  0  0  0  0
  3  4  1  0  0  0  0
  3  6  2  0  0  0  0
  4  5  1  0  0  0  0
  6  7  1  0  0  0  0
  6  8  1  0  0  0  0
  8  9  1  0  0  0  0
  8 15  2  0  0  0  0
  9 10  1  0  0  0  0
  9 11  2  0  0  0  0
 11 12  1  0  0  0  0
 12 13  1  0  0  0  0
 12 14  2  0  0  0  0
 14 15  1  0  0  0  0
M  END
>  <name>
O=C1C(C[C;amine])=C(C)c2c(O1)cc([O;ether])cc2

>  <apo>
2

>  <freq>
1

>  <freq0>
0

>  <freq1>
1

>  <freqA>
0.99887151

>  <a_count>
27

$$$$

  MOE2015           2D

 15 16  0  0  0  0  0  0  0  0999 V2000
    3.2100   -2.6900    0.0000 O   0  0  0  0  0  0  0  0  0  0  0  0
    3.2100   -1.1900    0.0000 C   0  0  0  0  0  0  0  0  0  0  0  0
    4.5090   -0.4400    0.0000 C   0  0  0  0  0  0  0  0  0  0  0  0
    5.8080   -1.1900    0.0000 C   0  0  0  0  0  0  0  0  0  0  0  0
    7.1070   -0.4400    0.0000 C   0  0  0  0  0  0  0  0  0  0  0  0
    4.5090    1.0600    0.0000 C   0  0  0  0  0  0  0  0  0  0  0  0
    5.8080    1.8100    0.0000 C   0  0  0  0  0  0  0  0  0  0  0  0
    3.2100    1.8100    0.0000 C   0  0  0  0  0  0  0  0  0  0  0  0
    3.2100    3.3100    0.0000 O   0  0  0  0  0  0  0  0  0  0  0  0
    1.9110    1.0600    0.0000 C   0  0  0  0  0  0  0  0  0  0  0  0
    1.9110   -0.4400    0.0000 C   0  0  0  0  0  0  0  0  0  0  0  0
    0.6120   -1.1900    0.0000 C   0  0  0  0  0  0  0  0  0  0  0  0
   -0.6870   -0.4400    0.0000 C   0  0  0  0  0  0  0  0  0  0  0  0
   -0.6870    1.0600    0.0000 C   0  0  0  0  0  0  0  0  0  0  0  0
    0.6120    1.8100    0.0000 C   0  0  0  0  0  0  0  0  0  0  0  0
  1  2  2  0  0  0  0
  2  3  1  0  0  0  0
  2 11  1  0  0  0  0
  3  4  1  0  0  0  0
  3  6  2  0  0  0  0
  4  5  1  0  0  0  0
  6  7  1  0  0  0  0
  6  8  1  0  0  0  0
  8  9  2  0  0  0  0
  8 10  1  0  0  0  0
 10 11  1  0  0  0  0
 10 15  2  0  0  0  0
 11 12  2  0  0  0  0
 12 13  1  0  0  0  0
 13 14  2  0  0  0  0
 14 15  1  0  0  0  0
M  END
>  <name>
O=C1C(C[C;olefin])=C(C)C(=O)c2c1cccc2

>  <apo>
1

>  <freq>
1

>  <freq0>
0

>  <freq1>
1

>  <freqA>
0.99887151

>  <a_count>
27

$$$$

  MOE2015           2D

 11 12  0  0  1  0  0  0  0  0999 V2000
    1.7580    0.7510    0.0000 O   0  0  0  0  0  0  0  0  0  0  0  0
    0.7210   -0.3330    0.0000 C   0  0  0  0  0  0  0  0  0  0  0  0
    1.4350   -1.4250    0.0000 C   0  0  3  0  0  0  0  0  0  0  0  0
    2.3080   -2.6450    0.0000 C   0  0  0  0  0  0  0  0  0  0  0  0
    2.8000   -1.2060    0.0000 C   0  0  0  0  0  0  0  0  0  0  0  0
    3.9090   -2.2160    0.0000 C   0  0  0  0  0  0  0  0  0  0  0  0
    3.8890   -0.1750    0.0000 C   0  0  0  0  0  0  0  0  0  0  0  0
    0.2520   -0.9960    0.0000 C   0  0  3  0  0  0  0  0  0  0  0  0
   -0.3580    0.3090    0.0000 C   0  0  0  0  0  0  0  0  0  0  0  0
   -0.4120   -2.1930    0.0000 C   0  0  0  0  0  0  0  0  0  0  0  0
    0.6170   -2.7220    0.0000 C   0  0  0  0  0  0  0  0  0  0  0  0
  1  2  2  0  0  0  0
  2  3  1  0  0  0  0
  2  9  1  0  0  0  0
  3  4  1  0  0  0  0
  3  5  1  0  0  0  0
  3 11  1  0  0  0  0
  5  6  1  0  0  0  0
  5  7  1  0  0  0  0
  5  8  1  0  0  0  0
  8  9  1  0  0  0  0
  8 10  1  0  0  0  0
 10 11  1  0  0  0  0
M  END
>  <name>
O=C1C2(C)C(C)(C)C([C;olefin]1)CC2

>  <apo>
1

>  <freq>
1

>  <freq0>
0

>  <freq1>
1

>  <freqA>
0.99887151

>  <a_count>
27

$$$$

  MOE2015           2D

 14 15  0  0  1  0  0  0  0  0999 V2000
    2.4110    4.1750    0.0000 O   0  0  0  0  0  0  0  0  0  0  0  0
    3.1610    2.8760    0.0000 C   0  0  0  0  0  0  0  0  0  0  0  0
    4.6610    2.8760    0.0000 N   0  0  0  0  0  0  0  0  0  0  0  0
    5.4110    1.5770    0.0000 C   0  0  0  0  0  0  0  0  0  0  0  0
    6.9110    1.5770    0.0000 N   0  0  0  0  0  0  0  0  0  0  0  0
    4.6610    0.2780    0.0000 N   0  0  0  0  0  0  0  0  0  0  0  0
    3.1610    0.2780    0.0000 C   0  0  0  0  0  0  0  0  0  0  0  0
    2.4110   -1.0210    0.0000 N   0  0  0  0  0  0  0  0  0  0  0  0
    0.9110   -1.0210    0.0000 C   0  0  0  0  0  0  0  0  0  0  0  0
    0.1610    0.2780    0.0000 C   0  0  2  0  0  0  0  0  0  0  0  0
   -1.3390    0.2780    0.0000 C   0  0  0  0  0  0  0  0  0  0  0  0
    0.9110    1.5770    0.0000 N   0  0  0  0  0  0  0  0  0  0  0  0
    0.1610    2.8760    0.0000 C   0  0  0  0  0  0  0  0  0  0  0  0
    2.4110    1.5770    0.0000 C   0  0  0  0  0  0  0  0  0  0  0  0
  1  2  2  0  0  0  0
  2  3  1  0  0  0  0
  2 14  1  0  0  0  0
  3  4  2  0  0  0  0
  4  5  1  0  0  0  0
  4  6  1  0  0  0  0
  6  7  1  0  0  0  0
  7  8  1  0  0  0  0
  7 14  2  0  0  0  0
  8  9  1  0  0  0  0
  9 10  1  0  0  0  0
 10 11  1  6  0  0  0
 10 12  1  0  0  0  0
 12 13  1  0  0  0  0
 12 14  1  0  0  0  0
M  END
>  <name>
O=C1N=C(N)NC=2NC[C@H]([C;amine])N(C)C1=2

>  <apo>
1

>  <freq>
1

>  <freq0>
0

>  <freq1>
1

>  <freqA>
0.99887151

>  <a_count>
27

$$$$

  MOE2015           2D

 17 19  0  0  0  0  0  0  0  0999 V2000
    4.0280    3.1840    0.0000 O   0  0  0  0  0  0  0  0  0  0  0  0
    3.7530    1.7090    0.0000 C   0  0  0  0  0  0  0  0  0  0  0  0
    2.3060    1.3150    0.0000 N   0  0  0  0  0  0  0  0  0  0  0  0
    1.7110   -0.0620    0.0000 C   0  0  0  0  0  0  0  0  0  0  0  0
    0.2120   -0.0100    0.0000 C   0  0  0  0  0  0  0  0  0  0  0  0
   -0.4930    1.3140    0.0000 C   0  0  0  0  0  0  0  0  0  0  0  0
   -0.5830   -1.2820    0.0000 C   0  0  0  0  0  0  0  0  0  0  0  0
    0.1220   -2.6060    0.0000 C   0  0  0  0  0  0  0  0  0  0  0  0
    1.6210   -2.6580    0.0000 N   0  0  0  0  0  0  0  0  0  0  0  0
    2.4160   -1.3860    0.0000 C   0  0  0  0  0  0  0  0  0  0  0  0
    3.8900   -1.6610    0.0000 N   0  0  0  0  0  0  0  0  0  0  0  0
    5.0230   -0.6770    0.0000 C   0  0  0  0  0  0  0  0  0  0  0  0
    6.3520   -1.3740    0.0000 N   0  0  0  0  0  0  0  0  0  0  0  0
    7.6190   -0.5720    0.0000 C   0  0  0  0  0  0  0  0  0  0  0  0
    7.5590    0.9270    0.0000 C   0  0  0  0  0  0  0  0  0  0  0  0
    6.2300    1.6230    0.0000 C   0  0  0  0  0  0  0  0  0  0  0  0
    4.9630    0.8210    0.0000 C   0  0  0  0  0  0  0  0  0  0  0  0
  1  2  2  0  0  0  0
  2  3  1  0  0  0  0
  2 17  1  0  0  0  0
  3  4  1  0  0  0  0
  4  5  1  0  0  0  0
  4 10  2  0  0  0  0
  5  6  1  0  0  0  0
  5  7  2  0  0  0  0
  7  8  1  0  0  0  0
  8  9  2  0  0  0  0
  9 10  1  0  0  0  0
 10 11  1  0  0  0  0
 11 12  1  0  0  0  0
 12 13  1  0  0  0  0
 12 17  2  0  0  0  0
 13 14  2  0  0  0  0
 14 15  1  0  0  0  0
 15 16  2  0  0  0  0
 16 17  1  0  0  0  0
M  END
>  <name>
O=C1Nc2c(C)ccnc2[N;amine]c2ncccc12

>  <apo>
1

>  <freq>
1

>  <freq0>
0

>  <freq1>
1

>  <freqA>
0.99887151

>  <a_count>
27

$$$$

  MOE2015           2D

 15 17  0  0  0  0  0  0  0  0999 V2000
    0.5500   -0.5240    0.0000 O   0  0  0  0  0  0  0  0  0  0  0  0
    0.4780    0.9740    0.0000 C   0  0  0  0  0  0  0  0  0  0  0  0
   -0.8550    1.6620    0.0000 N   0  0  0  0  0  0  0  0  0  0  0  0
   -0.9270    3.1600    0.0000 C   0  0  0  0  0  0  0  0  0  0  0  0
    0.3350    3.9710    0.0000 C   0  0  0  0  0  0  0  0  0  0  0  0
    1.6680    3.2840    0.0000 C   0  0  0  0  0  0  0  0  0  0  0  0
    3.0710    3.8150    0.0000 N   0  0  0  0  0  0  0  0  0  0  0  0
    3.4660    5.2620    0.0000 C   0  0  0  0  0  0  0  0  0  0  0  0
    4.0100    2.6450    0.0000 C   0  0  0  0  0  0  0  0  0  0  0  0
    3.1870    1.3910    0.0000 C   0  0  0  0  0  0  0  0  0  0  0  0
    1.7400    1.7850    0.0000 C   0  0  0  0  0  0  0  0  0  0  0  0
    3.8620    0.0510    0.0000 C   0  0  0  0  0  0  0  0  0  0  0  0
    5.3590   -0.0350    0.0000 C   0  0  0  0  0  0  0  0  0  0  0  0
    6.1820    1.2200    0.0000 C   0  0  0  0  0  0  0  0  0  0  0  0
    5.5070    2.5590    0.0000 C   0  0  0  0  0  0  0  0  0  0  0  0
  1  2  2  0  0  0  0
  2  3  1  0  0  0  0
  2 11  1  0  0  0  0
  3  4  1  0  0  0  0
  4  5  1  0  0  0  0
  5  6  1  0  0  0  0
  6  7  1  0  0  0  0
  6 11  2  0  0  0  0
  7  8  1  0  0  0  0
  7  9  1  0  0  0  0
  9 10  1  0  0  0  0
  9 15  2  0  0  0  0
 10 11  1  0  0  0  0
 10 12  2  0  0  0  0
 12 13  1  0  0  0  0
 13 14  2  0  0  0  0
 14 15  1  0  0  0  0
M  END
>  <name>
O=C1[N;lactam]CCc2n(C)c3c(c12)cccc3

>  <apo>
1

>  <freq>
1

>  <freq0>
0

>  <freq1>
1

>  <freqA>
0.99887151

>  <a_count>
27

$$$$

  MOE2015           2D

 14 16  0  0  1  0  0  0  0  0999 V2000
    7.1040   -0.5120    0.0000 O   0  0  0  0  0  0  0  0  0  0  0  0
    5.8050   -1.2610    0.0000 C   0  0  0  0  0  0  0  0  0  0  0  0
    5.8020   -2.7580    0.0000 N   0  0  0  0  0  0  0  0  0  0  0  0
    4.5030   -3.5080    0.0000 C   0  0  0  0  0  0  0  0  0  0  0  0
    3.2050   -2.7630    0.0000 C   0  0  2  0  0  0  0  0  0  0  0  0
    3.2050   -1.2590    0.0000 C   0  0  0  0  0  0  0  0  0  0  0  0
    4.5030   -0.5100    0.0000 C   0  0  0  0  0  0  0  0  0  0  0  0
    4.5030    0.9930    0.0000 C   0  0  0  0  0  0  0  0  0  0  0  0
    3.2060    1.7390    0.0000 C   0  0  0  0  0  0  0  0  0  0  0  0
    1.9080    0.9890    0.0000 C   0  0  0  0  0  0  0  0  0  0  0  0
    1.9050   -0.5060    0.0000 C   0  0  0  0  0  0  0  0  0  0  0  0
    0.6070   -1.2590    0.0000 C   0  0  0  0  0  0  0  0  0  0  0  0
    0.6070   -2.7610    0.0000 C   0  0  0  0  0  0  0  0  0  0  0  0
    1.9070   -3.5130    0.0000 C   0  0  0  0  0  0  0  0  0  0  0  0
  1  2  2  0  0  0  0
  2  3  1  0  0  0  0
  2  7  1  0  0  0  0
  3  4  1  0  0  0  0
  5  4  1  1  0  0  0
  5  6  1  0  0  0  0
  5 14  1  0  0  0  0
  6  7  2  0  0  0  0
  6 11  1  0  0  0  0
  7  8  1  0  0  0  0
  8  9  2  0  0  0  0
  9 10  1  0  0  0  0
 10 11  2  0  0  0  0
 11 12  1  0  0  0  0
 12 13  1  0  0  0  0
 13 14  1  0  0  0  0
M  END
>  <name>
O=C1[N;lactam]C[C@@H]2c3c1cccc3CCC2

>  <apo>
1

>  <freq>
1

>  <freq0>
0

>  <freq1>
1

>  <freqA>
0.99887151

>  <a_count>
27

$$$$

  MOE2015           2D

 18 20  0  0  0  0  0  0  0  0999 V2000
    3.2890    3.2890    0.0000 O   0  0  0  0  0  0  0  0  0  0  0  0
    3.2890    1.7890    0.0000 C   0  0  0  0  0  0  0  0  0  0  0  0
    1.9900    1.0390    0.0000 C   0  0  0  0  0  0  0  0  0  0  0  0
    0.6910    1.7890    0.0000 C   0  0  0  0  0  0  0  0  0  0  0  0
    0.6910    3.2890    0.0000 N   0  0  0  0  0  0  0  0  0  0  0  0
   -0.6080    1.0390    0.0000 C   0  0  0  0  0  0  0  0  0  0  0  0
   -0.6080   -0.4610    0.0000 C   0  0  0  0  0  0  0  0  0  0  0  0
    0.6910   -1.2110    0.0000 C   0  0  0  0  0  0  0  0  0  0  0  0
    0.6910   -2.7110    0.0000 N   0  0  0  0  0  0  0  0  0  0  0  0
    1.9900   -0.4610    0.0000 C   0  0  0  0  0  0  0  0  0  0  0  0
    3.2890   -1.2110    0.0000 C   0  0  0  0  0  0  0  0  0  0  0  0
    3.2890   -2.7110    0.0000 O   0  0  0  0  0  0  0  0  0  0  0  0
    4.5880   -0.4610    0.0000 C   0  0  0  0  0  0  0  0  0  0  0  0
    4.5880    1.0390    0.0000 C   0  0  0  0  0  0  0  0  0  0  0  0
    5.8870    1.7890    0.0000 C   0  0  0  0  0  0  0  0  0  0  0  0
    7.1860    1.0390    0.0000 N   0  0  0  0  0  0  0  0  0  0  0  0
    7.1860   -0.4610    0.0000 C   0  0  0  0  0  0  0  0  0  0  0  0
    5.8870   -1.2110    0.0000 C   0  0  0  0  0  0  0  0  0  0  0  0
  1  2  2  0  0  0  0
  2  3  1  0  0  0  0
  2 14  1  0  0  0  0
  3  4  1  0  0  0  0
  3 10  2  0  0  0  0
  4  5  1  0  0  0  0
  4  6  2  0  0  0  0
  6  7  1  0  0  0  0
  7  8  2  0  0  0  0
  8  9  1  0  0  0  0
  8 10  1  0  0  0  0
 10 11  1  0  0  0  0
 11 12  2  0  0  0  0
 11 13  1  0  0  0  0
 13 14  1  0  0  0  0
 13 18  2  0  0  0  0
 14 15  2  0  0  0  0
 15 16  1  0  0  0  0
 16 17  2  0  0  0  0
 17 18  1  0  0  0  0
M  END
>  <name>
O=C1c2c([N;amine])ccc([N;amine])c2C(=O)c2c1cncc2

>  <apo>
2

>  <freq>
1

>  <freq0>
0

>  <freq1>
1

>  <freqA>
0.99887151

>  <a_count>
27

$$$$

  MOE2015           2D

 16 18  0  0  0  0  0  0  0  0999 V2000
    1.3020    2.8410    0.0000 O   0  0  0  0  0  0  0  0  0  0  0  0
    2.2810    1.7050    0.0000 C   0  0  0  0  0  0  0  0  0  0  0  0
    1.6820    0.3290    0.0000 C   0  0  0  0  0  0  0  0  0  0  0  0
    2.3830   -0.9970    0.0000 C   0  0  0  0  0  0  0  0  0  0  0  0
    3.8560   -1.2770    0.0000 N   0  0  0  0  0  0  0  0  0  0  0  0
    4.9930   -0.2970    0.0000 C   0  0  0  0  0  0  0  0  0  0  0  0
    4.9360    1.2030    0.0000 C   0  0  0  0  0  0  0  0  0  0  0  0
    6.2060    2.0010    0.0000 C   0  0  0  0  0  0  0  0  0  0  0  0
    7.5330    1.3000    0.0000 C   0  0  0  0  0  0  0  0  0  0  0  0
    7.5890   -0.2000    0.0000 C   0  0  0  0  0  0  0  0  0  0  0  0
    6.3190   -0.9980    0.0000 C   0  0  0  0  0  0  0  0  0  0  0  0
    3.7300    2.0940    0.0000 C   0  0  0  0  0  0  0  0  0  0  0  0
    1.5840   -2.2670    0.0000 C   0  0  0  0  0  0  0  0  0  0  0  0
    0.0860   -2.2110    0.0000 C   0  0  0  0  0  0  0  0  0  0  0  0
   -0.6150   -0.8840    0.0000 C   0  0  0  0  0  0  0  0  0  0  0  0
    0.1830    0.3860    0.0000 C   0  0  0  0  0  0  0  0  0  0  0  0
  1  2  2  0  0  0  0
  2  3  1  0  0  0  0
  2 12  1  0  0  0  0
  3  4  1  0  0  0  0
  3 16  2  0  0  0  0
  4  5  1  0  0  0  0
  4 13  2  0  0  0  0
  5  6  1  0  0  0  0
  6  7  1  0  0  0  0
  6 11  2  0  0  0  0
  7  8  2  0  0  0  0
  7 12  1  0  0  0  0
  8  9  1  0  0  0  0
  9 10  2  0  0  0  0
 10 11  1  0  0  0  0
 13 14  1  0  0  0  0
 14 15  2  0  0  0  0
 15 16  1  0  0  0  0
M  END
>  <name>
O=C1c2c([N;urea]c3c(cccc3)C1)cccc2

>  <apo>
1

>  <freq>
1

>  <freq0>
0

>  <freq1>
1

>  <freqA>
0.99887151

>  <a_count>
27

$$$$

  MOE2015           2D

 10  9  0  0  1  0  0  0  0  0999 V2000
   -0.5860   -2.1880    0.0000 O   0  0  0  0  0  0  0  0  0  0  0  0
    0.7130   -2.9380    0.0000 C   0  0  0  0  0  0  0  0  0  0  0  0
    2.0120   -2.1880    0.0000 C   0  0  1  0  0  0  0  0  0  0  0  0
    2.0120   -0.6880    0.0000 N   0  0  0  0  0  0  0  0  0  0  0  0
    3.3110   -2.9380    0.0000 C   0  0  0  0  0  0  0  0  0  0  0  0
    4.6100   -2.1880    0.0000 C   0  0  0  0  0  0  0  0  0  0  0  0
    5.9090   -2.9380    0.0000 C   0  0  0  0  0  0  0  0  0  0  0  0
    7.2080   -2.1880    0.0000 C   0  0  0  0  0  0  0  0  0  0  0  0
    8.5070   -2.9380    0.0000 C   0  0  0  0  0  0  0  0  0  0  0  0
    9.8060   -2.1880    0.0000 C   0  0  0  0  0  0  0  0  0  0  0  0
  1  2  2  0  0  0  0
  2  3  1  0  0  0  0
  3  4  1  1  0  0  0
  3  5  1  0  0  0  0
  5  6  1  0  0  0  0
  6  7  1  0  0  0  0
  7  8  1  0  0  0  0
  8  9  1  0  0  0  0
  9 10  1  0  0  0  0
M  END
>  <name>
O=[C;amide][C@@H]([N;amide])CCCCC[C;olefin]

>  <apo>
3

>  <freq>
1

>  <freq0>
0

>  <freq1>
1

>  <freqA>
0.99887151

>  <a_count>
27

$$$$

  MOE2015           2D

 16 17  0  0  0  0  0  0  0  0999 V2000
    1.3590   -5.0710    0.0000 O   0  0  0  0  0  0  0  0  0  0  0  0
    2.6580   -4.3210    0.0000 C   0  0  0  0  0  0  0  0  0  0  0  0
    2.6580   -2.8210    0.0000 C   0  0  0  0  0  0  0  0  0  0  0  0
    3.9570   -2.0710    0.0000 C   0  0  0  0  0  0  0  0  0  0  0  0
    3.9570   -0.5710    0.0000 C   0  0  0  0  0  0  0  0  0  0  0  0
    5.2560    0.1790    0.0000 N   0  0  0  0  0  0  0  0  0  0  0  0
    6.5550   -0.5710    0.0000 C   0  0  0  0  0  0  0  0  0  0  0  0
    6.5550   -2.0710    0.0000 N   0  0  0  0  0  0  0  0  0  0  0  0
    7.8540   -2.8210    0.0000 C   0  0  0  0  0  0  0  0  0  0  0  0
    9.1530   -2.0710    0.0000 C   0  0  0  0  0  0  0  0  0  0  0  0
    9.1530   -0.5710    0.0000 C   0  0  0  0  0  0  0  0  0  0  0  0
    7.8540    0.1790    0.0000 N   0  0  0  0  0  0  0  0  0  0  0  0
    2.6580    0.1790    0.0000 C   0  0  0  0  0  0  0  0  0  0  0  0
    2.6580    1.6790    0.0000 C   0  0  0  0  0  0  0  0  0  0  0  0
    1.3590   -0.5710    0.0000 C   0  0  0  0  0  0  0  0  0  0  0  0
    1.3590   -2.0710    0.0000 C   0  0  0  0  0  0  0  0  0  0  0  0
  1  2  2  0  0  0  0
  2  3  1  0  0  0  0
  3  4  1  0  0  0  0
  3 16  2  0  0  0  0
  4  5  2  0  0  0  0
  5  6  1  0  0  0  0
  5 13  1  0  0  0  0
  6  7  1  0  0  0  0
  7  8  1  0  0  0  0
  7 12  2  0  0  0  0
  8  9  2  0  0  0  0
  9 10  1  0  0  0  0
 10 11  2  0  0  0  0
 11 12  1  0  0  0  0
 13 14  1  0  0  0  0
 13 15  2  0  0  0  0
 15 16  1  0  0  0  0
M  END
>  <name>
O=[C;amide]c1cc(Nc2ncc[c;biphenyl]n2)c(C)cc1

>  <apo>
2

>  <freq>
1

>  <freq0>
0

>  <freq1>
1

>  <freqA>
0.99887151

>  <a_count>
27

$$$$

  MOE2015           2D

 15 16  0  0  0  0  0  0  0  0999 V2000
    1.4380    1.0350    0.0000 O   0  0  0  0  0  0  0  0  0  0  0  0
    2.7370    0.2850    0.0000 C   0  0  0  0  0  0  0  0  0  0  0  0
    2.7370   -1.2150    0.0000 C   0  0  0  0  0  0  0  0  0  0  0  0
    1.4380   -1.9650    0.0000 C   0  0  0  0  0  0  0  0  0  0  0  0
    1.4380   -3.4650    0.0000 C   0  0  0  0  0  0  0  0  0  0  0  0
    0.1390   -4.2150    0.0000 C   0  0  0  0  0  0  0  0  0  0  0  0
   -1.1610   -3.4650    0.0000 C   0  0  0  0  0  0  0  0  0  0  0  0
   -1.1610   -1.9650    0.0000 C   0  0  0  0  0  0  0  0  0  0  0  0
    0.1390   -1.2150    0.0000 C   0  0  0  0  0  0  0  0  0  0  0  0
    4.0360   -1.9650    0.0000 C   0  0  0  0  0  0  0  0  0  0  0  0
    5.3350   -1.2150    0.0000 C   0  0  0  0  0  0  0  0  0  0  0  0
    6.6340   -1.9650    0.0000 C   0  0  0  0  0  0  0  0  0  0  0  0
    6.6340   -3.4650    0.0000 C   0  0  0  0  0  0  0  0  0  0  0  0
    5.3350   -4.2150    0.0000 C   0  0  0  0  0  0  0  0  0  0  0  0
    4.0360   -3.4650    0.0000 C   0  0  0  0  0  0  0  0  0  0  0  0
  1  2  2  0  0  0  0
  2  3  1  0  0  0  0
  3  4  1  0  0  0  0
  3 10  1  0  0  0  0
  4  5  1  0  0  0  0
  4  9  2  0  0  0  0
  5  6  2  0  0  0  0
  6  7  1  0  0  0  0
  7  8  2  0  0  0  0
  8  9  1  0  0  0  0
 10 11  1  0  0  0  0
 10 15  2  0  0  0  0
 11 12  2  0  0  0  0
 12 13  1  0  0  0  0
 13 14  2  0  0  0  0
 14 15  1  0  0  0  0
M  END
>  <name>
O=[C;ester]C(c1ccccc1)c1ccccc1

>  <apo>
1

>  <freq>
1

>  <freq0>
0

>  <freq1>
1

>  <freqA>
0.99887151

>  <a_count>
27

$$$$

  MOE2015           2D

 13 14  0  0  0  0  0  0  0  0999 V2000
    1.6440    2.1220    0.0000 O   0  0  0  0  0  0  0  0  0  0  0  0
    2.4340    0.8470    0.0000 C   0  0  0  0  0  0  0  0  0  0  0  0
    1.7240   -0.4750    0.0000 C   0  0  0  0  0  0  0  0  0  0  0  0
    3.2240   -0.4810    0.0000 C   0  0  0  0  0  0  0  0  0  0  0  0
    3.9790    0.8160    0.0000 C   0  0  0  0  0  0  0  0  0  0  0  0
    5.4790    0.8100    0.0000 C   0  0  0  0  0  0  0  0  0  0  0  0
    6.2240   -0.4920    0.0000 C   0  0  0  0  0  0  0  0  0  0  0  0
    5.4690   -1.7880    0.0000 C   0  0  0  0  0  0  0  0  0  0  0  0
    3.9690   -1.7830    0.0000 C   0  0  0  0  0  0  0  0  0  0  0  0
    1.5360   -1.9630    0.0000 C   0  0  0  0  0  0  0  0  0  0  0  0
    0.0620   -2.2440    0.0000 C   0  0  0  0  0  0  0  0  0  0  0  0
   -0.6600   -0.9290    0.0000 C   0  0  0  0  0  0  0  0  0  0  0  0
    0.3670    0.1640    0.0000 C   0  0  0  0  0  0  0  0  0  0  0  0
  1  2  2  0  0  0  0
  2  3  1  0  0  0  0
  3  4  1  0  0  0  0
  3 10  1  0  0  0  0
  3 13  1  0  0  0  0
  4  5  1  0  0  0  0
  4  9  2  0  0  0  0
  5  6  2  0  0  0  0
  6  7  1  0  0  0  0
  7  8  2  0  0  0  0
  8  9  1  0  0  0  0
 10 11  1  0  0  0  0
 11 12  1  0  0  0  0
 12 13  1  0  0  0  0
M  END
>  <name>
O=[C;ester]C1(c2ccccc2)CCCC1

>  <apo>
1

>  <freq>
1

>  <freq0>
0

>  <freq1>
1

>  <freqA>
0.99887151

>  <a_count>
27

$$$$

  MOE2015           2D

 15 16  0  0  0  0  0  0  0  0999 V2000
    1.4380    1.0350    0.0000 O   0  0  0  0  0  0  0  0  0  0  0  0
    2.7370    0.2850    0.0000 C   0  0  0  0  0  0  0  0  0  0  0  0
    2.7370   -1.2150    0.0000 C   0  0  0  0  0  0  0  0  0  0  0  0
    1.4380   -1.9650    0.0000 C   0  0  0  0  0  0  0  0  0  0  0  0
    1.4380   -3.4650    0.0000 C   0  0  0  0  0  0  0  0  0  0  0  0
    0.1390   -4.2150    0.0000 C   0  0  0  0  0  0  0  0  0  0  0  0
   -1.1610   -3.4650    0.0000 C   0  0  0  0  0  0  0  0  0  0  0  0
   -1.1610   -1.9650    0.0000 C   0  0  0  0  0  0  0  0  0  0  0  0
    0.1390   -1.2150    0.0000 C   0  0  0  0  0  0  0  0  0  0  0  0
    4.0360   -1.9650    0.0000 C   0  0  0  0  0  0  0  0  0  0  0  0
    5.3350   -1.2150    0.0000 C   0  0  0  0  0  0  0  0  0  0  0  0
    6.6340   -1.9650    0.0000 C   0  0  0  0  0  0  0  0  0  0  0  0
    6.6340   -3.4650    0.0000 C   0  0  0  0  0  0  0  0  0  0  0  0
    5.3350   -4.2150    0.0000 C   0  0  0  0  0  0  0  0  0  0  0  0
    4.0360   -3.4650    0.0000 C   0  0  0  0  0  0  0  0  0  0  0  0
  1  2  2  0  0  0  0
  2  3  1  0  0  0  0
  3  4  1  0  0  0  0
  3 10  1  0  0  0  0
  4  5  1  0  0  0  0
  4  9  2  0  0  0  0
  5  6  2  0  0  0  0
  6  7  1  0  0  0  0
  7  8  2  0  0  0  0
  8  9  1  0  0  0  0
 10 11  1  0  0  0  0
 10 15  2  0  0  0  0
 11 12  2  0  0  0  0
 12 13  1  0  0  0  0
 13 14  2  0  0  0  0
 14 15  1  0  0  0  0
M  END
>  <name>
O=[C;ester][C;ether](c1ccccc1)c1ccccc1

>  <apo>
2

>  <freq>
1

>  <freq0>
0

>  <freq1>
1

>  <freqA>
0.99887151

>  <a_count>
27

$$$$

  MOE2015           2D

 15 16  0  0  0  0  0  0  0  0999 V2000
    0.4390   -0.4390    0.0000 O   0  0  0  0  0  0  0  0  0  0  0  0
    0.4390    1.0610    0.0000 N   0  3  0  0  0  0  0  0  0  0  0  0
   -0.8610    1.8110    0.0000 O   0  5  0  0  0  0  0  0  0  0  0  0
    1.7380    1.8110    0.0000 C   0  0  0  0  0  0  0  0  0  0  0  0
    1.7380    3.3110    0.0000 C   0  0  0  0  0  0  0  0  0  0  0  0
    0.4390    4.0610    0.0000 C   0  0  0  0  0  0  0  0  0  0  0  0
    0.4390    5.5610    0.0000 O   0  0  0  0  0  0  0  0  0  0  0  0
    3.0370    4.0610    0.0000 C   0  0  0  0  0  0  0  0  0  0  0  0
    4.3360    3.3110    0.0000 C   0  0  0  0  0  0  0  0  0  0  0  0
    4.3360    1.8110    0.0000 C   0  0  0  0  0  0  0  0  0  0  0  0
    5.6350    1.0610    0.0000 N   0  0  0  0  0  0  0  0  0  0  0  0
    6.9340    1.8110    0.0000 C   0  0  0  0  0  0  0  0  0  0  0  0
    6.9340    3.3110    0.0000 C   0  0  0  0  0  0  0  0  0  0  0  0
    5.6350    4.0610    0.0000 C   0  0  0  0  0  0  0  0  0  0  0  0
    3.0370    1.0610    0.0000 C   0  0  0  0  0  0  0  0  0  0  0  0
  1  2  2  0  0  0  0
  2  3  1  0  0  0  0
  2  4  1  0  0  0  0
  4  5  1  0  0  0  0
  4 15  2  0  0  0  0
  5  6  1  0  0  0  0
  5  8  2  0  0  0  0
  6  7  1  0  0  0  0
  8  9  1  0  0  0  0
  9 10  2  0  0  0  0
  9 14  1  0  0  0  0
 10 11  1  0  0  0  0
 10 15  1  0  0  0  0
 11 12  1  0  0  0  0
 12 13  1  0  0  0  0
 13 14  1  0  0  0  0
M  CHG  1   2   1
M  CHG  1   3  -1
M  END
>  <name>
O=[N+]([O-])c1c(CO)cc2c(N[C;amine]CC2)c1

>  <apo>
1

>  <freq>
1

>  <freq0>
0

>  <freq1>
1

>  <freqA>
0.99887151

>  <a_count>
27

$$$$

  MOE2015           2D

 17 18  0  0  0  0  0  0  0  0999 V2000
    0.4150   -0.1110    0.0000 O   0  0  0  0  0  0  0  0  0  0  0  0
   -0.8840    0.6390    0.0000 N   0  3  0  0  0  0  0  0  0  0  0  0
   -2.1830   -0.1110    0.0000 O   0  5  0  0  0  0  0  0  0  0  0  0
   -0.8840    2.1390    0.0000 C   0  0  0  0  0  0  0  0  0  0  0  0
    0.4150    2.8890    0.0000 C   0  0  0  0  0  0  0  0  0  0  0  0
    0.4150    4.3890    0.0000 C   0  0  0  0  0  0  0  0  0  0  0  0
    1.7140    5.1390    0.0000 O   0  0  0  0  0  0  0  0  0  0  0  0
    3.0130    4.3890    0.0000 C   0  0  0  0  0  0  0  0  0  0  0  0
    4.3120    5.1390    0.0000 C   0  0  0  0  0  0  0  0  0  0  0  0
    5.6110    4.3890    0.0000 C   0  0  0  0  0  0  0  0  0  0  0  0
    5.6110    2.8890    0.0000 C   0  0  0  0  0  0  0  0  0  0  0  0
    4.3120    2.1390    0.0000 C   0  0  0  0  0  0  0  0  0  0  0  0
    3.0130    2.8890    0.0000 C   0  0  0  0  0  0  0  0  0  0  0  0
   -0.8840    5.1390    0.0000 C   0  0  0  0  0  0  0  0  0  0  0  0
   -0.8840    6.6390    0.0000 N   0  0  0  0  0  0  0  0  0  0  0  0
   -2.1830    4.3890    0.0000 C   0  0  0  0  0  0  0  0  0  0  0  0
   -2.1830    2.8890    0.0000 C   0  0  0  0  0  0  0  0  0  0  0  0
  1  2  2  0  0  0  0
  2  3  1  0  0  0  0
  2  4  1  0  0  0  0
  4  5  1  0  0  0  0
  4 17  2  0  0  0  0
  5  6  2  0  0  0  0
  6  7  1  0  0  0  0
  6 14  1  0  0  0  0
  7  8  1  0  0  0  0
  8  9  1  0  0  0  0
  8 13  2  0  0  0  0
  9 10  2  0  0  0  0
 10 11  1  0  0  0  0
 11 12  2  0  0  0  0
 12 13  1  0  0  0  0
 14 15  1  0  0  0  0
 14 16  2  0  0  0  0
 16 17  1  0  0  0  0
M  CHG  1   2   1
M  CHG  1   3  -1
M  END
>  <name>
O=[N+]([O-])c1cc(Oc2ccccc2)c([N;so2amide])cc1

>  <apo>
1

>  <freq>
1

>  <freq0>
0

>  <freq1>
1

>  <freqA>
0.99887151

>  <a_count>
27

$$$$

  MOE2015           2D

 15 15  0  0  1  0  0  0  0  0999 V2000
   -0.8500    4.9360    0.0000 O   0  0  0  0  0  0  0  0  0  0  0  0
   -0.1000    3.6370    0.0000 N   0  3  0  0  0  0  0  0  0  0  0  0
   -0.8500    2.3380    0.0000 O   0  5  0  0  0  0  0  0  0  0  0  0
    1.4000    3.6370    0.0000 C   0  0  0  0  0  0  0  0  0  0  0  0
    2.1500    2.3380    0.0000 C   0  0  0  0  0  0  0  0  0  0  0  0
    3.6500    2.3380    0.0000 C   0  0  0  0  0  0  0  0  0  0  0  0
    4.4000    3.6370    0.0000 C   0  0  0  0  0  0  0  0  0  0  0  0
    5.9000    3.6370    0.0000 C   0  0  1  0  0  0  0  0  0  0  0  0
    6.6500    4.9360    0.0000 O   0  0  0  0  0  0  0  0  0  0  0  0
    6.6500    2.3380    0.0000 C   0  0  2  0  0  0  0  0  0  0  0  0
    5.9000    1.0390    0.0000 N   0  0  0  0  0  0  0  0  0  0  0  0
    8.1500    2.3380    0.0000 C   0  0  0  0  0  0  0  0  0  0  0  0
    8.9000    1.0390    0.0000 O   0  0  0  0  0  0  0  0  0  0  0  0
    3.6500    4.9360    0.0000 C   0  0  0  0  0  0  0  0  0  0  0  0
    2.1500    4.9360    0.0000 C   0  0  0  0  0  0  0  0  0  0  0  0
  1  2  2  0  0  0  0
  2  3  1  0  0  0  0
  2  4  1  0  0  0  0
  4  5  1  0  0  0  0
  4 15  2  0  0  0  0
  5  6  2  0  0  0  0
  6  7  1  0  0  0  0
  7  8  1  0  0  0  0
  7 14  2  0  0  0  0
  8  9  1  1  0  0  0
  8 10  1  0  0  0  0
 10 11  1  1  0  0  0
 10 12  1  0  0  0  0
 12 13  1  0  0  0  0
 14 15  1  0  0  0  0
M  CHG  1   2   1
M  CHG  1   3  -1
M  END
>  <name>
O=[N+]([O-])c1ccc([C@@H](O)[C@H]([N;amide])CO)cc1

>  <apo>
1

>  <freq>
1

>  <freq0>
0

>  <freq1>
1

>  <freqA>
0.99887151

>  <a_count>
27

$$$$

  MOE2015           2D

 18 19  0  0  0  0  0  0  0  0999 V2000
   11.6860   -1.9420    0.0000 O   0  0  0  0  0  0  0  0  0  0  0  0
   10.8260   -3.1710    0.0000 N   0  3  0  0  0  0  0  0  0  0  0  0
   11.4600   -4.5310    0.0000 O   0  5  0  0  0  0  0  0  0  0  0  0
    9.3320   -3.0400    0.0000 C   0  0  0  0  0  0  0  0  0  0  0  0
    8.3470   -4.1720    0.0000 S   0  0  0  0  0  0  0  0  0  0  0  0
    6.9670   -3.5860    0.0000 C   0  0  0  0  0  0  0  0  0  0  0  0
    5.6810   -4.3580    0.0000 N   0  0  0  0  0  0  0  0  0  0  0  0
    4.3690   -3.6310    0.0000 N   0  0  0  0  0  0  0  0  0  0  0  0
    3.0830   -4.4030    0.0000 C   0  0  0  0  0  0  0  0  0  0  0  0
    1.7710   -3.6760    0.0000 C   0  0  0  0  0  0  0  0  0  0  0  0
    1.7450   -2.1760    0.0000 C   0  0  0  0  0  0  0  0  0  0  0  0
    0.4850   -4.4480    0.0000 C   0  0  0  0  0  0  0  0  0  0  0  0
    0.5110   -5.9480    0.0000 C   0  0  0  0  0  0  0  0  0  0  0  0
   -0.7740   -6.7200    0.0000 N   0  0  0  0  0  0  0  0  0  0  0  0
    1.8230   -6.6750    0.0000 C   0  0  0  0  0  0  0  0  0  0  0  0
    3.1090   -5.9030    0.0000 C   0  0  0  0  0  0  0  0  0  0  0  0
    7.0980   -2.0910    0.0000 N   0  0  0  0  0  0  0  0  0  0  0  0
    8.5590   -1.7540    0.0000 C   0  0  0  0  0  0  0  0  0  0  0  0
  1  2  2  0  0  0  0
  2  3  1  0  0  0  0
  2  4  1  0  0  0  0
  4  5  1  0  0  0  0
  4 18  2  0  0  0  0
  5  6  1  0  0  0  0
  6  7  1  0  0  0  0
  6 17  2  0  0  0  0
  7  8  2  0  0  0  0
  8  9  1  0  0  0  0
  9 10  1  0  0  0  0
  9 16  2  0  0  0  0
 10 11  1  0  0  0  0
 10 12  2  0  0  0  0
 12 13  1  0  0  0  0
 13 14  1  0  0  0  0
 13 15  2  0  0  0  0
 15 16  1  0  0  0  0
 17 18  1  0  0  0  0
M  CHG  1   2   1
M  CHG  1   3  -1
M  END
>  <name>
O=[N+]([O-])c1sc(N=Nc2c(C)cc([N;amine])cc2)nc1

>  <apo>
1

>  <freq>
1

>  <freq0>
0

>  <freq1>
1

>  <freqA>
0.99887151

>  <a_count>
27

$$$$

  MOE2015           2D

  9  8  0  0  1  0  0  0  0  0999 V2000
    0.8070    2.2990    0.0000 O   0  0  0  0  0  0  0  0  0  0  0  0
    0.0570    1.0000    0.0000 C   0  0  3  0  0  0  0  0  0  0  0  0
    1.3560    0.2500    0.0000 C   0  0  0  0  0  0  0  0  0  0  0  0
    2.6550    1.0000    0.0000 C   0  0  0  0  0  0  0  0  0  0  0  0
    3.9540    0.2500    0.0000 C   0  0  0  0  0  0  0  0  0  0  0  0
    5.2530    1.0000    0.0000 C   0  0  0  0  0  0  0  0  0  0  0  0
   -1.2420    1.7500    0.0000 C   0  0  0  0  0  0  0  0  0  0  0  0
   -2.5410    1.0000    0.0000 C   0  0  0  0  0  0  0  0  0  0  0  0
   -0.6930   -0.2990    0.0000 C   0  0  0  0  0  0  0  0  0  0  0  0
  1  2  1  0  0  0  0
  2  3  1  0  0  0  0
  2  7  1  0  0  0  0
  2  9  1  0  0  0  0
  3  4  1  0  0  0  0
  4  5  1  0  0  0  0
  5  6  1  0  0  0  0
  7  8  1  0  0  0  0
M  END
>  <name>
OC(CCCC)(C[C;olefin])C

>  <apo>
1

>  <freq>
1

>  <freq0>
0

>  <freq1>
1

>  <freqA>
0.99887151

>  <a_count>
27

$$$$

  MOE2015           2D

  9  8  0  0  0  0  0  0  0  0999 V2000
   -0.4050    2.9660    0.0000 O   0  0  0  0  0  0  0  0  0  0  0  0
    0.3450    1.6670    0.0000 C   0  0  0  0  0  0  0  0  0  0  0  0
    1.6440    2.4170    0.0000 C   0  0  0  0  0  0  0  0  0  0  0  0
    2.9430    1.6670    0.0000 C   0  0  0  0  0  0  0  0  0  0  0  0
    4.2420    2.4170    0.0000 C   0  0  0  0  0  0  0  0  0  0  0  0
    5.5410    1.6670    0.0000 C   0  0  0  0  0  0  0  0  0  0  0  0
    6.8400    2.4170    0.0000 C   0  0  0  0  0  0  0  0  0  0  0  0
   -0.9540    0.9170    0.0000 C   0  0  0  0  0  0  0  0  0  0  0  0
    1.0950    0.3680    0.0000 C   0  0  0  0  0  0  0  0  0  0  0  0
  1  2  1  0  0  0  0
  2  3  1  0  0  0  0
  2  8  1  0  0  0  0
  2  9  1  0  0  0  0
  3  4  1  0  0  0  0
  4  5  1  0  0  0  0
  5  6  1  0  0  0  0
  6  7  1  0  0  0  0
M  END
>  <name>
OC(CCCCC)([C;olefin])C

>  <apo>
1

>  <freq>
1

>  <freq0>
0

>  <freq1>
1

>  <freqA>
0.99887151

>  <a_count>
27

$$$$

  MOE2015           2D

 12 12  0  0  1  0  0  0  0  0999 V2000
    4.6880    0.5410    0.0000 O   0  0  0  0  0  0  0  0  0  0  0  0
    3.9380   -0.7580    0.0000 C   0  0  3  0  0  0  0  0  0  0  0  0
    4.6880   -2.0570    0.0000 C   0  0  0  0  0  0  0  0  0  0  0  0
    6.1880   -2.0570    0.0000 C   0  0  0  0  0  0  0  0  0  0  0  0
    6.9380   -3.3560    0.0000 C   0  0  0  0  0  0  0  0  0  0  0  0
    2.4380   -0.7580    0.0000 C   0  0  0  0  0  0  0  0  0  0  0  0
    1.6880   -2.0570    0.0000 C   0  0  0  0  0  0  0  0  0  0  0  0
    0.1880   -2.0570    0.0000 C   0  0  0  0  0  0  0  0  0  0  0  0
   -0.5630   -0.7580    0.0000 C   0  0  0  0  0  0  0  0  0  0  0  0
   -2.0620   -0.7580    0.0000 N   0  0  0  0  0  0  0  0  0  0  0  0
    0.1870    0.5410    0.0000 C   0  0  0  0  0  0  0  0  0  0  0  0
    1.6880    0.5410    0.0000 C   0  0  0  0  0  0  0  0  0  0  0  0
  1  2  1  0  0  0  0
  2  3  1  0  0  0  0
  2  6  1  0  0  0  0
  3  4  1  0  0  0  0
  4  5  1  0  0  0  0
  6  7  1  0  0  0  0
  6 12  2  0  0  0  0
  7  8  2  0  0  0  0
  8  9  1  0  0  0  0
  9 10  1  0  0  0  0
  9 11  2  0  0  0  0
 11 12  1  0  0  0  0
M  END
>  <name>
OC(CC[C;amine])c1ccc([N;so2amide])cc1

>  <apo>
2

>  <freq>
1

>  <freq0>
0

>  <freq1>
1

>  <freqA>
0.99887151

>  <a_count>
27

$$$$

  MOE2015           2D

 13 13  0  0  1  0  0  0  0  0999 V2000
    3.8220    1.0240    0.0000 O   0  0  0  0  0  0  0  0  0  0  0  0
    3.8220   -0.4760    0.0000 C   0  0  3  0  0  0  0  0  0  0  0  0
    5.1210   -1.2260    0.0000 C   0  0  0  0  0  0  0  0  0  0  0  0
    6.4200   -0.4760    0.0000 C   0  0  0  0  0  0  0  0  0  0  0  0
    7.7190   -1.2260    0.0000 C   0  0  0  0  0  0  0  0  0  0  0  0
    2.5230   -1.2260    0.0000 C   0  0  0  0  0  0  0  0  0  0  0  0
    1.2240   -0.4760    0.0000 C   0  0  0  0  0  0  0  0  0  0  0  0
   -0.0750   -1.2260    0.0000 C   0  0  0  0  0  0  0  0  0  0  0  0
   -1.3740   -0.4760    0.0000 O   0  0  0  0  0  0  0  0  0  0  0  0
   -0.0750   -2.7260    0.0000 C   0  0  0  0  0  0  0  0  0  0  0  0
   -1.3740   -3.4760    0.0000 O   0  0  0  0  0  0  0  0  0  0  0  0
    1.2240   -3.4760    0.0000 C   0  0  0  0  0  0  0  0  0  0  0  0
    2.5230   -2.7260    0.0000 C   0  0  0  0  0  0  0  0  0  0  0  0
  1  2  1  0  0  0  0
  2  3  1  0  0  0  0
  2  6  1  0  0  0  0
  3  4  1  0  0  0  0
  4  5  1  0  0  0  0
  6  7  1  0  0  0  0
  6 13  2  0  0  0  0
  7  8  2  0  0  0  0
  8  9  1  0  0  0  0
  8 10  1  0  0  0  0
 10 11  1  0  0  0  0
 10 12  2  0  0  0  0
 12 13  1  0  0  0  0
M  END
>  <name>
OC([C;amine]CC)c1cc(O)c(O)cc1

>  <apo>
1

>  <freq>
1

>  <freq0>
0

>  <freq1>
1

>  <freqA>
0.99887151

>  <a_count>
27

$$$$

  MOE2015           2D

 11 12  0  0  1  0  0  0  0  0999 V2000
    1.8520   -2.7720    0.0000 O   0  0  0  0  0  0  0  0  0  0  0  0
    2.4260   -1.3860    0.0000 C   0  0  0  0  0  0  0  0  0  0  0  0
    0.9260   -1.3860    0.0000 C   0  0  1  0  0  0  0  0  0  0  0  0
    0.1760   -2.6850    0.0000 N   0  0  0  0  0  0  0  0  0  0  0  0
   -1.3240   -2.6850    0.0000 C   0  0  0  0  0  0  0  0  0  0  0  0
   -2.0740   -1.3860    0.0000 C   0  0  0  0  0  0  0  0  0  0  0  0
   -1.3240   -0.0870    0.0000 C   0  0  0  0  0  0  0  0  0  0  0  0
    0.1760   -0.0870    0.0000 C   0  0  0  0  0  0  0  0  0  0  0  0
    3.8970   -1.6780    0.0000 C   0  0  0  0  0  0  0  0  0  0  0  0
    4.1900   -0.2070    0.0000 N   0  0  0  0  0  0  0  0  0  0  0  0
    2.7190    0.0850    0.0000 C   0  0  0  0  0  0  0  0  0  0  0  0
  1  2  1  0  0  0  0
  3  2  1  1  0  0  0
  2  9  1  0  0  0  0
  2 11  1  0  0  0  0
  3  4  1  0  0  0  0
  3  8  1  0  0  0  0
  4  5  1  0  0  0  0
  5  6  1  0  0  0  0
  6  7  1  0  0  0  0
  7  8  1  0  0  0  0
  9 10  1  0  0  0  0
 10 11  1  0  0  0  0
M  END
>  <name>
OC1([C@H]2NCCCC2)C[N;amide]C1

>  <apo>
1

>  <freq>
1

>  <freq0>
0

>  <freq1>
1

>  <freqA>
0.99887151

>  <a_count>
27

$$$$

  MOE2015           2D

 11 13  0  0  0  0  0  0  0  0999 V2000
    5.9900    0.0470    0.0000 O   0  0  0  0  0  0  0  0  0  0  0  0
    4.5190    0.3450    0.0000 C   0  0  0  0  0  0  0  0  0  0  0  0
    3.1230   -0.3690    0.0000 C   0  0  0  0  0  0  0  0  0  0  0  0
    1.6130   -0.0160    0.0000 C   0  0  0  0  0  0  0  0  0  0  0  0
    1.3810    1.4410    0.0000 C   0  0  0  0  0  0  0  0  0  0  0  0
    2.8190    2.1220    0.0000 C   0  0  0  0  0  0  0  0  0  0  0  0
    4.2720    1.7960    0.0000 C   0  0  0  0  0  0  0  0  0  0  0  0
    2.1850    0.8720    0.0000 C   0  0  0  0  0  0  0  0  0  0  0  0
    2.3620   -0.4960    0.0000 C   0  0  0  0  0  0  0  0  0  0  0  0
    3.7680   -0.8320    0.0000 C   0  0  0  0  0  0  0  0  0  0  0  0
    0.8850   -1.3510    0.0000 C   0  0  0  0  0  0  0  0  0  0  0  0
  1  2  1  0  0  0  0
  2  3  1  0  0  0  0
  2  7  1  0  0  0  0
  2 10  1  0  0  0  0
  3  4  1  0  0  0  0
  4  5  1  0  0  0  0
  4 11  1  0  0  0  0
  5  6  1  0  0  0  0
  6  7  1  0  0  0  0
  6  8  1  0  0  0  0
  8  9  1  0  0  0  0
  9 10  1  0  0  0  0
  9 11  1  0  0  0  0
M  END
>  <name>
OC12C[C;amine]3CC(C1)CC(C2)C3

>  <apo>
1

>  <freq>
1

>  <freq0>
0

>  <freq1>
1

>  <freqA>
0.99887151

>  <a_count>
27

$$$$

  MOE2015           2D

 12 12  0  0  1  0  0  0  0  0999 V2000
    7.7840   -2.4610    0.0000 O   0  0  0  0  0  0  0  0  0  0  0  0
    6.4850   -3.2110    0.0000 C   0  0  1  0  0  0  0  0  0  0  0  0
    5.1860   -2.4610    0.0000 C   0  0  1  0  0  0  0  0  0  0  0  0
    5.1860   -0.9610    0.0000 N   0  0  0  0  0  0  0  0  0  0  0  0
    3.8870   -3.2110    0.0000 C   0  0  0  0  0  0  0  0  0  0  0  0
    2.5880   -2.4610    0.0000 C   0  0  0  0  0  0  0  0  0  0  0  0
    1.2890   -3.2110    0.0000 C   0  0  0  0  0  0  0  0  0  0  0  0
   -0.0100   -2.4610    0.0000 C   0  0  0  0  0  0  0  0  0  0  0  0
   -0.0100   -0.9610    0.0000 C   0  0  0  0  0  0  0  0  0  0  0  0
    1.2890   -0.2110    0.0000 C   0  0  0  0  0  0  0  0  0  0  0  0
    2.5880   -0.9610    0.0000 C   0  0  0  0  0  0  0  0  0  0  0  0
    6.4850   -4.7110    0.0000 C   0  0  0  0  0  0  0  0  0  0  0  0
  2  1  1  6  0  0  0
  2  3  1  0  0  0  0
  2 12  1  0  0  0  0
  3  4  1  6  0  0  0
  3  5  1  0  0  0  0
  5  6  1  0  0  0  0
  6  7  1  0  0  0  0
  6 11  2  0  0  0  0
  7  8  2  0  0  0  0
  8  9  1  0  0  0  0
  9 10  2  0  0  0  0
 10 11  1  0  0  0  0
M  END
>  <name>
O[C@@H]([C@@H]([N;amide])Cc1ccccc1)[C;amine]

>  <apo>
2

>  <freq>
1

>  <freq0>
0

>  <freq1>
1

>  <freqA>
0.99887151

>  <a_count>
27

$$$$

  MOE2015           2D

 13 14  0  0  1  0  0  0  0  0999 V2000
    1.3390   -1.3390    0.0000 O   0  0  0  0  0  0  0  0  0  0  0  0
    1.3390    0.1610    0.0000 C   0  0  2  0  0  0  0  0  0  0  0  0
    0.0400    0.9110    0.0000 C   0  0  2  0  0  0  0  0  0  0  0  0
   -1.2590    0.1610    0.0000 O   0  0  0  0  0  0  0  0  0  0  0  0
    0.0400    2.4110    0.0000 C   0  0  0  0  0  0  0  0  0  0  0  0
    1.3390    3.1610    0.0000 O   0  0  0  0  0  0  0  0  0  0  0  0
    2.6380    2.4110    0.0000 C   0  0  1  0  0  0  0  0  0  0  0  0
    2.6380    0.9110    0.0000 C   0  0  1  0  0  0  0  0  0  0  0  0
    3.9370    0.1610    0.0000 O   0  0  0  0  0  0  0  0  0  0  0  0
    5.2360    0.9110    0.0000 C   0  0  2  0  0  0  0  0  0  0  0  0
    6.5360    0.1610    0.0000 C   0  0  0  0  0  0  0  0  0  0  0  0
    5.2360    2.4110    0.0000 O   0  0  0  0  0  0  0  0  0  0  0  0
    3.9370    3.1610    0.0000 C   0  0  0  0  0  0  0  0  0  0  0  0
  2  1  1  6  0  0  0
  2  3  1  0  0  0  0
  2  8  1  0  0  0  0
  3  4  1  6  0  0  0
  3  5  1  0  0  0  0
  5  6  1  0  0  0  0
  7  6  1  6  0  0  0
  7  8  1  0  0  0  0
  7 13  1  0  0  0  0
  8  9  1  1  0  0  0
  9 10  1  0  0  0  0
 10 11  1  1  0  0  0
 10 12  1  0  0  0  0
 12 13  1  0  0  0  0
M  END
>  <name>
O[C@@H]1[C@H](O)[C;ether]O[C@H]2[C@H]1O[C@H](C)OC2

>  <apo>
1

>  <freq>
1

>  <freq0>
0

>  <freq1>
1

>  <freqA>
0.99887151

>  <a_count>
27

$$$$

  MOE2015           2D

 16 16  0  0  1  0  0  0  0  0999 V2000
   -1.0840    0.0530    0.0000 S   0  0  0  0  0  0  0  0  0  0  0  0
   -1.0840    1.5530    0.0000 O   0  0  0  0  0  0  0  0  0  0  0  0
   -1.0840   -1.4470    0.0000 O   0  0  0  0  0  0  0  0  0  0  0  0
   -2.5840    0.0530    0.0000 C   0  0  0  0  0  0  0  0  0  0  0  0
   -3.3340   -1.2460    0.0000 C   0  0  3  0  0  0  0  0  0  0  0  0
   -2.0350   -1.9960    0.0000 O   0  0  0  0  0  0  0  0  0  0  0  0
   -4.0840   -2.5450    0.0000 C   0  0  0  0  0  0  0  0  0  0  0  0
   -5.5840   -2.5450    0.0000 O   0  0  0  0  0  0  0  0  0  0  0  0
   -4.6330   -0.4960    0.0000 C   0  0  0  0  0  0  0  0  0  0  0  0
    0.4160    0.0530    0.0000 C   0  0  0  0  0  0  0  0  0  0  0  0
    1.1660    1.3520    0.0000 C   0  0  0  0  0  0  0  0  0  0  0  0
    2.6660    1.3520    0.0000 C   0  0  0  0  0  0  0  0  0  0  0  0
    3.4160    0.0530    0.0000 C   0  0  0  0  0  0  0  0  0  0  0  0
    4.9160    0.0530    0.0000 F   0  0  0  0  0  0  0  0  0  0  0  0
    2.6660   -1.2460    0.0000 C   0  0  0  0  0  0  0  0  0  0  0  0
    1.1660   -1.2460    0.0000 C   0  0  0  0  0  0  0  0  0  0  0  0
  1  2  2  0  0  0  0
  1  3  2  0  0  0  0
  1  4  1  0  0  0  0
  1 10  1  0  0  0  0
  4  5  1  0  0  0  0
  5  6  1  0  0  0  0
  5  7  1  0  0  0  0
  5  9  1  0  0  0  0
  7  8  2  0  0  0  0
 10 11  1  0  0  0  0
 10 16  2  0  0  0  0
 11 12  2  0  0  0  0
 12 13  1  0  0  0  0
 13 14  1  0  0  0  0
 13 15  2  0  0  0  0
 15 16  1  0  0  0  0
M  END
>  <name>
S(=O)(=O)(CC(O)([C;amide]=O)C)c1ccc(F)cc1

>  <apo>
1

>  <freq>
1

>  <freq0>
0

>  <freq1>
1

>  <freqA>
0.99887151

>  <a_count>
27

$$$$

  MOE2015           2D

 15 15  0  0  0  0  0  0  0  0999 V2000
    2.6100   -2.6100    0.0000 S   0  0  0  0  0  0  0  0  0  0  0  0
    2.6100   -1.1100    0.0000 O   0  0  0  0  0  0  0  0  0  0  0  0
    2.6100   -4.1100    0.0000 O   0  0  0  0  0  0  0  0  0  0  0  0
    4.1100   -2.6100    0.0000 C   0  0  0  0  0  0  0  0  0  0  0  0
    4.8600   -3.9090    0.0000 C   0  0  0  0  0  0  0  0  0  0  0  0
    1.1100   -2.6100    0.0000 C   0  0  0  0  0  0  0  0  0  0  0  0
    0.3600   -1.3110    0.0000 C   0  0  0  0  0  0  0  0  0  0  0  0
   -1.1400   -1.3110    0.0000 C   0  0  0  0  0  0  0  0  0  0  0  0
   -1.8900   -0.0120    0.0000 C   0  0  0  0  0  0  0  0  0  0  0  0
   -1.1400    1.2870    0.0000 O   0  0  0  0  0  0  0  0  0  0  0  0
   -1.8900   -2.6100    0.0000 C   0  0  0  0  0  0  0  0  0  0  0  0
   -3.3900   -2.6100    0.0000 O   0  0  0  0  0  0  0  0  0  0  0  0
   -4.1400   -3.9090    0.0000 C   0  0  0  0  0  0  0  0  0  0  0  0
   -1.1400   -3.9090    0.0000 C   0  0  0  0  0  0  0  0  0  0  0  0
    0.3600   -3.9090    0.0000 C   0  0  0  0  0  0  0  0  0  0  0  0
  1  2  2  0  0  0  0
  1  3  2  0  0  0  0
  1  4  1  0  0  0  0
  1  6  1  0  0  0  0
  4  5  1  0  0  0  0
  6  7  1  0  0  0  0
  6 15  2  0  0  0  0
  7  8  2  0  0  0  0
  8  9  1  0  0  0  0
  8 11  1  0  0  0  0
  9 10  2  0  0  0  0
 11 12  1  0  0  0  0
 11 14  2  0  0  0  0
 12 13  1  0  0  0  0
 14 15  1  0  0  0  0
M  END
>  <name>
S(=O)(=O)(CC)c1cc([C;amide]=O)c(OC)cc1

>  <apo>
1

>  <freq>
1

>  <freq0>
0

>  <freq1>
1

>  <freqA>
0.99887151

>  <a_count>
27

$$$$

  MOE2015           2D

 19 20  0  0  0  0  0  0  0  0999 V2000
    5.2490   -4.5700    0.0000 S   0  0  0  0  0  0  0  0  0  0  0  0
    5.2160   -6.0700    0.0000 O   0  0  0  0  0  0  0  0  0  0  0  0
    5.2830   -3.0710    0.0000 O   0  0  0  0  0  0  0  0  0  0  0  0
    6.7490   -4.6040    0.0000 N   0  0  0  0  0  0  0  0  0  0  0  0
    3.7490   -4.5370    0.0000 C   0  0  0  0  0  0  0  0  0  0  0  0
    2.9710   -5.8190    0.0000 C   0  0  0  0  0  0  0  0  0  0  0  0
    1.4710   -5.7850    0.0000 C   0  0  0  0  0  0  0  0  0  0  0  0
    0.7500   -4.4700    0.0000 C   0  0  0  0  0  0  0  0  0  0  0  0
   -0.7490   -4.4360    0.0000 N   0  0  0  0  0  0  0  0  0  0  0  0
   -1.6580   -5.6300    0.0000 N   0  0  0  0  0  0  0  0  0  0  0  0
   -3.0740   -5.1340    0.0000 C   0  0  0  0  0  0  0  0  0  0  0  0
   -4.3070   -5.9890    0.0000 C   0  0  0  0  0  0  0  0  0  0  0  0
   -5.1610   -4.7560    0.0000 F   0  0  0  0  0  0  0  0  0  0  0  0
   -3.4520   -7.2220    0.0000 F   0  0  0  0  0  0  0  0  0  0  0  0
   -5.5400   -6.8430    0.0000 F   0  0  0  0  0  0  0  0  0  0  0  0
   -3.0400   -3.6350    0.0000 C   0  0  0  0  0  0  0  0  0  0  0  0
   -1.6040   -3.2030    0.0000 C   0  0  0  0  0  0  0  0  0  0  0  0
    1.5290   -3.1880    0.0000 C   0  0  0  0  0  0  0  0  0  0  0  0
    3.0290   -3.2210    0.0000 C   0  0  0  0  0  0  0  0  0  0  0  0
  1  2  2  0  0  0  0
  1  3  2  0  0  0  0
  1  4  1  0  0  0  0
  1  5  1  0  0  0  0
  5  6  1  0  0  0  0
  5 19  2  0  0  0  0
  6  7  2  0  0  0  0
  7  8  1  0  0  0  0
  8  9  1  0  0  0  0
  8 18  2  0  0  0  0
  9 10  1  0  0  0  0
  9 17  1  0  0  0  0
 10 11  2  0  0  0  0
 11 12  1  0  0  0  0
 11 16  1  0  0  0  0
 12 13  1  0  0  0  0
 12 14  1  0  0  0  0
 12 15  1  0  0  0  0
 16 17  2  0  0  0  0
 18 19  1  0  0  0  0
M  END
>  <name>
S(=O)(=O)(N)c1ccc(-n2nc(C(F)(F)F)c[c;biphenyl]2)cc1

>  <apo>
1

>  <freq>
1

>  <freq0>
0

>  <freq1>
1

>  <freqA>
0.99887151

>  <a_count>
27

$$$$

  MOE2015           2D

 16 17  0  0  1  0  0  0  0  0999 V2000
    3.7770    3.7770    0.0000 S   0  0  0  0  0  0  0  0  0  0  0  0
    3.7770    2.2770    0.0000 O   0  0  0  0  0  0  0  0  0  0  0  0
    3.7770    5.2770    0.0000 O   0  0  0  0  0  0  0  0  0  0  0  0
    5.2770    3.7770    0.0000 N   0  0  0  0  0  0  0  0  0  0  0  0
    2.2770    3.7770    0.0000 C   0  0  0  0  0  0  0  0  0  0  0  0
    1.3950    2.5630    0.0000 S   0  0  0  0  0  0  0  0  0  0  0  0
   -0.0320    3.0270    0.0000 C   0  0  0  0  0  0  0  0  0  0  0  0
   -1.3310    2.2770    0.0000 S   0  0  0  0  0  0  0  0  0  0  0  0
   -2.0810    0.9780    0.0000 O   0  0  0  0  0  0  0  0  0  0  0  0
   -0.5810    0.9780    0.0000 O   0  0  0  0  0  0  0  0  0  0  0  0
   -2.6300    3.0270    0.0000 C   0  0  1  0  0  0  0  0  0  0  0  0
   -3.9290    2.2770    0.0000 C   0  0  0  0  0  0  0  0  0  0  0  0
   -2.6300    4.5270    0.0000 C   0  0  0  0  0  0  0  0  0  0  0  0
   -1.3310    5.2770    0.0000 C   0  0  0  0  0  0  0  0  0  0  0  0
   -0.0320    4.5270    0.0000 C   0  0  0  0  0  0  0  0  0  0  0  0
    1.3950    4.9900    0.0000 C   0  0  0  0  0  0  0  0  0  0  0  0
  1  2  2  0  0  0  0
  1  3  2  0  0  0  0
  1  4  1  0  0  0  0
  1  5  1  0  0  0  0
  5  6  1  0  0  0  0
  5 16  2  0  0  0  0
  6  7  1  0  0  0  0
  7  8  1  0  0  0  0
  7 15  2  0  0  0  0
  8  9  2  0  0  0  0
  8 10  2  0  0  0  0
  8 11  1  0  0  0  0
 11 12  1  1  0  0  0
 11 13  1  0  0  0  0
 13 14  1  0  0  0  0
 14 15  1  0  0  0  0
 15 16  1  0  0  0  0
M  END
>  <name>
S(=O)(=O)(N)c1sc2S(=O)(=O)[C@@H](C)C[C;amine]c2c1

>  <apo>
1

>  <freq>
1

>  <freq0>
0

>  <freq1>
1

>  <freqA>
0.99887151

>  <a_count>
27

$$$$

  MOE2015           2D

 15 15  0  0  0  0  0  0  0  0999 V2000
    2.0780   -1.2000    0.0000 S   0  0  0  0  0  0  0  0  0  0  0  0
    1.3280    0.0990    0.0000 O   0  0  0  0  0  0  0  0  0  0  0  0
    2.8280   -2.4990    0.0000 O   0  0  0  0  0  0  0  0  0  0  0  0
    3.3770   -0.4500    0.0000 N   0  0  0  0  0  0  0  0  0  0  0  0
    4.6770   -1.2000    0.0000 C   0  0  0  0  0  0  0  0  0  0  0  0
    5.9760   -0.4500    0.0000 C   0  0  0  0  0  0  0  0  0  0  0  0
    7.2750   -1.2000    0.0000 C   0  0  0  0  0  0  0  0  0  0  0  0
    0.7790   -1.9500    0.0000 N   0  0  0  0  0  0  0  0  0  0  0  0
   -0.5200   -1.2000    0.0000 C   0  0  0  0  0  0  0  0  0  0  0  0
   -0.5200    0.3000    0.0000 N   0  0  0  0  0  0  0  0  0  0  0  0
   -1.8190    1.0500    0.0000 C   0  0  0  0  0  0  0  0  0  0  0  0
   -3.1180    0.3000    0.0000 N   0  0  0  0  0  0  0  0  0  0  0  0
   -3.1180   -1.2000    0.0000 C   0  0  0  0  0  0  0  0  0  0  0  0
   -4.4170   -1.9500    0.0000 O   0  0  0  0  0  0  0  0  0  0  0  0
   -1.8190   -1.9500    0.0000 C   0  0  0  0  0  0  0  0  0  0  0  0
  1  2  2  0  0  0  0
  1  3  2  0  0  0  0
  1  4  1  0  0  0  0
  1  8  1  0  0  0  0
  4  5  1  0  0  0  0
  5  6  1  0  0  0  0
  6  7  1  0  0  0  0
  8  9  1  0  0  0  0
  9 10  1  0  0  0  0
  9 15  2  0  0  0  0
 10 11  2  0  0  0  0
 11 12  1  0  0  0  0
 12 13  2  0  0  0  0
 13 14  1  0  0  0  0
 13 15  1  0  0  0  0
M  END
>  <name>
S(=O)(=O)(NCCC)Nc1ncnc([O;ether])[c;biphenyl]1

>  <apo>
2

>  <freq>
1

>  <freq0>
0

>  <freq1>
1

>  <freqA>
0.99887151

>  <a_count>
27

$$$$

  MOE2015           2D

 17 17  0  0  1  0  0  0  0  0999 V2000
   -3.8930    1.7540    0.0000 S   0  0  0  0  0  0  0  0  0  0  0  0
   -3.8930    0.2540    0.0000 O   0  0  0  0  0  0  0  0  0  0  0  0
   -3.8930    3.2540    0.0000 O   0  0  0  0  0  0  0  0  0  0  0  0
   -2.3930    1.7540    0.0000 O   0  0  0  0  0  0  0  0  0  0  0  0
   -1.6430    3.0530    0.0000 C   0  0  2  0  0  0  0  0  0  0  0  0
   -0.1430    3.0530    0.0000 C   0  0  2  0  0  0  0  0  0  0  0  0
    0.6070    1.7540    0.0000 O   0  0  0  0  0  0  0  0  0  0  0  0
    2.1070    1.7540    0.0000 S   0  0  0  0  0  0  0  0  0  0  0  0
    2.1070    0.2540    0.0000 O   0  0  0  0  0  0  0  0  0  0  0  0
    2.1070    3.2540    0.0000 O   0  0  0  0  0  0  0  0  0  0  0  0
    3.6070    1.7540    0.0000 O   0  0  0  0  0  0  0  0  0  0  0  0
    0.6070    4.3520    0.0000 C   0  0  0  0  0  0  0  0  0  0  0  0
   -0.1430    5.6510    0.0000 O   0  0  0  0  0  0  0  0  0  0  0  0
   -1.6430    5.6510    0.0000 C   0  0  0  0  0  0  0  0  0  0  0  0
   -2.3930    4.3520    0.0000 C   0  0  1  0  0  0  0  0  0  0  0  0
   -3.8930    4.3520    0.0000 O   0  0  0  0  0  0  0  0  0  0  0  0
   -5.3930    1.7540    0.0000 O   0  0  0  0  0  0  0  0  0  0  0  0
  1  2  2  0  0  0  0
  1  3  2  0  0  0  0
  1  4  1  0  0  0  0
  1 17  1  0  0  0  0
  5  4  1  1  0  0  0
  5  6  1  0  0  0  0
  5 15  1  0  0  0  0
  6  7  1  1  0  0  0
  6 12  1  0  0  0  0
  7  8  1  0  0  0  0
  8  9  2  0  0  0  0
  8 10  2  0  0  0  0
  8 11  1  0  0  0  0
 12 13  1  0  0  0  0
 13 14  1  0  0  0  0
 14 15  1  0  0  0  0
 15 16  1  6  0  0  0
M  END
>  <name>
S(=O)(=O)(O[C@@H]1[C@H](OS(=O)(=O)O)[C;ether]OC[C@H]1O)O

>  <apo>
1

>  <freq>
1

>  <freq0>
0

>  <freq1>
1

>  <freqA>
0.99887151

>  <a_count>
27

$$$$

  MOE2015           2D

 17 17  0  0  1  0  0  0  0  0999 V2000
   -3.8930   -3.8930    0.0000 S   0  0  0  0  0  0  0  0  0  0  0  0
   -3.8930   -5.3930    0.0000 O   0  0  0  0  0  0  0  0  0  0  0  0
   -3.8930   -2.3930    0.0000 O   0  0  0  0  0  0  0  0  0  0  0  0
   -2.3930   -3.8930    0.0000 O   0  0  0  0  0  0  0  0  0  0  0  0
   -1.6430   -2.5940    0.0000 C   0  0  1  0  0  0  0  0  0  0  0  0
   -2.3930   -1.2950    0.0000 C   0  0  2  0  0  0  0  0  0  0  0  0
   -3.8930   -1.2950    0.0000 O   0  0  0  0  0  0  0  0  0  0  0  0
   -1.6430    0.0040    0.0000 O   0  0  0  0  0  0  0  0  0  0  0  0
   -0.1430    0.0040    0.0000 C   0  0  0  0  0  0  0  0  0  0  0  0
    0.6070   -1.2950    0.0000 C   0  0  0  0  0  0  0  0  0  0  0  0
   -0.1430   -2.5940    0.0000 C   0  0  2  0  0  0  0  0  0  0  0  0
    0.6070   -3.8930    0.0000 O   0  0  0  0  0  0  0  0  0  0  0  0
    2.1070   -3.8930    0.0000 S   0  0  0  0  0  0  0  0  0  0  0  0
    2.1070   -5.3930    0.0000 O   0  0  0  0  0  0  0  0  0  0  0  0
    2.1070   -2.3930    0.0000 O   0  0  0  0  0  0  0  0  0  0  0  0
    3.6070   -3.8930    0.0000 O   0  0  0  0  0  0  0  0  0  0  0  0
   -5.3930   -3.8930    0.0000 O   0  0  0  0  0  0  0  0  0  0  0  0
  1  2  2  0  0  0  0
  1  3  2  0  0  0  0
  1  4  1  0  0  0  0
  1 17  1  0  0  0  0
  5  4  1  1  0  0  0
  5  6  1  0  0  0  0
  5 11  1  0  0  0  0
  6  7  1  6  0  0  0
  6  8  1  0  0  0  0
  8  9  1  0  0  0  0
  9 10  1  0  0  0  0
 10 11  1  0  0  0  0
 11 12  1  6  0  0  0
 12 13  1  0  0  0  0
 13 14  2  0  0  0  0
 13 15  2  0  0  0  0
 13 16  1  0  0  0  0
M  END
>  <name>
S(=O)(=O)(O[C@H]1[C@H](O)OC[C;ether][C@@H]1OS(=O)(=O)O)O

>  <apo>
1

>  <freq>
1

>  <freq0>
0

>  <freq1>
1

>  <freqA>
0.99887151

>  <a_count>
27

$$$$

  MOE2015           2D

 16 18  0  0  0  0  0  0  0  0999 V2000
    1.2780   -4.7690    0.0000 S   0  0  0  0  0  0  0  0  0  0  0  0
    2.5770   -4.0190    0.0000 C   0  0  0  0  0  0  0  0  0  0  0  0
   -0.0210   -4.0190    0.0000 C   0  0  0  0  0  0  0  0  0  0  0  0
   -1.3200   -4.7690    0.0000 C   0  0  0  0  0  0  0  0  0  0  0  0
   -2.6190   -4.0190    0.0000 C   0  0  0  0  0  0  0  0  0  0  0  0
   -3.9180   -4.7690    0.0000 N   0  0  0  0  0  0  0  0  0  0  0  0
   -5.2170   -4.0190    0.0000 C   0  0  0  0  0  0  0  0  0  0  0  0
   -5.2170   -2.5190    0.0000 C   0  0  0  0  0  0  0  0  0  0  0  0
   -3.9180   -1.7690    0.0000 S   0  0  0  0  0  0  0  0  0  0  0  0
   -2.6190   -2.5190    0.0000 C   0  0  0  0  0  0  0  0  0  0  0  0
   -1.3200   -1.7690    0.0000 C   0  0  0  0  0  0  0  0  0  0  0  0
   -0.0210   -2.5190    0.0000 C   0  0  0  0  0  0  0  0  0  0  0  0
   -6.5160   -1.7690    0.0000 C   0  0  0  0  0  0  0  0  0  0  0  0
   -7.8150   -2.5190    0.0000 C   0  0  0  0  0  0  0  0  0  0  0  0
   -7.8150   -4.0190    0.0000 C   0  0  0  0  0  0  0  0  0  0  0  0
   -6.5160   -4.7690    0.0000 C   0  0  0  0  0  0  0  0  0  0  0  0
  1  2  1  0  0  0  0
  1  3  1  0  0  0  0
  3  4  1  0  0  0  0
  3 12  2  0  0  0  0
  4  5  2  0  0  0  0
  5  6  1  0  0  0  0
  5 10  1  0  0  0  0
  6  7  1  0  0  0  0
  7  8  1  0  0  0  0
  7 16  2  0  0  0  0
  8  9  1  0  0  0  0
  8 13  2  0  0  0  0
  9 10  1  0  0  0  0
 10 11  2  0  0  0  0
 11 12  1  0  0  0  0
 13 14  1  0  0  0  0
 14 15  2  0  0  0  0
 15 16  1  0  0  0  0
M  END
>  <name>
S(C)c1cc2[N;amine]c3c(Sc2cc1)cccc3

>  <apo>
1

>  <freq>
1

>  <freq0>
0

>  <freq1>
1

>  <freqA>
0.99887151

>  <a_count>
27

$$$$

  MOE2015           2D

 19 21  0  0  1  0  0  0  0  0999 V2000
    0.6670    2.4880    0.0000 S   0  0  0  0  0  0  0  0  0  0  0  0
    1.9660    1.7380    0.0000 C   0  0  0  0  0  0  0  0  0  0  0  0
    2.1230    0.2470    0.0000 S   0  0  0  0  0  0  0  0  0  0  0  0
    3.5900   -0.0650    0.0000 C   0  0  0  0  0  0  0  0  0  0  0  0
    4.3400    1.2340    0.0000 C   0  0  0  0  0  0  0  0  0  0  0  0
    3.3360    2.3490    0.0000 N   0  0  0  0  0  0  0  0  0  0  0  0
   -0.6320    1.7380    0.0000 C   0  0  0  0  0  0  0  0  0  0  0  0
   -1.9310    2.4880    0.0000 C   0  0  0  0  0  0  0  0  0  0  0  0
   -1.9310    3.9880    0.0000 C   0  0  0  0  0  0  0  0  0  0  0  0
   -3.2300    4.7380    0.0000 O   0  0  0  0  0  0  0  0  0  0  0  0
   -0.6320    4.7380    0.0000 O   0  5  0  0  0  0  0  0  0  0  0  0
   -3.2300    1.7380    0.0000 N   0  0  0  0  0  0  0  0  0  0  0  0
   -4.7300    1.7380    0.0000 C   0  0  0  0  0  0  0  0  0  0  0  0
   -5.7910    2.7990    0.0000 O   0  0  0  0  0  0  0  0  0  0  0  0
   -4.7300    0.2380    0.0000 C   0  0  1  0  0  0  0  0  0  0  0  0
   -5.7910   -0.8220    0.0000 N   0  0  0  0  0  0  0  0  0  0  0  0
   -3.2300    0.2380    0.0000 C   0  0  1  0  0  0  0  0  0  0  0  0
   -1.9310   -0.5120    0.0000 S   0  0  0  0  0  0  0  0  0  0  0  0
   -0.6320    0.2380    0.0000 C   0  0  0  0  0  0  0  0  0  0  0  0
  1  2  1  0  0  0  0
  1  7  1  0  0  0  0
  2  3  1  0  0  0  0
  2  6  2  0  0  0  0
  3  4  1  0  0  0  0
  4  5  2  0  0  0  0
  5  6  1  0  0  0  0
  7  8  2  0  0  0  0
  7 19  1  0  0  0  0
  8  9  1  0  0  0  0
  8 12  1  0  0  0  0
  9 10  2  0  0  0  0
  9 11  1  0  0  0  0
 12 13  1  0  0  0  0
 17 12  1  6  0  0  0
 13 14  2  0  0  0  0
 13 15  1  0  0  0  0
 15 16  1  6  0  0  0
 15 17  1  0  0  0  0
 17 18  1  0  0  0  0
 18 19  1  0  0  0  0
M  CHG  1  11  -1
M  END
>  <name>
S(c1sc[c;biphenyl]n1)C1=C(C(=O)[O-])N2C(=O)[C@@H]([N;amide])[C@H]2SC1

>  <apo>
2

>  <freq>
1

>  <freq0>
0

>  <freq1>
1

>  <freqA>
0.99887151

>  <a_count>
27

$$$$

  MOE2015           2D

 15 17  0  0  0  0  0  0  0  0999 V2000
    1.9710    0.9300    0.0000 S   0  0  0  0  0  0  0  0  0  0  0  0
    3.1770    0.0390    0.0000 C   0  0  0  0  0  0  0  0  0  0  0  0
    3.2340   -1.4600    0.0000 C   0  0  0  0  0  0  0  0  0  0  0  0
    4.5600   -2.1610    0.0000 C   0  0  0  0  0  0  0  0  0  0  0  0
    5.8300   -1.3620    0.0000 C   0  0  0  0  0  0  0  0  0  0  0  0
    5.7740    0.1360    0.0000 C   0  0  0  0  0  0  0  0  0  0  0  0
    4.4470    0.8370    0.0000 C   0  0  0  0  0  0  0  0  0  0  0  0
    2.0970   -2.4390    0.0000 C   0  0  0  0  0  0  0  0  0  0  0  0
    0.6240   -2.1590    0.0000 C   0  0  0  0  0  0  0  0  0  0  0  0
   -0.0780   -0.8320    0.0000 C   0  0  0  0  0  0  0  0  0  0  0  0
   -1.5770   -0.7760    0.0000 C   0  0  0  0  0  0  0  0  0  0  0  0
   -2.3750   -2.0460    0.0000 C   0  0  0  0  0  0  0  0  0  0  0  0
   -1.6740   -3.3730    0.0000 C   0  0  0  0  0  0  0  0  0  0  0  0
   -0.1750   -3.4290    0.0000 C   0  0  0  0  0  0  0  0  0  0  0  0
    0.5220    0.5430    0.0000 C   0  0  0  0  0  0  0  0  0  0  0  0
  1  2  1  0  0  0  0
  1 15  1  0  0  0  0
  2  3  1  0  0  0  0
  2  7  2  0  0  0  0
  3  4  2  0  0  0  0
  3  8  1  0  0  0  0
  4  5  1  0  0  0  0
  5  6  2  0  0  0  0
  6  7  1  0  0  0  0
  8  9  1  0  0  0  0
  9 10  1  0  0  0  0
  9 14  2  0  0  0  0
 10 11  2  0  0  0  0
 10 15  1  0  0  0  0
 11 12  1  0  0  0  0
 12 13  2  0  0  0  0
 13 14  1  0  0  0  0
M  END
>  <name>
S1c2c(cccc2)[C;olefin]c2c(cccc2)C1

>  <apo>
1

>  <freq>
1

>  <freq0>
0

>  <freq1>
1

>  <freqA>
0.99887151

>  <a_count>
27

$$$$

  MOE2015           2D

  9  9  0  0  0  0  0  0  0  0999 V2000
    4.5000    2.5980    0.0000 C   0  0  0  0  0  0  0  0  0  0  0  0
    3.7500    1.2990    0.0000 C   0  0  0  0  0  0  0  0  0  0  0  0
    2.2500    1.2990    0.0000 C   0  0  0  0  0  0  0  0  0  0  0  0
    1.5000    0.0000    0.0000 C   0  0  0  0  0  0  0  0  0  0  0  0
    0.0000    0.0000    0.0000 C   0  0  0  0  0  0  0  0  0  0  0  0
   -0.7500    1.2990    0.0000 C   0  0  0  0  0  0  0  0  0  0  0  0
    0.0000    2.5980    0.0000 C   0  0  0  0  0  0  0  0  0  0  0  0
    1.5000    2.5980    0.0000 C   0  0  0  0  0  0  0  0  0  0  0  0
    6.0000    2.5980    0.0000 C   0  0  0  0  0  0  0  0  0  0  0  0
  1  2  1  0  0  0  0
  1  9  1  0  0  0  0
  2  3  1  0  0  0  0
  3  4  1  0  0  0  0
  3  8  1  0  0  0  0
  4  5  1  0  0  0  0
  5  6  1  0  0  0  0
  6  7  1  0  0  0  0
  7  8  1  0  0  0  0
M  END
>  <name>
[C;amine](CC1CCCCC1)C

>  <apo>
1

>  <freq>
1

>  <freq0>
0

>  <freq1>
1

>  <freqA>
0.99887151

>  <a_count>
27

$$$$

  MOE2015           2D

 14 15  0  0  1  0  0  0  0  0999 V2000
   -1.1790    1.1790    0.0000 C   0  0  3  0  0  0  0  0  0  0  0  0
   -1.1790    2.6790    0.0000 C   0  0  0  0  0  0  0  0  0  0  0  0
    0.1200    0.4290    0.0000 C   0  0  0  0  0  0  0  0  0  0  0  0
    1.4200    1.1790    0.0000 N   0  0  0  0  0  0  0  0  0  0  0  0
    2.7190    0.4290    0.0000 C   0  0  0  0  0  0  0  0  0  0  0  0
    2.7190   -1.0710    0.0000 C   0  0  0  0  0  0  0  0  0  0  0  0
    1.4200   -1.8210    0.0000 C   0  0  0  0  0  0  0  0  0  0  0  0
    0.1200   -1.0710    0.0000 C   0  0  0  0  0  0  0  0  0  0  0  0
   -2.4780    0.4290    0.0000 C   0  0  0  0  0  0  0  0  0  0  0  0
   -3.7770    1.1790    0.0000 C   0  0  0  0  0  0  0  0  0  0  0  0
   -5.0760    0.4290    0.0000 C   0  0  0  0  0  0  0  0  0  0  0  0
   -5.0760   -1.0710    0.0000 C   0  0  0  0  0  0  0  0  0  0  0  0
   -3.7770   -1.8210    0.0000 C   0  0  0  0  0  0  0  0  0  0  0  0
   -2.4780   -1.0710    0.0000 C   0  0  0  0  0  0  0  0  0  0  0  0
  1  2  1  0  0  0  0
  1  3  1  0  0  0  0
  1  9  1  0  0  0  0
  3  4  1  0  0  0  0
  3  8  2  0  0  0  0
  4  5  2  0  0  0  0
  5  6  1  0  0  0  0
  6  7  2  0  0  0  0
  7  8  1  0  0  0  0
  9 10  1  0  0  0  0
  9 14  2  0  0  0  0
 10 11  2  0  0  0  0
 11 12  1  0  0  0  0
 12 13  2  0  0  0  0
 13 14  1  0  0  0  0
M  END
>  <name>
[C;ether](C)(c1ncccc1)c1ccccc1

>  <apo>
1

>  <freq>
1

>  <freq0>
0

>  <freq1>
1

>  <freqA>
0.99887151

>  <a_count>
27

$$$$

  MOE2015           2D

 14 15  0  0  0  0  0  0  0  0999 V2000
    0.0570    2.9850    0.0000 C   0  0  0  0  0  0  0  0  0  0  0  0
   -1.2420    2.2350    0.0000 C   0  0  0  0  0  0  0  0  0  0  0  0
   -1.2420    0.7350    0.0000 N   0  0  0  0  0  0  0  0  0  0  0  0
   -2.5410   -0.0150    0.0000 C   0  0  0  0  0  0  0  0  0  0  0  0
   -3.8400    0.7350    0.0000 C   0  0  0  0  0  0  0  0  0  0  0  0
   -3.8400    2.2350    0.0000 C   0  0  0  0  0  0  0  0  0  0  0  0
   -2.5410    2.9850    0.0000 C   0  0  0  0  0  0  0  0  0  0  0  0
    1.3560    2.2350    0.0000 C   0  0  0  0  0  0  0  0  0  0  0  0
    1.3560    0.7350    0.0000 C   0  0  0  0  0  0  0  0  0  0  0  0
    2.6550   -0.0150    0.0000 C   0  0  0  0  0  0  0  0  0  0  0  0
    3.9550    0.7350    0.0000 C   0  0  0  0  0  0  0  0  0  0  0  0
    5.2540   -0.0150    0.0000 C   0  0  0  0  0  0  0  0  0  0  0  0
    3.9550    2.2350    0.0000 C   0  0  0  0  0  0  0  0  0  0  0  0
    2.6550    2.9850    0.0000 C   0  0  0  0  0  0  0  0  0  0  0  0
  1  2  1  0  0  0  0
  1  8  1  0  0  0  0
  2  3  1  0  0  0  0
  2  7  2  0  0  0  0
  3  4  2  0  0  0  0
  4  5  1  0  0  0  0
  5  6  2  0  0  0  0
  6  7  1  0  0  0  0
  8  9  1  0  0  0  0
  8 14  2  0  0  0  0
  9 10  2  0  0  0  0
 10 11  1  0  0  0  0
 11 12  1  0  0  0  0
 11 13  2  0  0  0  0
 13 14  1  0  0  0  0
M  END
>  <name>
[C;olefin](c1ncccc1)c1ccc(C)cc1

>  <apo>
1

>  <freq>
1

>  <freq0>
0

>  <freq1>
1

>  <freqA>
0.99887151

>  <a_count>
27

$$$$

  MOE2015           2D

 14 16  0  0  0  0  0  0  0  0999 V2000
    5.7980    1.5540    0.0000 C   0  0  0  0  0  0  0  0  0  0  0  0
    4.4990    0.8040    0.0000 C   0  0  0  0  0  0  0  0  0  0  0  0
    4.4990   -0.6960    0.0000 C   0  0  0  0  0  0  0  0  0  0  0  0
    5.7980   -1.4460    0.0000 C   0  0  0  0  0  0  0  0  0  0  0  0
    7.2980   -1.4460    0.0000 C   0  0  0  0  0  0  0  0  0  0  0  0
    6.5480   -2.7450    0.0000 C   0  0  0  0  0  0  0  0  0  0  0  0
    3.2000   -1.4460    0.0000 N   0  0  0  0  0  0  0  0  0  0  0  0
    1.9010   -0.6960    0.0000 C   0  0  0  0  0  0  0  0  0  0  0  0
    1.9010    0.8040    0.0000 C   0  0  0  0  0  0  0  0  0  0  0  0
    3.2000    1.5540    0.0000 C   0  0  0  0  0  0  0  0  0  0  0  0
    0.6020    1.5540    0.0000 C   0  0  0  0  0  0  0  0  0  0  0  0
   -0.6970    0.8040    0.0000 C   0  0  0  0  0  0  0  0  0  0  0  0
   -0.6970   -0.6960    0.0000 C   0  0  0  0  0  0  0  0  0  0  0  0
    0.6020   -1.4460    0.0000 C   0  0  0  0  0  0  0  0  0  0  0  0
  1  2  1  0  0  0  0
  2  3  1  0  0  0  0
  2 10  2  0  0  0  0
  3  4  1  0  0  0  0
  3  7  2  0  0  0  0
  4  5  1  0  0  0  0
  4  6  1  0  0  0  0
  5  6  1  0  0  0  0
  7  8  1  0  0  0  0
  8  9  1  0  0  0  0
  8 14  2  0  0  0  0
  9 10  1  0  0  0  0
  9 11  2  0  0  0  0
 11 12  1  0  0  0  0
 12 13  2  0  0  0  0
 13 14  1  0  0  0  0
M  END
>  <name>
[C;olefin]c1c(C2CC2)nc2c([c;biphenyl]1)cccc2

>  <apo>
2

>  <freq>
1

>  <freq0>
0

>  <freq1>
1

>  <freqA>
0.99887151

>  <a_count>
27

$$$$

  MOE2015           2D

 13 14  0  0  0  0  0  0  0  0999 V2000
    1.0380    4.1970    0.0000 N   0  0  0  0  0  0  0  0  0  0  0  0
    0.2880    2.8980    0.0000 C   0  0  0  0  0  0  0  0  0  0  0  0
    1.0380    1.5990    0.0000 C   0  0  0  0  0  0  0  0  0  0  0  0
    2.5380    1.5990    0.0000 N   0  0  0  0  0  0  0  0  0  0  0  0
    3.2880    0.3000    0.0000 C   0  0  0  0  0  0  0  0  0  0  0  0
    4.7880    0.3000    0.0000 C   0  0  0  0  0  0  0  0  0  0  0  0
    5.5380    1.5990    0.0000 N   0  0  0  0  0  0  0  0  0  0  0  0
    4.7880    2.8980    0.0000 C   0  0  0  0  0  0  0  0  0  0  0  0
    3.2880    2.8980    0.0000 C   0  0  0  0  0  0  0  0  0  0  0  0
    0.2880    0.3000    0.0000 N   0  0  0  0  0  0  0  0  0  0  0  0
   -1.2120    0.3000    0.0000 C   0  0  0  0  0  0  0  0  0  0  0  0
   -1.9620    1.5990    0.0000 C   0  0  0  0  0  0  0  0  0  0  0  0
   -1.2120    2.8980    0.0000 C   0  0  0  0  0  0  0  0  0  0  0  0
  1  2  1  0  0  0  0
  2  3  1  0  0  0  0
  2 13  2  0  0  0  0
  3  4  1  0  0  0  0
  3 10  2  0  0  0  0
  4  5  1  0  0  0  0
  4  9  1  0  0  0  0
  5  6  1  0  0  0  0
  6  7  1  0  0  0  0
  7  8  1  0  0  0  0
  8  9  1  0  0  0  0
 10 11  1  0  0  0  0
 11 12  2  0  0  0  0
 12 13  1  0  0  0  0
M  END
>  <name>
[N;amine]c1c(N2CC[N;amide]CC2)nccc1

>  <apo>
2

>  <freq>
1

>  <freq0>
0

>  <freq1>
1

>  <freqA>
0.99887151

>  <a_count>
27

$$$$

  MOE2015           2D

 14 15  0  0  0  0  0  0  0  0999 V2000
    9.7540   -2.6130    0.0000 N   0  0  0  0  0  0  0  0  0  0  0  0
    8.4550   -1.8630    0.0000 C   0  0  0  0  0  0  0  0  0  0  0  0
    8.4550   -0.3630    0.0000 C   0  0  0  0  0  0  0  0  0  0  0  0
    7.1550    0.3870    0.0000 C   0  0  0  0  0  0  0  0  0  0  0  0
    5.8560   -0.3630    0.0000 C   0  0  0  0  0  0  0  0  0  0  0  0
    4.5570    0.3870    0.0000 C   0  0  0  0  0  0  0  0  0  0  0  0
    3.2580   -0.3630    0.0000 C   0  0  0  0  0  0  0  0  0  0  0  0
    3.2580   -1.8630    0.0000 C   0  0  0  0  0  0  0  0  0  0  0  0
    1.9590   -2.6130    0.0000 C   0  0  0  0  0  0  0  0  0  0  0  0
    0.6600   -1.8630    0.0000 C   0  0  0  0  0  0  0  0  0  0  0  0
    0.6600   -0.3630    0.0000 C   0  0  0  0  0  0  0  0  0  0  0  0
    1.9590    0.3870    0.0000 C   0  0  0  0  0  0  0  0  0  0  0  0
    5.8560   -1.8630    0.0000 C   0  0  0  0  0  0  0  0  0  0  0  0
    7.1550   -2.6130    0.0000 C   0  0  0  0  0  0  0  0  0  0  0  0
  1  2  1  0  0  0  0
  2  3  1  0  0  0  0
  2 14  2  0  0  0  0
  3  4  2  0  0  0  0
  4  5  1  0  0  0  0
  5  6  1  0  0  0  0
  5 13  2  0  0  0  0
  6  7  1  0  0  0  0
  7  8  1  0  0  0  0
  7 12  2  0  0  0  0
  8  9  2  0  0  0  0
  9 10  1  0  0  0  0
 10 11  2  0  0  0  0
 11 12  1  0  0  0  0
 13 14  1  0  0  0  0
M  END
>  <name>
[N;amine]c1ccc([C;olefin]c2ccccc2)cc1

>  <apo>
2

>  <freq>
1

>  <freq0>
0

>  <freq1>
1

>  <freqA>
0.99887151

>  <a_count>
27

$$$$

  MOE2015           2D

 14 15  0  0  0  0  0  0  0  0999 V2000
    0.6430   -4.0830    0.0000 N   0  0  0  0  0  0  0  0  0  0  0  0
    1.3930   -2.7840    0.0000 C   0  0  0  0  0  0  0  0  0  0  0  0
    0.6430   -1.4850    0.0000 N   0  0  0  0  0  0  0  0  0  0  0  0
    1.3930   -0.1860    0.0000 C   0  0  0  0  0  0  0  0  0  0  0  0
    0.6430    1.1130    0.0000 N   0  0  0  0  0  0  0  0  0  0  0  0
    2.8930   -0.1860    0.0000 N   0  0  0  0  0  0  0  0  0  0  0  0
    3.6430   -1.4850    0.0000 C   0  0  0  0  0  0  0  0  0  0  0  0
    5.1430   -1.4850    0.0000 N   0  0  0  0  0  0  0  0  0  0  0  0
    5.8930   -0.1860    0.0000 C   0  0  0  0  0  0  0  0  0  0  0  0
    7.3930   -0.1860    0.0000 C   0  0  0  0  0  0  0  0  0  0  0  0
    8.1430   -1.4850    0.0000 N   0  0  0  0  0  0  0  0  0  0  0  0
    7.3930   -2.7840    0.0000 C   0  0  0  0  0  0  0  0  0  0  0  0
    5.8930   -2.7840    0.0000 C   0  0  0  0  0  0  0  0  0  0  0  0
    2.8930   -2.7840    0.0000 N   0  0  0  0  0  0  0  0  0  0  0  0
  1  2  1  0  0  0  0
  2  3  1  0  0  0  0
  2 14  2  0  0  0  0
  3  4  2  0  0  0  0
  4  5  1  0  0  0  0
  4  6  1  0  0  0  0
  6  7  2  0  0  0  0
  7  8  1  0  0  0  0
  7 14  1  0  0  0  0
  8  9  1  0  0  0  0
  8 13  1  0  0  0  0
  9 10  1  0  0  0  0
 10 11  1  0  0  0  0
 11 12  1  0  0  0  0
 12 13  1  0  0  0  0
M  END
>  <name>
[N;amine]c1nc([N;amine])nc(N2CC[N;amine]CC2)n1

>  <apo>
3

>  <freq>
1

>  <freq0>
0

>  <freq1>
1

>  <freqA>
0.99887151

>  <a_count>
27

$$$$

  MOE2015           2D

 12 12  0  0  0  0  0  0  0  0999 V2000
    0.9060    1.3820    0.0000 N   0  0  0  0  0  0  0  0  0  0  0  0
    2.2050    2.1320    0.0000 C   0  0  0  0  0  0  0  0  0  0  0  0
   -0.3930    2.1320    0.0000 C   0  0  0  0  0  0  0  0  0  0  0  0
   -1.6920    1.3820    0.0000 N   0  0  0  0  0  0  0  0  0  0  0  0
   -2.9910    2.1320    0.0000 C   0  0  0  0  0  0  0  0  0  0  0  0
   -4.2900    1.3820    0.0000 C   0  0  0  0  0  0  0  0  0  0  0  0
   -4.2900   -0.1180    0.0000 C   0  0  0  0  0  0  0  0  0  0  0  0
   -5.5890    2.1320    0.0000 C   0  0  0  0  0  0  0  0  0  0  0  0
   -2.9910    3.6320    0.0000 C   0  0  0  0  0  0  0  0  0  0  0  0
   -4.2900    4.3820    0.0000 C   0  0  0  0  0  0  0  0  0  0  0  0
   -1.6920    4.3820    0.0000 C   0  0  0  0  0  0  0  0  0  0  0  0
   -0.3930    3.6320    0.0000 N   0  0  0  0  0  0  0  0  0  0  0  0
  1  2  1  0  0  0  0
  1  3  1  0  0  0  0
  3  4  1  0  0  0  0
  3 12  2  0  0  0  0
  4  5  2  0  0  0  0
  5  6  1  0  0  0  0
  5  9  1  0  0  0  0
  6  7  1  0  0  0  0
  6  8  1  0  0  0  0
  9 10  1  0  0  0  0
  9 11  2  0  0  0  0
 11 12  1  0  0  0  0
M  END
>  <name>
[N;so2amide](C)c1nc(C(C)C)c([C;olefin])[c;biphenyl]n1

>  <apo>
3

>  <freq>
1

>  <freq0>
0

>  <freq1>
1

>  <freqA>
0.99887151

>  <a_count>
27

$$$$

  MOE2015           2D

 13 14  0  0  0  0  0  0  0  0999 V2000
    9.6920    0.0000    0.0000 O   0  0  0  0  0  0  0  0  0  0  0  0
    8.1920    0.0000    0.0000 C   0  0  0  0  0  0  0  0  0  0  0  0
    7.4420    1.2990    0.0000 C   0  0  0  0  0  0  0  0  0  0  0  0
    5.9420    1.2990    0.0000 C   0  0  0  0  0  0  0  0  0  0  0  0
    5.1920    0.0000    0.0000 C   0  0  0  0  0  0  0  0  0  0  0  0
    3.6920    0.0000    0.0000 N   0  0  0  0  0  0  0  0  0  0  0  0
    2.9420    1.2990    0.0000 C   0  0  0  0  0  0  0  0  0  0  0  0
    1.4420    1.2990    0.0000 C   0  0  0  0  0  0  0  0  0  0  0  0
    0.6920    0.0000    0.0000 N   0  0  0  0  0  0  0  0  0  0  0  0
    1.4420   -1.2990    0.0000 C   0  0  0  0  0  0  0  0  0  0  0  0
    2.9420   -1.2990    0.0000 C   0  0  0  0  0  0  0  0  0  0  0  0
    5.9420   -1.2990    0.0000 C   0  0  0  0  0  0  0  0  0  0  0  0
    7.4420   -1.2990    0.0000 C   0  0  0  0  0  0  0  0  0  0  0  0
  1  2  1  0  0  0  0
  2  3  1  0  0  0  0
  2 13  2  0  0  0  0
  3  4  2  0  0  0  0
  4  5  1  0  0  0  0
  5  6  1  0  0  0  0
  5 12  2  0  0  0  0
  6  7  1  0  0  0  0
  6 11  1  0  0  0  0
  7  8  1  0  0  0  0
  8  9  1  0  0  0  0
  9 10  1  0  0  0  0
 10 11  1  0  0  0  0
 12 13  1  0  0  0  0
M  END
>  <name>
[O;ether]c1ccc(N2CC[N;amine]CC2)cc1

>  <apo>
2

>  <freq>
1

>  <freq0>
0

>  <freq1>
1

>  <freqA>
0.99887151

>  <a_count>
27

$$$$

  MOE2015           2D

 14 15  0  0  1  0  0  0  0  0999 V2000
   -4.6070    0.0000    0.0000 S   0  0  0  0  0  0  0  0  0  0  0  0
   -6.1070    0.0000    0.0000 O   0  0  0  0  0  0  0  0  0  0  0  0
   -3.8570   -1.2990    0.0000 O   0  0  0  0  0  0  0  0  0  0  0  0
   -3.8570    1.2990    0.0000 C   0  0  0  0  0  0  0  0  0  0  0  0
   -2.3570    1.2990    0.0000 C   0  0  0  0  0  0  0  0  0  0  0  0
   -1.6070    0.0000    0.0000 N   0  0  0  0  0  0  0  0  0  0  0  0
   -0.1070    0.0000    0.0000 C   0  0  0  0  0  0  0  0  0  0  0  0
    0.6430    1.2990    0.0000 C   0  0  3  0  0  0  0  0  0  0  0  0
    2.1430    1.2990    0.0000 C   0  0  0  0  0  0  0  0  0  0  0  0
   -0.1070    2.5980    0.0000 C   0  0  0  0  0  0  0  0  0  0  0  0
   -1.6070    2.5980    0.0000 C   0  0  0  0  0  0  0  0  0  0  0  0
   -2.3570    3.8970    0.0000 C   0  0  0  0  0  0  0  0  0  0  0  0
   -3.8570    3.8970    0.0000 C   0  0  0  0  0  0  0  0  0  0  0  0
   -4.6070    2.5980    0.0000 C   0  0  0  0  0  0  0  0  0  0  0  0
  1  2  2  0  0  0  0
  1  3  2  0  0  0  0
  1  4  1  0  0  0  0
  4  5  1  0  0  0  0
  4 14  2  0  0  0  0
  5  6  1  0  0  0  0
  5 11  2  0  0  0  0
  6  7  1  0  0  0  0
  7  8  1  0  0  0  0
  8  9  1  0  0  0  0
  8 10  1  0  0  0  0
 10 11  1  0  0  0  0
 11 12  1  0  0  0  0
 12 13  2  0  0  0  0
 13 14  1  0  0  0  0
M  END
>  <name>
[SH;so2amide](=O)(=O)c1c2NCC(C)Cc2ccc1

>  <apo>
1

>  <freq>
1

>  <freq0>
0

>  <freq1>
1

>  <freqA>
0.99887151

>  <a_count>
27

$$$$

  MOE2015           2D

 17 19  0  0  0  0  0  0  0  0999 V2000
    3.0120   -5.3940    0.0000 S   0  0  0  0  0  0  0  0  0  0  0  0
    3.0120   -6.8940    0.0000 O   0  0  0  0  0  0  0  0  0  0  0  0
    4.3110   -4.6440    0.0000 O   0  0  0  0  0  0  0  0  0  0  0  0
    1.7130   -4.6440    0.0000 C   0  0  0  0  0  0  0  0  0  0  0  0
    0.4140   -5.3940    0.0000 C   0  0  0  0  0  0  0  0  0  0  0  0
   -0.8860   -4.6440    0.0000 C   0  0  0  0  0  0  0  0  0  0  0  0
   -0.8860   -3.1440    0.0000 C   0  0  0  0  0  0  0  0  0  0  0  0
   -2.1850   -2.3940    0.0000 S   0  0  0  0  0  0  0  0  0  0  0  0
   -3.4840   -3.1440    0.0000 C   0  0  0  0  0  0  0  0  0  0  0  0
   -3.4840   -4.6440    0.0000 C   0  0  0  0  0  0  0  0  0  0  0  0
   -4.7830   -5.3940    0.0000 C   0  0  0  0  0  0  0  0  0  0  0  0
   -6.0820   -4.6440    0.0000 C   0  0  0  0  0  0  0  0  0  0  0  0
   -6.0820   -3.1440    0.0000 C   0  0  0  0  0  0  0  0  0  0  0  0
   -4.7830   -2.3940    0.0000 C   0  0  0  0  0  0  0  0  0  0  0  0
   -2.1850   -5.3940    0.0000 C   0  0  0  0  0  0  0  0  0  0  0  0
    0.4140   -2.3940    0.0000 C   0  0  0  0  0  0  0  0  0  0  0  0
    1.7130   -3.1440    0.0000 C   0  0  0  0  0  0  0  0  0  0  0  0
  1  2  2  0  0  0  0
  1  3  2  0  0  0  0
  1  4  1  0  0  0  0
  4  5  1  0  0  0  0
  4 17  2  0  0  0  0
  5  6  2  0  0  0  0
  6  7  1  0  0  0  0
  6 15  1  0  0  0  0
  7  8  1  0  0  0  0
  7 16  2  0  0  0  0
  8  9  1  0  0  0  0
  9 10  1  0  0  0  0
  9 14  2  0  0  0  0
 10 11  2  0  0  0  0
 10 15  1  0  0  0  0
 11 12  1  0  0  0  0
 12 13  2  0  0  0  0
 13 14  1  0  0  0  0
 16 17  1  0  0  0  0
M  END
>  <name>
[SH;so2amide](=O)(=O)c1cc2c(Sc3c(cccc3)[C;olefin]2)cc1

>  <apo>
2

>  <freq>
1

>  <freq0>
0

>  <freq1>
1

>  <freqA>
0.99887151

>  <a_count>
27

$$$$

  MOE2015           2D

 13 13  0  0  0  0  0  0  0  0999 V2000
    1.6150    2.7980    0.0000 S   0  0  0  0  0  0  0  0  0  0  0  0
    2.3650    4.0970    0.0000 O   0  0  0  0  0  0  0  0  0  0  0  0
    2.3650    1.4990    0.0000 O   0  0  0  0  0  0  0  0  0  0  0  0
    0.1150    2.7980    0.0000 C   0  0  0  0  0  0  0  0  0  0  0  0
   -0.6350    1.4990    0.0000 C   0  0  0  0  0  0  0  0  0  0  0  0
   -2.1350    1.4990    0.0000 C   0  0  0  0  0  0  0  0  0  0  0  0
   -2.8850    2.7980    0.0000 C   0  0  0  0  0  0  0  0  0  0  0  0
   -4.3850    2.7980    0.0000 C   0  0  0  0  0  0  0  0  0  0  0  0
   -4.3850    4.2980    0.0000 C   0  0  0  0  0  0  0  0  0  0  0  0
   -5.8850    2.7980    0.0000 C   0  0  0  0  0  0  0  0  0  0  0  0
   -4.3850    1.2980    0.0000 C   0  0  0  0  0  0  0  0  0  0  0  0
   -2.1350    4.0970    0.0000 C   0  0  0  0  0  0  0  0  0  0  0  0
   -0.6350    4.0970    0.0000 C   0  0  0  0  0  0  0  0  0  0  0  0
  1  2  2  0  0  0  0
  1  3  2  0  0  0  0
  1  4  1  0  0  0  0
  4  5  1  0  0  0  0
  4 13  2  0  0  0  0
  5  6  2  0  0  0  0
  6  7  1  0  0  0  0
  7  8  1  0  0  0  0
  7 12  2  0  0  0  0
  8  9  1  0  0  0  0
  8 10  1  0  0  0  0
  8 11  1  0  0  0  0
 12 13  1  0  0  0  0
M  END
>  <name>
[SH;so2amide](=O)(=O)c1ccc(C(C)(C)C)cc1

>  <apo>
1

>  <freq>
1

>  <freq0>
0

>  <freq1>
1

>  <freqA>
0.99887151

>  <a_count>
27

$$$$

  MOE2015           2D

 18 19  0  0  0  0  0  0  0  0999 V2000
    0.5940   -1.8220    0.0000 Cl  0  0  0  0  0  0  0  0  0  0  0  0
    1.8930   -1.0720    0.0000 C   0  0  0  0  0  0  0  0  0  0  0  0
    1.8930    0.4280    0.0000 C   0  0  0  0  0  0  0  0  0  0  0  0
    0.5940    1.1780    0.0000 S   0  0  0  0  0  0  0  0  0  0  0  0
    1.3440    2.4770    0.0000 O   0  0  0  0  0  0  0  0  0  0  0  0
   -0.1560   -0.1210    0.0000 O   0  0  0  0  0  0  0  0  0  0  0  0
   -0.7050    1.9280    0.0000 N   0  0  0  0  0  0  0  0  0  0  0  0
    3.1920    1.1780    0.0000 C   0  0  0  0  0  0  0  0  0  0  0  0
    4.4910    0.4280    0.0000 C   0  0  0  0  0  0  0  0  0  0  0  0
    5.7900    1.1780    0.0000 S   0  0  0  0  0  0  0  0  0  0  0  0
    5.0400    2.4770    0.0000 O   0  0  0  0  0  0  0  0  0  0  0  0
    6.5400    2.4770    0.0000 O   0  0  0  0  0  0  0  0  0  0  0  0
    7.0890    0.4280    0.0000 N   0  0  0  0  0  0  0  0  0  0  0  0
    7.0890   -1.0720    0.0000 C   0  0  0  0  0  0  0  0  0  0  0  0
    8.3880   -1.8220    0.0000 C   0  0  0  0  0  0  0  0  0  0  0  0
    5.7900   -1.8220    0.0000 N   0  0  0  0  0  0  0  0  0  0  0  0
    4.4910   -1.0720    0.0000 C   0  0  0  0  0  0  0  0  0  0  0  0
    3.1920   -1.8220    0.0000 C   0  0  0  0  0  0  0  0  0  0  0  0
  1  2  1  0  0  0  0
  2  3  1  0  0  0  0
  2 18  2  0  0  0  0
  3  4  1  0  0  0  0
  3  8  2  0  0  0  0
  4  5  2  0  0  0  0
  4  6  2  0  0  0  0
  4  7  1  0  0  0  0
  8  9  1  0  0  0  0
  9 10  1  0  0  0  0
  9 17  2  0  0  0  0
 10 11  2  0  0  0  0
 10 12  2  0  0  0  0
 10 13  1  0  0  0  0
 13 14  1  0  0  0  0
 14 15  1  0  0  0  0
 14 16  2  0  0  0  0
 16 17  1  0  0  0  0
 17 18  1  0  0  0  0
M  END
>  <name>
Clc1c(S(=O)(=O)N)cc2S(=O)(=O)NC([C;thioether])=Nc2c1

>  <apo>
1

>  <freq>
1

>  <freq0>
0

>  <freq1>
1

>  <freqA>
0.99887151

>  <a_count>
26

$$$$

  MOE2015           2D

 17 18  0  0  0  0  0  0  0  0999 V2000
   -0.0670   -2.8080    0.0000 F   0  0  0  0  0  0  0  0  0  0  0  0
    1.2320   -2.0580    0.0000 C   0  0  0  0  0  0  0  0  0  0  0  0
    1.2320   -0.5580    0.0000 C   0  0  0  0  0  0  0  0  0  0  0  0
   -0.0670    0.1920    0.0000 N   0  0  0  0  0  0  0  0  0  0  0  0
    2.5310    0.1920    0.0000 C   0  0  0  0  0  0  0  0  0  0  0  0
    3.8300   -0.5580    0.0000 C   0  0  0  0  0  0  0  0  0  0  0  0
    3.8300   -2.0580    0.0000 C   0  0  0  0  0  0  0  0  0  0  0  0
    5.1290   -2.8080    0.0000 O   0  0  0  0  0  0  0  0  0  0  0  0
    6.4290   -2.0580    0.0000 C   0  0  0  0  0  0  0  0  0  0  0  0
    7.7280   -2.8080    0.0000 C   0  0  0  0  0  0  0  0  0  0  0  0
    9.0270   -2.0580    0.0000 C   0  0  0  0  0  0  0  0  0  0  0  0
   10.3260   -2.8080    0.0000 C   0  0  0  0  0  0  0  0  0  0  0  0
   11.6250   -2.0580    0.0000 O   0  0  0  0  0  0  0  0  0  0  0  0
    9.0270   -0.5580    0.0000 N   0  0  0  0  0  0  0  0  0  0  0  0
    7.7280    0.1920    0.0000 C   0  0  0  0  0  0  0  0  0  0  0  0
    6.4290   -0.5580    0.0000 C   0  0  0  0  0  0  0  0  0  0  0  0
    2.5310   -2.8080    0.0000 C   0  0  0  0  0  0  0  0  0  0  0  0
  1  2  1  0  0  0  0
  2  3  1  0  0  0  0
  2 17  2  0  0  0  0
  3  4  1  0  0  0  0
  3  5  2  0  0  0  0
  5  6  1  0  0  0  0
  6  7  2  0  0  0  0
  7  8  1  0  0  0  0
  7 17  1  0  0  0  0
  8  9  1  0  0  0  0
  9 10  1  0  0  0  0
  9 16  2  0  0  0  0
 10 11  2  0  0  0  0
 11 12  1  0  0  0  0
 11 14  1  0  0  0  0
 12 13  2  0  0  0  0
 14 15  2  0  0  0  0
 15 16  1  0  0  0  0
M  END
>  <name>
Fc1c([N;urea])ccc(Oc2cc([C;amide]=O)ncc2)c1

>  <apo>
2

>  <freq>
1

>  <freq0>
0

>  <freq1>
1

>  <freqA>
0.99887151

>  <a_count>
26

$$$$

  MOE2015           2D

 15 16  0  0  0  0  0  0  0  0999 V2000
    0.6400    4.6460    0.0000 F   0  0  0  0  0  0  0  0  0  0  0  0
    1.3780    3.3400    0.0000 C   0  0  0  0  0  0  0  0  0  0  0  0
    2.8770    3.3250    0.0000 C   0  0  0  0  0  0  0  0  0  0  0  0
    3.6150    2.0190    0.0000 C   0  0  0  0  0  0  0  0  0  0  0  0
    5.0790    1.6940    0.0000 C   0  0  0  0  0  0  0  0  0  0  0  0
    6.2030    2.6870    0.0000 C   0  0  0  0  0  0  0  0  0  0  0  0
    7.6260    2.2100    0.0000 C   0  0  0  0  0  0  0  0  0  0  0  0
    7.9240    0.7400    0.0000 O   0  0  0  0  0  0  0  0  0  0  0  0
    8.7500    3.2030    0.0000 O   0  0  0  0  0  0  0  0  0  0  0  0
    5.2220    0.2000    0.0000 C   0  0  0  0  0  0  0  0  0  0  0  0
    6.5140   -0.5620    0.0000 C   0  0  0  0  0  0  0  0  0  0  0  0
    3.8460   -0.3970    0.0000 C   0  0  0  0  0  0  0  0  0  0  0  0
    2.8530    0.7280    0.0000 C   0  0  0  0  0  0  0  0  0  0  0  0
    1.3530    0.7420    0.0000 C   0  0  0  0  0  0  0  0  0  0  0  0
    0.6150    2.0480    0.0000 C   0  0  0  0  0  0  0  0  0  0  0  0
  1  2  1  0  0  0  0
  2  3  1  0  0  0  0
  2 15  2  0  0  0  0
  3  4  2  0  0  0  0
  4  5  1  0  0  0  0
  4 13  1  0  0  0  0
  5  6  1  0  0  0  0
  5 10  2  0  0  0  0
  6  7  1  0  0  0  0
  7  8  2  0  0  0  0
  7  9  1  0  0  0  0
 10 11  1  0  0  0  0
 10 12  1  0  0  0  0
 12 13  1  0  0  0  0
 13 14  2  0  0  0  0
 14 15  1  0  0  0  0
M  END
>  <name>
Fc1cc2C(CC(=O)O)=C(C)[C;olefin]c2cc1

>  <apo>
1

>  <freq>
1

>  <freq0>
0

>  <freq1>
1

>  <freqA>
0.99887151

>  <a_count>
26

$$$$

  MOE2015           2D

 15 16  0  0  1  0  0  0  0  0999 V2000
   10.6040    0.4320    0.0000 F   0  0  0  0  0  0  0  0  0  0  0  0
    9.3850    1.3060    0.0000 C   0  0  0  0  0  0  0  0  0  0  0  0
    7.9620    0.8330    0.0000 C   0  0  0  0  0  0  0  0  0  0  0  0
    7.0720    2.0400    0.0000 N   0  0  0  0  0  0  0  0  0  0  0  0
    5.5720    2.0300    0.0000 C   0  0  0  0  0  0  0  0  0  0  0  0
    4.8130    3.3250    0.0000 N   0  0  0  0  0  0  0  0  0  0  0  0
    3.3130    3.3150    0.0000 C   0  0  0  0  0  0  0  0  0  0  0  0
    2.5720    2.0110    0.0000 C   0  0  0  0  0  0  0  0  0  0  0  0
    1.0720    2.0010    0.0000 C   0  0  1  0  0  0  0  0  0  0  0  0
    0.3310    0.6970    0.0000 N   0  0  0  0  0  0  0  0  0  0  0  0
    0.3130    3.2950    0.0000 C   0  0  0  0  0  0  0  0  0  0  0  0
    3.3310    0.7170    0.0000 C   0  0  0  0  0  0  0  0  0  0  0  0
    4.8310    0.7270    0.0000 C   0  0  0  0  0  0  0  0  0  0  0  0
    7.9460    3.2600    0.0000 N   0  0  0  0  0  0  0  0  0  0  0  0
    9.3750    2.8060    0.0000 C   0  0  0  0  0  0  0  0  0  0  0  0
  1  2  1  0  0  0  0
  2  3  2  0  0  0  0
  2 15  1  0  0  0  0
  3  4  1  0  0  0  0
  4  5  1  0  0  0  0
  4 14  1  0  0  0  0
  5  6  2  0  0  0  0
  5 13  1  0  0  0  0
  6  7  1  0  0  0  0
  7  8  2  0  0  0  0
  8  9  1  0  0  0  0
  8 12  1  0  0  0  0
  9 10  1  0  0  0  0
  9 11  1  1  0  0  0
 12 13  2  0  0  0  0
 14 15  2  0  0  0  0
M  END
>  <name>
Fc1cn(-c2ncc([C@@H]([N;amide])C)cc2)nc1

>  <apo>
1

>  <freq>
1

>  <freq0>
0

>  <freq1>
1

>  <freqA>
0.99887151

>  <a_count>
26

$$$$

  MOE2015           2D

 19 20  0  0  0  0  0  0  0  0999 V2000
   10.7120   -2.8700    0.0000 I   0  0  0  0  0  0  0  0  0  0  0  0
    9.4130   -2.1200    0.0000 C   0  0  0  0  0  0  0  0  0  0  0  0
    9.4130   -0.6200    0.0000 C   0  0  0  0  0  0  0  0  0  0  0  0
    8.1140    0.1300    0.0000 C   0  0  0  0  0  0  0  0  0  0  0  0
    8.1140    1.6300    0.0000 F   0  0  0  0  0  0  0  0  0  0  0  0
    6.8150   -0.6200    0.0000 C   0  0  0  0  0  0  0  0  0  0  0  0
    5.5160    0.1300    0.0000 N   0  0  0  0  0  0  0  0  0  0  0  0
    4.2170   -0.6200    0.0000 C   0  0  0  0  0  0  0  0  0  0  0  0
    4.2170   -2.1200    0.0000 C   0  0  0  0  0  0  0  0  0  0  0  0
    5.5160   -2.8700    0.0000 F   0  0  0  0  0  0  0  0  0  0  0  0
    2.9180   -2.8700    0.0000 C   0  0  0  0  0  0  0  0  0  0  0  0
    2.9180   -4.3700    0.0000 F   0  0  0  0  0  0  0  0  0  0  0  0
    1.6190   -2.1200    0.0000 C   0  0  0  0  0  0  0  0  0  0  0  0
    1.6190   -0.6200    0.0000 C   0  0  0  0  0  0  0  0  0  0  0  0
    2.9180    0.1300    0.0000 C   0  0  0  0  0  0  0  0  0  0  0  0
    2.9180    1.6300    0.0000 C   0  0  0  0  0  0  0  0  0  0  0  0
    1.6190    2.3800    0.0000 O   0  0  0  0  0  0  0  0  0  0  0  0
    6.8150   -2.1200    0.0000 C   0  0  0  0  0  0  0  0  0  0  0  0
    8.1140   -2.8700    0.0000 C   0  0  0  0  0  0  0  0  0  0  0  0
  1  2  1  0  0  0  0
  2  3  1  0  0  0  0
  2 19  2  0  0  0  0
  3  4  2  0  0  0  0
  4  5  1  0  0  0  0
  4  6  1  0  0  0  0
  6  7  1  0  0  0  0
  6 18  2  0  0  0  0
  7  8  1  0  0  0  0
  8  9  1  0  0  0  0
  8 15  2  0  0  0  0
  9 10  1  0  0  0  0
  9 11  2  0  0  0  0
 11 12  1  0  0  0  0
 11 13  1  0  0  0  0
 13 14  2  0  0  0  0
 14 15  1  0  0  0  0
 15 16  1  0  0  0  0
 16 17  2  0  0  0  0
 18 19  1  0  0  0  0
M  END
>  <name>
Ic1cc(F)c(Nc2c(F)c(F)ccc2[C;amide]=O)cc1

>  <apo>
1

>  <freq>
1

>  <freq0>
0

>  <freq1>
1

>  <freqA>
0.99887151

>  <a_count>
26

$$$$

  MOE2015           2D

 10 10  0  0  1  0  0  0  0  0999 V2000
   -0.3750    3.2480    0.0000 N   0  0  0  0  0  0  0  0  0  0  0  0
    0.3750    1.9490    0.0000 C   0  0  3  0  0  0  0  0  0  0  0  0
   -0.3750    0.6500    0.0000 C   0  0  0  0  0  0  0  0  0  0  0  0
    1.8750    1.9490    0.0000 C   0  0  1  0  0  0  0  0  0  0  0  0
    2.6250    0.6500    0.0000 O   0  0  0  0  0  0  0  0  0  0  0  0
    4.1250    0.6500    0.0000 C   0  0  0  0  0  0  0  0  0  0  0  0
    4.8750    1.9490    0.0000 C   0  0  2  0  0  0  0  0  0  0  0  0
    6.3750    1.9490    0.0000 N   0  0  0  0  0  0  0  0  0  0  0  0
    4.1250    3.2480    0.0000 C   0  0  0  0  0  0  0  0  0  0  0  0
    2.6250    3.2480    0.0000 C   0  0  0  0  0  0  0  0  0  0  0  0
  1  2  1  0  0  0  0
  2  3  1  0  0  0  0
  4  2  1  6  0  0  0
  4  5  1  0  0  0  0
  4 10  1  0  0  0  0
  5  6  1  0  0  0  0
  6  7  1  0  0  0  0
  7  8  1  1  0  0  0
  7  9  1  0  0  0  0
  9 10  1  0  0  0  0
M  END
>  <name>
NC(C)[C@H]1O[C;ether][C@H](N)CC1

>  <apo>
1

>  <freq>
1

>  <freq0>
0

>  <freq1>
1

>  <freqA>
0.99887151

>  <a_count>
26

$$$$

  MOE2015           2D

 14 15  0  0  0  0  0  0  0  0999 V2000
    8.6790    0.0000    0.0000 N   0  0  0  0  0  0  0  0  0  0  0  0
    7.1790    0.0000    0.0000 C   0  0  0  0  0  0  0  0  0  0  0  0
    6.4290    1.2990    0.0000 N   0  0  0  0  0  0  0  0  0  0  0  0
    4.9290    1.2990    0.0000 C   0  0  0  0  0  0  0  0  0  0  0  0
    4.1790    2.5980    0.0000 N   0  0  0  0  0  0  0  0  0  0  0  0
    4.1790    0.0000    0.0000 C   0  0  0  0  0  0  0  0  0  0  0  0
    2.6790    0.0000    0.0000 C   0  0  0  0  0  0  0  0  0  0  0  0
    1.9290    1.2990    0.0000 C   0  0  0  0  0  0  0  0  0  0  0  0
    1.9290   -1.2990    0.0000 C   0  0  0  0  0  0  0  0  0  0  0  0
    0.4290   -1.2990    0.0000 C   0  0  0  0  0  0  0  0  0  0  0  0
    2.6790   -2.5980    0.0000 C   0  0  0  0  0  0  0  0  0  0  0  0
    4.1790   -2.5980    0.0000 C   0  0  0  0  0  0  0  0  0  0  0  0
    4.9290   -1.2990    0.0000 C   0  0  0  0  0  0  0  0  0  0  0  0
    6.4290   -1.2990    0.0000 N   0  0  0  0  0  0  0  0  0  0  0  0
  1  2  1  0  0  0  0
  2  3  1  0  0  0  0
  2 14  2  0  0  0  0
  3  4  2  0  0  0  0
  4  5  1  0  0  0  0
  4  6  1  0  0  0  0
  6  7  1  0  0  0  0
  6 13  2  0  0  0  0
  7  8  1  0  0  0  0
  7  9  2  0  0  0  0
  9 10  1  0  0  0  0
  9 11  1  0  0  0  0
 11 12  2  0  0  0  0
 12 13  1  0  0  0  0
 13 14  1  0  0  0  0
M  END
>  <name>
Nc1nc(N)c2c(C)c([C;amine])ccc2n1

>  <apo>
1

>  <freq>
1

>  <freq0>
0

>  <freq1>
1

>  <freqA>
0.99887151

>  <a_count>
26

$$$$

  MOE2015           2D

 13 13  0  0  0  0  0  0  0  0999 V2000
    0.0000    0.0000    0.0000 O   0  0  0  0  0  0  0  0  0  0  0  0
    1.5000    0.0000    0.0000 C   0  0  0  0  0  0  0  0  0  0  0  0
   -0.7500    1.2990    0.0000 C   0  0  0  0  0  0  0  0  0  0  0  0
   -2.2500    1.2990    0.0000 C   0  0  0  0  0  0  0  0  0  0  0  0
   -3.0000    0.0000    0.0000 O   0  0  0  0  0  0  0  0  0  0  0  0
   -4.5000    0.0000    0.0000 C   0  0  0  0  0  0  0  0  0  0  0  0
   -3.0000    2.5980    0.0000 C   0  0  0  0  0  0  0  0  0  0  0  0
   -2.2500    3.8970    0.0000 C   0  0  0  0  0  0  0  0  0  0  0  0
   -3.0000    5.1960    0.0000 N   0  0  0  0  0  0  0  0  0  0  0  0
   -0.7500    3.8970    0.0000 C   0  0  0  0  0  0  0  0  0  0  0  0
    0.0000    2.5980    0.0000 C   0  0  0  0  0  0  0  0  0  0  0  0
    1.5000    2.5980    0.0000 O   0  0  0  0  0  0  0  0  0  0  0  0
    2.2500    3.8970    0.0000 C   0  0  0  0  0  0  0  0  0  0  0  0
  1  2  1  0  0  0  0
  1  3  1  0  0  0  0
  3  4  1  0  0  0  0
  3 11  2  0  0  0  0
  4  5  1  0  0  0  0
  4  7  2  0  0  0  0
  5  6  1  0  0  0  0
  7  8  1  0  0  0  0
  8  9  1  0  0  0  0
  8 10  2  0  0  0  0
 10 11  1  0  0  0  0
 11 12  1  0  0  0  0
 12 13  1  0  0  0  0
M  END
>  <name>
O(C)c1c(OC)cc([N;amine])cc1OC

>  <apo>
1

>  <freq>
1

>  <freq0>
0

>  <freq1>
1

>  <freqA>
0.99887151

>  <a_count>
26

$$$$

  MOE2015           2D

 12 12  0  0  0  0  0  0  0  0999 V2000
   -2.6250    4.5470    0.0000 O   0  0  0  0  0  0  0  0  0  0  0  0
   -1.8750    5.8460    0.0000 C   0  0  0  0  0  0  0  0  0  0  0  0
   -1.8750    3.2480    0.0000 C   0  0  0  0  0  0  0  0  0  0  0  0
   -2.6250    1.9490    0.0000 C   0  0  0  0  0  0  0  0  0  0  0  0
   -4.1250    1.9490    0.0000 O   0  0  0  0  0  0  0  0  0  0  0  0
   -4.8750    0.6500    0.0000 C   0  0  0  0  0  0  0  0  0  0  0  0
   -1.8750    0.6500    0.0000 C   0  0  0  0  0  0  0  0  0  0  0  0
   -0.3750    0.6500    0.0000 C   0  0  0  0  0  0  0  0  0  0  0  0
    0.3750    1.9490    0.0000 C   0  0  0  0  0  0  0  0  0  0  0  0
    1.8750    1.9490    0.0000 C   0  0  0  0  0  0  0  0  0  0  0  0
    2.6250    0.6500    0.0000 C   0  0  0  0  0  0  0  0  0  0  0  0
   -0.3750    3.2480    0.0000 C   0  0  0  0  0  0  0  0  0  0  0  0
  1  2  1  0  0  0  0
  1  3  1  0  0  0  0
  3  4  1  0  0  0  0
  3 12  2  0  0  0  0
  4  5  1  0  0  0  0
  4  7  2  0  0  0  0
  5  6  1  0  0  0  0
  7  8  1  0  0  0  0
  8  9  2  0  0  0  0
  9 10  1  0  0  0  0
  9 12  1  0  0  0  0
 10 11  1  0  0  0  0
M  END
>  <name>
O(C)c1c(OC)ccc(C[C;amine])c1

>  <apo>
1

>  <freq>
1

>  <freq0>
0

>  <freq1>
1

>  <freqA>
0.99887151

>  <a_count>
26

$$$$

  MOE2015           2D

 12 12  0  0  0  0  0  0  0  0999 V2000
   -2.6250    4.5470    0.0000 O   0  0  0  0  0  0  0  0  0  0  0  0
   -1.8750    5.8460    0.0000 C   0  0  0  0  0  0  0  0  0  0  0  0
   -1.8750    3.2480    0.0000 C   0  0  0  0  0  0  0  0  0  0  0  0
   -2.6250    1.9490    0.0000 C   0  0  0  0  0  0  0  0  0  0  0  0
   -4.1250    1.9490    0.0000 O   0  0  0  0  0  0  0  0  0  0  0  0
   -4.8750    0.6500    0.0000 C   0  0  0  0  0  0  0  0  0  0  0  0
   -1.8750    0.6500    0.0000 C   0  0  0  0  0  0  0  0  0  0  0  0
   -0.3750    0.6500    0.0000 C   0  0  0  0  0  0  0  0  0  0  0  0
    0.3750    1.9490    0.0000 C   0  0  0  0  0  0  0  0  0  0  0  0
    1.8750    1.9490    0.0000 C   0  0  0  0  0  0  0  0  0  0  0  0
    2.6250    0.6500    0.0000 C   0  0  0  0  0  0  0  0  0  0  0  0
   -0.3750    3.2480    0.0000 C   0  0  0  0  0  0  0  0  0  0  0  0
  1  2  1  0  0  0  0
  1  3  1  0  0  0  0
  3  4  1  0  0  0  0
  3 12  2  0  0  0  0
  4  5  1  0  0  0  0
  4  7  2  0  0  0  0
  5  6  1  0  0  0  0
  7  8  1  0  0  0  0
  8  9  2  0  0  0  0
  9 10  1  0  0  0  0
  9 12  1  0  0  0  0
 10 11  1  0  0  0  0
M  END
>  <name>
O(C)c1c(OC)ccc(C[C;ether])c1

>  <apo>
1

>  <freq>
1

>  <freq0>
0

>  <freq1>
1

>  <freqA>
0.99887151

>  <a_count>
26

$$$$

  MOE2015           2D

 13 13  0  0  0  0  0  0  0  0999 V2000
    2.0770    1.9990    0.0000 O   0  0  0  0  0  0  0  0  0  0  0  0
    2.8270    0.6990    0.0000 C   0  0  0  0  0  0  0  0  0  0  0  0
    4.3270    0.6990    0.0000 N   0  0  0  0  0  0  0  0  0  0  0  0
    5.0770   -0.6000    0.0000 C   0  0  0  0  0  0  0  0  0  0  0  0
    6.5770   -0.6000    0.0000 C   0  0  0  0  0  0  0  0  0  0  0  0
    7.3270   -1.8990    0.0000 C   0  0  0  0  0  0  0  0  0  0  0  0
    2.0770   -0.6000    0.0000 C   0  0  0  0  0  0  0  0  0  0  0  0
    0.5770   -0.6000    0.0000 C   0  0  0  0  0  0  0  0  0  0  0  0
   -0.1730    0.6990    0.0000 O   0  0  0  0  0  0  0  0  0  0  0  0
   -0.1730   -1.8990    0.0000 C   0  0  0  0  0  0  0  0  0  0  0  0
    0.5770   -3.1980    0.0000 C   0  0  0  0  0  0  0  0  0  0  0  0
    2.0770   -3.1980    0.0000 C   0  0  0  0  0  0  0  0  0  0  0  0
    2.8270   -1.8990    0.0000 C   0  0  0  0  0  0  0  0  0  0  0  0
  1  2  1  0  0  0  0
  2  3  2  0  0  0  0
  2  7  1  0  0  0  0
  3  4  1  0  0  0  0
  4  5  1  0  0  0  0
  5  6  1  0  0  0  0
  7  8  2  0  0  0  0
  7 13  1  0  0  0  0
  8  9  1  0  0  0  0
  8 10  1  0  0  0  0
 10 11  2  0  0  0  0
 11 12  1  0  0  0  0
 12 13  2  0  0  0  0
M  END
>  <name>
O/C(=N/C[C;ether]C)/c1c([O;ether])cccc1

>  <apo>
2

>  <freq>
1

>  <freq0>
0

>  <freq1>
1

>  <freqA>
0.99887151

>  <a_count>
26

$$$$

  MOE2015           2D

 14 14  0  0  1  0  0  0  0  0999 V2000
    2.1140    1.7430    0.0000 O   0  0  0  0  0  0  0  0  0  0  0  0
    2.1140    0.2430    0.0000 C   0  0  0  0  0  0  0  0  0  0  0  0
    3.4130   -0.5070    0.0000 C   0  0  0  0  0  0  0  0  0  0  0  0
    4.7120    0.2430    0.0000 C   0  0  2  0  0  0  0  0  0  0  0  0
    4.7120    1.7430    0.0000 N   0  0  0  0  0  0  0  0  0  0  0  0
    6.0110   -0.5070    0.0000 C   0  0  0  0  0  0  0  0  0  0  0  0
    7.3100    0.2430    0.0000 O   0  0  0  0  0  0  0  0  0  0  0  0
    0.8150   -0.5070    0.0000 C   0  0  0  0  0  0  0  0  0  0  0  0
   -0.4840    0.2430    0.0000 C   0  0  0  0  0  0  0  0  0  0  0  0
   -0.4840    1.7430    0.0000 N   0  0  0  0  0  0  0  0  0  0  0  0
   -1.7830   -0.5070    0.0000 C   0  0  0  0  0  0  0  0  0  0  0  0
   -1.7830   -2.0070    0.0000 C   0  0  0  0  0  0  0  0  0  0  0  0
   -0.4840   -2.7570    0.0000 C   0  0  0  0  0  0  0  0  0  0  0  0
    0.8150   -2.0070    0.0000 C   0  0  0  0  0  0  0  0  0  0  0  0
  1  2  2  0  0  0  0
  2  3  1  0  0  0  0
  2  8  1  0  0  0  0
  3  4  1  0  0  0  0
  4  5  1  6  0  0  0
  4  6  1  0  0  0  0
  6  7  2  0  0  0  0
  8  9  2  0  0  0  0
  8 14  1  0  0  0  0
  9 10  1  0  0  0  0
  9 11  1  0  0  0  0
 11 12  2  0  0  0  0
 12 13  1  0  0  0  0
 13 14  2  0  0  0  0
M  END
>  <name>
O=C(C[C@H]([N;amide])[C;ester]=O)c1c(N)cccc1

>  <apo>
2

>  <freq>
1

>  <freq0>
0

>  <freq1>
1

>  <freqA>
0.99887151

>  <a_count>
26

$$$$

  MOE2015           2D

 12 12  0  0  1  0  0  0  0  0999 V2000
   -1.4560   -4.3520    0.0000 O   0  0  0  0  0  0  0  0  0  0  0  0
   -1.4560   -2.8520    0.0000 C   0  0  0  0  0  0  0  0  0  0  0  0
   -2.7550   -2.1020    0.0000 N   0  0  0  0  0  0  0  0  0  0  0  0
   -0.1570   -2.1020    0.0000 C   0  0  0  0  0  0  0  0  0  0  0  0
   -0.1570   -0.6020    0.0000 O   0  0  0  0  0  0  0  0  0  0  0  0
    1.1420   -2.8520    0.0000 C   0  0  3  0  0  0  0  0  0  0  0  0
    1.1420   -4.3520    0.0000 N   0  0  0  0  0  0  0  0  0  0  0  0
    2.4410   -2.1020    0.0000 C   0  0  0  0  0  0  0  0  0  0  0  0
    3.7400   -2.8520    0.0000 C   0  0  0  0  0  0  0  0  0  0  0  0
    5.1890   -2.4640    0.0000 C   0  0  0  0  0  0  0  0  0  0  0  0
    5.5770   -3.9130    0.0000 C   0  0  0  0  0  0  0  0  0  0  0  0
    4.1280   -4.3010    0.0000 C   0  0  0  0  0  0  0  0  0  0  0  0
  1  2  2  0  0  0  0
  2  3  1  0  0  0  0
  2  4  1  0  0  0  0
  4  5  2  0  0  0  0
  4  6  1  0  0  0  0
  6  7  1  0  0  0  0
  6  8  1  0  0  0  0
  8  9  1  0  0  0  0
  9 10  1  0  0  0  0
  9 12  1  0  0  0  0
 10 11  1  0  0  0  0
 11 12  1  0  0  0  0
M  END
>  <name>
O=C(N)C(=O)C([N;amide])CC1CCC1

>  <apo>
1

>  <freq>
1

>  <freq0>
0

>  <freq1>
1

>  <freqA>
0.99887151

>  <a_count>
26

$$$$

  MOE2015           2D

 11 11  0  0  0  0  0  0  0  0999 V2000
    3.5570    3.5570    0.0000 O   0  0  0  0  0  0  0  0  0  0  0  0
    3.5570    2.0570    0.0000 C   0  0  0  0  0  0  0  0  0  0  0  0
    2.2580    1.3070    0.0000 N   0  0  0  0  0  0  0  0  0  0  0  0
    0.9590    2.0570    0.0000 N   0  0  0  0  0  0  0  0  0  0  0  0
    1.0710    3.5520    0.0000 C   0  0  0  0  0  0  0  0  0  0  0  0
   -0.0300    4.5720    0.0000 C   0  0  0  0  0  0  0  0  0  0  0  0
   -1.5130    4.3470    0.0000 C   0  0  0  0  0  0  0  0  0  0  0  0
   -2.2630    3.0480    0.0000 C   0  0  0  0  0  0  0  0  0  0  0  0
   -1.7140    1.6520    0.0000 C   0  0  0  0  0  0  0  0  0  0  0  0
   -0.2810    1.2110    0.0000 C   0  0  0  0  0  0  0  0  0  0  0  0
    4.8560    1.3070    0.0000 N   0  0  0  0  0  0  0  0  0  0  0  0
  1  2  2  0  0  0  0
  2  3  1  0  0  0  0
  2 11  1  0  0  0  0
  3  4  1  0  0  0  0
  4  5  1  0  0  0  0
  4 10  1  0  0  0  0
  5  6  1  0  0  0  0
  6  7  1  0  0  0  0
  7  8  1  0  0  0  0
  8  9  1  0  0  0  0
  9 10  1  0  0  0  0
M  END
>  <name>
O=C(NN1CCCCCC1)[N;so2amide]

>  <apo>
1

>  <freq>
1

>  <freq0>
0

>  <freq1>
1

>  <freqA>
0.99887151

>  <a_count>
26

$$$$

  MOE2015           2D

 17 18  0  0  0  0  0  0  0  0999 V2000
    0.6060   -2.1200    0.0000 O   0  0  0  0  0  0  0  0  0  0  0  0
    1.3560   -0.8210    0.0000 C   0  0  0  0  0  0  0  0  0  0  0  0
    2.8560   -0.8210    0.0000 N   0  0  0  0  0  0  0  0  0  0  0  0
    3.6060    0.4780    0.0000 N   0  0  0  0  0  0  0  0  0  0  0  0
    5.1060    0.4780    0.0000 C   0  0  0  0  0  0  0  0  0  0  0  0
    5.8560    1.7770    0.0000 N   0  0  0  0  0  0  0  0  0  0  0  0
    7.3560    1.7770    0.0000 C   0  0  0  0  0  0  0  0  0  0  0  0
    8.1060    0.4780    0.0000 C   0  0  0  0  0  0  0  0  0  0  0  0
    7.3560   -0.8210    0.0000 N   0  0  0  0  0  0  0  0  0  0  0  0
    5.8560   -0.8210    0.0000 C   0  0  0  0  0  0  0  0  0  0  0  0
    0.6060    0.4780    0.0000 C   0  0  0  0  0  0  0  0  0  0  0  0
   -0.8940    0.4780    0.0000 C   0  0  0  0  0  0  0  0  0  0  0  0
   -1.6440   -0.8210    0.0000 N   0  0  0  0  0  0  0  0  0  0  0  0
   -3.1350   -0.9780    0.0000 N   0  0  0  0  0  0  0  0  0  0  0  0
   -3.4470   -2.4450    0.0000 C   0  0  0  0  0  0  0  0  0  0  0  0
   -2.1480   -3.1950    0.0000 N   0  0  0  0  0  0  0  0  0  0  0  0
   -1.0330   -2.1920    0.0000 C   0  0  0  0  0  0  0  0  0  0  0  0
  1  2  2  0  0  0  0
  2  3  1  0  0  0  0
  2 11  1  0  0  0  0
  3  4  1  0  0  0  0
  4  5  1  0  0  0  0
  5  6  2  0  0  0  0
  5 10  1  0  0  0  0
  6  7  1  0  0  0  0
  7  8  2  0  0  0  0
  8  9  1  0  0  0  0
  9 10  2  0  0  0  0
 11 12  2  0  0  0  0
 12 13  1  0  0  0  0
 13 14  1  0  0  0  0
 13 17  1  0  0  0  0
 14 15  2  0  0  0  0
 15 16  1  0  0  0  0
 16 17  2  0  0  0  0
M  END
>  <name>
O=C(NNc1nccnc1)/C=C\n1n[c;biphenyl]nc1

>  <apo>
1

>  <freq>
1

>  <freq0>
0

>  <freq1>
1

>  <freqA>
0.99887151

>  <a_count>
26

$$$$

  MOE2015           2D

 13 13  0  0  0  0  0  0  0  0999 V2000
   10.8610   -2.9100    0.0000 O   0  0  0  0  0  0  0  0  0  0  0  0
    9.5620   -2.1600    0.0000 C   0  0  0  0  0  0  0  0  0  0  0  0
    9.5620   -0.6600    0.0000 O   0  0  0  0  0  0  0  0  0  0  0  0
    8.2630   -2.9100    0.0000 C   0  0  0  0  0  0  0  0  0  0  0  0
    6.9640   -2.1600    0.0000 C   0  0  0  0  0  0  0  0  0  0  0  0
    5.6650   -2.9100    0.0000 C   0  0  0  0  0  0  0  0  0  0  0  0
    4.3660   -2.1600    0.0000 C   0  0  0  0  0  0  0  0  0  0  0  0
    4.3660   -0.6600    0.0000 C   0  0  0  0  0  0  0  0  0  0  0  0
    3.0670    0.0900    0.0000 C   0  0  0  0  0  0  0  0  0  0  0  0
    1.7680   -0.6600    0.0000 C   0  0  0  0  0  0  0  0  0  0  0  0
    0.4690    0.0900    0.0000 N   0  0  0  0  0  0  0  0  0  0  0  0
    1.7680   -2.1600    0.0000 C   0  0  0  0  0  0  0  0  0  0  0  0
    3.0670   -2.9100    0.0000 C   0  0  0  0  0  0  0  0  0  0  0  0
  1  2  2  0  0  0  0
  2  3  1  0  0  0  0
  2  4  1  0  0  0  0
  4  5  1  0  0  0  0
  5  6  1  0  0  0  0
  6  7  1  0  0  0  0
  7  8  1  0  0  0  0
  7 13  2  0  0  0  0
  8  9  2  0  0  0  0
  9 10  1  0  0  0  0
 10 11  1  0  0  0  0
 10 12  2  0  0  0  0
 12 13  1  0  0  0  0
M  END
>  <name>
O=C(O)CCCc1ccc([N;amine])cc1

>  <apo>
1

>  <freq>
1

>  <freq0>
0

>  <freq1>
1

>  <freqA>
0.99887151

>  <a_count>
26

$$$$

  MOE2015           2D

 12 11  0  0  1  0  0  0  0  0999 V2000
   -0.4170   -2.5570    0.0000 O   0  0  0  0  0  0  0  0  0  0  0  0
    0.8820   -1.8070    0.0000 C   0  0  0  0  0  0  0  0  0  0  0  0
    0.8820   -0.3070    0.0000 O   0  0  0  0  0  0  0  0  0  0  0  0
    2.1810   -2.5570    0.0000 C   0  0  1  0  0  0  0  0  0  0  0  0
    2.1810   -4.0570    0.0000 N   0  0  0  0  0  0  0  0  0  0  0  0
    3.4800   -1.8070    0.0000 C   0  0  0  0  0  0  0  0  0  0  0  0
    4.7790   -2.5570    0.0000 C   0  0  0  0  0  0  0  0  0  0  0  0
    6.0780   -1.8070    0.0000 C   0  0  0  0  0  0  0  0  0  0  0  0
    7.3770   -2.5570    0.0000 N   0  0  0  0  0  0  0  0  0  0  0  0
    8.6760   -1.8070    0.0000 C   0  0  0  0  0  0  0  0  0  0  0  0
    9.9750   -2.5570    0.0000 N   0  0  0  0  0  0  0  0  0  0  0  0
    8.6760   -0.3070    0.0000 N   0  0  0  0  0  0  0  0  0  0  0  0
  1  2  2  0  0  0  0
  2  3  1  0  0  0  0
  2  4  1  0  0  0  0
  4  5  1  6  0  0  0
  4  6  1  0  0  0  0
  6  7  1  0  0  0  0
  7  8  1  0  0  0  0
  8  9  1  0  0  0  0
  9 10  1  0  0  0  0
 10 11  2  0  0  0  0
 10 12  1  0  0  0  0
M  END
>  <name>
O=C(O)[C@@H]([N;amide])CCCNC(=N)N

>  <apo>
1

>  <freq>
1

>  <freq0>
0

>  <freq1>
1

>  <freqA>
0.99887151

>  <a_count>
26

$$$$

  MOE2015           2D

 14 15  0  0  1  0  0  0  0  0999 V2000
   -0.4190    2.0560    0.0000 O   0  0  0  0  0  0  0  0  0  0  0  0
    0.9610    2.6430    0.0000 C   0  0  0  0  0  0  0  0  0  0  0  0
    1.1420    4.1320    0.0000 O   0  0  0  0  0  0  0  0  0  0  0  0
    2.1600    1.7420    0.0000 C   0  0  1  0  0  0  0  0  0  0  0  0
    2.1350    0.2420    0.0000 C   0  0  0  0  0  0  0  0  0  0  0  0
    0.6380    0.1490    0.0000 C   0  0  0  0  0  0  0  0  0  0  0  0
    1.5380   -1.1340    0.0000 C   0  0  0  0  0  0  0  0  0  0  0  0
    3.5540   -0.2450    0.0000 S   0  0  0  0  0  0  0  0  0  0  0  0
    4.4550    0.9540    0.0000 C   0  0  2  0  0  0  0  0  0  0  0  0
    5.6830    1.8160    0.0000 C   0  0  1  0  0  0  0  0  0  0  0  0
    7.1610    1.5570    0.0000 N   0  0  0  0  0  0  0  0  0  0  0  0
    4.8210    3.0440    0.0000 C   0  0  0  0  0  0  0  0  0  0  0  0
    5.0800    4.5210    0.0000 O   0  0  0  0  0  0  0  0  0  0  0  0
    3.5940    2.1820    0.0000 N   0  0  0  0  0  0  0  0  0  0  0  0
  1  2  2  0  0  0  0
  2  3  1  0  0  0  0
  4  2  1  6  0  0  0
  4  5  1  0  0  0  0
  4 14  1  0  0  0  0
  5  6  1  0  0  0  0
  5  7  1  0  0  0  0
  5  8  1  0  0  0  0
  9  8  1  1  0  0  0
  9 10  1  0  0  0  0
  9 14  1  0  0  0  0
 10 11  1  6  0  0  0
 10 12  1  0  0  0  0
 12 13  2  0  0  0  0
 12 14  1  0  0  0  0
M  END
>  <name>
O=C(O)[C@H]1C(C)(C)S[C@@H]2[C@@H;ether]([N;amide])C(=O)N12

>  <apo>
2

>  <freq>
1

>  <freq0>
0

>  <freq1>
1

>  <freqA>
0.99887151

>  <a_count>
26

$$$$

  MOE2015           2D

 15 16  0  0  1  0  0  0  0  0999 V2000
    4.4870    0.7110    0.0000 O   0  0  0  0  0  0  0  0  0  0  0  0
    3.0600    0.2470    0.0000 C   0  0  0  0  0  0  0  0  0  0  0  0
    1.9460    1.2510    0.0000 O   0  0  0  0  0  0  0  0  0  0  0  0
    2.7480   -1.2200    0.0000 C   0  0  1  0  0  0  0  0  0  0  0  0
    1.3780   -1.8300    0.0000 C   0  0  0  0  0  0  0  0  0  0  0  0
    0.6620   -0.5120    0.0000 C   0  0  0  0  0  0  0  0  0  0  0  0
   -0.1210   -1.8690    0.0000 C   0  0  0  0  0  0  0  0  0  0  0  0
    1.5350   -3.3220    0.0000 S   0  0  0  0  0  0  0  0  0  0  0  0
    0.0530   -3.5570    0.0000 O   0  0  0  0  0  0  0  0  0  0  0  0
    1.0470   -4.7400    0.0000 O   0  0  0  0  0  0  0  0  0  0  0  0
    3.0020   -3.6340    0.0000 C   0  0  1  0  0  0  0  0  0  0  0  0
    3.7520   -2.3350    0.0000 N   0  0  0  0  0  0  0  0  0  0  0  0
    5.0510   -3.0850    0.0000 C   0  0  0  0  0  0  0  0  0  0  0  0
    6.5000   -2.6970    0.0000 O   0  0  0  0  0  0  0  0  0  0  0  0
    4.3010   -4.3840    0.0000 C   0  0  0  0  0  0  0  0  0  0  0  0
  1  2  2  0  0  0  0
  2  3  1  0  0  0  0
  4  2  1  6  0  0  0
  4  5  1  0  0  0  0
  4 12  1  0  0  0  0
  5  6  1  0  0  0  0
  5  7  1  0  0  0  0
  5  8  1  0  0  0  0
  8  9  2  0  0  0  0
  8 10  2  0  0  0  0
  8 11  1  0  0  0  0
 11 12  1  0  0  0  0
 11 15  1  1  0  0  0
 12 13  1  0  0  0  0
 13 14  2  0  0  0  0
 13 15  1  0  0  0  0
M  END
>  <name>
O=C(O)[C@H]1C([C;NaroC])(C)S(=O)(=O)[C@H]2N1C(=O)C2

>  <apo>
1

>  <freq>
1

>  <freq0>
0

>  <freq1>
1

>  <freqA>
0.99887151

>  <a_count>
26

$$$$

  MOE2015           2D

 11 11  0  0  0  0  0  0  0  0999 V2000
    3.0270    1.6100    0.0000 O   0  0  0  0  0  0  0  0  0  0  0  0
    3.0270    0.1100    0.0000 C   0  0  0  0  0  0  0  0  0  0  0  0
    4.3260   -0.6400    0.0000 O   0  0  0  0  0  0  0  0  0  0  0  0
    5.6250    0.1100    0.0000 C   0  0  0  0  0  0  0  0  0  0  0  0
    6.9240   -0.6400    0.0000 C   0  0  0  0  0  0  0  0  0  0  0  0
    1.7280   -0.6400    0.0000 N   0  0  0  0  0  0  0  0  0  0  0  0
    1.7280   -2.1400    0.0000 C   0  0  0  0  0  0  0  0  0  0  0  0
    0.4290   -2.8900    0.0000 C   0  0  0  0  0  0  0  0  0  0  0  0
   -0.8700   -2.1400    0.0000 C   0  0  0  0  0  0  0  0  0  0  0  0
   -0.8700   -0.6400    0.0000 C   0  0  0  0  0  0  0  0  0  0  0  0
    0.4290    0.1100    0.0000 C   0  0  0  0  0  0  0  0  0  0  0  0
  1  2  2  0  0  0  0
  2  3  1  0  0  0  0
  2  6  1  0  0  0  0
  3  4  1  0  0  0  0
  4  5  1  0  0  0  0
  6  7  1  0  0  0  0
  6 11  1  0  0  0  0
  7  8  1  0  0  0  0
  8  9  1  0  0  0  0
  9 10  1  0  0  0  0
 10 11  1  0  0  0  0
M  END
>  <name>
O=C(OCC)N1CC[C;olefin]CC1

>  <apo>
1

>  <freq>
1

>  <freq0>
0

>  <freq1>
1

>  <freqA>
0.99887151

>  <a_count>
26

$$$$

  MOE2015           2D

 15 16  0  0  1  0  0  0  0  0999 V2000
    0.0000    0.0000    0.0000 O   0  0  0  0  0  0  0  0  0  0  0  0
    1.5000    0.0000    0.0000 C   0  0  0  0  0  0  0  0  0  0  0  0
    2.2500    1.2990    0.0000 N   0  0  0  0  0  0  0  0  0  0  0  0
    3.7500    1.2990    0.0000 C   0  0  0  0  0  0  0  0  0  0  0  0
    4.5000    2.5980    0.0000 C   0  0  0  0  0  0  0  0  0  0  0  0
    3.7500    3.8970    0.0000 O   0  0  0  0  0  0  0  0  0  0  0  0
    6.0000    2.5980    0.0000 C   0  0  0  0  0  0  0  0  0  0  0  0
    6.7500    1.2990    0.0000 C   0  0  0  0  0  0  0  0  0  0  0  0
    6.0000    0.0000    0.0000 C   0  0  0  0  0  0  0  0  0  0  0  0
    6.7500   -1.2990    0.0000 C   0  0  2  0  0  0  0  0  0  0  0  0
    6.0000   -2.5980    0.0000 O   0  0  0  0  0  0  0  0  0  0  0  0
    8.2500   -1.2990    0.0000 C   0  0  0  0  0  0  0  0  0  0  0  0
    4.5000    0.0000    0.0000 C   0  0  0  0  0  0  0  0  0  0  0  0
    3.7500   -1.2990    0.0000 C   0  0  0  0  0  0  0  0  0  0  0  0
    2.2500   -1.2990    0.0000 C   0  0  0  0  0  0  0  0  0  0  0  0
  1  2  2  0  0  0  0
  2  3  1  0  0  0  0
  2 15  1  0  0  0  0
  3  4  1  0  0  0  0
  4  5  1  0  0  0  0
  4 13  2  0  0  0  0
  5  6  1  0  0  0  0
  5  7  2  0  0  0  0
  7  8  1  0  0  0  0
  8  9  2  0  0  0  0
  9 10  1  0  0  0  0
  9 13  1  0  0  0  0
 10 11  1  1  0  0  0
 10 12  1  0  0  0  0
 13 14  1  0  0  0  0
 14 15  2  0  0  0  0
M  END
>  <name>
O=C1Nc2c(O)ccc([C@H](O)[C;amine])c2C=C1

>  <apo>
1

>  <freq>
1

>  <freq0>
0

>  <freq1>
1

>  <freqA>
0.99887151

>  <a_count>
26

$$$$

  MOE2015           2D

 15 16  0  0  1  0  0  0  0  0999 V2000
    9.2000   -0.6930    0.0000 O   0  0  0  0  0  0  0  0  0  0  0  0
    7.7000   -0.6930    0.0000 C   0  0  0  0  0  0  0  0  0  0  0  0
    6.9500    0.6060    0.0000 N   0  0  0  0  0  0  0  0  0  0  0  0
    5.4500    0.6060    0.0000 C   0  0  0  0  0  0  0  0  0  0  0  0
    4.7000   -0.6930    0.0000 C   0  0  0  0  0  0  0  0  0  0  0  0
    3.2000   -0.6930    0.0000 C   0  0  0  0  0  0  0  0  0  0  0  0
    2.4500   -1.9920    0.0000 C   0  0  2  0  0  0  0  0  0  0  0  0
    0.9500   -1.9920    0.0000 O   0  0  0  0  0  0  0  0  0  0  0  0
    3.2000   -3.2910    0.0000 C   0  0  0  0  0  0  0  0  0  0  0  0
    2.4500    0.6060    0.0000 C   0  0  0  0  0  0  0  0  0  0  0  0
    3.2000    1.9050    0.0000 C   0  0  0  0  0  0  0  0  0  0  0  0
    2.4500    3.2040    0.0000 O   0  0  0  0  0  0  0  0  0  0  0  0
    4.7000    1.9050    0.0000 C   0  0  0  0  0  0  0  0  0  0  0  0
    5.4500   -1.9920    0.0000 O   0  0  0  0  0  0  0  0  0  0  0  0
    6.9500   -1.9920    0.0000 C   0  0  0  0  0  0  0  0  0  0  0  0
  1  2  2  0  0  0  0
  2  3  1  0  0  0  0
  2 15  1  0  0  0  0
  3  4  1  0  0  0  0
  4  5  2  0  0  0  0
  4 13  1  0  0  0  0
  5  6  1  0  0  0  0
  5 14  1  0  0  0  0
  6  7  1  0  0  0  0
  6 10  2  0  0  0  0
  7  8  1  1  0  0  0
  7  9  1  0  0  0  0
 10 11  1  0  0  0  0
 11 12  1  0  0  0  0
 11 13  2  0  0  0  0
 14 15  1  0  0  0  0
M  END
>  <name>
O=C1Nc2c(c([C@H](O)[C;amine])cc(O)c2)OC1

>  <apo>
1

>  <freq>
1

>  <freq0>
0

>  <freq1>
1

>  <freqA>
0.99887151

>  <a_count>
26

$$$$

  MOE2015           2D

 15 16  0  0  1  0  0  0  0  0999 V2000
    0.0000    0.0000    0.0000 O   0  0  0  0  0  0  0  0  0  0  0  0
    1.5000    0.0000    0.0000 C   0  0  0  0  0  0  0  0  0  0  0  0
    2.2500   -1.2990    0.0000 N   0  0  0  0  0  0  0  0  0  0  0  0
    1.5000   -2.5980    0.0000 C   0  0  3  0  0  0  0  0  0  0  0  0
    0.0000   -2.5980    0.0000 C   0  0  0  0  0  0  0  0  0  0  0  0
    2.2500   -3.8970    0.0000 C   0  0  0  0  0  0  0  0  0  0  0  0
    3.7500   -3.8970    0.0000 N   0  0  0  0  0  0  0  0  0  0  0  0
    4.5000   -2.5980    0.0000 C   0  0  0  0  0  0  0  0  0  0  0  0
    6.0000   -2.5980    0.0000 N   0  0  0  0  0  0  0  0  0  0  0  0
    6.7500   -1.2990    0.0000 C   0  0  0  0  0  0  0  0  0  0  0  0
    8.2500   -1.2990    0.0000 N   0  0  0  0  0  0  0  0  0  0  0  0
    6.0000    0.0000    0.0000 N   0  0  0  0  0  0  0  0  0  0  0  0
    4.5000    0.0000    0.0000 C   0  0  0  0  0  0  0  0  0  0  0  0
    3.7500    1.2990    0.0000 O   0  0  0  0  0  0  0  0  0  0  0  0
    3.7500   -1.2990    0.0000 C   0  0  0  0  0  0  0  0  0  0  0  0
  1  2  2  0  0  0  0
  2  3  1  0  0  0  0
  3  4  1  0  0  0  0
  3 15  1  0  0  0  0
  4  5  1  0  0  0  0
  4  6  1  0  0  0  0
  6  7  1  0  0  0  0
  7  8  1  0  0  0  0
  8  9  1  0  0  0  0
  8 15  2  0  0  0  0
  9 10  2  0  0  0  0
 10 11  1  0  0  0  0
 10 12  1  0  0  0  0
 12 13  1  0  0  0  0
 13 14  2  0  0  0  0
 13 15  1  0  0  0  0
M  END
>  <name>
O=CN1C([C;amine])CNC=2N=C(N)NC(=O)C1=2

>  <apo>
1

>  <freq>
1

>  <freq0>
0

>  <freq1>
1

>  <freqA>
0.99887151

>  <a_count>
26

$$$$

  MOE2015           2D

 15 16  0  0  1  0  0  0  0  0999 V2000
    0.0000    0.0000    0.0000 O   0  0  0  0  0  0  0  0  0  0  0  0
    1.5000    0.0000    0.0000 C   0  0  0  0  0  0  0  0  0  0  0  0
    2.2500   -1.2990    0.0000 N   0  0  0  0  0  0  0  0  0  0  0  0
    1.5000   -2.5980    0.0000 C   0  0  1  0  0  0  0  0  0  0  0  0
    0.0000   -2.5980    0.0000 C   0  0  0  0  0  0  0  0  0  0  0  0
    2.2500   -3.8970    0.0000 C   0  0  0  0  0  0  0  0  0  0  0  0
    3.7500   -3.8970    0.0000 N   0  0  0  0  0  0  0  0  0  0  0  0
    4.5000   -2.5980    0.0000 C   0  0  0  0  0  0  0  0  0  0  0  0
    6.0000   -2.5980    0.0000 N   0  0  0  0  0  0  0  0  0  0  0  0
    6.7500   -1.2990    0.0000 C   0  0  0  0  0  0  0  0  0  0  0  0
    8.2500   -1.2990    0.0000 N   0  0  0  0  0  0  0  0  0  0  0  0
    6.0000    0.0000    0.0000 N   0  0  0  0  0  0  0  0  0  0  0  0
    4.5000    0.0000    0.0000 C   0  0  0  0  0  0  0  0  0  0  0  0
    3.7500    1.2990    0.0000 O   0  0  0  0  0  0  0  0  0  0  0  0
    3.7500   -1.2990    0.0000 C   0  0  0  0  0  0  0  0  0  0  0  0
  1  2  2  0  0  0  0
  2  3  1  0  0  0  0
  3  4  1  0  0  0  0
  3 15  1  0  0  0  0
  4  5  1  6  0  0  0
  4  6  1  0  0  0  0
  6  7  1  0  0  0  0
  7  8  1  0  0  0  0
  8  9  1  0  0  0  0
  8 15  2  0  0  0  0
  9 10  1  0  0  0  0
 10 11  1  0  0  0  0
 10 12  2  0  0  0  0
 12 13  1  0  0  0  0
 13 14  2  0  0  0  0
 13 15  1  0  0  0  0
M  END
>  <name>
O=CN1[C@@H]([C;amine])CNC=2NC(N)=NC(=O)C1=2

>  <apo>
1

>  <freq>
1

>  <freq0>
0

>  <freq1>
1

>  <freqA>
0.99887151

>  <a_count>
26

$$$$

  MOE2015           2D

 13 14  0  0  1  0  0  0  0  0999 V2000
    3.8240    3.1090    0.0000 O   0  0  0  0  0  0  0  0  0  0  0  0
    2.8190    1.9950    0.0000 C   0  0  0  0  0  0  0  0  0  0  0  0
    3.2820    0.5680    0.0000 C   0  0  3  0  0  0  0  0  0  0  0  0
    1.7840    0.4910    0.0000 C   0  0  0  0  0  0  0  0  0  0  0  0
    1.1020   -0.8450    0.0000 C   0  0  0  0  0  0  0  0  0  0  0  0
   -0.3960   -0.9230    0.0000 C   0  0  0  0  0  0  0  0  0  0  0  0
   -1.2120    0.3360    0.0000 C   0  0  0  0  0  0  0  0  0  0  0  0
   -0.5300    1.6720    0.0000 C   0  0  0  0  0  0  0  0  0  0  0  0
    0.9680    1.7490    0.0000 C   0  0  0  0  0  0  0  0  0  0  0  0
    4.7770    0.4490    0.0000 C   0  0  3  0  0  0  0  0  0  0  0  0
    6.1320    1.0940    0.0000 C   0  0  0  0  0  0  0  0  0  0  0  0
    7.3670    0.2440    0.0000 N   0  0  0  0  0  0  0  0  0  0  0  0
    3.9270   -0.7860    0.0000 C   0  0  0  0  0  0  0  0  0  0  0  0
  1  2  2  0  0  0  0
  2  3  1  0  0  0  0
  3  4  1  0  0  0  0
  3 10  1  0  0  0  0
  3 13  1  0  0  0  0
  4  5  1  0  0  0  0
  4  9  2  0  0  0  0
  5  6  2  0  0  0  0
  6  7  1  0  0  0  0
  7  8  2  0  0  0  0
  8  9  1  0  0  0  0
 10 11  1  0  0  0  0
 10 13  1  0  0  0  0
 11 12  1  0  0  0  0
M  END
>  <name>
O=[C;amide]C1(c2ccccc2)C(CN)C1

>  <apo>
1

>  <freq>
1

>  <freq0>
0

>  <freq1>
1

>  <freqA>
0.99887151

>  <a_count>
26

$$$$

  MOE2015           2D

 13 13  0  0  1  0  0  0  0  0999 V2000
    9.5650    3.8320    0.0000 O   0  0  0  0  0  0  0  0  0  0  0  0
    8.2660    4.5820    0.0000 C   0  0  0  0  0  0  0  0  0  0  0  0
    6.9670    3.8320    0.0000 C   0  0  1  0  0  0  0  0  0  0  0  0
    6.9670    2.3320    0.0000 N   0  0  0  0  0  0  0  0  0  0  0  0
    5.6680    4.5820    0.0000 C   0  0  0  0  0  0  0  0  0  0  0  0
    4.3690    3.8320    0.0000 C   0  0  0  0  0  0  0  0  0  0  0  0
    4.3690    2.3320    0.0000 C   0  0  0  0  0  0  0  0  0  0  0  0
    3.0700    1.5820    0.0000 C   0  0  0  0  0  0  0  0  0  0  0  0
    1.7710    2.3320    0.0000 C   0  0  0  0  0  0  0  0  0  0  0  0
    0.4720    1.5820    0.0000 O   0  0  0  0  0  0  0  0  0  0  0  0
   -0.8270    2.3320    0.0000 C   0  0  0  0  0  0  0  0  0  0  0  0
    1.7710    3.8320    0.0000 C   0  0  0  0  0  0  0  0  0  0  0  0
    3.0700    4.5820    0.0000 C   0  0  0  0  0  0  0  0  0  0  0  0
  1  2  2  0  0  0  0
  2  3  1  0  0  0  0
  3  4  1  1  0  0  0
  3  5  1  0  0  0  0
  5  6  1  0  0  0  0
  6  7  1  0  0  0  0
  6 13  2  0  0  0  0
  7  8  2  0  0  0  0
  8  9  1  0  0  0  0
  9 10  1  0  0  0  0
  9 12  2  0  0  0  0
 10 11  1  0  0  0  0
 12 13  1  0  0  0  0
M  END
>  <name>
O=[C;amide][C@@H]([N;amide])Cc1ccc(OC)cc1

>  <apo>
2

>  <freq>
1

>  <freq0>
0

>  <freq1>
1

>  <freqA>
0.99887151

>  <a_count>
26

$$$$

  MOE2015           2D

 13 13  0  0  1  0  0  0  0  0999 V2000
   -0.6280   -6.1670    0.0000 O   0  0  0  0  0  0  0  0  0  0  0  0
   -0.6280   -4.6670    0.0000 C   0  0  0  0  0  0  0  0  0  0  0  0
    0.6710   -3.9170    0.0000 C   0  0  1  0  0  0  0  0  0  0  0  0
    0.6710   -2.4170    0.0000 N   0  0  0  0  0  0  0  0  0  0  0  0
   -0.6280   -1.6670    0.0000 C   0  0  0  0  0  0  0  0  0  0  0  0
    1.9700   -4.6670    0.0000 C   0  0  0  0  0  0  0  0  0  0  0  0
    3.2690   -3.9170    0.0000 C   0  0  0  0  0  0  0  0  0  0  0  0
    3.2690   -2.4170    0.0000 C   0  0  0  0  0  0  0  0  0  0  0  0
    4.5680   -1.6670    0.0000 C   0  0  0  0  0  0  0  0  0  0  0  0
    5.8670   -2.4170    0.0000 C   0  0  0  0  0  0  0  0  0  0  0  0
    7.1660   -1.6670    0.0000 O   0  0  0  0  0  0  0  0  0  0  0  0
    5.8670   -3.9170    0.0000 C   0  0  0  0  0  0  0  0  0  0  0  0
    4.5680   -4.6670    0.0000 C   0  0  0  0  0  0  0  0  0  0  0  0
  1  2  2  0  0  0  0
  3  2  1  1  0  0  0
  3  4  1  0  0  0  0
  3  6  1  0  0  0  0
  4  5  1  0  0  0  0
  6  7  1  0  0  0  0
  7  8  1  0  0  0  0
  7 13  2  0  0  0  0
  8  9  2  0  0  0  0
  9 10  1  0  0  0  0
 10 11  1  0  0  0  0
 10 12  2  0  0  0  0
 12 13  1  0  0  0  0
M  END
>  <name>
O=[C;amide][C@@H]([N;amide]C)Cc1ccc(O)cc1

>  <apo>
2

>  <freq>
1

>  <freq0>
0

>  <freq1>
1

>  <freqA>
0.99887151

>  <a_count>
26

$$$$

  MOE2015           2D

 13 14  0  0  1  0  0  0  0  0999 V2000
    3.8240    3.1090    0.0000 O   0  0  0  0  0  0  0  0  0  0  0  0
    2.8190    1.9950    0.0000 C   0  0  0  0  0  0  0  0  0  0  0  0
    3.2820    0.5680    0.0000 C   0  0  2  0  0  0  0  0  0  0  0  0
    4.7770    0.4490    0.0000 C   0  0  2  0  0  0  0  0  0  0  0  0
    6.1320    1.0940    0.0000 C   0  0  0  0  0  0  0  0  0  0  0  0
    7.3670    0.2440    0.0000 N   0  0  0  0  0  0  0  0  0  0  0  0
    3.9270   -0.7860    0.0000 C   0  0  0  0  0  0  0  0  0  0  0  0
    1.7840    0.4910    0.0000 C   0  0  0  0  0  0  0  0  0  0  0  0
    1.1020   -0.8450    0.0000 C   0  0  0  0  0  0  0  0  0  0  0  0
   -0.3960   -0.9230    0.0000 C   0  0  0  0  0  0  0  0  0  0  0  0
   -1.2120    0.3360    0.0000 C   0  0  0  0  0  0  0  0  0  0  0  0
   -0.5300    1.6720    0.0000 C   0  0  0  0  0  0  0  0  0  0  0  0
    0.9680    1.7490    0.0000 C   0  0  0  0  0  0  0  0  0  0  0  0
  1  2  2  0  0  0  0
  3  2  1  6  0  0  0
  3  4  1  0  0  0  0
  3  7  1  0  0  0  0
  3  8  1  1  0  0  0
  4  5  1  6  0  0  0
  4  7  1  0  0  0  0
  5  6  1  0  0  0  0
  8  9  1  0  0  0  0
  8 13  2  0  0  0  0
  9 10  2  0  0  0  0
 10 11  1  0  0  0  0
 11 12  2  0  0  0  0
 12 13  1  0  0  0  0
M  END
>  <name>
O=[C;amide][C@@]1([C@H](CN)C1)c1ccccc1

>  <apo>
1

>  <freq>
1

>  <freq0>
0

>  <freq1>
1

>  <freqA>
0.99887151

>  <a_count>
26

$$$$

  MOE2015           2D

 13 13  0  0  1  0  0  0  0  0999 V2000
    0.0000   -2.3980    0.0000 O   0  0  0  0  0  0  0  0  0  0  0  0
    1.5000   -2.3980    0.0000 C   0  0  0  0  0  0  0  0  0  0  0  0
    2.2500   -1.0990    0.0000 C   0  0  2  0  0  0  0  0  0  0  0  0
    1.5000    0.2000    0.0000 C   0  0  0  0  0  0  0  0  0  0  0  0
    0.0000    0.2000    0.0000 N   0  0  0  0  0  0  0  0  0  0  0  0
    3.7500   -1.0990    0.0000 C   0  0  0  0  0  0  0  0  0  0  0  0
    4.5000   -2.3980    0.0000 C   0  0  0  0  0  0  0  0  0  0  0  0
    6.0000   -2.3980    0.0000 C   0  0  0  0  0  0  0  0  0  0  0  0
    6.7500   -1.0990    0.0000 C   0  0  0  0  0  0  0  0  0  0  0  0
    8.2500   -1.0990    0.0000 C   0  0  0  0  0  0  0  0  0  0  0  0
    9.0000   -2.3980    0.0000 O   0  0  0  0  0  0  0  0  0  0  0  0
    6.0000    0.2000    0.0000 C   0  0  0  0  0  0  0  0  0  0  0  0
    4.5000    0.2000    0.0000 C   0  0  0  0  0  0  0  0  0  0  0  0
  1  2  2  0  0  0  0
  3  2  1  6  0  0  0
  3  4  1  0  0  0  0
  3  6  1  0  0  0  0
  4  5  1  0  0  0  0
  6  7  1  0  0  0  0
  6 13  2  0  0  0  0
  7  8  2  0  0  0  0
  8  9  1  0  0  0  0
  9 10  1  0  0  0  0
  9 12  2  0  0  0  0
 10 11  1  0  0  0  0
 12 13  1  0  0  0  0
M  END
>  <name>
O=[C;amide][C@H](CN)c1ccc(C[O;ester])cc1

>  <apo>
2

>  <freq>
1

>  <freq0>
0

>  <freq1>
1

>  <freqA>
0.99887151

>  <a_count>
26

$$$$

  MOE2015           2D

 11 12  0  0  1  0  0  0  0  0999 V2000
    7.0780   -4.0870    0.0000 O   0  0  0  0  0  0  0  0  0  0  0  0
    6.3280   -2.7880    0.0000 C   0  0  0  0  0  0  0  0  0  0  0  0
    4.8280   -2.7880    0.0000 C   0  0  1  0  0  0  0  0  0  0  0  0
    3.9470   -4.0010    0.0000 N   0  0  0  0  0  0  0  0  0  0  0  0
    2.5200   -3.5380    0.0000 C   0  0  2  0  0  0  0  0  0  0  0  0
    2.5200   -2.0380    0.0000 C   0  0  2  0  0  0  0  0  0  0  0  0
    3.9470   -1.5740    0.0000 C   0  0  0  0  0  0  0  0  0  0  0  0
    1.2210   -1.2880    0.0000 C   0  0  0  0  0  0  0  0  0  0  0  0
   -0.0780   -2.0380    0.0000 C   0  0  0  0  0  0  0  0  0  0  0  0
   -0.0780   -3.5380    0.0000 C   0  0  0  0  0  0  0  0  0  0  0  0
    1.2210   -4.2880    0.0000 C   0  0  0  0  0  0  0  0  0  0  0  0
  1  2  2  0  0  0  0
  3  2  1  1  0  0  0
  3  4  1  0  0  0  0
  3  7  1  0  0  0  0
  4  5  1  0  0  0  0
  5  6  1  0  0  0  0
  5 11  1  1  0  0  0
  6  7  1  0  0  0  0
  6  8  1  1  0  0  0
  8  9  1  0  0  0  0
  9 10  1  0  0  0  0
 10 11  1  0  0  0  0
M  END
>  <name>
O=[C;amide][C@H]1[N;amide][C@@H]2[C@H](C1)CCCC2

>  <apo>
2

>  <freq>
1

>  <freq0>
0

>  <freq1>
1

>  <freqA>
0.99887151

>  <a_count>
26

$$$$

  MOE2015           2D

 14 14  0  0  0  0  0  0  0  0999 V2000
    7.3360   -3.7870    0.0000 O   0  0  0  0  0  0  0  0  0  0  0  0
    6.0370   -4.5370    0.0000 C   0  0  0  0  0  0  0  0  0  0  0  0
    4.7380   -3.7870    0.0000 C   0  0  0  0  0  0  0  0  0  0  0  0
    3.4390   -4.5370    0.0000 C   0  0  0  0  0  0  0  0  0  0  0  0
    2.1400   -3.7870    0.0000 C   0  0  0  0  0  0  0  0  0  0  0  0
    0.8410   -4.5370    0.0000 O   0  0  0  0  0  0  0  0  0  0  0  0
    0.8410   -6.0370    0.0000 C   0  0  0  0  0  0  0  0  0  0  0  0
    2.1400   -2.2870    0.0000 C   0  0  0  0  0  0  0  0  0  0  0  0
    0.8410   -1.5370    0.0000 O   0  0  0  0  0  0  0  0  0  0  0  0
   -0.4580   -2.2870    0.0000 C   0  0  0  0  0  0  0  0  0  0  0  0
    3.4390   -1.5370    0.0000 C   0  0  0  0  0  0  0  0  0  0  0  0
    3.4390   -0.0370    0.0000 O   0  0  0  0  0  0  0  0  0  0  0  0
    4.7380    0.7130    0.0000 C   0  0  0  0  0  0  0  0  0  0  0  0
    4.7380   -2.2870    0.0000 C   0  0  0  0  0  0  0  0  0  0  0  0
  1  2  2  0  0  0  0
  2  3  1  0  0  0  0
  3  4  1  0  0  0  0
  3 14  2  0  0  0  0
  4  5  2  0  0  0  0
  5  6  1  0  0  0  0
  5  8  1  0  0  0  0
  6  7  1  0  0  0  0
  8  9  1  0  0  0  0
  8 11  2  0  0  0  0
  9 10  1  0  0  0  0
 11 12  1  0  0  0  0
 11 14  1  0  0  0  0
 12 13  1  0  0  0  0
M  END
>  <name>
O=[C;amide]c1cc(OC)c(OC)c(OC)c1

>  <apo>
1

>  <freq>
1

>  <freq0>
0

>  <freq1>
1

>  <freqA>
0.99887151

>  <a_count>
26

$$$$

  MOE2015           2D

 14 15  0  0  1  0  0  0  0  0999 V2000
    9.0460   -2.6100    0.0000 O   0  0  0  0  0  0  0  0  0  0  0  0
    8.2870   -3.9030    0.0000 C   0  0  0  0  0  0  0  0  0  0  0  0
    6.7870   -3.8930    0.0000 C   0  0  0  0  0  0  0  0  0  0  0  0
    6.0280   -5.1860    0.0000 C   0  0  0  0  0  0  0  0  0  0  0  0
    4.5280   -5.1750    0.0000 N   0  0  0  0  0  0  0  0  0  0  0  0
    3.7870   -3.8710    0.0000 C   0  0  0  0  0  0  0  0  0  0  0  0
    2.2870   -3.8600    0.0000 N   0  0  0  0  0  0  0  0  0  0  0  0
    1.3970   -5.0670    0.0000 C   0  0  0  0  0  0  0  0  0  0  0  0
   -0.0270   -4.5930    0.0000 C   0  0  2  0  0  0  0  0  0  0  0  0
   -1.2460   -5.4660    0.0000 O   0  0  0  0  0  0  0  0  0  0  0  0
   -0.0160   -3.0930    0.0000 C   0  0  0  0  0  0  0  0  0  0  0  0
    1.4140   -2.6400    0.0000 C   0  0  0  0  0  0  0  0  0  0  0  0
    4.5460   -2.5770    0.0000 C   0  0  0  0  0  0  0  0  0  0  0  0
    6.0460   -2.5880    0.0000 C   0  0  0  0  0  0  0  0  0  0  0  0
  1  2  2  0  0  0  0
  2  3  1  0  0  0  0
  3  4  1  0  0  0  0
  3 14  2  0  0  0  0
  4  5  2  0  0  0  0
  5  6  1  0  0  0  0
  6  7  1  0  0  0  0
  6 13  2  0  0  0  0
  7  8  1  0  0  0  0
  7 12  1  0  0  0  0
  8  9  1  0  0  0  0
  9 10  1  6  0  0  0
  9 11  1  0  0  0  0
 11 12  1  0  0  0  0
 13 14  1  0  0  0  0
M  END
>  <name>
O=[C;amide]c1cnc(N2C[C@H](O)CC2)[c;biphenyl]c1

>  <apo>
2

>  <freq>
1

>  <freq0>
0

>  <freq1>
1

>  <freqA>
0.99887151

>  <a_count>
26

$$$$

  MOE2015           2D

 16 17  0  0  0  0  0  0  0  0999 V2000
   11.0580    2.9630    0.0000 O   0  0  0  0  0  0  0  0  0  0  0  0
    9.7590    2.2130    0.0000 C   0  0  0  0  0  0  0  0  0  0  0  0
    8.4600    2.9630    0.0000 C   0  0  0  0  0  0  0  0  0  0  0  0
    8.4600    4.4630    0.0000 N   0  0  0  0  0  0  0  0  0  0  0  0
    7.1610    5.2130    0.0000 C   0  0  0  0  0  0  0  0  0  0  0  0
    5.8620    4.4630    0.0000 C   0  0  0  0  0  0  0  0  0  0  0  0
    5.8620    2.9630    0.0000 C   0  0  0  0  0  0  0  0  0  0  0  0
    4.5630    2.2130    0.0000 O   0  0  0  0  0  0  0  0  0  0  0  0
    3.2640    2.9630    0.0000 C   0  0  0  0  0  0  0  0  0  0  0  0
    3.2640    4.4630    0.0000 C   0  0  0  0  0  0  0  0  0  0  0  0
    1.9650    5.2130    0.0000 C   0  0  0  0  0  0  0  0  0  0  0  0
    0.6660    4.4630    0.0000 C   0  0  0  0  0  0  0  0  0  0  0  0
   -0.6330    5.2130    0.0000 N   0  0  0  0  0  0  0  0  0  0  0  0
    0.6660    2.9630    0.0000 C   0  0  0  0  0  0  0  0  0  0  0  0
    1.9650    2.2130    0.0000 C   0  0  0  0  0  0  0  0  0  0  0  0
    7.1610    2.2130    0.0000 C   0  0  0  0  0  0  0  0  0  0  0  0
  1  2  2  0  0  0  0
  2  3  1  0  0  0  0
  3  4  1  0  0  0  0
  3 16  2  0  0  0  0
  4  5  2  0  0  0  0
  5  6  1  0  0  0  0
  6  7  2  0  0  0  0
  7  8  1  0  0  0  0
  7 16  1  0  0  0  0
  8  9  1  0  0  0  0
  9 10  1  0  0  0  0
  9 15  2  0  0  0  0
 10 11  2  0  0  0  0
 11 12  1  0  0  0  0
 12 13  1  0  0  0  0
 12 14  2  0  0  0  0
 14 15  1  0  0  0  0
M  END
>  <name>
O=[C;amide]c1nccc(Oc2ccc([N;urea])cc2)c1

>  <apo>
2

>  <freq>
1

>  <freq0>
0

>  <freq1>
1

>  <freqA>
0.99887151

>  <a_count>
26

$$$$

  MOE2015           2D

 10 11  0  0  1  0  0  0  0  0999 V2000
    6.3510   -1.1960    0.0000 O   0  0  0  0  0  0  0  0  0  0  0  0
    4.8840   -0.8840    0.0000 C   0  0  1  0  0  0  0  0  0  0  0  0
    4.2740    0.4870    0.0000 C   0  0  2  0  0  0  0  0  0  0  0  0
    5.0240    1.7860    0.0000 C   0  0  0  0  0  0  0  0  0  0  0  0
    2.7820    0.3300    0.0000 C   0  0  2  0  0  0  0  0  0  0  0  0
    2.4700   -1.1370    0.0000 C   0  0  2  0  0  0  0  0  0  0  0  0
    3.7690   -1.8870    0.0000 C   0  0  0  0  0  0  0  0  0  0  0  0
    0.9780   -1.2940    0.0000 C   0  0  0  0  0  0  0  0  0  0  0  0
    0.3680    0.0760    0.0000 C   0  0  0  0  0  0  0  0  0  0  0  0
    1.4830    1.0800    0.0000 C   0  0  0  0  0  0  0  0  0  0  0  0
  2  1  1  6  0  0  0
  2  3  1  0  0  0  0
  2  7  1  0  0  0  0
  3  4  1  1  0  0  0
  3  5  1  0  0  0  0
  5  6  1  0  0  0  0
  5 10  1  6  0  0  0
  6  7  1  0  0  0  0
  6  8  1  6  0  0  0
  8  9  1  0  0  0  0
  9 10  1  0  0  0  0
M  END
>  <name>
O[C@H]1[C@H]([C;olefin])[C@@H]2[C@H](C1)C[C;olefin]C2

>  <apo>
2

>  <freq>
1

>  <freq0>
0

>  <freq1>
1

>  <freqA>
0.99887151

>  <a_count>
26

$$$$

  MOE2015           2D

 12 12  0  0  0  0  0  0  0  0999 V2000
    1.9380   -1.8400    0.0000 O   0  0  0  0  0  0  0  0  0  0  0  0
    2.6880   -0.5410    0.0000 C   0  0  0  0  0  0  0  0  0  0  0  0
    1.9380    0.7580    0.0000 C   0  0  0  0  0  0  0  0  0  0  0  0
    0.4380    0.7580    0.0000 C   0  0  0  0  0  0  0  0  0  0  0  0
   -0.3130    2.0570    0.0000 C   0  0  0  0  0  0  0  0  0  0  0  0
   -0.3130   -0.5410    0.0000 C   0  0  0  0  0  0  0  0  0  0  0  0
    2.6880    2.0570    0.0000 C   0  0  0  0  0  0  0  0  0  0  0  0
    1.9370    3.3560    0.0000 O   0  0  0  0  0  0  0  0  0  0  0  0
    4.1880    2.0570    0.0000 C   0  0  0  0  0  0  0  0  0  0  0  0
    4.9380    0.7580    0.0000 C   0  0  0  0  0  0  0  0  0  0  0  0
    6.4380    0.7580    0.0000 C   0  0  0  0  0  0  0  0  0  0  0  0
    4.1880   -0.5410    0.0000 C   0  0  0  0  0  0  0  0  0  0  0  0
  1  2  1  0  0  0  0
  2  3  1  0  0  0  0
  2 12  2  0  0  0  0
  3  4  1  0  0  0  0
  3  7  2  0  0  0  0
  4  5  1  0  0  0  0
  4  6  1  0  0  0  0
  7  8  1  0  0  0  0
  7  9  1  0  0  0  0
  9 10  2  0  0  0  0
 10 11  1  0  0  0  0
 10 12  1  0  0  0  0
M  END
>  <name>
Oc1c(C(C)C)c(O)cc([C;olefin])c1

>  <apo>
1

>  <freq>
1

>  <freq0>
0

>  <freq1>
1

>  <freqA>
0.99887151

>  <a_count>
26

$$$$

  MOE2015           2D

 17 17  0  0  0  0  0  0  0  0999 V2000
    0.9800    3.8330    0.0000 P   0  0  0  0  0  0  0  0  0  0  0  0
    1.8080    5.0840    0.0000 O   0  0  0  0  0  0  0  0  0  0  0  0
   -0.2710    4.6600    0.0000 O   0  0  0  0  0  0  0  0  0  0  0  0
    2.2310    3.0050    0.0000 O   0  0  0  0  0  0  0  0  0  0  0  0
    0.1520    2.5820    0.0000 N   0  0  0  0  0  0  0  0  0  0  0  0
   -1.3450    2.6730    0.0000 C   0  0  0  0  0  0  0  0  0  0  0  0
   -2.1510    3.9380    0.0000 S   0  0  0  0  0  0  0  0  0  0  0  0
   -3.6030    3.5620    0.0000 N   0  0  0  0  0  0  0  0  0  0  0  0
   -3.6950    2.0650    0.0000 C   0  0  0  0  0  0  0  0  0  0  0  0
   -4.9600    1.2590    0.0000 C   0  0  0  0  0  0  0  0  0  0  0  0
   -6.2900    1.9520    0.0000 N   0  0  0  0  0  0  0  0  0  0  0  0
   -6.3560    3.4500    0.0000 O   0  0  0  0  0  0  0  0  0  0  0  0
   -7.6870    4.1430    0.0000 C   0  0  0  0  0  0  0  0  0  0  0  0
   -7.7520    5.6410    0.0000 C   0  0  0  0  0  0  0  0  0  0  0  0
   -4.8940   -0.2400    0.0000 C   0  0  0  0  0  0  0  0  0  0  0  0
   -6.1590   -1.0460    0.0000 O   0  0  0  0  0  0  0  0  0  0  0  0
   -2.2990    1.5160    0.0000 N   0  0  0  0  0  0  0  0  0  0  0  0
  1  2  2  0  0  0  0
  1  3  1  0  0  0  0
  1  4  1  0  0  0  0
  1  5  1  0  0  0  0
  5  6  1  0  0  0  0
  6  7  1  0  0  0  0
  6 17  2  0  0  0  0
  7  8  1  0  0  0  0
  8  9  2  0  0  0  0
  9 10  1  0  0  0  0
  9 17  1  0  0  0  0
 10 11  2  0  0  0  0
 10 15  1  0  0  0  0
 11 12  1  0  0  0  0
 12 13  1  0  0  0  0
 13 14  1  0  0  0  0
 15 16  2  0  0  0  0
M  END
>  <name>
P(=O)(O)(O)Nc1snc(/C(=N\OCC)/[C;amide]=O)n1

>  <apo>
1

>  <freq>
1

>  <freq0>
0

>  <freq1>
1

>  <freqA>
0.99887151

>  <a_count>
26

$$$$

  MOE2015           2D

 13 12  0  0  1  0  0  0  0  0999 V2000
    0.6990    0.4040    0.0000 P   0  0  0  0  0  0  0  0  0  0  0  0
   -0.0510   -0.8950    0.0000 O   0  0  0  0  0  0  0  0  0  0  0  0
   -0.6000    1.1540    0.0000 O   0  0  0  0  0  0  0  0  0  0  0  0
   -1.8990    0.4040    0.0000 C   0  0  0  0  0  0  0  0  0  0  0  0
   -3.1980    1.1540    0.0000 C   0  0  2  0  0  0  0  0  0  0  0  0
   -4.4970    0.4040    0.0000 O   0  0  0  0  0  0  0  0  0  0  0  0
   -3.1980    2.6540    0.0000 C   0  0  0  0  0  0  0  0  0  0  0  0
   -4.4970    3.4040    0.0000 O   0  0  0  0  0  0  0  0  0  0  0  0
    1.9990   -0.3460    0.0000 O   0  0  0  0  0  0  0  0  0  0  0  0
    3.2980    0.4040    0.0000 C   0  0  0  0  0  0  0  0  0  0  0  0
    4.5970   -0.3460    0.0000 C   0  0  0  0  0  0  0  0  0  0  0  0
    5.8960    0.4040    0.0000 N   0  0  0  0  0  0  0  0  0  0  0  0
    1.4490    1.7030    0.0000 O   0  5  0  0  0  0  0  0  0  0  0  0
  1  2  2  0  0  0  0
  1  3  1  0  0  0  0
  1  9  1  0  0  0  0
  1 13  1  0  0  0  0
  3  4  1  0  0  0  0
  4  5  1  0  0  0  0
  5  6  1  6  0  0  0
  5  7  1  0  0  0  0
  7  8  1  0  0  0  0
  9 10  1  0  0  0  0
 10 11  1  0  0  0  0
 11 12  1  0  0  0  0
M  CHG  1  13  -1
M  END
>  <name>
P(=O)(OC[C@H]([O;ester])C[O;ester])(OCC[N;amide])[O-]

>  <apo>
3

>  <freq>
1

>  <freq0>
0

>  <freq1>
1

>  <freqA>
0.99887151

>  <a_count>
26

$$$$

  MOE2015           2D

 16 17  0  0  1  0  0  0  0  0999 V2000
    1.2990    2.3080    0.0000 S   0  0  0  0  0  0  0  0  0  0  0  0
    1.3190    3.8080    0.0000 O   0  0  0  0  0  0  0  0  0  0  0  0
    1.2800    0.8080    0.0000 O   0  0  0  0  0  0  0  0  0  0  0  0
   -0.2010    2.3270    0.0000 O   0  0  0  0  0  0  0  0  0  0  0  0
   -0.9670    1.0380    0.0000 N   0  0  0  0  0  0  0  0  0  0  0  0
    0.2120    0.4140    0.0000 C   0  0  0  0  0  0  0  0  0  0  0  0
    1.7090    0.5070    0.0000 O   0  0  0  0  0  0  0  0  0  0  0  0
   -1.4080    0.5550    0.0000 N   0  0  0  0  0  0  0  0  0  0  0  0
   -2.3290    2.0940    0.0000 C   0  0  2  0  0  0  0  0  0  0  0  0
   -0.9290    2.6330    0.0000 C   0  0  0  0  0  0  0  0  0  0  0  0
   -0.6960    4.1150    0.0000 O   0  0  0  0  0  0  0  0  0  0  0  0
   -2.1390    3.3210    0.0000 C   0  0  0  0  0  0  0  0  0  0  0  0
   -3.2970    2.3280    0.0000 C   0  0  0  0  0  0  0  0  0  0  0  0
   -2.3970    0.8770    0.0000 C   0  0  2  0  0  0  0  0  0  0  0  0
   -2.5640   -0.4290    0.0000 C   0  0  0  0  0  0  0  0  0  0  0  0
    2.7990    2.2880    0.0000 O   0  0  0  0  0  0  0  0  0  0  0  0
  1  2  2  0  0  0  0
  1  3  2  0  0  0  0
  1  4  1  0  0  0  0
  1 16  1  0  0  0  0
  4  5  1  0  0  0  0
  5  6  1  0  0  0  0
  5 14  1  0  0  0  0
  6  7  2  0  0  0  0
  6  8  1  0  0  0  0
  8  9  1  0  0  0  0
  8 15  1  0  0  0  0
  9 10  1  1  0  0  0
  9 12  1  0  0  0  0
 10 11  2  0  0  0  0
 12 13  1  0  0  0  0
 13 14  1  0  0  0  0
 14 15  1  1  0  0  0
M  END
>  <name>
S(=O)(=O)(ON1C(=O)N2[C@H]([C;amide]=O)CC[C@@H]1C2)O

>  <apo>
1

>  <freq>
1

>  <freq0>
0

>  <freq1>
1

>  <freqA>
0.99887151

>  <a_count>
26

$$$$

  MOE2015           2D

 11 10  0  0  0  0  0  0  0  0999 V2000
    0.9180    1.1180    0.0000 S   0  0  0  0  0  0  0  0  0  0  0  0
    1.6680   -0.1810    0.0000 P   0  0  0  0  0  0  0  0  0  0  0  0
    2.4180   -1.4800    0.0000 O   0  0  0  0  0  0  0  0  0  0  0  0
    2.9670    0.5690    0.0000 O   0  0  0  0  0  0  0  0  0  0  0  0
    4.2660   -0.1810    0.0000 C   0  0  0  0  0  0  0  0  0  0  0  0
    5.5650    0.5690    0.0000 C   0  0  0  0  0  0  0  0  0  0  0  0
    0.3690   -0.9310    0.0000 O   0  0  0  0  0  0  0  0  0  0  0  0
    0.3690   -2.4310    0.0000 C   0  0  0  0  0  0  0  0  0  0  0  0
   -0.9300   -3.1810    0.0000 C   0  0  0  0  0  0  0  0  0  0  0  0
   -0.5820    1.1180    0.0000 C   0  0  0  0  0  0  0  0  0  0  0  0
   -1.3320    2.4170    0.0000 C   0  0  0  0  0  0  0  0  0  0  0  0
  1  2  1  0  0  0  0
  1 10  1  0  0  0  0
  2  3  2  0  0  0  0
  2  4  1  0  0  0  0
  2  7  1  0  0  0  0
  4  5  1  0  0  0  0
  5  6  1  0  0  0  0
  7  8  1  0  0  0  0
  8  9  1  0  0  0  0
 10 11  1  0  0  0  0
M  END
>  <name>
S(P(=O)(OCC)OCC)C[C;quatN]

>  <apo>
1

>  <freq>
1

>  <freq0>
0

>  <freq1>
1

>  <freqA>
0.99887151

>  <a_count>
26

$$$$

  MOE2015           2D

 15 17  0  0  0  0  0  0  0  0999 V2000
    1.6210   -0.9770    0.0000 N   0  0  0  0  0  0  0  0  0  0  0  0
    2.7570    0.0020    0.0000 C   0  0  0  0  0  0  0  0  0  0  0  0
    2.7010    1.5010    0.0000 C   0  0  0  0  0  0  0  0  0  0  0  0
    3.9710    2.3000    0.0000 C   0  0  0  0  0  0  0  0  0  0  0  0
    5.2970    1.5990    0.0000 C   0  0  0  0  0  0  0  0  0  0  0  0
    5.3530    0.1000    0.0000 C   0  0  0  0  0  0  0  0  0  0  0  0
    4.0830   -0.6980    0.0000 C   0  0  0  0  0  0  0  0  0  0  0  0
    1.4940    2.3930    0.0000 C   0  0  0  0  0  0  0  0  0  0  0  0
    0.0450    2.0060    0.0000 C   0  0  0  0  0  0  0  0  0  0  0  0
   -0.5540    0.6290    0.0000 C   0  0  0  0  0  0  0  0  0  0  0  0
    0.1470   -0.6970    0.0000 C   0  0  0  0  0  0  0  0  0  0  0  0
   -0.6510   -1.9670    0.0000 C   0  0  0  0  0  0  0  0  0  0  0  0
   -2.1500   -1.9110    0.0000 C   0  0  0  0  0  0  0  0  0  0  0  0
   -2.8510   -0.5840    0.0000 C   0  0  0  0  0  0  0  0  0  0  0  0
   -2.0530    0.6860    0.0000 C   0  0  0  0  0  0  0  0  0  0  0  0
  1  2  1  0  0  0  0
  1 11  1  0  0  0  0
  2  3  1  0  0  0  0
  2  7  2  0  0  0  0
  3  4  2  0  0  0  0
  3  8  1  0  0  0  0
  4  5  1  0  0  0  0
  5  6  2  0  0  0  0
  6  7  1  0  0  0  0
  8  9  2  0  0  0  0
  9 10  1  0  0  0  0
 10 11  1  0  0  0  0
 10 15  2  0  0  0  0
 11 12  2  0  0  0  0
 12 13  1  0  0  0  0
 13 14  2  0  0  0  0
 14 15  1  0  0  0  0
M  END
>  <name>
[N;urea]1c2c(cccc2)C=Cc2c1cccc2

>  <apo>
1

>  <freq>
1

>  <freq0>
0

>  <freq1>
1

>  <freqA>
0.99887151

>  <a_count>
26

$$$$

  MOE2015           2D

  9  9  0  0  0  0  0  0  0  0999 V2000
    0.0000    0.0000    0.0000 N   0  0  0  0  0  0  0  0  0  0  0  0
    1.5000    0.0000    0.0000 C   0  0  0  0  0  0  0  0  0  0  0  0
    2.2500    1.2990    0.0000 C   0  0  0  0  0  0  0  0  0  0  0  0
    3.7500    1.2990    0.0000 C   0  0  0  0  0  0  0  0  0  0  0  0
    4.5000    0.0000    0.0000 C   0  0  0  0  0  0  0  0  0  0  0  0
    6.0000    0.0000    0.0000 C   0  0  0  0  0  0  0  0  0  0  0  0
    6.7500   -1.2990    0.0000 C   0  0  0  0  0  0  0  0  0  0  0  0
    3.7500   -1.2990    0.0000 C   0  0  0  0  0  0  0  0  0  0  0  0
    2.2500   -1.2990    0.0000 C   0  0  0  0  0  0  0  0  0  0  0  0
  1  2  1  0  0  0  0
  2  3  1  0  0  0  0
  2  9  1  0  0  0  0
  3  4  1  0  0  0  0
  4  5  1  0  0  0  0
  5  6  1  0  0  0  0
  5  8  1  0  0  0  0
  6  7  1  0  0  0  0
  8  9  1  0  0  0  0
M  END
>  <name>
[N;urea]C1CCC(C[C;amine])CC1

>  <apo>
2

>  <freq>
1

>  <freq0>
0

>  <freq1>
1

>  <freqA>
0.99887151

>  <a_count>
26

$$$$

  MOE2015           2D

 10 11  0  0  1  0  0  0  0  0999 V2000
    6.2870    0.3240    0.0000 O   0  0  0  0  0  0  0  0  0  0  0  0
    4.7950    0.1700    0.0000 C   0  0  3  0  0  0  0  0  0  0  0  0
    3.4020    1.0210    0.0000 C   0  0  0  0  0  0  0  0  0  0  0  0
    3.1350    2.4680    0.0000 C   0  0  0  0  0  0  0  0  0  0  0  0
    2.1800    1.4610    0.0000 C   0  0  0  0  0  0  0  0  0  0  0  0
    2.4600    0.0420    0.0000 N   0  3  0  0  0  0  0  0  0  0  0  0
    2.4640   -1.4580    0.0000 C   0  0  0  0  0  0  0  0  0  0  0  0
    3.8030   -0.7630    0.0000 C   0  0  0  0  0  0  0  0  0  0  0  0
    1.1140   -0.8250    0.0000 C   0  0  0  0  0  0  0  0  0  0  0  0
    1.7440    0.1560    0.0000 C   0  0  0  0  0  0  0  0  0  0  0  0
  1  2  1  0  0  0  0
  2  3  1  0  0  0  0
  2  8  1  0  0  0  0
  3  4  1  0  0  0  0
  3 10  1  0  0  0  0
  4  5  1  0  0  0  0
  5  6  1  0  0  0  0
  6  7  1  0  0  0  0
  6  8  1  0  0  0  0
  6  9  1  0  0  0  0
  9 10  1  0  0  0  0
M  CHG  1   6   1
M  END
>  <name>
[O;ester]C1C2CC[N+](C)(C1)CC2

>  <apo>
1

>  <freq>
1

>  <freq0>
0

>  <freq1>
1

>  <freqA>
0.99887151

>  <a_count>
26

$$$$

  MOE2015           2D

 10 11  0  0  1  0  0  0  0  0999 V2000
    6.4800   -0.5090    0.0000 O   0  0  0  0  0  0  0  0  0  0  0  0
    5.1870   -1.2700    0.0000 C   0  0  0  0  0  0  0  0  0  0  0  0
    3.9650   -1.4890    0.0000 C   0  0  0  0  0  0  0  0  0  0  0  0
    2.4050   -0.6040    0.0000 C   0  0  2  0  0  0  0  0  0  0  0  0
    1.4490   -1.7850    0.0000 N   0  3  0  0  0  0  0  0  0  0  0  0
    0.1480   -2.5300    0.0000 C   0  0  0  0  0  0  0  0  0  0  0  0
    2.7490   -1.5870    0.0000 C   0  0  2  0  0  0  0  0  0  0  0  0
    4.2210   -2.4520    0.0000 C   0  0  0  0  0  0  0  0  0  0  0  0
    2.8770   -0.1530    0.0000 C   0  0  0  0  0  0  0  0  0  0  0  0
    2.2250    1.0110    0.0000 C   0  0  0  0  0  0  0  0  0  0  0  0
  1  2  1  0  0  0  0
  2  3  1  0  0  0  0
  2  8  1  0  0  0  0
  4  3  1  6  0  0  0
  4  5  1  0  0  0  0
  4 10  1  0  0  0  0
  5  6  1  0  0  0  0
  7  5  1  1  0  0  0
  7  8  1  0  0  0  0
  7  9  1  0  0  0  0
  9 10  1  0  0  0  0
M  CHG  1   5   1
M  END
>  <name>
[O;ester]C1C[C@@H]2[N+;quatN](C)[C@H](C1)CC2

>  <apo>
2

>  <freq>
1

>  <freq0>
0

>  <freq1>
1

>  <freqA>
0.99887151

>  <a_count>
26

$$$$

  MOE2015           2D

 12 12  0  0  0  0  0  0  0  0999 V2000
    1.8130   -2.0570    0.0000 O   0  0  0  0  0  0  0  0  0  0  0  0
    2.5630   -0.7580    0.0000 C   0  0  0  0  0  0  0  0  0  0  0  0
    1.8130    0.5410    0.0000 C   0  0  0  0  0  0  0  0  0  0  0  0
    0.3120    0.5410    0.0000 C   0  0  0  0  0  0  0  0  0  0  0  0
   -0.4380    1.8400    0.0000 C   0  0  0  0  0  0  0  0  0  0  0  0
   -0.4380   -0.7580    0.0000 C   0  0  0  0  0  0  0  0  0  0  0  0
    2.5630    1.8400    0.0000 C   0  0  0  0  0  0  0  0  0  0  0  0
    4.0630    1.8400    0.0000 C   0  0  0  0  0  0  0  0  0  0  0  0
    4.8130    3.1390    0.0000 O   0  0  0  0  0  0  0  0  0  0  0  0
    4.8130    0.5410    0.0000 C   0  0  0  0  0  0  0  0  0  0  0  0
    6.3130    0.5410    0.0000 C   0  0  0  0  0  0  0  0  0  0  0  0
    4.0630   -0.7580    0.0000 C   0  0  0  0  0  0  0  0  0  0  0  0
  1  2  1  0  0  0  0
  2  3  1  0  0  0  0
  2 12  2  0  0  0  0
  3  4  1  0  0  0  0
  3  7  2  0  0  0  0
  4  5  1  0  0  0  0
  4  6  1  0  0  0  0
  7  8  1  0  0  0  0
  8  9  1  0  0  0  0
  8 10  2  0  0  0  0
 10 11  1  0  0  0  0
 10 12  1  0  0  0  0
M  END
>  <name>
[O;ether]c1c(C(C)C)cc([O;ester])c(C)c1

>  <apo>
2

>  <freq>
1

>  <freq0>
0

>  <freq1>
1

>  <freqA>
0.99887151

>  <a_count>
26

$$$$

  MOE2015           2D

 12 13  0  0  0  0  0  0  0  0999 V2000
    1.4530    3.9250    0.0000 O   0  0  0  0  0  0  0  0  0  0  0  0
    0.7030    2.6250    0.0000 C   0  0  0  0  0  0  0  0  0  0  0  0
    1.4530    1.3260    0.0000 C   0  0  0  0  0  0  0  0  0  0  0  0
    2.9530    1.3260    0.0000 C   0  0  0  0  0  0  0  0  0  0  0  0
    3.8340    2.5400    0.0000 C   0  0  0  0  0  0  0  0  0  0  0  0
    5.2610    2.0760    0.0000 C   0  0  0  0  0  0  0  0  0  0  0  0
    5.2610    0.5760    0.0000 C   0  0  0  0  0  0  0  0  0  0  0  0
    3.8340    0.1130    0.0000 C   0  0  0  0  0  0  0  0  0  0  0  0
    0.7030    0.0270    0.0000 C   0  0  0  0  0  0  0  0  0  0  0  0
   -0.7970    0.0270    0.0000 C   0  0  0  0  0  0  0  0  0  0  0  0
   -1.5470    1.3260    0.0000 C   0  0  0  0  0  0  0  0  0  0  0  0
   -0.7970    2.6250    0.0000 C   0  0  0  0  0  0  0  0  0  0  0  0
  1  2  1  0  0  0  0
  2  3  1  0  0  0  0
  2 12  2  0  0  0  0
  3  4  1  0  0  0  0
  3  9  2  0  0  0  0
  4  5  1  0  0  0  0
  4  8  1  0  0  0  0
  5  6  1  0  0  0  0
  6  7  1  0  0  0  0
  7  8  1  0  0  0  0
  9 10  1  0  0  0  0
 10 11  2  0  0  0  0
 11 12  1  0  0  0  0
M  END
>  <name>
[O;ether]c1c(C2CCCC2)cccc1

>  <apo>
1

>  <freq>
1

>  <freq0>
0

>  <freq1>
1

>  <freqA>
0.99887151

>  <a_count>
26

$$$$

  MOE2015           2D

 14 15  0  0  0  0  0  0  0  0999 V2000
    0.2660    5.0910    0.0000 O   0  0  0  0  0  0  0  0  0  0  0  0
    0.2660    3.5910    0.0000 C   0  0  0  0  0  0  0  0  0  0  0  0
    1.5650    2.8410    0.0000 C   0  0  0  0  0  0  0  0  0  0  0  0
    2.8640    3.5910    0.0000 C   0  0  0  0  0  0  0  0  0  0  0  0
    4.1630    2.8410    0.0000 C   0  0  0  0  0  0  0  0  0  0  0  0
    5.4620    3.5910    0.0000 C   0  0  0  0  0  0  0  0  0  0  0  0
    6.7610    2.8410    0.0000 C   0  0  0  0  0  0  0  0  0  0  0  0
    6.7610    1.3410    0.0000 C   0  0  0  0  0  0  0  0  0  0  0  0
    5.4620    0.5910    0.0000 C   0  0  0  0  0  0  0  0  0  0  0  0
    4.1630    1.3410    0.0000 C   0  0  0  0  0  0  0  0  0  0  0  0
    1.5650    1.3410    0.0000 C   0  0  0  0  0  0  0  0  0  0  0  0
    0.2660    0.5910    0.0000 C   0  0  0  0  0  0  0  0  0  0  0  0
   -1.0330    1.3410    0.0000 C   0  0  0  0  0  0  0  0  0  0  0  0
   -1.0330    2.8410    0.0000 C   0  0  0  0  0  0  0  0  0  0  0  0
  1  2  1  0  0  0  0
  2  3  1  0  0  0  0
  2 14  2  0  0  0  0
  3  4  1  0  0  0  0
  3 11  2  0  0  0  0
  4  5  1  0  0  0  0
  5  6  1  0  0  0  0
  5 10  2  0  0  0  0
  6  7  2  0  0  0  0
  7  8  1  0  0  0  0
  8  9  2  0  0  0  0
  9 10  1  0  0  0  0
 11 12  1  0  0  0  0
 12 13  2  0  0  0  0
 13 14  1  0  0  0  0
M  END
>  <name>
[O;ether]c1c(Cc2ccccc2)cccc1

>  <apo>
1

>  <freq>
1

>  <freq0>
0

>  <freq1>
1

>  <freqA>
0.99887151

>  <a_count>
26

$$$$

  MOE2015           2D

 15 16  0  0  0  0  0  0  0  0999 V2000
    0.1970    0.7340    0.0000 O   0  0  0  0  0  0  0  0  0  0  0  0
    1.4960   -0.0160    0.0000 C   0  0  0  0  0  0  0  0  0  0  0  0
    1.4960   -1.5160    0.0000 C   0  0  0  0  0  0  0  0  0  0  0  0
    0.1970   -2.2660    0.0000 C   0  0  0  0  0  0  0  0  0  0  0  0
    2.7950   -2.2660    0.0000 C   0  0  0  0  0  0  0  0  0  0  0  0
    4.0940   -1.5160    0.0000 C   0  0  0  0  0  0  0  0  0  0  0  0
    5.3930   -2.2660    0.0000 N   0  0  0  0  0  0  0  0  0  0  0  0
    6.6920   -1.5160    0.0000 C   0  0  0  0  0  0  0  0  0  0  0  0
    6.6920   -0.0160    0.0000 N   0  0  0  0  0  0  0  0  0  0  0  0
    7.9910    0.7340    0.0000 C   0  0  0  0  0  0  0  0  0  0  0  0
    9.2900   -0.0160    0.0000 C   0  0  0  0  0  0  0  0  0  0  0  0
    9.2900   -1.5160    0.0000 C   0  0  0  0  0  0  0  0  0  0  0  0
    7.9910   -2.2660    0.0000 N   0  0  0  0  0  0  0  0  0  0  0  0
    4.0940   -0.0160    0.0000 C   0  0  0  0  0  0  0  0  0  0  0  0
    2.7950    0.7340    0.0000 C   0  0  0  0  0  0  0  0  0  0  0  0
  1  2  1  0  0  0  0
  2  3  1  0  0  0  0
  2 15  2  0  0  0  0
  3  4  1  0  0  0  0
  3  5  2  0  0  0  0
  5  6  1  0  0  0  0
  6  7  1  0  0  0  0
  6 14  2  0  0  0  0
  7  8  1  0  0  0  0
  8  9  1  0  0  0  0
  8 13  2  0  0  0  0
  9 10  2  0  0  0  0
 10 11  1  0  0  0  0
 11 12  2  0  0  0  0
 12 13  1  0  0  0  0
 14 15  1  0  0  0  0
M  END
>  <name>
[O;ether]c1c([C;ether])cc(Nc2n[c;biphenyl]ccn2)cc1

>  <apo>
3

>  <freq>
1

>  <freq0>
0

>  <freq1>
1

>  <freqA>
0.99887151

>  <a_count>
26

$$$$

  MOE2015           2D

 14 16  0  0  0  0  0  0  0  0999 V2000
    3.6850    3.7360    0.0000 S   0  0  0  0  0  0  0  0  0  0  0  0
    2.1960    3.9170    0.0000 C   0  0  0  0  0  0  0  0  0  0  0  0
    1.5640    2.5560    0.0000 C   0  0  0  0  0  0  0  0  0  0  0  0
    2.6630    1.5350    0.0000 C   0  0  0  0  0  0  0  0  0  0  0  0
    3.9740    2.2640    0.0000 C   0  0  0  0  0  0  0  0  0  0  0  0
    0.1070    2.2020    0.0000 C   0  0  0  0  0  0  0  0  0  0  0  0
   -1.0780    3.1210    0.0000 C   0  0  0  0  0  0  0  0  0  0  0  0
   -1.0980    4.6210    0.0000 C   0  0  0  0  0  0  0  0  0  0  0  0
   -2.4080    5.3530    0.0000 C   0  0  0  0  0  0  0  0  0  0  0  0
   -3.6960    4.5860    0.0000 C   0  0  0  0  0  0  0  0  0  0  0  0
   -3.6760    3.0860    0.0000 C   0  0  0  0  0  0  0  0  0  0  0  0
   -2.3670    2.3540    0.0000 C   0  0  0  0  0  0  0  0  0  0  0  0
    0.0610    5.5740    0.0000 C   0  0  0  0  0  0  0  0  0  0  0  0
    1.5270    5.2590    0.0000 C   0  0  0  0  0  0  0  0  0  0  0  0
  1  2  1  0  0  0  0
  1  5  1  0  0  0  0
  2  3  2  0  0  0  0
  2 14  1  0  0  0  0
  3  4  1  0  0  0  0
  3  6  1  0  0  0  0
  4  5  2  0  0  0  0
  6  7  1  0  0  0  0
  7  8  1  0  0  0  0
  7 12  2  0  0  0  0
  8  9  2  0  0  0  0
  8 13  1  0  0  0  0
  9 10  1  0  0  0  0
 10 11  2  0  0  0  0
 11 12  1  0  0  0  0
 13 14  1  0  0  0  0
M  END
>  <name>
s1c2c(cc1)[C;olefin]c1c(cccc1)CC2

>  <apo>
1

>  <freq>
1

>  <freq0>
0

>  <freq1>
1

>  <freqA>
0.99887151

>  <a_count>
26

$$$$

  MOE2015           2D

 14 15  0  0  0  0  0  0  0  0999 V2000
    9.7540   -2.6130    0.0000 Br  0  0  0  0  0  0  0  0  0  0  0  0
    8.4550   -1.8630    0.0000 C   0  0  0  0  0  0  0  0  0  0  0  0
    8.4550   -0.3630    0.0000 C   0  0  0  0  0  0  0  0  0  0  0  0
    7.1550    0.3870    0.0000 C   0  0  0  0  0  0  0  0  0  0  0  0
    5.8560   -0.3630    0.0000 C   0  0  0  0  0  0  0  0  0  0  0  0
    4.5570    0.3870    0.0000 C   0  0  0  0  0  0  0  0  0  0  0  0
    3.2580   -0.3630    0.0000 C   0  0  0  0  0  0  0  0  0  0  0  0
    3.2580   -1.8630    0.0000 C   0  0  0  0  0  0  0  0  0  0  0  0
    1.9590   -2.6130    0.0000 C   0  0  0  0  0  0  0  0  0  0  0  0
    0.6600   -1.8630    0.0000 C   0  0  0  0  0  0  0  0  0  0  0  0
    0.6600   -0.3630    0.0000 C   0  0  0  0  0  0  0  0  0  0  0  0
    1.9590    0.3870    0.0000 C   0  0  0  0  0  0  0  0  0  0  0  0
    5.8560   -1.8630    0.0000 C   0  0  0  0  0  0  0  0  0  0  0  0
    7.1550   -2.6130    0.0000 C   0  0  0  0  0  0  0  0  0  0  0  0
  1  2  1  0  0  0  0
  2  3  1  0  0  0  0
  2 14  2  0  0  0  0
  3  4  2  0  0  0  0
  4  5  1  0  0  0  0
  5  6  1  0  0  0  0
  5 13  2  0  0  0  0
  6  7  1  0  0  0  0
  7  8  1  0  0  0  0
  7 12  2  0  0  0  0
  8  9  2  0  0  0  0
  9 10  1  0  0  0  0
 10 11  2  0  0  0  0
 11 12  1  0  0  0  0
 13 14  1  0  0  0  0
M  END
>  <name>
Brc1ccc([C;ether]c2ccccc2)cc1

>  <apo>
1

>  <freq>
1

>  <freq0>
0

>  <freq1>
1

>  <freqA>
0.99887151

>  <a_count>
25

$$$$

  MOE2015           2D

 12 13  0  0  0  0  0  0  0  0999 V2000
    0.4830   -3.0500    0.0000 C   0  0  0  0  0  0  0  0  0  0  0  0
    1.9100   -2.5870    0.0000 C   0  0  0  0  0  0  0  0  0  0  0  0
   -0.6320   -2.0470    0.0000 C   0  0  0  0  0  0  0  0  0  0  0  0
   -0.4750   -0.5550    0.0000 C   0  0  0  0  0  0  0  0  0  0  0  0
    0.8240    0.1950    0.0000 C   0  0  0  0  0  0  0  0  0  0  0  0
   -1.8450    0.0550    0.0000 N   0  0  0  0  0  0  0  0  0  0  0  0
   -2.8490   -1.0590    0.0000 C   0  0  0  0  0  0  0  0  0  0  0  0
   -2.0990   -2.3580    0.0000 C   0  0  0  0  0  0  0  0  0  0  0  0
   -2.8490   -3.6580    0.0000 C   0  0  0  0  0  0  0  0  0  0  0  0
   -4.3490   -3.6580    0.0000 C   0  0  0  0  0  0  0  0  0  0  0  0
   -5.0990   -2.3580    0.0000 C   0  0  0  0  0  0  0  0  0  0  0  0
   -4.3490   -1.0590    0.0000 C   0  0  0  0  0  0  0  0  0  0  0  0
  1  2  1  0  0  0  0
  1  3  1  0  0  0  0
  3  4  2  0  0  0  0
  3  8  1  0  0  0  0
  4  5  1  0  0  0  0
  4  6  1  0  0  0  0
  6  7  1  0  0  0  0
  7  8  1  0  0  0  0
  7 12  2  0  0  0  0
  8  9  2  0  0  0  0
  9 10  1  0  0  0  0
 10 11  2  0  0  0  0
 11 12  1  0  0  0  0
M  END
>  <name>
C([C;amine])c1c(C)[nH]c2c1cccc2

>  <apo>
1

>  <freq>
1

>  <freq0>
0

>  <freq1>
1

>  <freqA>
0.99887151

>  <a_count>
25

$$$$

  MOE2015           2D

 12 13  0  0  0  0  0  0  0  0999 V2000
   -0.3820   -3.6380    0.0000 C   0  0  0  0  0  0  0  0  0  0  0  0
    1.0850   -3.9500    0.0000 C   0  0  0  0  0  0  0  0  0  0  0  0
   -0.8460   -2.2120    0.0000 C   0  0  0  0  0  0  0  0  0  0  0  0
   -2.2730   -1.7480    0.0000 C   0  0  0  0  0  0  0  0  0  0  0  0
   -2.2730   -0.2480    0.0000 C   0  0  0  0  0  0  0  0  0  0  0  0
   -0.8460    0.2150    0.0000 N   0  0  0  0  0  0  0  0  0  0  0  0
    0.0360   -0.9980    0.0000 C   0  0  0  0  0  0  0  0  0  0  0  0
   -3.5720    0.5020    0.0000 C   0  0  0  0  0  0  0  0  0  0  0  0
   -4.8710   -0.2480    0.0000 C   0  0  0  0  0  0  0  0  0  0  0  0
   -4.8710   -1.7480    0.0000 C   0  0  0  0  0  0  0  0  0  0  0  0
   -6.1700   -2.4980    0.0000 C   0  0  0  0  0  0  0  0  0  0  0  0
   -3.5720   -2.4980    0.0000 C   0  0  0  0  0  0  0  0  0  0  0  0
  1  2  1  0  0  0  0
  1  3  1  0  0  0  0
  3  4  1  0  0  0  0
  3  7  2  0  0  0  0
  4  5  1  0  0  0  0
  4 12  2  0  0  0  0
  5  6  1  0  0  0  0
  5  8  2  0  0  0  0
  6  7  1  0  0  0  0
  8  9  1  0  0  0  0
  9 10  2  0  0  0  0
 10 11  1  0  0  0  0
 10 12  1  0  0  0  0
M  END
>  <name>
C([C;amine])c1c2c([nH]c1)ccc([C;NaroC])c2

>  <apo>
2

>  <freq>
1

>  <freq0>
0

>  <freq1>
1

>  <freqA>
0.99887151

>  <a_count>
25

$$$$

  MOE2015           2D

 12 12  0  0  0  0  0  0  0  0999 V2000
    1.4430    2.1930    0.0000 Cl  0  0  0  0  0  0  0  0  0  0  0  0
    2.0370    0.8160    0.0000 C   0  0  0  0  0  0  0  0  0  0  0  0
    1.2710   -0.4740    0.0000 C   0  0  0  0  0  0  0  0  0  0  0  0
   -0.2220   -0.6130    0.0000 C   0  0  0  0  0  0  0  0  0  0  0  0
   -0.8490   -1.9760    0.0000 O   0  0  0  0  0  0  0  0  0  0  0  0
    2.2610   -1.6010    0.0000 N   0  0  0  0  0  0  0  0  0  0  0  0
    3.6390   -1.0070    0.0000 C   0  0  0  0  0  0  0  0  0  0  0  0
    4.9290   -1.7730    0.0000 C   0  0  0  0  0  0  0  0  0  0  0  0
    6.2370   -1.0390    0.0000 C   0  0  0  0  0  0  0  0  0  0  0  0
    7.5270   -1.8040    0.0000 C   0  0  0  0  0  0  0  0  0  0  0  0
    8.8350   -1.0700    0.0000 C   0  0  0  0  0  0  0  0  0  0  0  0
    3.5000    0.4860    0.0000 N   0  0  0  0  0  0  0  0  0  0  0  0
  1  2  1  0  0  0  0
  2  3  2  0  0  0  0
  2 12  1  0  0  0  0
  3  4  1  0  0  0  0
  3  6  1  0  0  0  0
  4  5  1  0  0  0  0
  6  7  1  0  0  0  0
  7  8  1  0  0  0  0
  7 12  2  0  0  0  0
  8  9  1  0  0  0  0
  9 10  1  0  0  0  0
 10 11  1  0  0  0  0
M  END
>  <name>
Clc1c(CO)[nH;NaroC]c(CCCC)n1

>  <apo>
1

>  <freq>
1

>  <freq0>
0

>  <freq1>
1

>  <freqA>
0.99887151

>  <a_count>
25

$$$$

  MOE2015           2D

 15 15  0  0  0  0  0  0  0  0999 V2000
   -0.0970    2.0620    0.0000 Cl  0  0  0  0  0  0  0  0  0  0  0  0
    1.2020    1.3120    0.0000 C   0  0  0  0  0  0  0  0  0  0  0  0
    2.5010    2.0620    0.0000 C   0  0  0  0  0  0  0  0  0  0  0  0
    2.5010    3.5620    0.0000 Cl  0  0  0  0  0  0  0  0  0  0  0  0
    3.8000    1.3120    0.0000 C   0  0  0  0  0  0  0  0  0  0  0  0
    5.0990    2.0620    0.0000 C   0  0  0  0  0  0  0  0  0  0  0  0
    5.0990    3.5620    0.0000 O   0  0  0  0  0  0  0  0  0  0  0  0
    6.3980    1.3120    0.0000 C   0  0  0  0  0  0  0  0  0  0  0  0
    6.3980   -0.1880    0.0000 C   0  0  0  0  0  0  0  0  0  0  0  0
    7.6970    2.0620    0.0000 C   0  0  0  0  0  0  0  0  0  0  0  0
    8.9960    1.3120    0.0000 C   0  0  0  0  0  0  0  0  0  0  0  0
    3.8000   -0.1880    0.0000 C   0  0  0  0  0  0  0  0  0  0  0  0
    2.5010   -0.9380    0.0000 C   0  0  0  0  0  0  0  0  0  0  0  0
    1.2020   -0.1880    0.0000 C   0  0  0  0  0  0  0  0  0  0  0  0
   -0.0970   -0.9380    0.0000 O   0  0  0  0  0  0  0  0  0  0  0  0
  1  2  1  0  0  0  0
  2  3  1  0  0  0  0
  2 14  2  0  0  0  0
  3  4  1  0  0  0  0
  3  5  2  0  0  0  0
  5  6  1  0  0  0  0
  5 12  1  0  0  0  0
  6  7  2  0  0  0  0
  6  8  1  0  0  0  0
  8  9  2  0  0  0  0
  8 10  1  0  0  0  0
 10 11  1  0  0  0  0
 12 13  2  0  0  0  0
 13 14  1  0  0  0  0
 14 15  1  0  0  0  0
M  END
>  <name>
Clc1c(Cl)c(C(=O)C(=C)CC)ccc1[O;ether]

>  <apo>
1

>  <freq>
1

>  <freq0>
0

>  <freq1>
1

>  <freqA>
0.99887151

>  <a_count>
25

$$$$

  MOE2015           2D

 13 14  0  0  1  0  0  0  0  0999 V2000
    7.8500    2.1030    0.0000 Cl  0  0  0  0  0  0  0  0  0  0  0  0
    6.5510    1.3530    0.0000 C   0  0  0  0  0  0  0  0  0  0  0  0
    5.2520    2.1030    0.0000 C   0  0  0  0  0  0  0  0  0  0  0  0
    3.9530    1.3530    0.0000 C   0  0  0  0  0  0  0  0  0  0  0  0
    2.7810    2.2890    0.0000 C   0  0  2  0  0  0  0  0  0  0  0  0
    3.1140    3.7520    0.0000 O   0  0  0  0  0  0  0  0  0  0  0  0
    1.3180    1.9540    0.0000 C   0  0  0  0  0  0  0  0  0  0  0  0
    0.6680    0.6030    0.0000 C   0  0  0  0  0  0  0  0  0  0  0  0
    1.3180   -0.7490    0.0000 C   0  0  0  0  0  0  0  0  0  0  0  0
    2.7810   -1.0820    0.0000 N   0  0  0  0  0  0  0  0  0  0  0  0
    3.9530   -0.1470    0.0000 C   0  0  0  0  0  0  0  0  0  0  0  0
    5.2520   -0.8970    0.0000 C   0  0  0  0  0  0  0  0  0  0  0  0
    6.5510   -0.1470    0.0000 C   0  0  0  0  0  0  0  0  0  0  0  0
  1  2  1  0  0  0  0
  2  3  1  0  0  0  0
  2 13  2  0  0  0  0
  3  4  2  0  0  0  0
  4  5  1  0  0  0  0
  4 11  1  0  0  0  0
  5  6  1  1  0  0  0
  5  7  1  0  0  0  0
  7  8  1  0  0  0  0
  8  9  1  0  0  0  0
  9 10  1  0  0  0  0
 10 11  1  0  0  0  0
 11 12  2  0  0  0  0
 12 13  1  0  0  0  0
M  END
>  <name>
Clc1cc2[C@H](O)CCC[N;amide]c2cc1

>  <apo>
1

>  <freq>
1

>  <freq0>
0

>  <freq1>
1

>  <freqA>
0.99887151

>  <a_count>
25

$$$$

  MOE2015           2D

 18 19  0  0  0  0  0  0  0  0999 V2000
    0.1100   -3.0070    0.0000 F   0  0  0  0  0  0  0  0  0  0  0  0
    1.4090   -2.2570    0.0000 C   0  0  0  0  0  0  0  0  0  0  0  0
    2.1590   -3.5560    0.0000 F   0  0  0  0  0  0  0  0  0  0  0  0
    0.6590   -0.9580    0.0000 F   0  0  0  0  0  0  0  0  0  0  0  0
    2.7080   -1.5070    0.0000 C   0  0  0  0  0  0  0  0  0  0  0  0
    2.7080   -0.0070    0.0000 N   0  0  0  0  0  0  0  0  0  0  0  0
    4.0070    0.7430    0.0000 C   0  0  0  0  0  0  0  0  0  0  0  0
    5.3060   -0.0070    0.0000 C   0  0  0  0  0  0  0  0  0  0  0  0
    5.3060   -1.5070    0.0000 C   0  0  0  0  0  0  0  0  0  0  0  0
    6.6050   -2.2570    0.0000 N   0  0  0  0  0  0  0  0  0  0  0  0
    7.9040   -1.5070    0.0000 C   0  0  0  0  0  0  0  0  0  0  0  0
    9.2030   -2.2570    0.0000 N   0  0  0  0  0  0  0  0  0  0  0  0
   10.5020   -1.5070    0.0000 C   0  0  0  0  0  0  0  0  0  0  0  0
   11.8010   -2.2570    0.0000 N   0  0  0  0  0  0  0  0  0  0  0  0
   10.5020   -0.0070    0.0000 N   0  0  0  0  0  0  0  0  0  0  0  0
    9.2030    0.7430    0.0000 C   0  0  0  0  0  0  0  0  0  0  0  0
    7.9040   -0.0070    0.0000 N   0  0  0  0  0  0  0  0  0  0  0  0
    4.0070   -2.2570    0.0000 C   0  0  0  0  0  0  0  0  0  0  0  0
  1  2  1  0  0  0  0
  2  3  1  0  0  0  0
  2  4  1  0  0  0  0
  2  5  1  0  0  0  0
  5  6  1  0  0  0  0
  5 18  2  0  0  0  0
  6  7  2  0  0  0  0
  7  8  1  0  0  0  0
  8  9  2  0  0  0  0
  9 10  1  0  0  0  0
  9 18  1  0  0  0  0
 10 11  1  0  0  0  0
 11 12  1  0  0  0  0
 11 17  2  0  0  0  0
 12 13  2  0  0  0  0
 13 14  1  0  0  0  0
 13 15  1  0  0  0  0
 15 16  2  0  0  0  0
 16 17  1  0  0  0  0
M  END
>  <name>
FC(F)(F)c1nccc(Nc2nc([N;amine])n[c;biphenyl]n2)c1

>  <apo>
2

>  <freq>
1

>  <freq0>
0

>  <freq1>
1

>  <freqA>
0.99887151

>  <a_count>
25

$$$$

  MOE2015           2D

 15 15  0  0  1  0  0  0  0  0999 V2000
    0.2830   -1.0570    0.0000 F   0  0  0  0  0  0  0  0  0  0  0  0
    1.5820   -0.3070    0.0000 C   0  0  0  0  0  0  0  0  0  0  0  0
    2.8810   -1.0570    0.0000 C   0  0  0  0  0  0  0  0  0  0  0  0
    2.8810   -2.5570    0.0000 F   0  0  0  0  0  0  0  0  0  0  0  0
    4.1800   -0.3070    0.0000 C   0  0  0  0  0  0  0  0  0  0  0  0
    4.1800    1.1930    0.0000 C   0  0  0  0  0  0  0  0  0  0  0  0
    5.4790    1.9430    0.0000 C   0  0  0  0  0  0  0  0  0  0  0  0
    6.7780    1.1930    0.0000 C   0  0  1  0  0  0  0  0  0  0  0  0
    6.7780   -0.3070    0.0000 N   0  0  0  0  0  0  0  0  0  0  0  0
    8.0770    1.9430    0.0000 C   0  0  0  0  0  0  0  0  0  0  0  0
    9.3770    1.1930    0.0000 C   0  0  0  0  0  0  0  0  0  0  0  0
   10.6760    1.9430    0.0000 O   0  0  0  0  0  0  0  0  0  0  0  0
    2.8810    1.9430    0.0000 C   0  0  0  0  0  0  0  0  0  0  0  0
    2.8810    3.4430    0.0000 F   0  0  0  0  0  0  0  0  0  0  0  0
    1.5820    1.1930    0.0000 C   0  0  0  0  0  0  0  0  0  0  0  0
  1  2  1  0  0  0  0
  2  3  1  0  0  0  0
  2 15  2  0  0  0  0
  3  4  1  0  0  0  0
  3  5  2  0  0  0  0
  5  6  1  0  0  0  0
  6  7  1  0  0  0  0
  6 13  2  0  0  0  0
  7  8  1  0  0  0  0
  8  9  1  6  0  0  0
  8 10  1  0  0  0  0
 10 11  1  0  0  0  0
 11 12  2  0  0  0  0
 13 14  1  0  0  0  0
 13 15  1  0  0  0  0
M  END
>  <name>
Fc1c(F)cc(C[C@@H](N)C[C;amide]=O)c(F)c1

>  <apo>
1

>  <freq>
1

>  <freq0>
0

>  <freq1>
1

>  <freqA>
0.99887151

>  <a_count>
25

$$$$

  MOE2015           2D

 13 13  0  0  1  0  0  0  0  0999 V2000
    2.0770    3.5970    0.0000 F   0  0  0  0  0  0  0  0  0  0  0  0
    2.8270    2.2980    0.0000 C   0  0  0  0  0  0  0  0  0  0  0  0
    2.0770    0.9990    0.0000 C   0  0  0  0  0  0  0  0  0  0  0  0
    0.5770    0.9990    0.0000 C   0  0  2  0  0  0  0  0  0  0  0  0
    0.5770   -0.5010    0.0000 O   0  0  0  0  0  0  0  0  0  0  0  0
   -0.9230    0.9990    0.0000 C   0  0  0  0  0  0  0  0  0  0  0  0
   -1.6730   -0.3000    0.0000 C   0  0  0  0  0  0  0  0  0  0  0  0
    0.5770    2.4990    0.0000 C   0  0  0  0  0  0  0  0  0  0  0  0
    2.8270   -0.3000    0.0000 C   0  0  0  0  0  0  0  0  0  0  0  0
    4.3270   -0.3000    0.0000 C   0  0  0  0  0  0  0  0  0  0  0  0
    5.0770    0.9990    0.0000 C   0  0  0  0  0  0  0  0  0  0  0  0
    6.5770    0.9990    0.0000 F   0  0  0  0  0  0  0  0  0  0  0  0
    4.3270    2.2980    0.0000 C   0  0  0  0  0  0  0  0  0  0  0  0
  1  2  1  0  0  0  0
  2  3  1  0  0  0  0
  2 13  2  0  0  0  0
  4  3  1  6  0  0  0
  3  9  2  0  0  0  0
  4  5  1  0  0  0  0
  4  6  1  0  0  0  0
  4  8  1  1  0  0  0
  6  7  1  0  0  0  0
  9 10  1  0  0  0  0
 10 11  2  0  0  0  0
 11 12  1  0  0  0  0
 11 13  1  0  0  0  0
M  END
>  <name>
Fc1c([C@](O)([C;amine]C)[C;NaroC])ccc(F)c1

>  <apo>
2

>  <freq>
1

>  <freq0>
0

>  <freq1>
1

>  <freqA>
0.99887151

>  <a_count>
25

$$$$

  MOE2015           2D

 15 16  0  0  1  0  0  0  0  0999 V2000
    0.1300   -0.2210    0.0000 F   0  0  0  0  0  0  0  0  0  0  0  0
    0.8600    1.0900    0.0000 C   0  0  0  0  0  0  0  0  0  0  0  0
    2.3600    1.1130    0.0000 C   0  0  0  0  0  0  0  0  0  0  0  0
    3.0900    2.4230    0.0000 C   0  0  0  0  0  0  0  0  0  0  0  0
    4.5890    2.4460    0.0000 N   0  0  0  0  0  0  0  0  0  0  0  0
    5.4520    3.6730    0.0000 C   0  0  0  0  0  0  0  0  0  0  0  0
    4.9670    5.0920    0.0000 O   0  0  0  0  0  0  0  0  0  0  0  0
    6.8860    3.2310    0.0000 O   0  0  0  0  0  0  0  0  0  0  0  0
    6.9090    1.7310    0.0000 C   0  0  1  0  0  0  0  0  0  0  0  0
    8.1360    0.8680    0.0000 C   0  0  0  0  0  0  0  0  0  0  0  0
    9.4970    1.4990    0.0000 O   0  0  0  0  0  0  0  0  0  0  0  0
    5.4900    1.2460    0.0000 C   0  0  0  0  0  0  0  0  0  0  0  0
    2.3200    3.7100    0.0000 C   0  0  0  0  0  0  0  0  0  0  0  0
    0.8200    3.6870    0.0000 C   0  0  0  0  0  0  0  0  0  0  0  0
    0.0900    2.3770    0.0000 C   0  0  0  0  0  0  0  0  0  0  0  0
  1  2  1  0  0  0  0
  2  3  2  0  0  0  0
  2 15  1  0  0  0  0
  3  4  1  0  0  0  0
  4  5  1  0  0  0  0
  4 13  2  0  0  0  0
  5  6  1  0  0  0  0
  5 12  1  0  0  0  0
  6  7  2  0  0  0  0
  6  8  1  0  0  0  0
  8  9  1  0  0  0  0
  9 10  1  1  0  0  0
  9 12  1  0  0  0  0
 10 11  1  0  0  0  0
 13 14  1  0  0  0  0
 14 15  2  0  0  0  0
M  END
>  <name>
Fc1cc(N2C(=O)O[C@@H](CO)C2)cc[c;biphenyl]1

>  <apo>
1

>  <freq>
1

>  <freq0>
0

>  <freq1>
1

>  <freqA>
0.99887151

>  <a_count>
25

$$$$

  MOE2015           2D

 17 17  0  0  0  0  0  0  0  0999 V2000
    2.1800   -2.1800    0.0000 I   0  0  0  0  0  0  0  0  0  0  0  0
    2.1800   -0.6800    0.0000 C   0  0  0  0  0  0  0  0  0  0  0  0
    3.4790    0.0700    0.0000 C   0  0  0  0  0  0  0  0  0  0  0  0
    4.7780   -0.6800    0.0000 N   0  0  0  0  0  0  0  0  0  0  0  0
    6.0770    0.0700    0.0000 C   0  0  0  0  0  0  0  0  0  0  0  0
    7.3760   -0.6800    0.0000 C   0  0  0  0  0  0  0  0  0  0  0  0
    8.6750    0.0700    0.0000 O   0  0  0  0  0  0  0  0  0  0  0  0
    3.4790    1.5700    0.0000 C   0  0  0  0  0  0  0  0  0  0  0  0
    4.7780    2.3200    0.0000 I   0  0  0  0  0  0  0  0  0  0  0  0
    2.1800    2.3200    0.0000 C   0  0  0  0  0  0  0  0  0  0  0  0
    2.1800    3.8200    0.0000 C   0  0  0  0  0  0  0  0  0  0  0  0
    0.8810    4.5700    0.0000 O   0  0  0  0  0  0  0  0  0  0  0  0
    0.8810    1.5700    0.0000 C   0  0  0  0  0  0  0  0  0  0  0  0
   -0.4180    2.3200    0.0000 I   0  0  0  0  0  0  0  0  0  0  0  0
    0.8810    0.0700    0.0000 C   0  0  0  0  0  0  0  0  0  0  0  0
   -0.4180   -0.6800    0.0000 C   0  0  0  0  0  0  0  0  0  0  0  0
   -0.4180   -2.1800    0.0000 O   0  0  0  0  0  0  0  0  0  0  0  0
  1  2  1  0  0  0  0
  2  3  1  0  0  0  0
  2 15  2  0  0  0  0
  3  4  1  0  0  0  0
  3  8  2  0  0  0  0
  4  5  1  0  0  0  0
  5  6  1  0  0  0  0
  6  7  1  0  0  0  0
  8  9  1  0  0  0  0
  8 10  1  0  0  0  0
 10 11  1  0  0  0  0
 10 13  2  0  0  0  0
 11 12  2  0  0  0  0
 13 14  1  0  0  0  0
 13 15  1  0  0  0  0
 15 16  1  0  0  0  0
 16 17  2  0  0  0  0
M  END
>  <name>
Ic1c([N;amide]CCO)c(I)c([C;amide]=O)c(I)c1[C;amide]=O

>  <apo>
3

>  <freq>
1

>  <freq0>
0

>  <freq1>
1

>  <freqA>
0.99887151

>  <a_count>
25

$$$$

  MOE2015           2D

  8  7  0  0  0  0  0  0  0  0999 V2000
    4.5000    0.0000    0.0000 N   0  0  0  0  0  0  0  0  0  0  0  0
    3.0000    0.0000    0.0000 C   0  0  0  0  0  0  0  0  0  0  0  0
    1.5000    0.0000    0.0000 C   0  0  0  0  0  0  0  0  0  0  0  0
    1.5000   -1.5000    0.0000 C   0  0  0  0  0  0  0  0  0  0  0  0
    1.5000    1.5000    0.0000 C   0  0  0  0  0  0  0  0  0  0  0  0
    0.0000    0.0000    0.0000 C   0  0  0  0  0  0  0  0  0  0  0  0
    3.0000   -1.5000    0.0000 C   0  0  0  0  0  0  0  0  0  0  0  0
    3.0000    1.5000    0.0000 C   0  0  0  0  0  0  0  0  0  0  0  0
  1  2  1  0  0  0  0
  2  3  1  0  0  0  0
  2  7  1  0  0  0  0
  2  8  1  0  0  0  0
  3  4  1  0  0  0  0
  3  5  1  0  0  0  0
  3  6  1  0  0  0  0
M  END
>  <name>
NC(C(C)(C)C)([C;ether])C

>  <apo>
1

>  <freq>
1

>  <freq0>
0

>  <freq1>
1

>  <freqA>
0.99887151

>  <a_count>
25

$$$$

  MOE2015           2D

 14 15  0  0  0  0  0  0  0  0999 V2000
    1.3390    2.3200    0.0000 O   0  0  0  0  0  0  0  0  0  0  0  0
    2.0890    1.0210    0.0000 C   0  0  0  0  0  0  0  0  0  0  0  0
   -0.1610    2.3200    0.0000 C   0  0  0  0  0  0  0  0  0  0  0  0
   -0.9110    3.6190    0.0000 C   0  0  0  0  0  0  0  0  0  0  0  0
   -0.1610    4.9180    0.0000 C   0  0  0  0  0  0  0  0  0  0  0  0
   -2.4110    3.6190    0.0000 C   0  0  0  0  0  0  0  0  0  0  0  0
   -3.1610    4.9180    0.0000 N   0  0  0  0  0  0  0  0  0  0  0  0
   -4.6610    4.9180    0.0000 C   0  0  0  0  0  0  0  0  0  0  0  0
   -5.4110    3.6190    0.0000 C   0  0  0  0  0  0  0  0  0  0  0  0
   -4.6610    2.3200    0.0000 C   0  0  0  0  0  0  0  0  0  0  0  0
   -5.4110    1.0210    0.0000 O   0  0  0  0  0  0  0  0  0  0  0  0
   -3.1610    2.3200    0.0000 C   0  0  0  0  0  0  0  0  0  0  0  0
   -2.4110    1.0210    0.0000 C   0  0  0  0  0  0  0  0  0  0  0  0
   -0.9110    1.0210    0.0000 C   0  0  0  0  0  0  0  0  0  0  0  0
  1  2  1  0  0  0  0
  1  3  1  0  0  0  0
  3  4  1  0  0  0  0
  3 14  2  0  0  0  0
  4  5  1  0  0  0  0
  4  6  2  0  0  0  0
  6  7  1  0  0  0  0
  6 12  1  0  0  0  0
  7  8  2  0  0  0  0
  8  9  1  0  0  0  0
  9 10  2  0  0  0  0
 10 11  1  0  0  0  0
 10 12  1  0  0  0  0
 12 13  2  0  0  0  0
 13 14  1  0  0  0  0
M  END
>  <name>
O(C)c1c(C)c2n[c;biphenyl]cc([O;ether])c2cc1

>  <apo>
2

>  <freq>
1

>  <freq0>
0

>  <freq1>
1

>  <freqA>
0.99887151

>  <a_count>
25

$$$$

  MOE2015           2D

 11 11  0  0  0  0  0  0  0  0999 V2000
   -2.7860    3.3440    0.0000 O   0  0  0  0  0  0  0  0  0  0  0  0
   -4.0850    4.0940    0.0000 C   0  0  0  0  0  0  0  0  0  0  0  0
   -2.7860    1.8440    0.0000 C   0  0  0  0  0  0  0  0  0  0  0  0
   -1.4870    1.0940    0.0000 C   0  0  0  0  0  0  0  0  0  0  0  0
   -0.1880    1.8440    0.0000 C   0  0  0  0  0  0  0  0  0  0  0  0
    1.1110    1.0940    0.0000 C   0  0  0  0  0  0  0  0  0  0  0  0
    2.4100    1.8440    0.0000 C   0  0  0  0  0  0  0  0  0  0  0  0
   -1.4870   -0.4060    0.0000 C   0  0  0  0  0  0  0  0  0  0  0  0
   -2.7860   -1.1560    0.0000 C   0  0  0  0  0  0  0  0  0  0  0  0
   -4.0850   -0.4060    0.0000 C   0  0  0  0  0  0  0  0  0  0  0  0
   -4.0850    1.0940    0.0000 C   0  0  0  0  0  0  0  0  0  0  0  0
  1  2  1  0  0  0  0
  1  3  1  0  0  0  0
  3  4  1  0  0  0  0
  3 11  2  0  0  0  0
  4  5  1  0  0  0  0
  4  8  2  0  0  0  0
  5  6  1  0  0  0  0
  6  7  1  0  0  0  0
  8  9  1  0  0  0  0
  9 10  2  0  0  0  0
 10 11  1  0  0  0  0
M  END
>  <name>
O(C)c1c(C[C;amine]C)cccc1

>  <apo>
1

>  <freq>
1

>  <freq0>
0

>  <freq1>
1

>  <freqA>
0.99887151

>  <a_count>
25

$$$$

  MOE2015           2D

 14 14  0  0  1  0  0  0  0  0999 V2000
   -0.5950    2.7130    0.0000 O   0  0  0  0  0  0  0  0  0  0  0  0
   -0.5700    1.2140    0.0000 C   0  0  0  0  0  0  0  0  0  0  0  0
   -1.8560    0.4420    0.0000 C   0  0  0  0  0  0  0  0  0  0  0  0
   -3.1680    1.1700    0.0000 C   0  0  1  0  0  0  0  0  0  0  0  0
   -4.4540    0.3980    0.0000 O   0  0  0  0  0  0  0  0  0  0  0  0
   -3.1930    2.6690    0.0000 C   0  0  0  0  0  0  0  0  0  0  0  0
    0.7420    0.4860    0.0000 C   0  0  0  0  0  0  0  0  0  0  0  0
    2.0280    1.2580    0.0000 C   0  0  0  0  0  0  0  0  0  0  0  0
    2.1590    2.7520    0.0000 O   0  0  0  0  0  0  0  0  0  0  0  0
    3.6210    3.0880    0.0000 C   0  0  0  0  0  0  0  0  0  0  0  0
    4.3930    1.8020    0.0000 C   0  0  0  0  0  0  0  0  0  0  0  0
    5.8870    1.6710    0.0000 C   0  0  0  0  0  0  0  0  0  0  0  0
    6.7480    2.8990    0.0000 O   0  0  0  0  0  0  0  0  0  0  0  0
    3.4080    0.6710    0.0000 N   0  0  0  0  0  0  0  0  0  0  0  0
  1  2  2  0  0  0  0
  2  3  1  0  0  0  0
  2  7  1  0  0  0  0
  3  4  1  0  0  0  0
  4  5  1  0  0  0  0
  4  6  1  1  0  0  0
  7  8  1  0  0  0  0
  8  9  1  0  0  0  0
  8 14  2  0  0  0  0
  9 10  1  0  0  0  0
 10 11  2  0  0  0  0
 11 12  1  0  0  0  0
 11 14  1  0  0  0  0
 12 13  2  0  0  0  0
M  END
>  <name>
O=C(C[C@@H](O)[C;olefin])Cc1occ([C;amide]=O)n1

>  <apo>
2

>  <freq>
1

>  <freq0>
0

>  <freq1>
1

>  <freqA>
0.99887151

>  <a_count>
25

$$$$

  MOE2015           2D

 13 13  0  0  1  0  0  0  0  0999 V2000
    7.9620    0.6000    0.0000 O   0  0  0  0  0  0  0  0  0  0  0  0
    7.2120    1.8990    0.0000 C   0  0  0  0  0  0  0  0  0  0  0  0
    7.9620    3.1980    0.0000 N   0  0  0  0  0  0  0  0  0  0  0  0
    5.7120    1.8990    0.0000 C   0  0  1  0  0  0  0  0  0  0  0  0
    4.9620    0.6000    0.0000 N   0  0  0  0  0  0  0  0  0  0  0  0
    4.9620    3.1980    0.0000 C   0  0  0  0  0  0  0  0  0  0  0  0
    3.4620    3.1980    0.0000 C   0  0  0  0  0  0  0  0  0  0  0  0
    2.7120    1.8990    0.0000 C   0  0  0  0  0  0  0  0  0  0  0  0
    1.2120    1.8990    0.0000 C   0  0  0  0  0  0  0  0  0  0  0  0
    0.4620    3.1980    0.0000 C   0  0  0  0  0  0  0  0  0  0  0  0
   -1.0380    3.1980    0.0000 O   0  0  0  0  0  0  0  0  0  0  0  0
    1.2120    4.4970    0.0000 C   0  0  0  0  0  0  0  0  0  0  0  0
    2.7120    4.4970    0.0000 C   0  0  0  0  0  0  0  0  0  0  0  0
  1  2  2  0  0  0  0
  2  3  1  0  0  0  0
  2  4  1  0  0  0  0
  4  5  1  1  0  0  0
  4  6  1  0  0  0  0
  6  7  1  0  0  0  0
  7  8  1  0  0  0  0
  7 13  2  0  0  0  0
  8  9  2  0  0  0  0
  9 10  1  0  0  0  0
 10 11  1  0  0  0  0
 10 12  2  0  0  0  0
 12 13  1  0  0  0  0
M  END
>  <name>
O=C(N)[C@@H]([N;amide])Cc1ccc(O)cc1

>  <apo>
1

>  <freq>
1

>  <freq0>
0

>  <freq1>
1

>  <freqA>
0.99887151

>  <a_count>
25

$$$$

  MOE2015           2D

 14 14  0  0  0  0  0  0  0  0999 V2000
    1.3610    3.0320    0.0000 O   0  0  0  0  0  0  0  0  0  0  0  0
    1.3610    1.5320    0.0000 C   0  0  0  0  0  0  0  0  0  0  0  0
    2.6600    0.7820    0.0000 N   0  0  0  0  0  0  0  0  0  0  0  0
    3.9590    1.5320    0.0000 N   0  0  0  0  0  0  0  0  0  0  0  0
    5.2580    0.7820    0.0000 C   0  0  0  0  0  0  0  0  0  0  0  0
    6.5570    1.5320    0.0000 C   0  0  0  0  0  0  0  0  0  0  0  0
    7.8570    0.7820    0.0000 C   0  0  0  0  0  0  0  0  0  0  0  0
    9.1560    1.5320    0.0000 O   0  0  0  0  0  0  0  0  0  0  0  0
    0.0620    0.7820    0.0000 C   0  0  0  0  0  0  0  0  0  0  0  0
    0.0620   -0.7180    0.0000 C   0  0  0  0  0  0  0  0  0  0  0  0
   -1.2370   -1.4680    0.0000 C   0  0  0  0  0  0  0  0  0  0  0  0
   -2.5360   -0.7180    0.0000 N   0  0  0  0  0  0  0  0  0  0  0  0
   -2.5360    0.7820    0.0000 C   0  0  0  0  0  0  0  0  0  0  0  0
   -1.2370    1.5320    0.0000 C   0  0  0  0  0  0  0  0  0  0  0  0
  1  2  2  0  0  0  0
  2  3  1  0  0  0  0
  2  9  1  0  0  0  0
  3  4  1  0  0  0  0
  4  5  1  0  0  0  0
  5  6  1  0  0  0  0
  6  7  1  0  0  0  0
  7  8  2  0  0  0  0
  9 10  1  0  0  0  0
  9 14  2  0  0  0  0
 10 11  2  0  0  0  0
 11 12  1  0  0  0  0
 12 13  2  0  0  0  0
 13 14  1  0  0  0  0
M  END
>  <name>
O=C(NNCC[C;amide]=O)c1ccncc1

>  <apo>
1

>  <freq>
1

>  <freq0>
0

>  <freq1>
1

>  <freqA>
0.99887151

>  <a_count>
25

$$$$

  MOE2015           2D

 13 13  0  0  0  0  0  0  0  0999 V2000
    9.4230    2.8710    0.0000 O   0  0  0  0  0  0  0  0  0  0  0  0
    8.1240    3.6210    0.0000 C   0  0  0  0  0  0  0  0  0  0  0  0
    8.1240    5.1210    0.0000 O   0  0  0  0  0  0  0  0  0  0  0  0
    6.8250    2.8710    0.0000 C   0  0  0  0  0  0  0  0  0  0  0  0
    5.5260    3.6210    0.0000 C   0  0  0  0  0  0  0  0  0  0  0  0
    4.2270    2.8710    0.0000 C   0  0  0  0  0  0  0  0  0  0  0  0
    2.9280    3.6210    0.0000 C   0  0  0  0  0  0  0  0  0  0  0  0
    1.6290    2.8710    0.0000 C   0  0  0  0  0  0  0  0  0  0  0  0
    0.3300    3.6210    0.0000 C   0  0  0  0  0  0  0  0  0  0  0  0
    1.6290    1.3710    0.0000 C   0  0  0  0  0  0  0  0  0  0  0  0
    0.3300    0.6210    0.0000 O   0  0  0  0  0  0  0  0  0  0  0  0
    2.9280    0.6210    0.0000 C   0  0  0  0  0  0  0  0  0  0  0  0
    4.2270    1.3710    0.0000 C   0  0  0  0  0  0  0  0  0  0  0  0
  1  2  2  0  0  0  0
  2  3  1  0  0  0  0
  2  4  1  0  0  0  0
  4  5  1  0  0  0  0
  5  6  1  0  0  0  0
  6  7  1  0  0  0  0
  6 13  2  0  0  0  0
  7  8  2  0  0  0  0
  8  9  1  0  0  0  0
  8 10  1  0  0  0  0
 10 11  1  0  0  0  0
 10 12  2  0  0  0  0
 12 13  1  0  0  0  0
M  END
>  <name>
O=C(O)CCc1cc([C;amine])c(O)cc1

>  <apo>
1

>  <freq>
1

>  <freq0>
0

>  <freq1>
1

>  <freqA>
0.99887151

>  <a_count>
25

$$$$

  MOE2015           2D

 11 10  0  0  1  0  0  0  0  0999 V2000
   -0.1420    0.5310    0.0000 O   0  0  0  0  0  0  0  0  0  0  0  0
    1.1570    1.2810    0.0000 C   0  0  0  0  0  0  0  0  0  0  0  0
    1.1570    2.7810    0.0000 O   0  0  0  0  0  0  0  0  0  0  0  0
    2.4560    0.5310    0.0000 C   0  0  0  0  0  0  0  0  0  0  0  0
    3.7550    1.2810    0.0000 C   0  0  2  0  0  0  0  0  0  0  0  0
    3.7550    2.7810    0.0000 O   0  0  0  0  0  0  0  0  0  0  0  0
    5.0540    0.5310    0.0000 C   0  0  0  0  0  0  0  0  0  0  0  0
    6.3530    1.2810    0.0000 C   0  0  2  0  0  0  0  0  0  0  0  0
    6.3530    2.7810    0.0000 O   0  0  0  0  0  0  0  0  0  0  0  0
    7.6520    0.5310    0.0000 C   0  0  0  0  0  0  0  0  0  0  0  0
    8.9510    1.2810    0.0000 C   0  0  0  0  0  0  0  0  0  0  0  0
  1  2  2  0  0  0  0
  2  3  1  0  0  0  0
  2  4  1  0  0  0  0
  4  5  1  0  0  0  0
  5  6  1  6  0  0  0
  5  7  1  0  0  0  0
  7  8  1  0  0  0  0
  8  9  1  6  0  0  0
  8 10  1  0  0  0  0
 10 11  1  0  0  0  0
M  END
>  <name>
O=C(O)C[C@H](O)C[C@H](O)C[C;NaroC]

>  <apo>
1

>  <freq>
1

>  <freq0>
0

>  <freq1>
1

>  <freqA>
0.99887151

>  <a_count>
25

$$$$

  MOE2015           2D

 13 13  0  0  1  0  0  0  0  0999 V2000
    7.9620    0.6000    0.0000 O   0  0  0  0  0  0  0  0  0  0  0  0
    7.2120    1.8990    0.0000 C   0  0  0  0  0  0  0  0  0  0  0  0
    7.9620    3.1980    0.0000 O   0  0  0  0  0  0  0  0  0  0  0  0
    5.7120    1.8990    0.0000 C   0  0  1  0  0  0  0  0  0  0  0  0
    4.9620    0.6000    0.0000 N   0  0  0  0  0  0  0  0  0  0  0  0
    4.9620    3.1980    0.0000 C   0  0  0  0  0  0  0  0  0  0  0  0
    3.4620    3.1980    0.0000 C   0  0  0  0  0  0  0  0  0  0  0  0
    2.7120    1.8990    0.0000 C   0  0  0  0  0  0  0  0  0  0  0  0
    1.2120    1.8990    0.0000 C   0  0  0  0  0  0  0  0  0  0  0  0
    0.4620    3.1980    0.0000 C   0  0  0  0  0  0  0  0  0  0  0  0
   -1.0380    3.1980    0.0000 N   0  0  0  0  0  0  0  0  0  0  0  0
    1.2120    4.4970    0.0000 C   0  0  0  0  0  0  0  0  0  0  0  0
    2.7120    4.4970    0.0000 C   0  0  0  0  0  0  0  0  0  0  0  0
  1  2  2  0  0  0  0
  2  3  1  0  0  0  0
  2  4  1  0  0  0  0
  4  5  1  1  0  0  0
  4  6  1  0  0  0  0
  6  7  1  0  0  0  0
  7  8  1  0  0  0  0
  7 13  2  0  0  0  0
  8  9  2  0  0  0  0
  9 10  1  0  0  0  0
 10 11  1  0  0  0  0
 10 12  2  0  0  0  0
 12 13  1  0  0  0  0
M  END
>  <name>
O=C(O)[C@@H](N)Cc1ccc([N;amine])cc1

>  <apo>
1

>  <freq>
1

>  <freq0>
0

>  <freq1>
1

>  <freqA>
0.99887151

>  <a_count>
25

$$$$

  MOE2015           2D

 14 14  0  0  1  0  0  0  0  0999 V2000
    8.6790    2.0410    0.0000 O   0  0  0  0  0  0  0  0  0  0  0  0
    7.1790    2.0410    0.0000 C   0  0  0  0  0  0  0  0  0  0  0  0
    6.4290    3.3400    0.0000 O   0  0  0  0  0  0  0  0  0  0  0  0
    6.4290    0.7420    0.0000 C   0  0  1  0  0  0  0  0  0  0  0  0
    7.1790   -0.5570    0.0000 N   0  0  0  0  0  0  0  0  0  0  0  0
    4.9290    0.7420    0.0000 C   0  0  0  0  0  0  0  0  0  0  0  0
    4.1790   -0.5570    0.0000 C   0  0  0  0  0  0  0  0  0  0  0  0
    2.6790   -0.5570    0.0000 C   0  0  0  0  0  0  0  0  0  0  0  0
    1.9290   -1.8560    0.0000 O   0  0  0  0  0  0  0  0  0  0  0  0
    1.9290    0.7420    0.0000 C   0  0  0  0  0  0  0  0  0  0  0  0
    0.4290    0.7420    0.0000 C   0  0  0  0  0  0  0  0  0  0  0  0
    2.6790    2.0410    0.0000 C   0  0  0  0  0  0  0  0  0  0  0  0
    1.9290    3.3400    0.0000 O   0  0  0  0  0  0  0  0  0  0  0  0
    4.1790    2.0410    0.0000 C   0  0  0  0  0  0  0  0  0  0  0  0
  1  2  2  0  0  0  0
  2  3  1  0  0  0  0
  2  4  1  0  0  0  0
  4  5  1  1  0  0  0
  4  6  1  0  0  0  0
  6  7  2  0  0  0  0
  6 14  1  0  0  0  0
  7  8  1  0  0  0  0
  8  9  1  0  0  0  0
  8 10  2  0  0  0  0
 10 11  1  0  0  0  0
 10 12  1  0  0  0  0
 12 13  1  0  0  0  0
 12 14  2  0  0  0  0
M  END
>  <name>
O=C(O)[C@@H]([N;amide])c1cc(O)c([C;amine])c(O)[c;biphenyl]1

>  <apo>
3

>  <freq>
1

>  <freq0>
0

>  <freq1>
1

>  <freqA>
0.99887151

>  <a_count>
25

$$$$

  MOE2015           2D

 13 13  0  0  0  0  0  0  0  0999 V2000
    6.2310   -2.3980    0.0000 O   0  0  0  0  0  0  0  0  0  0  0  0
    5.4810   -3.6970    0.0000 C   0  0  0  0  0  0  0  0  0  0  0  0
    6.2310   -4.9960    0.0000 O   0  0  0  0  0  0  0  0  0  0  0  0
    7.7310   -4.9960    0.0000 C   0  0  0  0  0  0  0  0  0  0  0  0
    3.9810   -3.6970    0.0000 C   0  0  0  0  0  0  0  0  0  0  0  0
    3.2310   -2.3980    0.0000 C   0  0  0  0  0  0  0  0  0  0  0  0
    1.7310   -2.3980    0.0000 C   0  0  0  0  0  0  0  0  0  0  0  0
    0.9810   -3.6970    0.0000 C   0  0  0  0  0  0  0  0  0  0  0  0
   -0.5190   -3.6970    0.0000 C   0  0  0  0  0  0  0  0  0  0  0  0
   -1.2690   -2.3980    0.0000 C   0  0  0  0  0  0  0  0  0  0  0  0
   -2.7690   -2.3980    0.0000 O   0  0  0  0  0  0  0  0  0  0  0  0
   -0.5190   -1.0990    0.0000 C   0  0  0  0  0  0  0  0  0  0  0  0
    0.9810   -1.0990    0.0000 C   0  0  0  0  0  0  0  0  0  0  0  0
  1  2  2  0  0  0  0
  2  3  1  0  0  0  0
  2  5  1  0  0  0  0
  3  4  1  0  0  0  0
  5  6  1  0  0  0  0
  6  7  1  0  0  0  0
  7  8  1  0  0  0  0
  7 13  2  0  0  0  0
  8  9  2  0  0  0  0
  9 10  1  0  0  0  0
 10 11  1  0  0  0  0
 10 12  2  0  0  0  0
 12 13  1  0  0  0  0
M  END
>  <name>
O=C(OC)CCc1ccc([O;ether])cc1

>  <apo>
1

>  <freq>
1

>  <freq0>
0

>  <freq1>
1

>  <freqA>
0.99887151

>  <a_count>
25

$$$$

  MOE2015           2D

 14 14  0  0  0  0  0  0  0  0999 V2000
    3.2880    0.6090    0.0000 O   0  0  0  0  0  0  0  0  0  0  0  0
    3.2880    2.1090    0.0000 C   0  0  0  0  0  0  0  0  0  0  0  0
    4.5870    2.8590    0.0000 O   0  0  0  0  0  0  0  0  0  0  0  0
    5.8860    2.1090    0.0000 C   0  0  0  0  0  0  0  0  0  0  0  0
    1.9890    2.8590    0.0000 N   0  0  0  0  0  0  0  0  0  0  0  0
    1.9890    4.3590    0.0000 C   0  0  0  0  0  0  0  0  0  0  0  0
    0.6900    2.1090    0.0000 C   0  0  0  0  0  0  0  0  0  0  0  0
    0.6900    0.6090    0.0000 C   0  0  0  0  0  0  0  0  0  0  0  0
    1.9890   -0.1410    0.0000 N   0  0  0  0  0  0  0  0  0  0  0  0
   -0.6090   -0.1410    0.0000 N   0  0  0  0  0  0  0  0  0  0  0  0
   -1.9080    0.6090    0.0000 C   0  0  0  0  0  0  0  0  0  0  0  0
   -1.9080    2.1090    0.0000 N   0  0  0  0  0  0  0  0  0  0  0  0
   -0.6090    2.8590    0.0000 C   0  0  0  0  0  0  0  0  0  0  0  0
   -0.6090    4.3590    0.0000 N   0  0  0  0  0  0  0  0  0  0  0  0
  1  2  2  0  0  0  0
  2  3  1  0  0  0  0
  2  5  1  0  0  0  0
  3  4  1  0  0  0  0
  5  6  1  0  0  0  0
  5  7  1  0  0  0  0
  7  8  1  0  0  0  0
  7 13  2  0  0  0  0
  8  9  1  0  0  0  0
  8 10  2  0  0  0  0
 10 11  1  0  0  0  0
 11 12  2  0  0  0  0
 12 13  1  0  0  0  0
 13 14  1  0  0  0  0
M  END
>  <name>
O=C(OC)N(C)c1c(N)n[c;biphenyl]nc1N

>  <apo>
1

>  <freq>
1

>  <freq0>
0

>  <freq1>
1

>  <freqA>
0.99887151

>  <a_count>
25

$$$$

  MOE2015           2D

 14 14  0  0  1  0  0  0  0  0999 V2000
    4.5660   -0.8160    0.0000 O   0  0  0  0  0  0  0  0  0  0  0  0
    4.5660   -2.3160    0.0000 C   0  0  0  0  0  0  0  0  0  0  0  0
    5.8650   -3.0660    0.0000 O   0  0  0  0  0  0  0  0  0  0  0  0
    7.1640   -2.3160    0.0000 C   0  0  0  0  0  0  0  0  0  0  0  0
    3.2670   -3.0660    0.0000 N   0  0  0  0  0  0  0  0  0  0  0  0
    1.9680   -2.3160    0.0000 C   0  0  1  0  0  0  0  0  0  0  0  0
    1.9680   -0.8160    0.0000 C   0  0  0  0  0  0  0  0  0  0  0  0
    0.6690   -0.0660    0.0000 O   0  0  0  0  0  0  0  0  0  0  0  0
    0.6690   -3.0660    0.0000 C   0  0  0  0  0  0  0  0  0  0  0  0
   -0.6300   -2.3160    0.0000 C   0  0  0  0  0  0  0  0  0  0  0  0
   -1.9290   -3.0660    0.0000 C   0  0  0  0  0  0  0  0  0  0  0  0
   -1.9290   -4.5660    0.0000 C   0  0  0  0  0  0  0  0  0  0  0  0
   -0.6300   -5.3160    0.0000 C   0  0  0  0  0  0  0  0  0  0  0  0
    0.6690   -4.5660    0.0000 C   0  0  0  0  0  0  0  0  0  0  0  0
  1  2  2  0  0  0  0
  2  3  1  0  0  0  0
  2  5  1  0  0  0  0
  3  4  1  0  0  0  0
  6  5  1  6  0  0  0
  6  7  1  0  0  0  0
  6  9  1  0  0  0  0
  7  8  2  0  0  0  0
  9 10  1  0  0  0  0
  9 14  2  0  0  0  0
 10 11  2  0  0  0  0
 11 12  1  0  0  0  0
 12 13  2  0  0  0  0
 13 14  1  0  0  0  0
M  END
>  <name>
O=C(OC)N[C@@H]([C;amide]=O)c1ccccc1

>  <apo>
1

>  <freq>
1

>  <freq0>
0

>  <freq1>
1

>  <freqA>
0.99887151

>  <a_count>
25

$$$$

  MOE2015           2D

 10  9  0  0  1  0  0  0  0  0999 V2000
   -0.4580   -1.7090    0.0000 O   0  0  0  0  0  0  0  0  0  0  0  0
    0.8410   -2.4590    0.0000 C   0  0  0  0  0  0  0  0  0  0  0  0
    0.8410   -3.9590    0.0000 N   0  0  0  0  0  0  0  0  0  0  0  0
    2.1400   -1.7090    0.0000 C   0  0  3  0  0  0  0  0  0  0  0  0
    2.1400   -0.2090    0.0000 C   0  0  0  0  0  0  0  0  0  0  0  0
    3.4390    0.5410    0.0000 C   0  0  0  0  0  0  0  0  0  0  0  0
    0.8410    0.5410    0.0000 C   0  0  0  0  0  0  0  0  0  0  0  0
    3.4390   -2.4590    0.0000 C   0  0  0  0  0  0  0  0  0  0  0  0
    4.7380   -1.7090    0.0000 C   0  0  0  0  0  0  0  0  0  0  0  0
    6.0370   -2.4590    0.0000 C   0  0  0  0  0  0  0  0  0  0  0  0
  1  2  2  0  0  0  0
  2  3  1  0  0  0  0
  2  4  1  0  0  0  0
  4  5  1  0  0  0  0
  4  8  1  0  0  0  0
  5  6  1  0  0  0  0
  5  7  1  0  0  0  0
  8  9  1  0  0  0  0
  9 10  2  0  0  0  0
M  END
>  <name>
O=C([N;urea])C(C(C)C)CC=C

>  <apo>
1

>  <freq>
1

>  <freq0>
0

>  <freq1>
1

>  <freqA>
0.99887151

>  <a_count>
25

$$$$

  MOE2015           2D

 14 14  0  0  1  0  0  0  0  0999 V2000
    0.0030    0.0350    0.0000 O   0  0  0  0  0  0  0  0  0  0  0  0
    1.4860   -0.1870    0.0000 C   0  0  0  0  0  0  0  0  0  0  0  0
    2.1790   -1.5170    0.0000 N   0  0  0  0  0  0  0  0  0  0  0  0
    1.5090   -2.8600    0.0000 C   0  0  0  0  0  0  0  0  0  0  0  0
    0.0120   -2.9510    0.0000 O   0  0  0  0  0  0  0  0  0  0  0  0
    3.6580   -1.2700    0.0000 C   0  0  0  0  0  0  0  0  0  0  0  0
    4.7280   -2.3210    0.0000 O   0  0  0  0  0  0  0  0  0  0  0  0
    3.8800    0.2140    0.0000 C   0  0  3  0  0  0  0  0  0  0  0  0
    5.2110    0.9060    0.0000 N   0  0  0  0  0  0  0  0  0  0  0  0
    6.4760    0.1000    0.0000 C   0  0  0  0  0  0  0  0  0  0  0  0
    7.8060    0.7920    0.0000 O   0  0  0  0  0  0  0  0  0  0  0  0
    2.5380    0.8830    0.0000 N   0  0  0  0  0  0  0  0  0  0  0  0
    2.2900    2.3630    0.0000 C   0  0  0  0  0  0  0  0  0  0  0  0
    0.8850    2.8880    0.0000 O   0  0  0  0  0  0  0  0  0  0  0  0
  1  2  2  0  0  0  0
  2  3  1  0  0  0  0
  2 12  1  0  0  0  0
  3  4  1  0  0  0  0
  3  6  1  0  0  0  0
  4  5  1  0  0  0  0
  6  7  2  0  0  0  0
  6  8  1  0  0  0  0
  8  9  1  0  0  0  0
  8 12  1  0  0  0  0
  9 10  1  0  0  0  0
 10 11  1  0  0  0  0
 12 13  1  0  0  0  0
 13 14  1  0  0  0  0
M  END
>  <name>
O=C1N(CO)C(=O)C([N;urea]CO)N1CO

>  <apo>
1

>  <freq>
1

>  <freq0>
0

>  <freq1>
1

>  <freqA>
0.99887151

>  <a_count>
25

$$$$

  MOE2015           2D

 14 15  0  0  0  0  0  0  0  0999 V2000
   -0.0830    0.3100    0.0000 O   0  0  0  0  0  0  0  0  0  0  0  0
    1.2160    1.0600    0.0000 C   0  0  0  0  0  0  0  0  0  0  0  0
    2.5150    0.3100    0.0000 N   0  0  0  0  0  0  0  0  0  0  0  0
    2.5150   -1.1900    0.0000 C   0  0  0  0  0  0  0  0  0  0  0  0
    1.2160   -1.9400    0.0000 O   0  0  0  0  0  0  0  0  0  0  0  0
    3.8140    1.0600    0.0000 C   0  0  0  0  0  0  0  0  0  0  0  0
    3.8140    2.5600    0.0000 C   0  0  0  0  0  0  0  0  0  0  0  0
    5.1130    3.3100    0.0000 C   0  0  0  0  0  0  0  0  0  0  0  0
    6.4120    2.5600    0.0000 C   0  0  0  0  0  0  0  0  0  0  0  0
    6.4120    1.0600    0.0000 C   0  0  0  0  0  0  0  0  0  0  0  0
    7.7110    0.3100    0.0000 O   0  0  0  0  0  0  0  0  0  0  0  0
    5.1130    0.3100    0.0000 C   0  0  0  0  0  0  0  0  0  0  0  0
    2.5150    3.3100    0.0000 C   0  0  0  0  0  0  0  0  0  0  0  0
    1.2160    2.5600    0.0000 C   0  0  0  0  0  0  0  0  0  0  0  0
  1  2  2  0  0  0  0
  2  3  1  0  0  0  0
  2 14  1  0  0  0  0
  3  4  1  0  0  0  0
  3  6  1  0  0  0  0
  4  5  1  0  0  0  0
  6  7  1  0  0  0  0
  6 12  2  0  0  0  0
  7  8  2  0  0  0  0
  7 13  1  0  0  0  0
  8  9  1  0  0  0  0
  9 10  2  0  0  0  0
 10 11  1  0  0  0  0
 10 12  1  0  0  0  0
 13 14  1  0  0  0  0
M  END
>  <name>
O=C1N(C[O;ester])c2c(ccc([O;ether])c2)CC1

>  <apo>
2

>  <freq>
1

>  <freq0>
0

>  <freq1>
1

>  <freqA>
0.99887151

>  <a_count>
25

$$$$

  MOE2015           2D

 16 18  0  0  0  0  0  0  0  0999 V2000
    1.3040    2.5030    0.0000 O   0  0  0  0  0  0  0  0  0  0  0  0
    2.2820    1.3660    0.0000 C   0  0  0  0  0  0  0  0  0  0  0  0
    3.7310    1.7530    0.0000 N   0  0  0  0  0  0  0  0  0  0  0  0
    4.9380    0.8620    0.0000 C   0  0  0  0  0  0  0  0  0  0  0  0
    4.9940   -0.6370    0.0000 C   0  0  0  0  0  0  0  0  0  0  0  0
    6.3200   -1.3380    0.0000 N   0  0  0  0  0  0  0  0  0  0  0  0
    7.5900   -0.5400    0.0000 C   0  0  0  0  0  0  0  0  0  0  0  0
    7.5340    0.9590    0.0000 C   0  0  0  0  0  0  0  0  0  0  0  0
    6.2080    1.6600    0.0000 C   0  0  0  0  0  0  0  0  0  0  0  0
    3.8580   -1.6170    0.0000 N   0  0  0  0  0  0  0  0  0  0  0  0
    2.3830   -1.3360    0.0000 C   0  0  0  0  0  0  0  0  0  0  0  0
    1.6830   -0.0090    0.0000 C   0  0  0  0  0  0  0  0  0  0  0  0
    0.1840    0.0470    0.0000 C   0  0  0  0  0  0  0  0  0  0  0  0
   -0.6150   -1.2230    0.0000 C   0  0  0  0  0  0  0  0  0  0  0  0
    0.0860   -2.5490    0.0000 C   0  0  0  0  0  0  0  0  0  0  0  0
    1.5850   -2.6060    0.0000 C   0  0  0  0  0  0  0  0  0  0  0  0
  1  2  2  0  0  0  0
  2  3  1  0  0  0  0
  2 12  1  0  0  0  0
  3  4  1  0  0  0  0
  4  5  1  0  0  0  0
  4  9  2  0  0  0  0
  5  6  2  0  0  0  0
  5 10  1  0  0  0  0
  6  7  1  0  0  0  0
  7  8  2  0  0  0  0
  8  9  1  0  0  0  0
 10 11  1  0  0  0  0
 11 12  1  0  0  0  0
 11 16  2  0  0  0  0
 12 13  2  0  0  0  0
 13 14  1  0  0  0  0
 14 15  2  0  0  0  0
 15 16  1  0  0  0  0
M  END
>  <name>
O=C1Nc2c(nccc2)[N;amide]c2c1cccc2

>  <apo>
1

>  <freq>
1

>  <freq0>
0

>  <freq1>
1

>  <freqA>
0.99887151

>  <a_count>
25

$$$$

  MOE2015           2D

 15 17  0  0  0  0  0  0  0  0999 V2000
    1.3170    2.6230    0.0000 O   0  0  0  0  0  0  0  0  0  0  0  0
    2.2130    1.4200    0.0000 C   0  0  0  0  0  0  0  0  0  0  0  0
    1.5170    0.0910    0.0000 C   0  0  0  0  0  0  0  0  0  0  0  0
    0.0250   -0.0600    0.0000 S   0  0  0  0  0  0  0  0  0  0  0  0
   -0.2930   -1.5260    0.0000 C   0  0  0  0  0  0  0  0  0  0  0  0
    1.0030   -2.2810    0.0000 C   0  0  0  0  0  0  0  0  0  0  0  0
    2.1220   -1.2820    0.0000 C   0  0  0  0  0  0  0  0  0  0  0  0
    3.5720   -1.6660    0.0000 C   0  0  0  0  0  0  0  0  0  0  0  0
    4.7750   -0.7700    0.0000 C   0  0  0  0  0  0  0  0  0  0  0  0
    4.8260    0.7300    0.0000 C   0  0  0  0  0  0  0  0  0  0  0  0
    6.1490    1.4360    0.0000 C   0  0  0  0  0  0  0  0  0  0  0  0
    7.4220    0.6430    0.0000 C   0  0  0  0  0  0  0  0  0  0  0  0
    7.3720   -0.8580    0.0000 C   0  0  0  0  0  0  0  0  0  0  0  0
    6.0480   -1.5640    0.0000 C   0  0  0  0  0  0  0  0  0  0  0  0
    3.6860    1.7050    0.0000 C   0  0  0  0  0  0  0  0  0  0  0  0
  1  2  2  0  0  0  0
  2  3  1  0  0  0  0
  2 15  1  0  0  0  0
  3  4  1  0  0  0  0
  3  7  2  0  0  0  0
  4  5  1  0  0  0  0
  5  6  2  0  0  0  0
  6  7  1  0  0  0  0
  7  8  1  0  0  0  0
  8  9  1  0  0  0  0
  9 10  1  0  0  0  0
  9 14  2  0  0  0  0
 10 11  2  0  0  0  0
 10 15  1  0  0  0  0
 11 12  1  0  0  0  0
 12 13  2  0  0  0  0
 13 14  1  0  0  0  0
M  END
>  <name>
O=C1c2sccc2[C;olefin]c2c(cccc2)C1

>  <apo>
1

>  <freq>
1

>  <freq0>
0

>  <freq1>
1

>  <freqA>
0.99887151

>  <a_count>
25

$$$$

  MOE2015           2D

 12 11  0  0  1  0  0  0  0  0999 V2000
   -0.4220    2.3240    0.0000 O   0  0  0  0  0  0  0  0  0  0  0  0
    0.8770    1.5740    0.0000 C   0  0  0  0  0  0  0  0  0  0  0  0
    2.1760    2.3240    0.0000 C   0  0  2  0  0  0  0  0  0  0  0  0
    2.1760    3.8240    0.0000 N   0  0  0  0  0  0  0  0  0  0  0  0
    3.4750    1.5740    0.0000 C   0  0  1  0  0  0  0  0  0  0  0  0
    3.4750    0.0740    0.0000 O   0  0  0  0  0  0  0  0  0  0  0  0
    4.7750    2.3240    0.0000 C   0  0  2  0  0  0  0  0  0  0  0  0
    4.7750    3.8240    0.0000 O   0  0  0  0  0  0  0  0  0  0  0  0
    6.0740    1.5740    0.0000 C   0  0  2  0  0  0  0  0  0  0  0  0
    6.0740    0.0740    0.0000 O   0  0  0  0  0  0  0  0  0  0  0  0
    7.3730    2.3240    0.0000 C   0  0  0  0  0  0  0  0  0  0  0  0
    8.6720    1.5740    0.0000 O   0  0  0  0  0  0  0  0  0  0  0  0
  1  2  2  0  0  0  0
  2  3  1  0  0  0  0
  3  4  1  6  0  0  0
  3  5  1  0  0  0  0
  5  6  1  6  0  0  0
  5  7  1  0  0  0  0
  7  8  1  6  0  0  0
  7  9  1  0  0  0  0
  9 10  1  1  0  0  0
  9 11  1  0  0  0  0
 11 12  1  0  0  0  0
M  END
>  <name>
O=C[C@H]([N;amide])[C@@H](O)[C@H](O)[C@H](O)CO

>  <apo>
1

>  <freq>
1

>  <freq0>
0

>  <freq1>
1

>  <freqA>
0.99887151

>  <a_count>
25

$$$$

  MOE2015           2D

 10 10  0  0  0  0  0  0  0  0999 V2000
   -0.7500   -1.2990    0.0000 O   0  0  0  0  0  0  0  0  0  0  0  0
    0.0000   -2.5980    0.0000 C   0  0  0  0  0  0  0  0  0  0  0  0
    1.5000   -2.5980    0.0000 C   0  0  0  0  0  0  0  0  0  0  0  0
    2.2500   -3.8970    0.0000 C   0  0  0  0  0  0  0  0  0  0  0  0
    3.7500   -3.8970    0.0000 C   0  0  0  0  0  0  0  0  0  0  0  0
    4.5000   -2.5980    0.0000 C   0  0  0  0  0  0  0  0  0  0  0  0
    6.0000   -2.5980    0.0000 C   0  0  0  0  0  0  0  0  0  0  0  0
    6.7500   -3.8970    0.0000 N   0  0  0  0  0  0  0  0  0  0  0  0
    3.7500   -1.2990    0.0000 C   0  0  0  0  0  0  0  0  0  0  0  0
    2.2500   -1.2990    0.0000 C   0  0  0  0  0  0  0  0  0  0  0  0
  1  2  2  0  0  0  0
  2  3  1  0  0  0  0
  3  4  1  0  0  0  0
  3 10  1  0  0  0  0
  4  5  1  0  0  0  0
  5  6  1  0  0  0  0
  6  7  1  0  0  0  0
  6  9  1  0  0  0  0
  7  8  1  0  0  0  0
  9 10  1  0  0  0  0
M  END
>  <name>
O=[C;amide]C1CCC(C[N;amide])CC1

>  <apo>
2

>  <freq>
1

>  <freq0>
0

>  <freq1>
1

>  <freqA>
0.99887151

>  <a_count>
25

$$$$

  MOE2015           2D

  9  8  0  0  1  0  0  0  0  0999 V2000
    9.1800    1.2930    0.0000 O   0  0  0  0  0  0  0  0  0  0  0  0
    7.8810    2.0430    0.0000 C   0  0  0  0  0  0  0  0  0  0  0  0
    6.5820    1.2930    0.0000 C   0  0  0  0  0  0  0  0  0  0  0  0
    5.2830    2.0430    0.0000 C   0  0  0  0  0  0  0  0  0  0  0  0
    3.9840    1.2930    0.0000 C   0  0  0  0  0  0  0  0  0  0  0  0
    2.6850    2.0430    0.0000 C   0  0  3  0  0  0  0  0  0  0  0  0
    1.3860    1.2930    0.0000 C   0  0  0  0  0  0  0  0  0  0  0  0
    0.0870    2.0430    0.0000 C   0  0  0  0  0  0  0  0  0  0  0  0
    2.6850    3.5430    0.0000 C   0  0  0  0  0  0  0  0  0  0  0  0
  1  2  2  0  0  0  0
  2  3  1  0  0  0  0
  3  4  1  0  0  0  0
  4  5  1  0  0  0  0
  5  6  1  0  0  0  0
  6  7  1  0  0  0  0
  6  9  1  0  0  0  0
  7  8  1  0  0  0  0
M  END
>  <name>
O=[C;amide]CCCC(CC)C

>  <apo>
1

>  <freq>
1

>  <freq0>
0

>  <freq1>
1

>  <freqA>
0.99887151

>  <a_count>
25

$$$$

  MOE2015           2D

  9  8  0  0  0  0  0  0  0  0999 V2000
   -0.5290    1.9760    0.0000 O   0  0  0  0  0  0  0  0  0  0  0  0
    0.7700    2.7260    0.0000 C   0  0  0  0  0  0  0  0  0  0  0  0
    2.0690    1.9760    0.0000 C   0  0  0  0  0  0  0  0  0  0  0  0
    3.3680    2.7260    0.0000 C   0  0  0  0  0  0  0  0  0  0  0  0
    4.6670    1.9760    0.0000 C   0  0  0  0  0  0  0  0  0  0  0  0
    5.9660    2.7260    0.0000 C   0  0  0  0  0  0  0  0  0  0  0  0
    7.2650    1.9760    0.0000 C   0  0  0  0  0  0  0  0  0  0  0  0
    8.5640    2.7260    0.0000 C   0  0  0  0  0  0  0  0  0  0  0  0
    9.8630    1.9760    0.0000 C   0  0  0  0  0  0  0  0  0  0  0  0
  1  2  2  0  0  0  0
  2  3  1  0  0  0  0
  3  4  1  0  0  0  0
  4  5  1  0  0  0  0
  5  6  1  0  0  0  0
  6  7  1  0  0  0  0
  7  8  1  0  0  0  0
  8  9  1  0  0  0  0
M  END
>  <name>
O=[C;amide]CCCCCCC

>  <apo>
1

>  <freq>
1

>  <freq0>
0

>  <freq1>
1

>  <freqA>
0.99887151

>  <a_count>
25

$$$$

  MOE2015           2D

 10 10  0  0  1  0  0  0  0  0999 V2000
    7.3500   -2.3380    0.0000 O   0  0  0  0  0  0  0  0  0  0  0  0
    5.8500   -2.3380    0.0000 C   0  0  0  0  0  0  0  0  0  0  0  0
    5.1000   -1.0390    0.0000 C   0  0  1  0  0  0  0  0  0  0  0  0
    5.8500    0.2600    0.0000 N   0  0  0  0  0  0  0  0  0  0  0  0
    3.6000   -1.0390    0.0000 C   0  0  0  0  0  0  0  0  0  0  0  0
    2.8500   -2.3380    0.0000 C   0  0  0  0  0  0  0  0  0  0  0  0
    1.3500   -2.3380    0.0000 C   0  0  0  0  0  0  0  0  0  0  0  0
    0.6000   -1.0390    0.0000 C   0  0  0  0  0  0  0  0  0  0  0  0
    1.3500    0.2600    0.0000 C   0  0  0  0  0  0  0  0  0  0  0  0
    2.8500    0.2600    0.0000 C   0  0  0  0  0  0  0  0  0  0  0  0
  1  2  2  0  0  0  0
  2  3  1  0  0  0  0
  3  4  1  6  0  0  0
  3  5  1  0  0  0  0
  5  6  1  0  0  0  0
  5 10  1  0  0  0  0
  6  7  1  0  0  0  0
  7  8  1  0  0  0  0
  8  9  1  0  0  0  0
  9 10  1  0  0  0  0
M  END
>  <name>
O=[C;amide][C@@H]([N;amide])C1CCCCC1

>  <apo>
2

>  <freq>
1

>  <freq0>
0

>  <freq1>
1

>  <freqA>
0.99887151

>  <a_count>
25

$$$$

  MOE2015           2D

 12 12  0  0  1  0  0  0  0  0999 V2000
   10.0710   -1.1990    0.0000 O   0  0  0  0  0  0  0  0  0  0  0  0
    8.7720   -1.9490    0.0000 C   0  0  0  0  0  0  0  0  0  0  0  0
    7.4730   -1.1990    0.0000 C   0  0  1  0  0  0  0  0  0  0  0  0
    7.4730    0.3010    0.0000 N   0  0  0  0  0  0  0  0  0  0  0  0
    6.1740   -1.9490    0.0000 C   0  0  0  0  0  0  0  0  0  0  0  0
    4.8750   -1.1990    0.0000 C   0  0  0  0  0  0  0  0  0  0  0  0
    3.5760   -1.9490    0.0000 C   0  0  0  0  0  0  0  0  0  0  0  0
    3.5760   -3.4490    0.0000 C   0  0  0  0  0  0  0  0  0  0  0  0
    2.2770   -4.1990    0.0000 C   0  0  0  0  0  0  0  0  0  0  0  0
    0.9780   -3.4490    0.0000 C   0  0  0  0  0  0  0  0  0  0  0  0
    0.9780   -1.9490    0.0000 C   0  0  0  0  0  0  0  0  0  0  0  0
    2.2770   -1.1990    0.0000 C   0  0  0  0  0  0  0  0  0  0  0  0
  1  2  2  0  0  0  0
  2  3  1  0  0  0  0
  3  4  1  6  0  0  0
  3  5  1  0  0  0  0
  5  6  1  0  0  0  0
  6  7  1  0  0  0  0
  7  8  1  0  0  0  0
  7 12  2  0  0  0  0
  8  9  2  0  0  0  0
  9 10  1  0  0  0  0
 10 11  2  0  0  0  0
 11 12  1  0  0  0  0
M  END
>  <name>
O=[C;amide][C@@H]([N;amide])CCc1ccccc1

>  <apo>
2

>  <freq>
1

>  <freq0>
0

>  <freq1>
1

>  <freqA>
0.99887151

>  <a_count>
25

$$$$

  MOE2015           2D

 11 10  0  0  1  0  0  0  0  0999 V2000
   10.0870   -2.0210    0.0000 O   0  0  0  0  0  0  0  0  0  0  0  0
    8.7880   -2.7710    0.0000 C   0  0  0  0  0  0  0  0  0  0  0  0
    7.4890   -2.0210    0.0000 C   0  0  1  0  0  0  0  0  0  0  0  0
    7.4890   -0.5210    0.0000 N   0  0  0  0  0  0  0  0  0  0  0  0
    6.1900   -2.7710    0.0000 C   0  0  0  0  0  0  0  0  0  0  0  0
    4.8910   -2.0210    0.0000 C   0  0  0  0  0  0  0  0  0  0  0  0
    3.5920   -2.7710    0.0000 C   0  0  0  0  0  0  0  0  0  0  0  0
    2.2930   -2.0210    0.0000 N   0  0  0  0  0  0  0  0  0  0  0  0
    0.9940   -2.7710    0.0000 C   0  0  0  0  0  0  0  0  0  0  0  0
   -0.3050   -2.0210    0.0000 N   0  0  0  0  0  0  0  0  0  0  0  0
    0.9940   -4.2710    0.0000 N   0  0  0  0  0  0  0  0  0  0  0  0
  1  2  2  0  0  0  0
  2  3  1  0  0  0  0
  3  4  1  6  0  0  0
  3  5  1  0  0  0  0
  5  6  1  0  0  0  0
  6  7  1  0  0  0  0
  7  8  1  0  0  0  0
  8  9  1  0  0  0  0
  9 10  2  0  0  0  0
  9 11  1  0  0  0  0
M  END
>  <name>
O=[C;amide][C@@H]([N;so2amide])CCCNC(=N)N

>  <apo>
2

>  <freq>
1

>  <freq0>
0

>  <freq1>
1

>  <freqA>
0.99887151

>  <a_count>
25

$$$$

  MOE2015           2D

 11 10  0  0  1  0  0  0  0  0999 V2000
   10.0870   -2.0210    0.0000 O   0  0  0  0  0  0  0  0  0  0  0  0
    8.7880   -2.7710    0.0000 C   0  0  0  0  0  0  0  0  0  0  0  0
    7.4890   -2.0210    0.0000 C   0  0  2  0  0  0  0  0  0  0  0  0
    7.4890   -0.5210    0.0000 N   0  0  0  0  0  0  0  0  0  0  0  0
    6.1900   -2.7710    0.0000 C   0  0  0  0  0  0  0  0  0  0  0  0
    4.8910   -2.0210    0.0000 C   0  0  0  0  0  0  0  0  0  0  0  0
    3.5920   -2.7710    0.0000 C   0  0  0  0  0  0  0  0  0  0  0  0
    2.2930   -2.0210    0.0000 N   0  0  0  0  0  0  0  0  0  0  0  0
    0.9940   -2.7710    0.0000 C   0  0  0  0  0  0  0  0  0  0  0  0
   -0.3050   -2.0210    0.0000 N   0  0  0  0  0  0  0  0  0  0  0  0
    0.9940   -4.2710    0.0000 N   0  0  0  0  0  0  0  0  0  0  0  0
  1  2  2  0  0  0  0
  2  3  1  0  0  0  0
  3  4  1  1  0  0  0
  3  5  1  0  0  0  0
  5  6  1  0  0  0  0
  6  7  1  0  0  0  0
  7  8  1  0  0  0  0
  8  9  1  0  0  0  0
  9 10  2  0  0  0  0
  9 11  1  0  0  0  0
M  END
>  <name>
O=[C;amide][C@H](N)CCCNC(=N)N

>  <apo>
1

>  <freq>
1

>  <freq0>
0

>  <freq1>
1

>  <freqA>
0.99887151

>  <a_count>
25

$$$$

  MOE2015           2D

 16 17  0  0  1  0  0  0  0  0999 V2000
    0.4390   -2.7750    0.0000 O   0  0  0  0  0  0  0  0  0  0  0  0
    1.8660   -2.3110    0.0000 C   0  0  0  0  0  0  0  0  0  0  0  0
    2.1780   -0.8440    0.0000 C   0  0  1  0  0  0  0  0  0  0  0  0
    3.5480   -0.2340    0.0000 N   0  0  0  0  0  0  0  0  0  0  0  0
    4.8470   -0.9840    0.0000 C   0  0  0  0  0  0  0  0  0  0  0  0
    4.8470   -2.4840    0.0000 N   0  0  0  0  0  0  0  0  0  0  0  0
    6.1460   -3.2340    0.0000 C   0  0  0  0  0  0  0  0  0  0  0  0
    7.4450   -2.4840    0.0000 C   0  0  0  0  0  0  0  0  0  0  0  0
    7.4450   -0.9840    0.0000 C   0  0  0  0  0  0  0  0  0  0  0  0
    8.7440   -0.2340    0.0000 C   0  0  0  0  0  0  0  0  0  0  0  0
   10.0430    0.5160    0.0000 N   0  0  0  0  0  0  0  0  0  0  0  0
    6.1460   -0.2340    0.0000 C   0  0  0  0  0  0  0  0  0  0  0  0
    3.3910    1.2580    0.0000 C   0  0  0  0  0  0  0  0  0  0  0  0
    4.5060    2.2620    0.0000 O   0  0  0  0  0  0  0  0  0  0  0  0
    1.9240    1.5700    0.0000 C   0  0  0  0  0  0  0  0  0  0  0  0
    1.1740    0.2710    0.0000 C   0  0  0  0  0  0  0  0  0  0  0  0
  1  2  2  0  0  0  0
  3  2  1  6  0  0  0
  3  4  1  0  0  0  0
  3 16  1  0  0  0  0
  4  5  1  0  0  0  0
  4 13  1  0  0  0  0
  5  6  2  0  0  0  0
  5 12  1  0  0  0  0
  6  7  1  0  0  0  0
  7  8  2  0  0  0  0
  8  9  1  0  0  0  0
  9 10  1  0  0  0  0
  9 12  2  0  0  0  0
 10 11  3  0  0  0  0
 13 14  2  0  0  0  0
 13 15  1  0  0  0  0
 15 16  1  0  0  0  0
M  END
>  <name>
O=[C;amide][C@H]1N(c2nccc(C#N)c2)C(=O)CC1

>  <apo>
1

>  <freq>
1

>  <freq0>
0

>  <freq1>
1

>  <freqA>
0.99887151

>  <a_count>
25

$$$$

  MOE2015           2D

 13 13  0  0  0  0  0  0  0  0999 V2000
    8.3080   -1.7990    0.0000 O   0  0  0  0  0  0  0  0  0  0  0  0
    7.5580   -3.0980    0.0000 C   0  0  0  0  0  0  0  0  0  0  0  0
    6.0580   -3.0980    0.0000 C   0  0  0  0  0  0  0  0  0  0  0  0
    5.3080   -4.3970    0.0000 C   0  0  0  0  0  0  0  0  0  0  0  0
    3.8080   -4.3970    0.0000 C   0  0  0  0  0  0  0  0  0  0  0  0
    3.0580   -3.0980    0.0000 C   0  0  0  0  0  0  0  0  0  0  0  0
    1.5580   -3.0980    0.0000 C   0  0  0  0  0  0  0  0  0  0  0  0
    0.8080   -4.3970    0.0000 N   0  0  0  0  0  0  0  0  0  0  0  0
   -0.6920   -4.3970    0.0000 C   0  0  0  0  0  0  0  0  0  0  0  0
    1.5580   -5.6960    0.0000 C   0  0  0  0  0  0  0  0  0  0  0  0
    0.8080   -1.7990    0.0000 N   0  0  0  0  0  0  0  0  0  0  0  0
    3.8080   -1.7990    0.0000 C   0  0  0  0  0  0  0  0  0  0  0  0
    5.3080   -1.7990    0.0000 C   0  0  0  0  0  0  0  0  0  0  0  0
  1  2  2  0  0  0  0
  2  3  1  0  0  0  0
  3  4  1  0  0  0  0
  3 13  2  0  0  0  0
  4  5  2  0  0  0  0
  5  6  1  0  0  0  0
  6  7  1  0  0  0  0
  6 12  2  0  0  0  0
  7  8  1  0  0  0  0
  7 11  2  0  0  0  0
  8  9  1  0  0  0  0
  8 10  1  0  0  0  0
 12 13  1  0  0  0  0
M  END
>  <name>
O=[C;amide]c1ccc(C(N(C)C)=N)cc1

>  <apo>
1

>  <freq>
1

>  <freq0>
0

>  <freq1>
1

>  <freqA>
0.99887151

>  <a_count>
25

$$$$

  MOE2015           2D

  9  8  0  0  0  0  0  0  0  0999 V2000
    2.6670    1.4430    0.0000 O   0  0  0  0  0  0  0  0  0  0  0  0
    3.4170    0.1440    0.0000 C   0  0  0  0  0  0  0  0  0  0  0  0
    2.6670   -1.1550    0.0000 C   0  0  0  0  0  0  0  0  0  0  0  0
    3.4170   -2.4540    0.0000 C   0  0  0  0  0  0  0  0  0  0  0  0
    4.9170   -2.4540    0.0000 C   0  0  0  0  0  0  0  0  0  0  0  0
    5.6670   -3.7530    0.0000 C   0  0  0  0  0  0  0  0  0  0  0  0
    1.1670   -1.1550    0.0000 C   0  0  0  0  0  0  0  0  0  0  0  0
    0.4170   -2.4540    0.0000 C   0  0  0  0  0  0  0  0  0  0  0  0
   -1.0830   -2.4540    0.0000 C   0  0  0  0  0  0  0  0  0  0  0  0
  1  2  2  0  0  0  0
  2  3  1  0  0  0  0
  3  4  1  0  0  0  0
  3  7  1  0  0  0  0
  4  5  1  0  0  0  0
  5  6  1  0  0  0  0
  7  8  1  0  0  0  0
  8  9  1  0  0  0  0
M  END
>  <name>
O=[C;ester]C(CCC)CCC

>  <apo>
1

>  <freq>
1

>  <freq0>
0

>  <freq1>
1

>  <freqA>
0.99887151

>  <a_count>
25

$$$$

  MOE2015           2D

 14 15  0  0  1  0  0  0  0  0999 V2000
    4.5430    0.6590    0.0000 O   0  0  0  0  0  0  0  0  0  0  0  0
    3.1050    0.2330    0.0000 C   0  0  0  0  0  0  0  0  0  0  0  0
    2.7550   -1.2260    0.0000 C   0  0  1  0  0  0  0  0  0  0  0  0
    1.3690   -1.8000    0.0000 C   0  0  0  0  0  0  0  0  0  0  0  0
    0.6880   -0.4640    0.0000 C   0  0  0  0  0  0  0  0  0  0  0  0
   -0.1310   -1.8000    0.0000 C   0  0  0  0  0  0  0  0  0  0  0  0
    1.4870   -3.2950    0.0000 S   0  0  0  0  0  0  0  0  0  0  0  0
    0.0000   -3.4920    0.0000 O   0  0  0  0  0  0  0  0  0  0  0  0
    0.9620   -4.7010    0.0000 O   0  0  0  0  0  0  0  0  0  0  0  0
    2.9460   -3.6450    0.0000 C   0  0  1  0  0  0  0  0  0  0  0  0
    3.7290   -2.3660    0.0000 N   0  0  0  0  0  0  0  0  0  0  0  0
    5.0080   -3.1500    0.0000 C   0  0  0  0  0  0  0  0  0  0  0  0
    6.4670   -2.7990    0.0000 O   0  0  0  0  0  0  0  0  0  0  0  0
    4.2250   -4.4290    0.0000 C   0  0  0  0  0  0  0  0  0  0  0  0
  1  2  2  0  0  0  0
  3  2  1  6  0  0  0
  3  4  1  0  0  0  0
  3 11  1  0  0  0  0
  4  5  1  0  0  0  0
  4  6  1  0  0  0  0
  4  7  1  0  0  0  0
  7  8  2  0  0  0  0
  7  9  2  0  0  0  0
  7 10  1  0  0  0  0
 10 11  1  0  0  0  0
 10 14  1  1  0  0  0
 11 12  1  0  0  0  0
 12 13  2  0  0  0  0
 12 14  1  0  0  0  0
M  END
>  <name>
O=[C;ester][C@H]1C(C)(C)S(=O)(=O)[C@H]2N1C(=O)C2

>  <apo>
1

>  <freq>
1

>  <freq0>
0

>  <freq1>
1

>  <freqA>
0.99887151

>  <a_count>
25

$$$$

  MOE2015           2D

 11 10  0  0  1  0  0  0  0  0999 V2000
    2.1450   -2.1450    0.0000 O   0  0  0  0  0  0  0  0  0  0  0  0
    2.1450   -0.6450    0.0000 C   0  0  1  0  0  0  0  0  0  0  0  0
    0.8460    0.1050    0.0000 C   0  0  2  0  0  0  0  0  0  0  0  0
    0.8460    1.6050    0.0000 O   0  0  0  0  0  0  0  0  0  0  0  0
   -0.4530   -0.6450    0.0000 C   0  0  1  0  0  0  0  0  0  0  0  0
   -1.7520    0.1050    0.0000 O   0  0  0  0  0  0  0  0  0  0  0  0
   -0.4530   -2.1450    0.0000 C   0  0  0  0  0  0  0  0  0  0  0  0
    3.4440    0.1050    0.0000 C   0  0  2  0  0  0  0  0  0  0  0  0
    3.4440    1.6050    0.0000 O   0  0  0  0  0  0  0  0  0  0  0  0
    4.7430   -0.6450    0.0000 C   0  0  0  0  0  0  0  0  0  0  0  0
    6.0420    0.1050    0.0000 O   0  0  0  0  0  0  0  0  0  0  0  0
  2  1  1  1  0  0  0
  2  3  1  0  0  0  0
  2  8  1  0  0  0  0
  3  4  1  1  0  0  0
  3  5  1  0  0  0  0
  5  6  1  6  0  0  0
  5  7  1  0  0  0  0
  8  9  1  6  0  0  0
  8 10  1  0  0  0  0
 10 11  1  0  0  0  0
M  END
>  <name>
O[C@@H]([C@H](O)[C@@H](O)[C;amine])[C@H](O)CO

>  <apo>
1

>  <freq>
1

>  <freq0>
0

>  <freq1>
1

>  <freqA>
0.99887151

>  <a_count>
25

$$$$

  MOE2015           2D

 11 10  0  0  1  0  0  0  0  0999 V2000
    2.1450   -2.1450    0.0000 O   0  0  0  0  0  0  0  0  0  0  0  0
    2.1450   -0.6450    0.0000 C   0  0  1  0  0  0  0  0  0  0  0  0
    0.8460    0.1050    0.0000 C   0  0  2  0  0  0  0  0  0  0  0  0
    0.8460    1.6050    0.0000 O   0  0  0  0  0  0  0  0  0  0  0  0
   -0.4530   -0.6450    0.0000 C   0  0  2  0  0  0  0  0  0  0  0  0
   -1.7520    0.1050    0.0000 O   0  0  0  0  0  0  0  0  0  0  0  0
   -0.4530   -2.1450    0.0000 C   0  0  0  0  0  0  0  0  0  0  0  0
    3.4440    0.1050    0.0000 C   0  0  1  0  0  0  0  0  0  0  0  0
    3.4440    1.6050    0.0000 O   0  0  0  0  0  0  0  0  0  0  0  0
    4.7430   -0.6450    0.0000 C   0  0  0  0  0  0  0  0  0  0  0  0
    6.0420    0.1050    0.0000 O   0  0  0  0  0  0  0  0  0  0  0  0
  2  1  1  1  0  0  0
  2  3  1  0  0  0  0
  2  8  1  0  0  0  0
  3  4  1  1  0  0  0
  3  5  1  0  0  0  0
  5  6  1  1  0  0  0
  5  7  1  0  0  0  0
  8  9  1  1  0  0  0
  8 10  1  0  0  0  0
 10 11  1  0  0  0  0
M  END
>  <name>
O[C@@H]([C@H](O)[C@H](O)[C;ether])[C@@H](O)CO

>  <apo>
1

>  <freq>
1

>  <freq0>
0

>  <freq1>
1

>  <freqA>
0.99887151

>  <a_count>
25

$$$$

  MOE2015           2D

 10 10  0  0  1  0  0  0  0  0999 V2000
    2.4950   -2.4950    0.0000 O   0  0  0  0  0  0  0  0  0  0  0  0
    2.4950   -0.9950    0.0000 C   0  0  2  0  0  0  0  0  0  0  0  0
    3.7940   -0.2450    0.0000 C   0  0  2  0  0  0  0  0  0  0  0  0
    5.0930   -0.9950    0.0000 C   0  0  0  0  0  0  0  0  0  0  0  0
    3.7940    1.2550    0.0000 O   0  0  0  0  0  0  0  0  0  0  0  0
    2.4950    2.0050    0.0000 C   0  0  0  0  0  0  0  0  0  0  0  0
    1.1960    1.2550    0.0000 C   0  0  0  0  0  0  0  0  0  0  0  0
    1.1960   -0.2450    0.0000 C   0  0  2  0  0  0  0  0  0  0  0  0
   -0.3040   -0.2450    0.0000 N   0  0  0  0  0  0  0  0  0  0  0  0
    0.4460   -1.5440    0.0000 C   0  0  0  0  0  0  0  0  0  0  0  0
  2  1  1  1  0  0  0
  2  3  1  0  0  0  0
  2  8  1  0  0  0  0
  3  4  1  1  0  0  0
  3  5  1  0  0  0  0
  5  6  1  0  0  0  0
  6  7  1  0  0  0  0
  7  8  1  0  0  0  0
  8  9  1  1  0  0  0
  8 10  1  6  0  0  0
M  END
>  <name>
O[C@@H]1[C@H](C)O[C;ether]C[C@@]1(N)C

>  <apo>
1

>  <freq>
1

>  <freq0>
0

>  <freq1>
1

>  <freqA>
0.99887151

>  <a_count>
25

$$$$

  MOE2015           2D

 13 14  0  0  1  0  0  0  0  0999 V2000
    6.9740    1.8690    0.0000 O   0  0  0  0  0  0  0  0  0  0  0  0
    5.6750    1.1190    0.0000 C   0  0  2  0  0  0  0  0  0  0  0  0
    5.6750   -0.3810    0.0000 C   0  0  2  0  0  0  0  0  0  0  0  0
    6.9740   -1.1310    0.0000 O   0  0  0  0  0  0  0  0  0  0  0  0
    4.3760   -1.1310    0.0000 C   0  0  0  0  0  0  0  0  0  0  0  0
    3.0770   -0.3810    0.0000 C   0  0  0  0  0  0  0  0  0  0  0  0
    3.0770    1.1190    0.0000 C   0  0  0  0  0  0  0  0  0  0  0  0
    1.7780    1.8690    0.0000 C   0  0  0  0  0  0  0  0  0  0  0  0
    1.7780    3.3690    0.0000 O   0  0  0  0  0  0  0  0  0  0  0  0
    0.4790    1.1190    0.0000 C   0  0  0  0  0  0  0  0  0  0  0  0
    0.4790   -0.3810    0.0000 C   0  0  0  0  0  0  0  0  0  0  0  0
    1.7780   -1.1310    0.0000 C   0  0  0  0  0  0  0  0  0  0  0  0
    4.3760    1.8690    0.0000 C   0  0  0  0  0  0  0  0  0  0  0  0
  2  1  1  6  0  0  0
  2  3  1  0  0  0  0
  2 13  1  0  0  0  0
  3  4  1  6  0  0  0
  3  5  1  0  0  0  0
  5  6  1  0  0  0  0
  6  7  2  0  0  0  0
  6 12  1  0  0  0  0
  7  8  1  0  0  0  0
  7 13  1  0  0  0  0
  8  9  1  0  0  0  0
  8 10  2  0  0  0  0
 10 11  1  0  0  0  0
 11 12  2  0  0  0  0
M  END
>  <name>
O[C@@H]1[C@H](O)Cc2c(c([O;ether])ccc2)C1

>  <apo>
1

>  <freq>
1

>  <freq0>
0

>  <freq1>
1

>  <freqA>
0.99887151

>  <a_count>
25

$$$$

  MOE2015           2D

 11 11  0  0  1  0  0  0  0  0999 V2000
    7.5680   -4.3690    0.0000 O   0  0  0  0  0  0  0  0  0  0  0  0
    6.8180   -3.0700    0.0000 C   0  0  2  0  0  0  0  0  0  0  0  0
    5.3180   -3.0700    0.0000 C   0  0  0  0  0  0  0  0  0  0  0  0
    4.5680   -1.7710    0.0000 C   0  0  0  0  0  0  0  0  0  0  0  0
    3.0680   -1.7710    0.0000 C   0  0  0  0  0  0  0  0  0  0  0  0
    2.3180   -0.4720    0.0000 C   0  0  0  0  0  0  0  0  0  0  0  0
    0.8180   -0.4720    0.0000 C   0  0  0  0  0  0  0  0  0  0  0  0
    0.0680   -1.7710    0.0000 C   0  0  0  0  0  0  0  0  0  0  0  0
    0.8180   -3.0700    0.0000 C   0  0  0  0  0  0  0  0  0  0  0  0
    2.3180   -3.0700    0.0000 C   0  0  0  0  0  0  0  0  0  0  0  0
    7.5680   -1.7710    0.0000 C   0  0  0  0  0  0  0  0  0  0  0  0
  2  1  1  6  0  0  0
  2  3  1  0  0  0  0
  2 11  1  0  0  0  0
  3  4  1  0  0  0  0
  4  5  1  0  0  0  0
  5  6  1  0  0  0  0
  5 10  2  0  0  0  0
  6  7  2  0  0  0  0
  7  8  1  0  0  0  0
  8  9  2  0  0  0  0
  9 10  1  0  0  0  0
M  END
>  <name>
O[C@H](CCc1ccccc1)[C;olefin]

>  <apo>
1

>  <freq>
1

>  <freq0>
0

>  <freq1>
1

>  <freqA>
0.99887151

>  <a_count>
25

$$$$

  MOE2015           2D

 11 10  0  0  1  0  0  0  0  0999 V2000
    0.1560   -0.1560    0.0000 O   0  0  0  0  0  0  0  0  0  0  0  0
    0.1560    1.3440    0.0000 C   0  0  2  0  0  0  0  0  0  0  0  0
    1.4550    2.0940    0.0000 C   0  0  2  0  0  0  0  0  0  0  0  0
    1.4550    3.5940    0.0000 O   0  0  0  0  0  0  0  0  0  0  0  0
    2.7540    1.3440    0.0000 C   0  0  0  0  0  0  0  0  0  0  0  0
    4.0530    2.0940    0.0000 C   0  0  1  0  0  0  0  0  0  0  0  0
    4.0530    3.5940    0.0000 O   0  0  0  0  0  0  0  0  0  0  0  0
    5.3520    1.3440    0.0000 C   0  0  0  0  0  0  0  0  0  0  0  0
    6.6510    2.0940    0.0000 O   0  0  0  0  0  0  0  0  0  0  0  0
   -1.1430    2.0940    0.0000 C   0  0  0  0  0  0  0  0  0  0  0  0
   -2.4420    1.3440    0.0000 O   0  0  0  0  0  0  0  0  0  0  0  0
  2  1  1  1  0  0  0
  2  3  1  0  0  0  0
  2 10  1  0  0  0  0
  3  4  1  6  0  0  0
  3  5  1  0  0  0  0
  5  6  1  0  0  0  0
  6  7  1  1  0  0  0
  6  8  1  0  0  0  0
  8  9  1  0  0  0  0
 10 11  1  0  0  0  0
M  END
>  <name>
O[C@H]([C@H](O)[C;ether][C@@H](O)CO)CO

>  <apo>
1

>  <freq>
1

>  <freq0>
0

>  <freq1>
1

>  <freqA>
0.99887151

>  <a_count>
25

$$$$

  MOE2015           2D

 10 10  0  0  1  0  0  0  0  0999 V2000
    2.4950   -2.4950    0.0000 O   0  0  0  0  0  0  0  0  0  0  0  0
    2.4950   -0.9950    0.0000 C   0  0  1  0  0  0  0  0  0  0  0  0
    3.7940   -0.2450    0.0000 C   0  0  2  0  0  0  0  0  0  0  0  0
    5.0930   -0.9950    0.0000 C   0  0  0  0  0  0  0  0  0  0  0  0
    3.7940    1.2550    0.0000 O   0  0  0  0  0  0  0  0  0  0  0  0
    2.4950    2.0050    0.0000 C   0  0  0  0  0  0  0  0  0  0  0  0
    1.1960    1.2550    0.0000 C   0  0  0  0  0  0  0  0  0  0  0  0
    1.1960   -0.2450    0.0000 C   0  0  2  0  0  0  0  0  0  0  0  0
   -0.3040   -0.2450    0.0000 N   0  0  0  0  0  0  0  0  0  0  0  0
    0.4460   -1.5440    0.0000 C   0  0  0  0  0  0  0  0  0  0  0  0
  2  1  1  6  0  0  0
  2  3  1  0  0  0  0
  2  8  1  0  0  0  0
  3  4  1  1  0  0  0
  3  5  1  0  0  0  0
  5  6  1  0  0  0  0
  6  7  1  0  0  0  0
  7  8  1  0  0  0  0
  8  9  1  1  0  0  0
  8 10  1  6  0  0  0
M  END
>  <name>
O[C@H]1[C@H](C)O[C;ether]C[C@@]1(N)C

>  <apo>
1

>  <freq>
1

>  <freq0>
0

>  <freq1>
1

>  <freqA>
0.99887151

>  <a_count>
25

$$$$

  MOE2015           2D

 11 11  0  0  1  0  0  0  0  0999 V2000
    4.4450    2.5660    0.0000 O   0  0  0  0  0  0  0  0  0  0  0  0
    3.6950    1.2670    0.0000 C   0  0  1  0  0  0  0  0  0  0  0  0
    2.1950    1.2670    0.0000 C   0  0  2  0  0  0  0  0  0  0  0  0
    1.4450    2.5660    0.0000 O   0  0  0  0  0  0  0  0  0  0  0  0
    1.4450   -0.0320    0.0000 C   0  0  0  0  0  0  0  0  0  0  0  0
    0.1460    0.7180    0.0000 C   0  0  0  0  0  0  0  0  0  0  0  0
    0.1460   -0.7820    0.0000 C   0  0  0  0  0  0  0  0  0  0  0  0
    2.1950   -1.3310    0.0000 O   0  0  0  0  0  0  0  0  0  0  0  0
    3.6950   -1.3310    0.0000 C   0  0  0  0  0  0  0  0  0  0  0  0
    4.4450   -0.0320    0.0000 C   0  0  2  0  0  0  0  0  0  0  0  0
    5.9450   -0.0320    0.0000 O   0  0  0  0  0  0  0  0  0  0  0  0
  2  1  1  6  0  0  0
  2  3  1  0  0  0  0
  2 10  1  0  0  0  0
  3  4  1  1  0  0  0
  3  5  1  0  0  0  0
  5  6  1  0  0  0  0
  5  7  1  0  0  0  0
  5  8  1  0  0  0  0
  8  9  1  0  0  0  0
  9 10  1  0  0  0  0
 10 11  1  1  0  0  0
M  END
>  <name>
O[C@H]1[C@H]([O;ester])C(C)(C)O[C;ether][C@@H]1O

>  <apo>
2

>  <freq>
1

>  <freq0>
0

>  <freq1>
1

>  <freqA>
0.99887151

>  <a_count>
25

$$$$

  MOE2015           2D

 11 11  0  0  0  0  0  0  0  0999 V2000
    0.3480   -1.3000    0.0000 O   0  0  0  0  0  0  0  0  0  0  0  0
    1.6470   -0.5500    0.0000 C   0  0  0  0  0  0  0  0  0  0  0  0
    2.9470   -1.3000    0.0000 C   0  0  0  0  0  0  0  0  0  0  0  0
    4.2460   -0.5500    0.0000 C   0  0  0  0  0  0  0  0  0  0  0  0
    4.2460    0.9500    0.0000 C   0  0  0  0  0  0  0  0  0  0  0  0
    5.5450    1.7000    0.0000 C   0  0  0  0  0  0  0  0  0  0  0  0
    6.8440    0.9500    0.0000 C   0  0  0  0  0  0  0  0  0  0  0  0
    8.1430    1.7000    0.0000 C   0  0  0  0  0  0  0  0  0  0  0  0
    9.4420    0.9500    0.0000 C   0  0  0  0  0  0  0  0  0  0  0  0
    2.9470    1.7000    0.0000 C   0  0  0  0  0  0  0  0  0  0  0  0
    1.6470    0.9500    0.0000 C   0  0  0  0  0  0  0  0  0  0  0  0
  1  2  1  0  0  0  0
  2  3  1  0  0  0  0
  2 11  2  0  0  0  0
  3  4  2  0  0  0  0
  4  5  1  0  0  0  0
  5  6  1  0  0  0  0
  5 10  2  0  0  0  0
  6  7  1  0  0  0  0
  7  8  1  0  0  0  0
  8  9  1  0  0  0  0
 10 11  1  0  0  0  0
M  END
>  <name>
Oc1ccc(CCC[C;amine])cc1

>  <apo>
1

>  <freq>
1

>  <freq0>
0

>  <freq1>
1

>  <freqA>
0.99887151

>  <a_count>
25

$$$$

  MOE2015           2D

 11 11  0  0  0  0  0  0  0  0999 V2000
    0.3480   -1.3000    0.0000 O   0  0  0  0  0  0  0  0  0  0  0  0
    1.6470   -0.5500    0.0000 C   0  0  0  0  0  0  0  0  0  0  0  0
    2.9470   -1.3000    0.0000 C   0  0  0  0  0  0  0  0  0  0  0  0
    4.2460   -0.5500    0.0000 C   0  0  0  0  0  0  0  0  0  0  0  0
    4.2460    0.9500    0.0000 C   0  0  0  0  0  0  0  0  0  0  0  0
    5.5450    1.7000    0.0000 C   0  0  0  0  0  0  0  0  0  0  0  0
    6.8440    0.9500    0.0000 C   0  0  0  0  0  0  0  0  0  0  0  0
    8.1430    1.7000    0.0000 C   0  0  0  0  0  0  0  0  0  0  0  0
    9.4420    0.9500    0.0000 C   0  0  0  0  0  0  0  0  0  0  0  0
    2.9470    1.7000    0.0000 C   0  0  0  0  0  0  0  0  0  0  0  0
    1.6470    0.9500    0.0000 C   0  0  0  0  0  0  0  0  0  0  0  0
  1  2  1  0  0  0  0
  2  3  1  0  0  0  0
  2 11  2  0  0  0  0
  3  4  2  0  0  0  0
  4  5  1  0  0  0  0
  5  6  1  0  0  0  0
  5 10  2  0  0  0  0
  6  7  1  0  0  0  0
  7  8  1  0  0  0  0
  8  9  1  0  0  0  0
 10 11  1  0  0  0  0
M  END
>  <name>
Oc1ccc(CC[C;amine]C)cc1

>  <apo>
1

>  <freq>
1

>  <freq0>
0

>  <freq1>
1

>  <freqA>
0.99887151

>  <a_count>
25

$$$$

  MOE2015           2D

 12 12  0  0  1  0  0  0  0  0999 V2000
    1.7200   -1.4870    0.0000 S   0  0  0  0  0  0  0  0  0  0  0  0
    0.9870   -2.7960    0.0000 O   0  0  0  0  0  0  0  0  0  0  0  0
    2.4540   -0.1790    0.0000 O   0  0  0  0  0  0  0  0  0  0  0  0
    3.0290   -2.2210    0.0000 C   0  0  0  0  0  0  0  0  0  0  0  0
    4.3180   -1.4550    0.0000 C   0  0  0  0  0  0  0  0  0  0  0  0
    0.4120   -0.7540    0.0000 C   0  0  1  0  0  0  0  0  0  0  0  0
   -0.9500   -1.3810    0.0000 C   0  0  2  0  0  0  0  0  0  0  0  0
   -1.2440   -2.8520    0.0000 C   0  0  0  0  0  0  0  0  0  0  0  0
   -2.6650   -3.3330    0.0000 O   0  0  0  0  0  0  0  0  0  0  0  0
   -1.9680   -0.2790    0.0000 N   0  0  0  0  0  0  0  0  0  0  0  0
   -1.2340    1.0300    0.0000 C   0  0  0  0  0  0  0  0  0  0  0  0
    0.2370    0.7360    0.0000 C   0  0  0  0  0  0  0  0  0  0  0  0
  1  2  2  0  0  0  0
  1  3  2  0  0  0  0
  1  4  1  0  0  0  0
  6  1  1  1  0  0  0
  4  5  1  0  0  0  0
  6  7  1  0  0  0  0
  6 12  1  0  0  0  0
  7  8  1  6  0  0  0
  7 10  1  0  0  0  0
  8  9  2  0  0  0  0
 10 11  1  0  0  0  0
 11 12  1  0  0  0  0
M  END
>  <name>
S(=O)(=O)(C[C;amine])[C@H]1[C@H]([C;ester]=O)[N;amide]CC1

>  <apo>
3

>  <freq>
1

>  <freq0>
0

>  <freq1>
1

>  <freqA>
0.99887151

>  <a_count>
25

$$$$

  MOE2015           2D

 15 15  0  0  1  0  0  0  0  0999 V2000
   -0.9350    1.4110    0.0000 S   0  0  0  0  0  0  0  0  0  0  0  0
    0.3640    0.6610    0.0000 O   0  0  0  0  0  0  0  0  0  0  0  0
   -2.2340    2.1610    0.0000 O   0  0  0  0  0  0  0  0  0  0  0  0
   -0.1850    2.7100    0.0000 O   0  0  0  0  0  0  0  0  0  0  0  0
    1.3150    2.7100    0.0000 C   0  0  1  0  0  0  0  0  0  0  0  0
    2.0650    4.0090    0.0000 C   0  0  1  0  0  0  0  0  0  0  0  0
    1.3150    5.3080    0.0000 O   0  0  0  0  0  0  0  0  0  0  0  0
    3.5650    4.0090    0.0000 C   0  0  0  0  0  0  0  0  0  0  0  0
    4.3150    2.7100    0.0000 C   0  0  2  0  0  0  0  0  0  0  0  0
    5.8150    2.7100    0.0000 C   0  0  0  0  0  0  0  0  0  0  0  0
    6.5650    4.0090    0.0000 O   0  0  0  0  0  0  0  0  0  0  0  0
    6.5650    1.4110    0.0000 O   0  0  0  0  0  0  0  0  0  0  0  0
    3.5650    1.4110    0.0000 O   0  0  0  0  0  0  0  0  0  0  0  0
    2.0650    1.4110    0.0000 C   0  0  0  0  0  0  0  0  0  0  0  0
   -1.6850    0.1120    0.0000 O   0  0  0  0  0  0  0  0  0  0  0  0
  1  2  2  0  0  0  0
  1  3  2  0  0  0  0
  1  4  1  0  0  0  0
  1 15  1  0  0  0  0
  5  4  1  1  0  0  0
  5  6  1  0  0  0  0
  5 14  1  0  0  0  0
  6  7  1  1  0  0  0
  6  8  1  0  0  0  0
  8  9  1  0  0  0  0
  9 10  1  6  0  0  0
  9 13  1  0  0  0  0
 10 11  2  0  0  0  0
 10 12  1  0  0  0  0
 13 14  1  0  0  0  0
M  END
>  <name>
S(=O)(=O)(O[C@H]1[C@@H](O)[C;ether][C@H](C(=O)O)O[C;ether]1)O

>  <apo>
2

>  <freq>
1

>  <freq0>
0

>  <freq1>
1

>  <freqA>
0.99887151

>  <a_count>
25

$$$$

  MOE2015           2D

 15 16  0  0  0  0  0  0  0  0999 V2000
   -0.1700    0.1680    0.0000 S   0  0  0  0  0  0  0  0  0  0  0  0
   -0.1800    1.6680    0.0000 O   0  0  0  0  0  0  0  0  0  0  0  0
   -0.1600   -1.3310    0.0000 O   0  0  0  0  0  0  0  0  0  0  0  0
    1.3300    0.1780    0.0000 N   0  0  0  0  0  0  0  0  0  0  0  0
    2.2200   -1.0290    0.0000 C   0  0  0  0  0  0  0  0  0  0  0  0
    3.6440   -0.5560    0.0000 C   0  0  0  0  0  0  0  0  0  0  0  0
    4.8630   -1.4300    0.0000 C   0  0  0  0  0  0  0  0  0  0  0  0
    3.6340    0.9440    0.0000 C   0  0  0  0  0  0  0  0  0  0  0  0
    2.2040    1.3980    0.0000 C   0  0  0  0  0  0  0  0  0  0  0  0
   -1.6700    0.1590    0.0000 C   0  0  0  0  0  0  0  0  0  0  0  0
   -2.4280    1.4530    0.0000 C   0  0  0  0  0  0  0  0  0  0  0  0
   -3.9280    1.4430    0.0000 N   0  0  0  0  0  0  0  0  0  0  0  0
   -4.6700    0.1390    0.0000 C   0  0  0  0  0  0  0  0  0  0  0  0
   -3.9110   -1.1550    0.0000 C   0  0  0  0  0  0  0  0  0  0  0  0
   -2.4110   -1.1450    0.0000 C   0  0  0  0  0  0  0  0  0  0  0  0
  1  2  2  0  0  0  0
  1  3  2  0  0  0  0
  1  4  1  0  0  0  0
  1 10  1  0  0  0  0
  4  5  1  0  0  0  0
  4  9  1  0  0  0  0
  5  6  2  0  0  0  0
  6  7  1  0  0  0  0
  6  8  1  0  0  0  0
  8  9  2  0  0  0  0
 10 11  1  0  0  0  0
 10 15  2  0  0  0  0
 11 12  2  0  0  0  0
 12 13  1  0  0  0  0
 13 14  2  0  0  0  0
 14 15  1  0  0  0  0
M  END
>  <name>
S(=O)(=O)(n1cc([C;amine])c[c;biphenyl]1)c1cnccc1

>  <apo>
2

>  <freq>
1

>  <freq0>
0

>  <freq1>
1

>  <freqA>
0.99887151

>  <a_count>
25

$$$$

  MOE2015           2D

 13 14  0  0  0  0  0  0  0  0999 V2000
    0.6920   -2.5840    0.0000 C   0  0  0  0  0  0  0  0  0  0  0  0
   -0.6070   -1.8340    0.0000 C   0  0  0  0  0  0  0  0  0  0  0  0
   -1.9060   -2.5840    0.0000 C   0  0  0  0  0  0  0  0  0  0  0  0
   -3.2050   -1.8340    0.0000 C   0  0  0  0  0  0  0  0  0  0  0  0
   -3.2050   -0.3340    0.0000 C   0  0  0  0  0  0  0  0  0  0  0  0
   -1.9060    0.4160    0.0000 C   0  0  0  0  0  0  0  0  0  0  0  0
   -0.6070   -0.3340    0.0000 C   0  0  0  0  0  0  0  0  0  0  0  0
    1.9910   -1.8340    0.0000 C   0  0  0  0  0  0  0  0  0  0  0  0
    1.9910   -0.3340    0.0000 C   0  0  0  0  0  0  0  0  0  0  0  0
    3.2900    0.4160    0.0000 C   0  0  0  0  0  0  0  0  0  0  0  0
    4.5890   -0.3340    0.0000 C   0  0  0  0  0  0  0  0  0  0  0  0
    4.5890   -1.8340    0.0000 C   0  0  0  0  0  0  0  0  0  0  0  0
    3.2900   -2.5840    0.0000 C   0  0  0  0  0  0  0  0  0  0  0  0
  1  2  1  0  0  0  0
  1  8  1  0  0  0  0
  2  3  1  0  0  0  0
  2  7  2  0  0  0  0
  3  4  2  0  0  0  0
  4  5  1  0  0  0  0
  5  6  2  0  0  0  0
  6  7  1  0  0  0  0
  8  9  1  0  0  0  0
  8 13  2  0  0  0  0
  9 10  2  0  0  0  0
 10 11  1  0  0  0  0
 11 12  2  0  0  0  0
 12 13  1  0  0  0  0
M  END
>  <name>
[C;NaroC](c1cc[c;biphenyl]cc1)c1ccccc1

>  <apo>
2

>  <freq>
1

>  <freq0>
0

>  <freq1>
1

>  <freqA>
0.99887151

>  <a_count>
25

$$$$

  MOE2015           2D

 13 14  0  0  0  0  0  0  0  0999 V2000
    0.4320    0.1160    0.0000 C   0  0  0  0  0  0  0  0  0  0  0  0
   -0.8670   -0.6340    0.0000 C   0  0  0  0  0  0  0  0  0  0  0  0
   -2.2380   -0.0240    0.0000 C   0  0  0  0  0  0  0  0  0  0  0  0
   -2.5490    1.4430    0.0000 C   0  0  0  0  0  0  0  0  0  0  0  0
   -3.2410   -1.1390    0.0000 C   0  0  0  0  0  0  0  0  0  0  0  0
   -2.4910   -2.4380    0.0000 C   0  0  0  0  0  0  0  0  0  0  0  0
   -1.0240   -2.1260    0.0000 S   0  0  0  0  0  0  0  0  0  0  0  0
    1.7310   -0.6340    0.0000 C   0  0  0  0  0  0  0  0  0  0  0  0
    3.1010   -0.0240    0.0000 C   0  0  0  0  0  0  0  0  0  0  0  0
    3.4130    1.4430    0.0000 C   0  0  0  0  0  0  0  0  0  0  0  0
    4.1050   -1.1390    0.0000 C   0  0  0  0  0  0  0  0  0  0  0  0
    3.3550   -2.4380    0.0000 C   0  0  0  0  0  0  0  0  0  0  0  0
    1.8880   -2.1260    0.0000 S   0  0  0  0  0  0  0  0  0  0  0  0
  1  2  1  0  0  0  0
  1  8  1  0  0  0  0
  2  3  2  0  0  0  0
  2  7  1  0  0  0  0
  3  4  1  0  0  0  0
  3  5  1  0  0  0  0
  5  6  2  0  0  0  0
  6  7  1  0  0  0  0
  8  9  2  0  0  0  0
  8 13  1  0  0  0  0
  9 10  1  0  0  0  0
  9 11  1  0  0  0  0
 11 12  2  0  0  0  0
 12 13  1  0  0  0  0
M  END
>  <name>
[C;olefin](c1c(C)ccs1)c1c(C)ccs1

>  <apo>
1

>  <freq>
1

>  <freq0>
0

>  <freq1>
1

>  <freqA>
0.99887151

>  <a_count>
25

$$$$

  MOE2015           2D

 12 14  0  0  1  0  0  0  0  0999 V2000
    0.2190    0.2730    0.0000 C   0  0  1  0  0  0  0  0  0  0  0  0
    1.7120    0.1340    0.0000 C   0  0  0  0  0  0  0  0  0  0  0  0
    2.4780   -1.1560    0.0000 N   0  0  0  0  0  0  0  0  0  0  0  0
    3.9410   -0.8260    0.0000 C   0  0  0  0  0  0  0  0  0  0  0  0
    4.0800    0.6670    0.0000 C   0  0  0  0  0  0  0  0  0  0  0  0
    2.7020    1.2610    0.0000 N   0  0  0  0  0  0  0  0  0  0  0  0
   -0.5470    1.5630    0.0000 N   0  0  0  0  0  0  0  0  0  0  0  0
   -2.0100    1.2340    0.0000 C   0  0  0  0  0  0  0  0  0  0  0  0
   -2.1490   -0.2600    0.0000 C   0  0  0  0  0  0  0  0  0  0  0  0
   -0.7720   -0.8530    0.0000 C   0  0  0  0  0  0  0  0  0  0  0  0
   -3.6490   -0.2780    0.0000 C   0  0  0  0  0  0  0  0  0  0  0  0
   -2.8840   -1.5680    0.0000 C   0  0  0  0  0  0  0  0  0  0  0  0
  1  2  1  6  0  0  0
  1  7  1  0  0  0  0
  1 10  1  0  0  0  0
  2  3  1  0  0  0  0
  2  6  2  0  0  0  0
  3  4  1  0  0  0  0
  4  5  2  0  0  0  0
  5  6  1  0  0  0  0
  7  8  1  0  0  0  0
  8  9  1  0  0  0  0
  9 10  1  0  0  0  0
  9 11  1  0  0  0  0
  9 12  1  0  0  0  0
 11 12  1  0  0  0  0
M  END
>  <name>
[C@H]1(c2[nH]c[c;biphenyl]n2)[N;amide]CC2(C1)CC2

>  <apo>
2

>  <freq>
1

>  <freq0>
0

>  <freq1>
1

>  <freqA>
0.99887151

>  <a_count>
25

$$$$

  MOE2015           2D

  9  9  0  0  1  0  0  0  0  0999 V2000
    7.5040    2.0110    0.0000 N   0  0  0  0  0  0  0  0  0  0  0  0
    6.2050    1.2610    0.0000 C   0  0  0  0  0  0  0  0  0  0  0  0
    4.9060    2.0110    0.0000 C   0  0  0  0  0  0  0  0  0  0  0  0
    3.6070    1.2610    0.0000 C   0  0  3  0  0  0  0  0  0  0  0  0
    2.2360    1.8710    0.0000 N   0  0  0  0  0  0  0  0  0  0  0  0
    1.9250    3.3380    0.0000 C   0  0  0  0  0  0  0  0  0  0  0  0
    1.2330    0.7560    0.0000 C   0  0  0  0  0  0  0  0  0  0  0  0
    1.9830   -0.5430    0.0000 C   0  0  0  0  0  0  0  0  0  0  0  0
    3.4500   -0.2310    0.0000 C   0  0  0  0  0  0  0  0  0  0  0  0
  1  2  1  0  0  0  0
  2  3  1  0  0  0  0
  3  4  1  0  0  0  0
  4  5  1  0  0  0  0
  4  9  1  0  0  0  0
  5  6  1  0  0  0  0
  5  7  1  0  0  0  0
  7  8  1  0  0  0  0
  8  9  1  0  0  0  0
M  END
>  <name>
[N;so2amide]CCC1N(C)CCC1

>  <apo>
1

>  <freq>
1

>  <freq0>
0

>  <freq1>
1

>  <freqA>
0.99887151

>  <a_count>
25

$$$$

  MOE2015           2D

 11 13  0  0  1  0  0  0  0  0999 V2000
   -0.2280   -0.8210    0.0000 O   0  0  0  0  0  0  0  0  0  0  0  0
    1.0590   -1.5930    0.0000 C   0  0  0  0  0  0  0  0  0  0  0  0
    2.2780   -1.8230    0.0000 C   0  0  0  0  0  0  0  0  0  0  0  0
    3.8460   -0.9530    0.0000 C   0  0  2  0  0  0  0  0  0  0  0  0
    4.7910   -2.1420    0.0000 N   0  3  0  0  0  0  0  0  0  0  0  0
    6.0860   -2.8990    0.0000 C   0  0  0  0  0  0  0  0  0  0  0  0
    3.4930   -1.9320    0.0000 C   0  0  1  0  0  0  0  0  0  0  0  0
    3.3780   -0.4970    0.0000 C   0  0  1  0  0  0  0  0  0  0  0  0
    2.5610    0.6870    0.0000 O   0  0  0  0  0  0  0  0  0  0  0  0
    4.0410    0.6610    0.0000 C   0  0  1  0  0  0  0  0  0  0  0  0
    2.0130   -2.7840    0.0000 C   0  0  0  0  0  0  0  0  0  0  0  0
  1  2  1  0  0  0  0
  2  3  1  0  0  0  0
  2 11  1  0  0  0  0
  4  3  1  1  0  0  0
  4  5  1  0  0  0  0
  4 10  1  0  0  0  0
  5  6  1  0  0  0  0
  7  5  1  6  0  0  0
  7  8  1  0  0  0  0
  7 11  1  0  0  0  0
  8  9  1  1  0  0  0
  8 10  1  0  0  0  0
 10  9  1  1  0  0  0
M  CHG  1   5   1
M  END
>  <name>
[O;ester]C1C[C@@H]2[N+;quatN](C)[C@@H]([C@H]3O[C@@H]23)C1

>  <apo>
2

>  <freq>
1

>  <freq0>
0

>  <freq1>
1

>  <freqA>
0.99887151

>  <a_count>
25

$$$$

  MOE2015           2D

  9  9  0  0  1  0  0  0  0  0999 V2000
    5.8260   -0.4840    0.0000 O   0  0  0  0  0  0  0  0  0  0  0  0
    4.5270    0.2660    0.0000 C   0  0  3  0  0  0  0  0  0  0  0  0
    3.2280   -0.4840    0.0000 C   0  0  0  0  0  0  0  0  0  0  0  0
    1.9290    0.2660    0.0000 N   0  3  0  0  0  0  0  0  0  0  0  0
    0.4290    0.2660    0.0000 C   0  0  0  0  0  0  0  0  0  0  0  0
    1.1790   -1.0330    0.0000 C   0  0  0  0  0  0  0  0  0  0  0  0
    1.9290    1.7660    0.0000 C   0  0  0  0  0  0  0  0  0  0  0  0
    3.2280    2.5160    0.0000 C   0  0  0  0  0  0  0  0  0  0  0  0
    4.5270    1.7660    0.0000 C   0  0  0  0  0  0  0  0  0  0  0  0
  1  2  1  0  0  0  0
  2  3  1  0  0  0  0
  2  9  1  0  0  0  0
  3  4  1  0  0  0  0
  4  5  1  0  0  0  0
  4  6  1  0  0  0  0
  4  7  1  0  0  0  0
  7  8  1  0  0  0  0
  8  9  1  0  0  0  0
M  CHG  1   4   1
M  END
>  <name>
[O;ester]C1C[N+](C)(C)CCC1

>  <apo>
1

>  <freq>
1

>  <freq0>
0

>  <freq1>
1

>  <freqA>
0.99887151

>  <a_count>
25

$$$$

  MOE2015           2D

 11 11  0  0  1  0  0  0  0  0999 V2000
    6.6820   -2.5980    0.0000 O   0  0  0  0  0  0  0  0  0  0  0  0
    5.1820   -2.5980    0.0000 C   0  0  0  0  0  0  0  0  0  0  0  0
    4.4320   -1.2990    0.0000 C   0  0  3  0  0  0  0  0  0  0  0  0
    5.1820    0.0000    0.0000 C   0  0  0  0  0  0  0  0  0  0  0  0
    6.6820    0.0000    0.0000 C   0  0  0  0  0  0  0  0  0  0  0  0
    2.9320   -1.2990    0.0000 C   0  0  0  0  0  0  0  0  0  0  0  0
    2.1820   -2.5980    0.0000 C   0  0  0  0  0  0  0  0  0  0  0  0
    0.6820   -2.5980    0.0000 C   0  0  0  0  0  0  0  0  0  0  0  0
   -0.0680   -1.2990    0.0000 C   0  0  0  0  0  0  0  0  0  0  0  0
    0.6820    0.0000    0.0000 C   0  0  0  0  0  0  0  0  0  0  0  0
    2.1820    0.0000    0.0000 C   0  0  0  0  0  0  0  0  0  0  0  0
  1  2  1  0  0  0  0
  2  3  1  0  0  0  0
  3  4  1  0  0  0  0
  3  6  1  0  0  0  0
  4  5  1  0  0  0  0
  6  7  1  0  0  0  0
  6 11  2  0  0  0  0
  7  8  2  0  0  0  0
  8  9  1  0  0  0  0
  9 10  2  0  0  0  0
 10 11  1  0  0  0  0
M  END
>  <name>
[O;ester]C[C;amine](CC)c1ccccc1

>  <apo>
2

>  <freq>
1

>  <freq0>
0

>  <freq1>
1

>  <freqA>
0.99887151

>  <a_count>
25

$$$$

  MOE2015           2D

 14 15  0  0  0  0  0  0  0  0999 V2000
    9.7540   -2.6130    0.0000 Br  0  0  0  0  0  0  0  0  0  0  0  0
    8.4550   -1.8630    0.0000 C   0  0  0  0  0  0  0  0  0  0  0  0
    8.4550   -0.3630    0.0000 C   0  0  0  0  0  0  0  0  0  0  0  0
    7.1550    0.3870    0.0000 C   0  0  0  0  0  0  0  0  0  0  0  0
    5.8560   -0.3630    0.0000 C   0  0  0  0  0  0  0  0  0  0  0  0
    4.5570    0.3870    0.0000 C   0  0  0  0  0  0  0  0  0  0  0  0
    3.2580   -0.3630    0.0000 C   0  0  0  0  0  0  0  0  0  0  0  0
    3.2580   -1.8630    0.0000 C   0  0  0  0  0  0  0  0  0  0  0  0
    1.9590   -2.6130    0.0000 N   0  0  0  0  0  0  0  0  0  0  0  0
    0.6600   -1.8630    0.0000 C   0  0  0  0  0  0  0  0  0  0  0  0
    0.6600   -0.3630    0.0000 C   0  0  0  0  0  0  0  0  0  0  0  0
    1.9590    0.3870    0.0000 C   0  0  0  0  0  0  0  0  0  0  0  0
    5.8560   -1.8630    0.0000 C   0  0  0  0  0  0  0  0  0  0  0  0
    7.1550   -2.6130    0.0000 C   0  0  0  0  0  0  0  0  0  0  0  0
  1  2  1  0  0  0  0
  2  3  1  0  0  0  0
  2 14  2  0  0  0  0
  3  4  2  0  0  0  0
  4  5  1  0  0  0  0
  5  6  1  0  0  0  0
  5 13  2  0  0  0  0
  6  7  1  0  0  0  0
  7  8  1  0  0  0  0
  7 12  2  0  0  0  0
  8  9  2  0  0  0  0
  9 10  1  0  0  0  0
 10 11  2  0  0  0  0
 11 12  1  0  0  0  0
 13 14  1  0  0  0  0
M  END
>  <name>
Brc1ccc([C;olefin]c2cnccc2)cc1

>  <apo>
1

>  <freq>
1

>  <freq0>
0

>  <freq1>
1

>  <freqA>
0.99887151

>  <a_count>
24

$$$$

  MOE2015           2D

 10 10  0  0  0  0  0  0  0  0999 V2000
    0.1950   -1.1760    0.0000 C   0  0  0  0  0  0  0  0  0  0  0  0
    1.4840   -1.9430    0.0000 C   0  0  0  0  0  0  0  0  0  0  0  0
    2.7930   -1.2100    0.0000 C   0  0  0  0  0  0  0  0  0  0  0  0
   -1.1140   -1.9090    0.0000 C   0  0  0  0  0  0  0  0  0  0  0  0
   -2.4030   -1.1420    0.0000 C   0  0  0  0  0  0  0  0  0  0  0  0
   -3.7810   -1.7330    0.0000 N   0  0  0  0  0  0  0  0  0  0  0  0
   -4.7700   -0.6060    0.0000 C   0  0  0  0  0  0  0  0  0  0  0  0
   -6.2640   -0.7430    0.0000 C   0  0  0  0  0  0  0  0  0  0  0  0
   -4.0030    0.6830    0.0000 C   0  0  0  0  0  0  0  0  0  0  0  0
   -2.5400    0.3520    0.0000 N   0  0  0  0  0  0  0  0  0  0  0  0
  1  2  1  0  0  0  0
  1  4  1  0  0  0  0
  2  3  1  0  0  0  0
  4  5  1  0  0  0  0
  5  6  1  0  0  0  0
  5 10  2  0  0  0  0
  6  7  1  0  0  0  0
  7  8  1  0  0  0  0
  7  9  2  0  0  0  0
  9 10  1  0  0  0  0
M  END
>  <name>
C(CC)Cc1[nH;NaroC]c([C;olefin])cn1

>  <apo>
2

>  <freq>
1

>  <freq0>
0

>  <freq1>
1

>  <freqA>
0.99887151

>  <a_count>
24

$$$$

  MOE2015           2D

 10 10  0  0  0  0  0  0  0  0999 V2000
    0.1280    0.4790    0.0000 C   0  0  0  0  0  0  0  0  0  0  0  0
    1.4270   -0.2710    0.0000 C   0  0  0  0  0  0  0  0  0  0  0  0
    2.7270    0.4790    0.0000 C   0  0  0  0  0  0  0  0  0  0  0  0
   -1.1710   -0.2710    0.0000 C   0  0  0  0  0  0  0  0  0  0  0  0
   -2.4700    0.4790    0.0000 C   0  0  0  0  0  0  0  0  0  0  0  0
   -2.4700    1.9790    0.0000 C   0  0  0  0  0  0  0  0  0  0  0  0
   -3.7690    2.7290    0.0000 C   0  0  0  0  0  0  0  0  0  0  0  0
   -5.0680    1.9790    0.0000 C   0  0  0  0  0  0  0  0  0  0  0  0
   -5.0680    0.4790    0.0000 C   0  0  0  0  0  0  0  0  0  0  0  0
   -3.7690   -0.2710    0.0000 C   0  0  0  0  0  0  0  0  0  0  0  0
  1  2  1  0  0  0  0
  1  4  1  0  0  0  0
  2  3  1  0  0  0  0
  4  5  1  0  0  0  0
  5  6  1  0  0  0  0
  5 10  2  0  0  0  0
  6  7  2  0  0  0  0
  7  8  1  0  0  0  0
  8  9  2  0  0  0  0
  9 10  1  0  0  0  0
M  END
>  <name>
C(C[C;ether])Cc1ccccc1

>  <apo>
1

>  <freq>
1

>  <freq0>
0

>  <freq1>
1

>  <freqA>
0.99887151

>  <a_count>
24

$$$$

  MOE2015           2D

 11 12  0  0  0  0  0  0  0  0999 V2000
    0.4500   -2.7300    0.0000 C   0  0  0  0  0  0  0  0  0  0  0  0
    1.8710   -2.2490    0.0000 C   0  0  0  0  0  0  0  0  0  0  0  0
   -0.6770   -1.7410    0.0000 C   0  0  0  0  0  0  0  0  0  0  0  0
   -2.1400   -2.0710    0.0000 N   0  0  0  0  0  0  0  0  0  0  0  0
   -2.9070   -0.7810    0.0000 C   0  0  0  0  0  0  0  0  0  0  0  0
   -1.9170    0.3460    0.0000 N   0  0  0  0  0  0  0  0  0  0  0  0
   -0.5390   -0.2470    0.0000 N   0  0  0  0  0  0  0  0  0  0  0  0
   -4.4060   -0.8000    0.0000 C   0  0  0  0  0  0  0  0  0  0  0  0
   -5.1400   -2.1080    0.0000 C   0  0  0  0  0  0  0  0  0  0  0  0
   -4.3740   -3.3980    0.0000 C   0  0  0  0  0  0  0  0  0  0  0  0
   -2.8740   -3.3790    0.0000 C   0  0  0  0  0  0  0  0  0  0  0  0
  1  2  1  0  0  0  0
  1  3  1  0  0  0  0
  3  4  1  0  0  0  0
  3  7  2  0  0  0  0
  4  5  1  0  0  0  0
  4 11  1  0  0  0  0
  5  6  2  0  0  0  0
  5  8  1  0  0  0  0
  6  7  1  0  0  0  0
  8  9  1  0  0  0  0
  9 10  1  0  0  0  0
 10 11  1  0  0  0  0
M  END
>  <name>
C([C;amine])c1n2c(nn1)CCCC2

>  <apo>
1

>  <freq>
1

>  <freq0>
0

>  <freq1>
1

>  <freqA>
0.99887151

>  <a_count>
24

$$$$

  MOE2015           2D

  9 10  0  0  1  0  0  0  0  0999 V2000
    5.6150   -1.4990    0.0000 C   0  0  0  0  0  0  0  0  0  0  0  0
    4.3150   -0.7510    0.0000 N   0  0  0  0  0  0  0  0  0  0  0  0
    3.0150   -0.5520    0.0000 C   0  0  1  0  0  0  0  0  0  0  0  0
    2.8910    0.8820    0.0000 C   0  0  0  0  0  0  0  0  0  0  0  0
    3.5450    2.0450    0.0000 C   0  0  0  0  0  0  0  0  0  0  0  0
    3.3600    0.4300    0.0000 C   0  0  2  0  0  0  0  0  0  0  0  0
    1.7980   -0.4520    0.0000 C   0  0  0  0  0  0  0  0  0  0  0  0
    0.5770   -0.2320    0.0000 C   0  0  0  0  0  0  0  0  0  0  0  0
    1.5420   -1.4140    0.0000 C   0  0  0  0  0  0  0  0  0  0  0  0
  1  2  1  0  0  0  0
  3  2  1  6  0  0  0
  2  6  1  0  0  0  0
  3  4  1  0  0  0  0
  3  9  1  0  0  0  0
  4  5  1  0  0  0  0
  5  6  1  0  0  0  0
  6  7  1  1  0  0  0
  7  8  1  0  0  0  0
  8  9  1  0  0  0  0
M  END
>  <name>
CN1[C@H]2CC[C@@H]1C[C;ether]C2

>  <apo>
1

>  <freq>
1

>  <freq0>
0

>  <freq1>
1

>  <freqA>
0.99887151

>  <a_count>
24

$$$$

  MOE2015           2D

  9 10  0  0  1  0  0  0  0  0999 V2000
    5.6150   -1.4990    0.0000 C   0  0  0  0  0  0  0  0  0  0  0  0
    4.3150   -0.7510    0.0000 N   0  0  0  0  0  0  0  0  0  0  0  0
    3.0150   -0.5520    0.0000 C   0  0  1  0  0  0  0  0  0  0  0  0
    2.8910    0.8820    0.0000 C   0  0  0  0  0  0  0  0  0  0  0  0
    3.5450    2.0450    0.0000 C   0  0  0  0  0  0  0  0  0  0  0  0
    3.3600    0.4300    0.0000 C   0  0  2  0  0  0  0  0  0  0  0  0
    1.7980   -0.4520    0.0000 C   0  0  0  0  0  0  0  0  0  0  0  0
    0.5770   -0.2320    0.0000 C   0  0  0  0  0  0  0  0  0  0  0  0
    1.5420   -1.4140    0.0000 C   0  0  0  0  0  0  0  0  0  0  0  0
  1  2  1  0  0  0  0
  3  2  1  6  0  0  0
  2  6  1  0  0  0  0
  3  4  1  0  0  0  0
  3  9  1  0  0  0  0
  4  5  1  0  0  0  0
  5  6  1  0  0  0  0
  6  7  1  1  0  0  0
  7  8  1  0  0  0  0
  8  9  1  0  0  0  0
M  END
>  <name>
CN1[C@H]2CC[C@@H]1C[C;thioether]C2

>  <apo>
1

>  <freq>
1

>  <freq0>
0

>  <freq1>
1

>  <freqA>
0.99887151

>  <a_count>
24

$$$$

  MOE2015           2D

  8  8  0  0  0  0  0  0  0  0999 V2000
    4.2920    1.1500    0.0000 C   0  0  0  0  0  0  0  0  0  0  0  0
    2.9930    0.4000    0.0000 N   0  3  0  0  0  0  0  0  0  0  0  0
    4.2920   -0.3500    0.0000 C   0  0  0  0  0  0  0  0  0  0  0  0
    2.2430    1.6990    0.0000 C   0  0  0  0  0  0  0  0  0  0  0  0
    0.7430    1.6990    0.0000 C   0  0  0  0  0  0  0  0  0  0  0  0
   -0.0070    0.4000    0.0000 C   0  0  0  0  0  0  0  0  0  0  0  0
    0.7430   -0.8990    0.0000 C   0  0  0  0  0  0  0  0  0  0  0  0
    2.2430   -0.8990    0.0000 C   0  0  0  0  0  0  0  0  0  0  0  0
  1  2  1  0  0  0  0
  2  3  1  0  0  0  0
  2  4  1  0  0  0  0
  2  8  1  0  0  0  0
  4  5  1  0  0  0  0
  5  6  1  0  0  0  0
  6  7  1  0  0  0  0
  7  8  1  0  0  0  0
M  CHG  1   2   1
M  END
>  <name>
C[N+]1(C)CC[C;olefin]CC1

>  <apo>
1

>  <freq>
1

>  <freq0>
0

>  <freq1>
1

>  <freqA>
0.99887151

>  <a_count>
24

$$$$

  MOE2015           2D

 16 17  0  0  0  0  0  0  0  0999 V2000
    8.3720   -0.9440    0.0000 Cl  0  0  0  0  0  0  0  0  0  0  0  0
    7.0730   -0.1940    0.0000 C   0  0  0  0  0  0  0  0  0  0  0  0
    5.7740   -0.9440    0.0000 C   0  0  0  0  0  0  0  0  0  0  0  0
    5.7740   -2.4440    0.0000 O   0  0  0  0  0  0  0  0  0  0  0  0
    4.4750   -0.1940    0.0000 C   0  0  0  0  0  0  0  0  0  0  0  0
    3.1760   -0.9440    0.0000 N   0  0  0  0  0  0  0  0  0  0  0  0
    1.8770   -0.1940    0.0000 C   0  0  0  0  0  0  0  0  0  0  0  0
    0.5780   -0.9440    0.0000 C   0  0  0  0  0  0  0  0  0  0  0  0
    1.8770    1.3060    0.0000 N   0  0  0  0  0  0  0  0  0  0  0  0
    0.5780    2.0560    0.0000 C   0  0  0  0  0  0  0  0  0  0  0  0
    3.1760    2.0560    0.0000 C   0  0  0  0  0  0  0  0  0  0  0  0
    3.1760    3.5560    0.0000 O   0  0  0  0  0  0  0  0  0  0  0  0
    4.4750    1.3060    0.0000 C   0  0  0  0  0  0  0  0  0  0  0  0
    5.7740    2.0560    0.0000 C   0  0  0  0  0  0  0  0  0  0  0  0
    5.7740    3.5560    0.0000 Cl  0  0  0  0  0  0  0  0  0  0  0  0
    7.0730    1.3060    0.0000 C   0  0  0  0  0  0  0  0  0  0  0  0
  1  2  1  0  0  0  0
  2  3  1  0  0  0  0
  2 16  2  0  0  0  0
  3  4  1  0  0  0  0
  3  5  2  0  0  0  0
  5  6  1  0  0  0  0
  5 13  1  0  0  0  0
  6  7  2  0  0  0  0
  7  8  1  0  0  0  0
  7  9  1  0  0  0  0
  9 10  1  0  0  0  0
  9 11  1  0  0  0  0
 11 12  2  0  0  0  0
 11 13  1  0  0  0  0
 13 14  2  0  0  0  0
 14 15  1  0  0  0  0
 14 16  1  0  0  0  0
M  END
>  <name>
Clc1c(O)c2N=C([C;amine])N(C)C(=O)c2c(Cl)c1

>  <apo>
1

>  <freq>
1

>  <freq0>
0

>  <freq1>
1

>  <freqA>
0.99887151

>  <a_count>
24

$$$$

  MOE2015           2D

 11 11  0  0  0  0  0  0  0  0999 V2000
    0.3480   -1.3000    0.0000 Cl  0  0  0  0  0  0  0  0  0  0  0  0
    1.6470   -0.5500    0.0000 C   0  0  0  0  0  0  0  0  0  0  0  0
    2.9470   -1.3000    0.0000 C   0  0  0  0  0  0  0  0  0  0  0  0
    4.2460   -0.5500    0.0000 C   0  0  0  0  0  0  0  0  0  0  0  0
    4.2460    0.9500    0.0000 C   0  0  0  0  0  0  0  0  0  0  0  0
    5.5450    1.7000    0.0000 C   0  0  0  0  0  0  0  0  0  0  0  0
    6.8440    0.9500    0.0000 C   0  0  0  0  0  0  0  0  0  0  0  0
    8.1430    1.7000    0.0000 C   0  0  0  0  0  0  0  0  0  0  0  0
    9.4420    0.9500    0.0000 C   0  0  0  0  0  0  0  0  0  0  0  0
    2.9470    1.7000    0.0000 C   0  0  0  0  0  0  0  0  0  0  0  0
    1.6470    0.9500    0.0000 C   0  0  0  0  0  0  0  0  0  0  0  0
  1  2  1  0  0  0  0
  2  3  1  0  0  0  0
  2 11  2  0  0  0  0
  3  4  2  0  0  0  0
  4  5  1  0  0  0  0
  5  6  1  0  0  0  0
  5 10  2  0  0  0  0
  6  7  1  0  0  0  0
  7  8  1  0  0  0  0
  8  9  1  0  0  0  0
 10 11  1  0  0  0  0
M  END
>  <name>
Clc1ccc(CC[C;thioether][C;NaroC])cc1

>  <apo>
2

>  <freq>
1

>  <freq0>
0

>  <freq1>
1

>  <freqA>
0.99887151

>  <a_count>
24

$$$$

  MOE2015           2D

 13 13  0  0  0  0  0  0  0  0999 V2000
   -1.1490   -1.9890    0.0000 F   0  0  0  0  0  0  0  0  0  0  0  0
   -0.3990   -3.2880    0.0000 C   0  0  0  0  0  0  0  0  0  0  0  0
    0.3510   -4.5870    0.0000 F   0  0  0  0  0  0  0  0  0  0  0  0
   -1.6980   -4.0380    0.0000 F   0  0  0  0  0  0  0  0  0  0  0  0
    0.9000   -2.5380    0.0000 C   0  0  0  0  0  0  0  0  0  0  0  0
    2.1990   -3.2880    0.0000 C   0  0  0  0  0  0  0  0  0  0  0  0
    3.4990   -2.5380    0.0000 C   0  0  0  0  0  0  0  0  0  0  0  0
    4.7980   -3.2880    0.0000 C   0  0  0  0  0  0  0  0  0  0  0  0
    6.0970   -2.5380    0.0000 C   0  0  0  0  0  0  0  0  0  0  0  0
    7.3960   -3.2880    0.0000 C   0  0  0  0  0  0  0  0  0  0  0  0
    3.4990   -1.0380    0.0000 C   0  0  0  0  0  0  0  0  0  0  0  0
    2.1990   -0.2880    0.0000 C   0  0  0  0  0  0  0  0  0  0  0  0
    0.9000   -1.0380    0.0000 C   0  0  0  0  0  0  0  0  0  0  0  0
  1  2  1  0  0  0  0
  2  3  1  0  0  0  0
  2  4  1  0  0  0  0
  2  5  1  0  0  0  0
  5  6  1  0  0  0  0
  5 13  2  0  0  0  0
  6  7  2  0  0  0  0
  7  8  1  0  0  0  0
  7 11  1  0  0  0  0
  8  9  1  0  0  0  0
  9 10  1  0  0  0  0
 11 12  2  0  0  0  0
 12 13  1  0  0  0  0
M  END
>  <name>
FC(F)(F)c1cc(CC[C;amine])ccc1

>  <apo>
1

>  <freq>
1

>  <freq0>
0

>  <freq1>
1

>  <freqA>
0.99887151

>  <a_count>
24

$$$$

  MOE2015           2D

 13 14  0  0  0  0  0  0  0  0999 V2000
    0.0360    4.3790    0.0000 F   0  0  0  0  0  0  0  0  0  0  0  0
    0.0360    2.8790    0.0000 C   0  0  0  0  0  0  0  0  0  0  0  0
    1.3350    2.1290    0.0000 C   0  0  0  0  0  0  0  0  0  0  0  0
    2.6340    2.8790    0.0000 C   0  0  0  0  0  0  0  0  0  0  0  0
    3.9330    2.1290    0.0000 C   0  0  0  0  0  0  0  0  0  0  0  0
    3.9330    0.6290    0.0000 O   0  0  0  0  0  0  0  0  0  0  0  0
    5.2320    2.8790    0.0000 C   0  0  0  0  0  0  0  0  0  0  0  0
    6.7320    2.8790    0.0000 C   0  0  0  0  0  0  0  0  0  0  0  0
    5.9820    4.1780    0.0000 C   0  0  0  0  0  0  0  0  0  0  0  0
    1.3350    0.6290    0.0000 C   0  0  0  0  0  0  0  0  0  0  0  0
    0.0360   -0.1210    0.0000 C   0  0  0  0  0  0  0  0  0  0  0  0
   -1.2630    0.6290    0.0000 C   0  0  0  0  0  0  0  0  0  0  0  0
   -1.2630    2.1290    0.0000 C   0  0  0  0  0  0  0  0  0  0  0  0
  1  2  1  0  0  0  0
  2  3  1  0  0  0  0
  2 13  2  0  0  0  0
  3  4  1  0  0  0  0
  3 10  2  0  0  0  0
  4  5  1  0  0  0  0
  5  6  2  0  0  0  0
  5  7  1  0  0  0  0
  7  8  1  0  0  0  0
  7  9  1  0  0  0  0
  8  9  1  0  0  0  0
 10 11  1  0  0  0  0
 11 12  2  0  0  0  0
 12 13  1  0  0  0  0
M  END
>  <name>
Fc1c([C;amine]C(=O)C2CC2)cccc1

>  <apo>
1

>  <freq>
1

>  <freq0>
0

>  <freq1>
1

>  <freqA>
0.99887151

>  <a_count>
24

$$$$

  MOE2015           2D

 13 14  0  0  1  0  0  0  0  0999 V2000
    0.4560   -0.7490    0.0000 F   0  0  0  0  0  0  0  0  0  0  0  0
    1.1450    0.5830    0.0000 C   0  0  0  0  0  0  0  0  0  0  0  0
    2.6430    0.6530    0.0000 C   0  0  0  0  0  0  0  0  0  0  0  0
    3.3320    1.9860    0.0000 C   0  0  0  0  0  0  0  0  0  0  0  0
    4.8300    2.0550    0.0000 C   0  0  2  0  0  0  0  0  0  0  0  0
    4.3750    3.4850    0.0000 C   0  0  0  0  0  0  0  0  0  0  0  0
    6.3250    1.9290    0.0000 C   0  0  2  0  0  0  0  0  0  0  0  0
    7.6830    2.5670    0.0000 C   0  0  0  0  0  0  0  0  0  0  0  0
    8.9140    1.7100    0.0000 O   0  0  0  0  0  0  0  0  0  0  0  0
    5.4680    0.6980    0.0000 C   0  0  0  0  0  0  0  0  0  0  0  0
    2.5220    3.2480    0.0000 C   0  0  0  0  0  0  0  0  0  0  0  0
    1.0240    3.1780    0.0000 C   0  0  0  0  0  0  0  0  0  0  0  0
    0.3350    1.8460    0.0000 C   0  0  0  0  0  0  0  0  0  0  0  0
  1  2  1  0  0  0  0
  2  3  2  0  0  0  0
  2 13  1  0  0  0  0
  3  4  1  0  0  0  0
  5  4  1  6  0  0  0
  4 11  2  0  0  0  0
  5  6  1  1  0  0  0
  5  7  1  0  0  0  0
  5 10  1  0  0  0  0
  7  8  1  6  0  0  0
  7 10  1  0  0  0  0
  8  9  2  0  0  0  0
 11 12  1  0  0  0  0
 12 13  2  0  0  0  0
M  END
>  <name>
Fc1cc([C@]2([C;ether])[C@H]([C;amide]=O)C2)ccc1

>  <apo>
2

>  <freq>
1

>  <freq0>
0

>  <freq1>
1

>  <freqA>
0.99887151

>  <a_count>
24

$$$$

  MOE2015           2D

 15 17  0  0  0  0  0  0  0  0999 V2000
    8.0030   -2.2190    0.0000 F   0  0  0  0  0  0  0  0  0  0  0  0
    6.7170   -1.4470    0.0000 C   0  0  0  0  0  0  0  0  0  0  0  0
    6.7430    0.0530    0.0000 C   0  0  0  0  0  0  0  0  0  0  0  0
    5.4570    0.8260    0.0000 C   0  0  0  0  0  0  0  0  0  0  0  0
    5.1550    2.2960    0.0000 N   0  0  0  0  0  0  0  0  0  0  0  0
    3.6650    2.4660    0.0000 C   0  0  0  0  0  0  0  0  0  0  0  0
    3.0420    1.0990    0.0000 C   0  0  0  0  0  0  0  0  0  0  0  0
    4.1480    0.0950    0.0000 C   0  0  0  0  0  0  0  0  0  0  0  0
    4.1200   -1.4000    0.0000 C   0  0  0  0  0  0  0  0  0  0  0  0
    2.9030   -2.2910    0.0000 C   0  0  0  0  0  0  0  0  0  0  0  0
    3.1660   -3.7680    0.0000 O   0  0  0  0  0  0  0  0  0  0  0  0
    1.4610   -1.8780    0.0000 N   0  0  0  0  0  0  0  0  0  0  0  0
    0.8710   -0.5030    0.0000 C   0  0  0  0  0  0  0  0  0  0  0  0
    1.5580    0.8300    0.0000 C   0  0  0  0  0  0  0  0  0  0  0  0
    5.4060   -2.1730    0.0000 C   0  0  0  0  0  0  0  0  0  0  0  0
  1  2  1  0  0  0  0
  2  3  1  0  0  0  0
  2 15  2  0  0  0  0
  3  4  2  0  0  0  0
  4  5  1  0  0  0  0
  4  8  1  0  0  0  0
  5  6  1  0  0  0  0
  6  7  2  0  0  0  0
  7  8  1  0  0  0  0
  7 14  1  0  0  0  0
  8  9  2  0  0  0  0
  9 10  1  0  0  0  0
  9 15  1  0  0  0  0
 10 11  2  0  0  0  0
 10 12  1  0  0  0  0
 12 13  1  0  0  0  0
 13 14  1  0  0  0  0
M  END
>  <name>
Fc1cc2[nH][c;biphenyl]c3c2c(C(=O)NCC3)c1

>  <apo>
1

>  <freq>
1

>  <freq0>
0

>  <freq1>
1

>  <freqA>
0.99887151

>  <a_count>
24

$$$$

  MOE2015           2D

 15 16  0  0  0  0  0  0  0  0999 V2000
    0.0040   -0.0140    0.0000 F   0  0  0  0  0  0  0  0  0  0  0  0
    1.3030    0.7360    0.0000 C   0  0  0  0  0  0  0  0  0  0  0  0
    2.6020   -0.0140    0.0000 C   0  0  0  0  0  0  0  0  0  0  0  0
    3.9010    0.7360    0.0000 N   0  0  0  0  0  0  0  0  0  0  0  0
    3.9010    2.2360    0.0000 C   0  0  0  0  0  0  0  0  0  0  0  0
    5.2000    2.9860    0.0000 N   0  0  0  0  0  0  0  0  0  0  0  0
    6.4990    2.2360    0.0000 C   0  0  0  0  0  0  0  0  0  0  0  0
    6.4990    0.7360    0.0000 N   0  0  0  0  0  0  0  0  0  0  0  0
    7.7980   -0.0140    0.0000 C   0  0  0  0  0  0  0  0  0  0  0  0
    9.0970    0.7360    0.0000 C   0  0  0  0  0  0  0  0  0  0  0  0
   10.3960   -0.0140    0.0000 C   0  0  0  0  0  0  0  0  0  0  0  0
    9.0970    2.2360    0.0000 C   0  0  0  0  0  0  0  0  0  0  0  0
    7.7980    2.9860    0.0000 C   0  0  0  0  0  0  0  0  0  0  0  0
    2.6020    2.9860    0.0000 N   0  0  0  0  0  0  0  0  0  0  0  0
    1.3030    2.2360    0.0000 C   0  0  0  0  0  0  0  0  0  0  0  0
  1  2  1  0  0  0  0
  2  3  1  0  0  0  0
  2 15  2  0  0  0  0
  3  4  2  0  0  0  0
  4  5  1  0  0  0  0
  5  6  1  0  0  0  0
  5 14  2  0  0  0  0
  6  7  1  0  0  0  0
  7  8  1  0  0  0  0
  7 13  2  0  0  0  0
  8  9  2  0  0  0  0
  9 10  1  0  0  0  0
 10 11  1  0  0  0  0
 10 12  2  0  0  0  0
 12 13  1  0  0  0  0
 14 15  1  0  0  0  0
M  END
>  <name>
Fc1cnc(Nc2ncc([C;amine])cc2)n[c;biphenyl]1

>  <apo>
2

>  <freq>
1

>  <freq0>
0

>  <freq1>
1

>  <freqA>
0.99887151

>  <a_count>
24

$$$$

  MOE2015           2D

 16 18  0  0  0  0  0  0  0  0999 V2000
   11.7640   -3.1520    0.0000 N   0  0  0  0  0  0  0  0  0  0  0  0
   10.4650   -2.4020    0.0000 C   0  0  0  0  0  0  0  0  0  0  0  0
    9.1660   -1.6520    0.0000 C   0  0  0  0  0  0  0  0  0  0  0  0
    7.8670   -2.4020    0.0000 C   0  0  0  0  0  0  0  0  0  0  0  0
    6.5680   -1.6520    0.0000 C   0  0  0  0  0  0  0  0  0  0  0  0
    5.2690   -2.4020    0.0000 N   0  0  0  0  0  0  0  0  0  0  0  0
    3.9700   -1.6520    0.0000 C   0  0  0  0  0  0  0  0  0  0  0  0
    3.9700   -0.1520    0.0000 C   0  0  0  0  0  0  0  0  0  0  0  0
    5.2690    0.5980    0.0000 S   0  0  0  0  0  0  0  0  0  0  0  0
    6.5680   -0.1520    0.0000 C   0  0  0  0  0  0  0  0  0  0  0  0
    7.8670    0.5980    0.0000 C   0  0  0  0  0  0  0  0  0  0  0  0
    9.1660   -0.1520    0.0000 C   0  0  0  0  0  0  0  0  0  0  0  0
    2.6710    0.5980    0.0000 C   0  0  0  0  0  0  0  0  0  0  0  0
    1.3720   -0.1520    0.0000 C   0  0  0  0  0  0  0  0  0  0  0  0
    1.3720   -1.6520    0.0000 C   0  0  0  0  0  0  0  0  0  0  0  0
    2.6710   -2.4020    0.0000 C   0  0  0  0  0  0  0  0  0  0  0  0
  1  2  3  0  0  0  0
  2  3  1  0  0  0  0
  3  4  1  0  0  0  0
  3 12  2  0  0  0  0
  4  5  2  0  0  0  0
  5  6  1  0  0  0  0
  5 10  1  0  0  0  0
  6  7  1  0  0  0  0
  7  8  1  0  0  0  0
  7 16  2  0  0  0  0
  8  9  1  0  0  0  0
  8 13  2  0  0  0  0
  9 10  1  0  0  0  0
 10 11  2  0  0  0  0
 11 12  1  0  0  0  0
 13 14  1  0  0  0  0
 14 15  2  0  0  0  0
 15 16  1  0  0  0  0
M  END
>  <name>
N#Cc1cc2[N;amine]c3c(Sc2cc1)cccc3

>  <apo>
1

>  <freq>
1

>  <freq0>
0

>  <freq1>
1

>  <freqA>
0.99887151

>  <a_count>
24

$$$$

  MOE2015           2D

 12 13  0  0  0  0  0  0  0  0999 V2000
   -0.3750   -0.6500    0.0000 N   0  0  0  0  0  0  0  0  0  0  0  0
    1.1250   -0.6500    0.0000 C   0  0  0  0  0  0  0  0  0  0  0  0
    1.8750   -1.9490    0.0000 N   0  0  0  0  0  0  0  0  0  0  0  0
    3.3750   -1.9490    0.0000 C   0  0  0  0  0  0  0  0  0  0  0  0
    4.1250   -0.6500    0.0000 C   0  0  0  0  0  0  0  0  0  0  0  0
    3.3750    0.6500    0.0000 C   0  0  0  0  0  0  0  0  0  0  0  0
    1.8750    0.6500    0.0000 N   0  0  0  0  0  0  0  0  0  0  0  0
   -1.1250    0.6500    0.0000 C   0  0  0  0  0  0  0  0  0  0  0  0
   -2.6250    0.6500    0.0000 C   0  0  0  0  0  0  0  0  0  0  0  0
   -3.3750   -0.6500    0.0000 N   0  0  0  0  0  0  0  0  0  0  0  0
   -2.6250   -1.9490    0.0000 C   0  0  0  0  0  0  0  0  0  0  0  0
   -1.1250   -1.9490    0.0000 C   0  0  0  0  0  0  0  0  0  0  0  0
  1  2  1  0  0  0  0
  1  8  1  0  0  0  0
  1 12  1  0  0  0  0
  2  3  1  0  0  0  0
  2  7  2  0  0  0  0
  3  4  2  0  0  0  0
  4  5  1  0  0  0  0
  5  6  2  0  0  0  0
  6  7  1  0  0  0  0
  8  9  1  0  0  0  0
  9 10  1  0  0  0  0
 10 11  1  0  0  0  0
 11 12  1  0  0  0  0
M  END
>  <name>
N1(c2ncccn2)CC[N;amine]CC1

>  <apo>
1

>  <freq>
1

>  <freq0>
0

>  <freq1>
1

>  <freqA>
0.99887151

>  <a_count>
24

$$$$

  MOE2015           2D

  9  9  0  0  1  0  0  0  0  0999 V2000
    0.0000    0.0000    0.0000 N   0  0  0  0  0  0  0  0  0  0  0  0
    1.5000    0.0000    0.0000 C   0  0  1  0  0  0  0  0  0  0  0  0
    2.2500    1.2990    0.0000 C   0  0  0  0  0  0  0  0  0  0  0  0
    3.7500    1.2990    0.0000 O   0  0  0  0  0  0  0  0  0  0  0  0
    4.5000    0.0000    0.0000 C   0  0  1  0  0  0  0  0  0  0  0  0
    6.0000    0.0000    0.0000 C   0  0  0  0  0  0  0  0  0  0  0  0
    6.7500   -1.2990    0.0000 C   0  0  0  0  0  0  0  0  0  0  0  0
    3.7500   -1.2990    0.0000 C   0  0  0  0  0  0  0  0  0  0  0  0
    2.2500   -1.2990    0.0000 C   0  0  0  0  0  0  0  0  0  0  0  0
  2  1  1  1  0  0  0
  2  3  1  0  0  0  0
  2  9  1  0  0  0  0
  3  4  1  0  0  0  0
  4  5  1  0  0  0  0
  5  6  1  1  0  0  0
  5  8  1  0  0  0  0
  6  7  1  0  0  0  0
  8  9  1  0  0  0  0
M  END
>  <name>
N[C@H]1[C;ether]O[C@@H]([C;amine]C)CC1

>  <apo>
2

>  <freq>
1

>  <freq0>
0

>  <freq1>
1

>  <freqA>
0.99887151

>  <a_count>
24

$$$$

  MOE2015           2D

 13 13  0  0  1  0  0  0  0  0999 V2000
   -0.0910    4.7060    0.0000 O   0  0  0  0  0  0  0  0  0  0  0  0
   -0.0910    3.2060    0.0000 C   0  0  0  0  0  0  0  0  0  0  0  0
   -1.3900    2.4560    0.0000 N   0  0  0  0  0  0  0  0  0  0  0  0
    1.2090    2.4560    0.0000 C   0  0  0  0  0  0  0  0  0  0  0  0
    1.2090    0.9560    0.0000 C   0  0  0  0  0  0  0  0  0  0  0  0
   -0.0910    0.2060    0.0000 O   0  0  0  0  0  0  0  0  0  0  0  0
    2.5080    0.2060    0.0000 C   0  0  0  0  0  0  0  0  0  0  0  0
    3.8070    0.9560    0.0000 C   0  0  0  0  0  0  0  0  0  0  0  0
    3.8070    2.4560    0.0000 C   0  0  0  0  0  0  0  0  0  0  0  0
    5.1060    3.2060    0.0000 C   0  0  3  0  0  0  0  0  0  0  0  0
    5.1060    4.7060    0.0000 O   0  0  0  0  0  0  0  0  0  0  0  0
    6.4050    2.4560    0.0000 C   0  0  0  0  0  0  0  0  0  0  0  0
    2.5080    3.2060    0.0000 C   0  0  0  0  0  0  0  0  0  0  0  0
  1  2  2  0  0  0  0
  2  3  1  0  0  0  0
  2  4  1  0  0  0  0
  4  5  1  0  0  0  0
  4 13  2  0  0  0  0
  5  6  1  0  0  0  0
  5  7  2  0  0  0  0
  7  8  1  0  0  0  0
  8  9  2  0  0  0  0
  9 10  1  0  0  0  0
  9 13  1  0  0  0  0
 10 11  1  0  0  0  0
 10 12  1  0  0  0  0
M  END
>  <name>
O=C(N)c1c(O)ccc(C(O)[C;amine])c1

>  <apo>
1

>  <freq>
1

>  <freq0>
0

>  <freq1>
1

>  <freqA>
0.99887151

>  <a_count>
24

$$$$

  MOE2015           2D

 12 12  0  0  1  0  0  0  0  0999 V2000
    9.3220   -0.9660    0.0000 O   0  0  0  0  0  0  0  0  0  0  0  0
    8.0230   -1.7160    0.0000 C   0  0  0  0  0  0  0  0  0  0  0  0
    6.7240   -0.9660    0.0000 N   0  0  0  0  0  0  0  0  0  0  0  0
    5.4250   -1.7160    0.0000 N   0  0  0  0  0  0  0  0  0  0  0  0
    4.1260   -0.9660    0.0000 C   0  0  0  0  0  0  0  0  0  0  0  0
    4.1260    0.5340    0.0000 O   0  0  0  0  0  0  0  0  0  0  0  0
    2.8270   -1.7160    0.0000 C   0  0  1  0  0  0  0  0  0  0  0  0
    2.6700   -3.2080    0.0000 N   0  0  0  0  0  0  0  0  0  0  0  0
    1.2030   -3.5200    0.0000 C   0  0  0  0  0  0  0  0  0  0  0  0
    0.4530   -2.2210    0.0000 C   0  0  0  0  0  0  0  0  0  0  0  0
    1.4570   -1.1060    0.0000 C   0  0  0  0  0  0  0  0  0  0  0  0
    8.0230   -3.2160    0.0000 N   0  0  0  0  0  0  0  0  0  0  0  0
  1  2  2  0  0  0  0
  2  3  1  0  0  0  0
  2 12  1  0  0  0  0
  3  4  1  0  0  0  0
  4  5  1  0  0  0  0
  5  6  2  0  0  0  0
  7  5  1  1  0  0  0
  7  8  1  0  0  0  0
  7 11  1  0  0  0  0
  8  9  1  0  0  0  0
  9 10  1  0  0  0  0
 10 11  1  0  0  0  0
M  END
>  <name>
O=C(NNC(=O)[C@H]1[N;amide]CCC1)N

>  <apo>
1

>  <freq>
1

>  <freq0>
0

>  <freq1>
1

>  <freqA>
0.99887151

>  <a_count>
24

$$$$

  MOE2015           2D

 14 15  0  0  1  0  0  0  0  0999 V2000
    0.9240    5.0110    0.0000 O   0  0  0  0  0  0  0  0  0  0  0  0
    0.1740    3.7120    0.0000 C   0  0  0  0  0  0  0  0  0  0  0  0
   -1.3260    3.7120    0.0000 O   0  0  0  0  0  0  0  0  0  0  0  0
    0.9240    2.4120    0.0000 C   0  0  0  0  0  0  0  0  0  0  0  0
    0.1740    1.1130    0.0000 C   0  0  0  0  0  0  0  0  0  0  0  0
   -1.3260    1.1130    0.0000 C   0  0  0  0  0  0  0  0  0  0  0  0
    0.9240   -0.1860    0.0000 C   0  0  0  0  0  0  0  0  0  0  0  0
    2.4240   -0.1860    0.0000 S   0  0  0  0  0  0  0  0  0  0  0  0
    3.1740    1.1130    0.0000 C   0  0  2  0  0  0  0  0  0  0  0  0
    4.4730    1.8630    0.0000 C   0  0  2  0  0  0  0  0  0  0  0  0
    5.9220    1.4750    0.0000 N   0  0  0  0  0  0  0  0  0  0  0  0
    3.7230    3.1620    0.0000 C   0  0  0  0  0  0  0  0  0  0  0  0
    4.1110    4.6110    0.0000 O   0  0  0  0  0  0  0  0  0  0  0  0
    2.4240    2.4120    0.0000 N   0  0  0  0  0  0  0  0  0  0  0  0
  1  2  2  0  0  0  0
  2  3  1  0  0  0  0
  2  4  1  0  0  0  0
  4  5  2  0  0  0  0
  4 14  1  0  0  0  0
  5  6  1  0  0  0  0
  5  7  1  0  0  0  0
  7  8  1  0  0  0  0
  9  8  1  1  0  0  0
  9 10  1  0  0  0  0
  9 14  1  0  0  0  0
 10 11  1  1  0  0  0
 10 12  1  0  0  0  0
 12 13  2  0  0  0  0
 12 14  1  0  0  0  0
M  END
>  <name>
O=C(O)C1=C([C;ether])CS[C@@H]2[C@H]([N;amide])C(=O)N12

>  <apo>
2

>  <freq>
1

>  <freq0>
0

>  <freq1>
1

>  <freqA>
0.99887151

>  <a_count>
24

$$$$

  MOE2015           2D

 14 15  0  0  1  0  0  0  0  0999 V2000
    0.9240    5.0110    0.0000 O   0  0  0  0  0  0  0  0  0  0  0  0
    0.1740    3.7120    0.0000 C   0  0  0  0  0  0  0  0  0  0  0  0
   -1.3260    3.7120    0.0000 O   0  0  0  0  0  0  0  0  0  0  0  0
    0.9240    2.4120    0.0000 C   0  0  0  0  0  0  0  0  0  0  0  0
    0.1740    1.1130    0.0000 C   0  0  0  0  0  0  0  0  0  0  0  0
   -1.3260    1.1130    0.0000 C   0  0  0  0  0  0  0  0  0  0  0  0
    0.9240   -0.1860    0.0000 C   0  0  0  0  0  0  0  0  0  0  0  0
    2.4240   -0.1860    0.0000 O   0  0  0  0  0  0  0  0  0  0  0  0
    3.1740    1.1130    0.0000 C   0  0  2  0  0  0  0  0  0  0  0  0
    4.4730    1.8630    0.0000 C   0  0  1  0  0  0  0  0  0  0  0  0
    5.9220    1.4750    0.0000 N   0  0  0  0  0  0  0  0  0  0  0  0
    3.7230    3.1620    0.0000 C   0  0  0  0  0  0  0  0  0  0  0  0
    4.1110    4.6110    0.0000 O   0  0  0  0  0  0  0  0  0  0  0  0
    2.4240    2.4120    0.0000 N   0  0  0  0  0  0  0  0  0  0  0  0
  1  2  2  0  0  0  0
  2  3  1  0  0  0  0
  2  4  1  0  0  0  0
  4  5  2  0  0  0  0
  4 14  1  0  0  0  0
  5  6  1  0  0  0  0
  5  7  1  0  0  0  0
  7  8  1  0  0  0  0
  9  8  1  1  0  0  0
  9 10  1  0  0  0  0
  9 14  1  0  0  0  0
 10 11  1  6  0  0  0
 10 12  1  0  0  0  0
 12 13  2  0  0  0  0
 12 14  1  0  0  0  0
M  END
>  <name>
O=C(O)C1=C([C;thioether])CO[C@@H]2[C@@H;ether]([N;amide])C(=O)N12

>  <apo>
3

>  <freq>
1

>  <freq0>
0

>  <freq1>
1

>  <freqA>
0.99887151

>  <a_count>
24

$$$$

  MOE2015           2D

 12 12  0  0  1  0  0  0  0  0999 V2000
    8.7050   -0.1670    0.0000 O   0  0  0  0  0  0  0  0  0  0  0  0
    7.4060    0.5830    0.0000 C   0  0  0  0  0  0  0  0  0  0  0  0
    7.4060    2.0830    0.0000 O   0  0  0  0  0  0  0  0  0  0  0  0
    6.1070   -0.1670    0.0000 C   0  0  0  0  0  0  0  0  0  0  0  0
    4.8080    0.5830    0.0000 C   0  0  1  0  0  0  0  0  0  0  0  0
    3.5090   -0.1670    0.0000 O   0  0  0  0  0  0  0  0  0  0  0  0
    2.2100    0.5830    0.0000 B   0  0  0  0  0  0  0  0  0  0  0  0
    0.9110   -0.1670    0.0000 O   0  0  0  0  0  0  0  0  0  0  0  0
    2.2100    2.0830    0.0000 C   0  0  1  0  0  0  0  0  0  0  0  0
    0.9110    2.8330    0.0000 N   0  0  0  0  0  0  0  0  0  0  0  0
    3.5090    2.8330    0.0000 C   0  0  0  0  0  0  0  0  0  0  0  0
    4.8080    2.0830    0.0000 C   0  0  0  0  0  0  0  0  0  0  0  0
  1  2  2  0  0  0  0
  2  3  1  0  0  0  0
  2  4  1  0  0  0  0
  5  4  1  1  0  0  0
  5  6  1  0  0  0  0
  5 12  1  0  0  0  0
  6  7  1  0  0  0  0
  7  8  1  0  0  0  0
  7  9  1  0  0  0  0
  9 10  1  1  0  0  0
  9 11  1  0  0  0  0
 11 12  1  0  0  0  0
M  END
>  <name>
O=C(O)C[C@H]1OB(O)[C@@H]([N;amide])CC1

>  <apo>
1

>  <freq>
1

>  <freq0>
0

>  <freq1>
1

>  <freqA>
0.99887151

>  <a_count>
24

$$$$

  MOE2015           2D

 10  9  0  0  1  0  0  0  0  0999 V2000
   -0.3520   -1.3140    0.0000 O   0  0  0  0  0  0  0  0  0  0  0  0
    0.9470   -2.0640    0.0000 C   0  0  0  0  0  0  0  0  0  0  0  0
    0.9470   -3.5640    0.0000 O   0  0  0  0  0  0  0  0  0  0  0  0
    2.2460   -1.3140    0.0000 C   0  0  1  0  0  0  0  0  0  0  0  0
    2.2460    0.1860    0.0000 N   0  0  0  0  0  0  0  0  0  0  0  0
    3.5450   -2.0640    0.0000 C   0  0  0  0  0  0  0  0  0  0  0  0
    4.8440   -1.3140    0.0000 C   0  0  0  0  0  0  0  0  0  0  0  0
    6.1430   -2.0640    0.0000 C   0  0  0  0  0  0  0  0  0  0  0  0
    7.4420   -1.3140    0.0000 C   0  0  0  0  0  0  0  0  0  0  0  0
    8.7410   -2.0640    0.0000 N   0  0  0  0  0  0  0  0  0  0  0  0
  1  2  2  0  0  0  0
  2  3  1  0  0  0  0
  2  4  1  0  0  0  0
  4  5  1  1  0  0  0
  4  6  1  0  0  0  0
  6  7  1  0  0  0  0
  7  8  1  0  0  0  0
  8  9  1  0  0  0  0
  9 10  1  0  0  0  0
M  END
>  <name>
O=C(O)[C@@H]([N;amide])CCCCN

>  <apo>
1

>  <freq>
1

>  <freq0>
0

>  <freq1>
1

>  <freqA>
0.99887151

>  <a_count>
24

$$$$

  MOE2015           2D

 13 13  0  0  1  0  0  0  0  0999 V2000
    7.9620    0.6000    0.0000 O   0  0  0  0  0  0  0  0  0  0  0  0
    7.2120    1.8990    0.0000 C   0  0  0  0  0  0  0  0  0  0  0  0
    7.9620    3.1980    0.0000 O   0  0  0  0  0  0  0  0  0  0  0  0
    5.7120    1.8990    0.0000 C   0  0  1  0  0  0  0  0  0  0  0  0
    4.9620    0.6000    0.0000 N   0  0  0  0  0  0  0  0  0  0  0  0
    4.9620    3.1980    0.0000 C   0  0  0  0  0  0  0  0  0  0  0  0
    3.4620    3.1980    0.0000 C   0  0  0  0  0  0  0  0  0  0  0  0
    2.7120    1.8990    0.0000 C   0  0  0  0  0  0  0  0  0  0  0  0
    1.2120    1.8990    0.0000 C   0  0  0  0  0  0  0  0  0  0  0  0
    0.4620    3.1980    0.0000 C   0  0  0  0  0  0  0  0  0  0  0  0
   -1.0380    3.1980    0.0000 O   0  0  0  0  0  0  0  0  0  0  0  0
    1.2120    4.4970    0.0000 C   0  0  0  0  0  0  0  0  0  0  0  0
    2.7120    4.4970    0.0000 C   0  0  0  0  0  0  0  0  0  0  0  0
  1  2  2  0  0  0  0
  2  3  1  0  0  0  0
  2  4  1  0  0  0  0
  4  5  1  1  0  0  0
  4  6  1  0  0  0  0
  6  7  1  0  0  0  0
  7  8  1  0  0  0  0
  7 13  2  0  0  0  0
  8  9  2  0  0  0  0
  9 10  1  0  0  0  0
 10 11  1  0  0  0  0
 10 12  2  0  0  0  0
 12 13  1  0  0  0  0
M  END
>  <name>
O=C(O)[C@@H]([N;so2amide])Cc1ccc([O;ether])cc1

>  <apo>
2

>  <freq>
1

>  <freq0>
0

>  <freq1>
1

>  <freqA>
0.99887151

>  <a_count>
24

$$$$

  MOE2015           2D

 10  9  0  0  1  0  0  0  0  0999 V2000
   -0.3520   -1.3140    0.0000 O   0  0  0  0  0  0  0  0  0  0  0  0
    0.9470   -2.0640    0.0000 C   0  0  0  0  0  0  0  0  0  0  0  0
    0.9470   -3.5640    0.0000 O   0  0  0  0  0  0  0  0  0  0  0  0
    2.2460   -1.3140    0.0000 C   0  0  2  0  0  0  0  0  0  0  0  0
    2.2460    0.1860    0.0000 N   0  0  0  0  0  0  0  0  0  0  0  0
    3.5450   -2.0640    0.0000 C   0  0  0  0  0  0  0  0  0  0  0  0
    4.8440   -1.3140    0.0000 C   0  0  0  0  0  0  0  0  0  0  0  0
    6.1430   -2.0640    0.0000 C   0  0  0  0  0  0  0  0  0  0  0  0
    7.4420   -1.3140    0.0000 C   0  0  0  0  0  0  0  0  0  0  0  0
    8.7410   -2.0640    0.0000 N   0  0  0  0  0  0  0  0  0  0  0  0
  1  2  2  0  0  0  0
  2  3  1  0  0  0  0
  2  4  1  0  0  0  0
  4  5  1  6  0  0  0
  4  6  1  0  0  0  0
  6  7  1  0  0  0  0
  7  8  1  0  0  0  0
  8  9  1  0  0  0  0
  9 10  1  0  0  0  0
M  END
>  <name>
O=C(O)[C@H](N)CCCC[N;amide]

>  <apo>
1

>  <freq>
1

>  <freq0>
0

>  <freq1>
1

>  <freqA>
0.99887151

>  <a_count>
24

$$$$

  MOE2015           2D

 13 14  0  0  1  0  0  0  0  0999 V2000
    2.2940    1.0390    0.0000 O   0  0  0  0  0  0  0  0  0  0  0  0
    1.3040   -0.0890    0.0000 C   0  0  0  0  0  0  0  0  0  0  0  0
   -0.1670    0.2050    0.0000 O   0  0  0  0  0  0  0  0  0  0  0  0
    1.7860   -1.5090    0.0000 C   0  0  1  0  0  0  0  0  0  0  0  0
    0.9200   -2.7340    0.0000 C   0  0  0  0  0  0  0  0  0  0  0  0
   -0.3490   -3.5340    0.0000 C   0  0  0  0  0  0  0  0  0  0  0  0
   -0.3690   -1.9660    0.0000 C   0  0  0  0  0  0  0  0  0  0  0  0
    1.8170   -3.9360    0.0000 S   0  0  0  0  0  0  0  0  0  0  0  0
    3.2370   -3.4550    0.0000 C   0  0  1  0  0  0  0  0  0  0  0  0
    3.2180   -1.9550    0.0000 N   0  0  0  0  0  0  0  0  0  0  0  0
    4.7180   -1.9360    0.0000 C   0  0  0  0  0  0  0  0  0  0  0  0
    5.7650   -0.8620    0.0000 O   0  0  0  0  0  0  0  0  0  0  0  0
    4.7370   -3.4360    0.0000 C   0  0  0  0  0  0  0  0  0  0  0  0
  1  2  2  0  0  0  0
  2  3  1  0  0  0  0
  4  2  1  6  0  0  0
  4  5  1  0  0  0  0
  4 10  1  0  0  0  0
  5  6  1  0  0  0  0
  5  7  1  0  0  0  0
  5  8  1  0  0  0  0
  8  9  1  0  0  0  0
  9 10  1  0  0  0  0
  9 13  1  1  0  0  0
 10 11  1  0  0  0  0
 11 12  2  0  0  0  0
 11 13  1  0  0  0  0
M  END
>  <name>
O=C(O)[C@H]1C(C)(C)S[C@H]2N1C(=O)[C;lactam]2

>  <apo>
1

>  <freq>
1

>  <freq0>
0

>  <freq1>
1

>  <freqA>
0.99887151

>  <a_count>
24

$$$$

  MOE2015           2D

 13 14  0  0  1  0  0  0  0  0999 V2000
    5.4940    0.3020    0.0000 O   0  0  0  0  0  0  0  0  0  0  0  0
    5.4940    1.8020    0.0000 C   0  0  0  0  0  0  0  0  0  0  0  0
    6.7930    2.5520    0.0000 O   0  0  0  0  0  0  0  0  0  0  0  0
    4.1950    2.5520    0.0000 C   0  0  1  0  0  0  0  0  0  0  0  0
    4.1950    4.0520    0.0000 N   0  0  0  0  0  0  0  0  0  0  0  0
    2.8960    4.8020    0.0000 C   0  0  0  0  0  0  0  0  0  0  0  0
    1.5970    4.0520    0.0000 C   0  0  0  0  0  0  0  0  0  0  0  0
    1.5970    2.5520    0.0000 C   0  0  0  0  0  0  0  0  0  0  0  0
    0.2980    1.8020    0.0000 C   0  0  0  0  0  0  0  0  0  0  0  0
   -1.0010    2.5520    0.0000 C   0  0  0  0  0  0  0  0  0  0  0  0
   -1.0010    4.0520    0.0000 C   0  0  0  0  0  0  0  0  0  0  0  0
    0.2980    4.8020    0.0000 C   0  0  0  0  0  0  0  0  0  0  0  0
    2.8960    1.8020    0.0000 C   0  0  0  0  0  0  0  0  0  0  0  0
  1  2  2  0  0  0  0
  2  3  1  0  0  0  0
  4  2  1  6  0  0  0
  4  5  1  0  0  0  0
  4 13  1  0  0  0  0
  5  6  1  0  0  0  0
  6  7  1  0  0  0  0
  7  8  2  0  0  0  0
  7 12  1  0  0  0  0
  8  9  1  0  0  0  0
  8 13  1  0  0  0  0
  9 10  2  0  0  0  0
 10 11  1  0  0  0  0
 11 12  2  0  0  0  0
M  END
>  <name>
O=C(O)[C@H]1[N;amide]Cc2c(cccc2)C1

>  <apo>
1

>  <freq>
1

>  <freq0>
0

>  <freq1>
1

>  <freqA>
0.99887151

>  <a_count>
24

$$$$

  MOE2015           2D

 11 12  0  0  1  0  0  0  0  0999 V2000
    6.2000    0.9810    0.0000 O   0  0  0  0  0  0  0  0  0  0  0  0
    5.4500    2.2800    0.0000 C   0  0  0  0  0  0  0  0  0  0  0  0
    6.2000    3.5800    0.0000 O   0  0  0  0  0  0  0  0  0  0  0  0
    3.9500    2.2800    0.0000 C   0  0  1  0  0  0  0  0  0  0  0  0
    3.0680    3.4940    0.0000 N   0  0  0  0  0  0  0  0  0  0  0  0
    1.6420    3.0300    0.0000 C   0  0  2  0  0  0  0  0  0  0  0  0
    1.6420    1.5300    0.0000 C   0  0  2  0  0  0  0  0  0  0  0  0
    3.0680    1.0670    0.0000 C   0  0  0  0  0  0  0  0  0  0  0  0
    0.2150    1.0670    0.0000 C   0  0  0  0  0  0  0  0  0  0  0  0
   -0.6670    2.2800    0.0000 C   0  0  0  0  0  0  0  0  0  0  0  0
    0.2150    3.4940    0.0000 C   0  0  0  0  0  0  0  0  0  0  0  0
  1  2  2  0  0  0  0
  2  3  1  0  0  0  0
  4  2  1  6  0  0  0
  4  5  1  0  0  0  0
  4  8  1  0  0  0  0
  5  6  1  0  0  0  0
  6  7  1  0  0  0  0
  6 11  1  6  0  0  0
  7  8  1  0  0  0  0
  7  9  1  6  0  0  0
  9 10  1  0  0  0  0
 10 11  1  0  0  0  0
M  END
>  <name>
O=C(O)[C@H]1[N;amide][C@@H]2[C@H](C1)CCC2

>  <apo>
1

>  <freq>
1

>  <freq0>
0

>  <freq1>
1

>  <freqA>
0.99887151

>  <a_count>
24

$$$$

  MOE2015           2D

 13 13  0  0  0  0  0  0  0  0999 V2000
    9.4230    2.8710    0.0000 O   0  0  0  0  0  0  0  0  0  0  0  0
    8.1240    3.6210    0.0000 C   0  0  0  0  0  0  0  0  0  0  0  0
    8.1240    5.1210    0.0000 O   0  5  0  0  0  0  0  0  0  0  0  0
    6.8250    2.8710    0.0000 C   0  0  0  0  0  0  0  0  0  0  0  0
    5.5260    3.6210    0.0000 C   0  0  0  0  0  0  0  0  0  0  0  0
    4.2270    2.8710    0.0000 C   0  0  0  0  0  0  0  0  0  0  0  0
    2.9280    3.6210    0.0000 C   0  0  0  0  0  0  0  0  0  0  0  0
    1.6290    2.8710    0.0000 C   0  0  0  0  0  0  0  0  0  0  0  0
    0.3300    3.6210    0.0000 C   0  0  0  0  0  0  0  0  0  0  0  0
    1.6290    1.3710    0.0000 C   0  0  0  0  0  0  0  0  0  0  0  0
    0.3300    0.6210    0.0000 O   0  0  0  0  0  0  0  0  0  0  0  0
    2.9280    0.6210    0.0000 C   0  0  0  0  0  0  0  0  0  0  0  0
    4.2270    1.3710    0.0000 C   0  0  0  0  0  0  0  0  0  0  0  0
  1  2  2  0  0  0  0
  2  3  1  0  0  0  0
  2  4  1  0  0  0  0
  4  5  1  0  0  0  0
  5  6  1  0  0  0  0
  6  7  1  0  0  0  0
  6 13  2  0  0  0  0
  7  8  2  0  0  0  0
  8  9  1  0  0  0  0
  8 10  1  0  0  0  0
 10 11  1  0  0  0  0
 10 12  2  0  0  0  0
 12 13  1  0  0  0  0
M  CHG  1   3  -1
M  END
>  <name>
O=C([O-])CCc1cc([C;amine])c(O)cc1

>  <apo>
1

>  <freq>
1

>  <freq0>
0

>  <freq1>
1

>  <freqA>
0.99887151

>  <a_count>
24

$$$$

  MOE2015           2D

 15 16  0  0  0  0  0  0  0  0999 V2000
    1.4000   -2.4250    0.0000 O   0  0  0  0  0  0  0  0  0  0  0  0
    2.1500   -1.1260    0.0000 C   0  0  0  0  0  0  0  0  0  0  0  0
    1.4000    0.1730    0.0000 C   0  0  0  0  0  0  0  0  0  0  0  0
   -0.1000    0.1730    0.0000 N   0  0  0  0  0  0  0  0  0  0  0  0
    2.1500    1.4720    0.0000 C   0  0  0  0  0  0  0  0  0  0  0  0
    1.4000    2.7710    0.0000 O   0  0  0  0  0  0  0  0  0  0  0  0
    3.6500    1.4720    0.0000 C   0  0  0  0  0  0  0  0  0  0  0  0
    4.4000    0.1730    0.0000 C   0  0  0  0  0  0  0  0  0  0  0  0
    5.9000    0.1730    0.0000 C   0  0  0  0  0  0  0  0  0  0  0  0
    6.6500   -1.1260    0.0000 C   0  0  0  0  0  0  0  0  0  0  0  0
    6.6500    1.4720    0.0000 C   0  0  0  0  0  0  0  0  0  0  0  0
    8.1500    1.4720    0.0000 O   0  0  0  0  0  0  0  0  0  0  0  0
    5.9000    2.7710    0.0000 C   0  0  0  0  0  0  0  0  0  0  0  0
    4.4000    2.7710    0.0000 C   0  0  0  0  0  0  0  0  0  0  0  0
    3.6500   -1.1260    0.0000 O   0  0  0  0  0  0  0  0  0  0  0  0
  1  2  2  0  0  0  0
  2  3  1  0  0  0  0
  2 15  1  0  0  0  0
  3  4  1  0  0  0  0
  3  5  2  0  0  0  0
  5  6  1  0  0  0  0
  5  7  1  0  0  0  0
  7  8  1  0  0  0  0
  7 14  2  0  0  0  0
  8  9  2  0  0  0  0
  8 15  1  0  0  0  0
  9 10  1  0  0  0  0
  9 11  1  0  0  0  0
 11 12  1  0  0  0  0
 11 13  2  0  0  0  0
 13 14  1  0  0  0  0
M  END
>  <name>
O=C1C([N;amide])=C(O)c2c(c(C)c([O;ether])cc2)O1

>  <apo>
2

>  <freq>
1

>  <freq0>
0

>  <freq1>
1

>  <freqA>
0.99887151

>  <a_count>
24

$$$$

  MOE2015           2D

 13 14  0  0  0  0  0  0  0  0999 V2000
    3.6040    2.6190    0.0000 O   0  0  0  0  0  0  0  0  0  0  0  0
    3.1410    1.1920    0.0000 C   0  0  0  0  0  0  0  0  0  0  0  0
    4.0220   -0.0210    0.0000 N   0  0  0  0  0  0  0  0  0  0  0  0
    5.5220   -0.0210    0.0000 C   0  0  0  0  0  0  0  0  0  0  0  0
    6.2720   -1.3200    0.0000 C   0  0  0  0  0  0  0  0  0  0  0  0
    7.7720   -1.3200    0.0000 C   0  0  0  0  0  0  0  0  0  0  0  0
    3.1410   -1.2350    0.0000 N   0  0  0  0  0  0  0  0  0  0  0  0
    1.7140   -0.7710    0.0000 C   0  0  0  0  0  0  0  0  0  0  0  0
    1.7140    0.7290    0.0000 N   0  0  0  0  0  0  0  0  0  0  0  0
    0.4150    1.4790    0.0000 C   0  0  0  0  0  0  0  0  0  0  0  0
   -0.8840    0.7290    0.0000 C   0  0  0  0  0  0  0  0  0  0  0  0
   -0.8840   -0.7710    0.0000 C   0  0  0  0  0  0  0  0  0  0  0  0
    0.4150   -1.5210    0.0000 C   0  0  0  0  0  0  0  0  0  0  0  0
  1  2  2  0  0  0  0
  2  3  1  0  0  0  0
  2  9  1  0  0  0  0
  3  4  1  0  0  0  0
  3  7  1  0  0  0  0
  4  5  1  0  0  0  0
  5  6  1  0  0  0  0
  7  8  2  0  0  0  0
  8  9  1  0  0  0  0
  8 13  1  0  0  0  0
  9 10  1  0  0  0  0
 10 11  2  0  0  0  0
 11 12  1  0  0  0  0
 12 13  2  0  0  0  0
M  END
>  <name>
O=C1N(CC[C;amine])N=C2N1C=CC=C2

>  <apo>
1

>  <freq>
1

>  <freq0>
0

>  <freq1>
1

>  <freqA>
0.99887151

>  <a_count>
24

$$$$

  MOE2015           2D

 10 10  0  0  1  0  0  0  0  0999 V2000
    4.2950   -1.5500    0.0000 O   0  0  0  0  0  0  0  0  0  0  0  0
    3.1410   -0.5920    0.0000 C   0  0  0  0  0  0  0  0  0  0  0  0
    3.2380    0.9050    0.0000 C   0  0  2  0  0  0  0  0  0  0  0  0
    4.5050    1.7060    0.0000 C   0  0  0  0  0  0  0  0  0  0  0  0
    5.8340    1.0090    0.0000 C   0  0  0  0  0  0  0  0  0  0  0  0
    1.8440    1.4590    0.0000 C   0  0  1  0  0  0  0  0  0  0  0  0
    1.4730    2.9120    0.0000 C   0  0  0  0  0  0  0  0  0  0  0  0
    0.8860    0.3050    0.0000 C   0  0  2  0  0  0  0  0  0  0  0  0
   -0.6110    0.4010    0.0000 O   0  0  0  0  0  0  0  0  0  0  0  0
    1.6880   -0.9630    0.0000 C   0  0  0  0  0  0  0  0  0  0  0  0
  1  2  2  0  0  0  0
  2  3  1  0  0  0  0
  2 10  1  0  0  0  0
  3  4  1  1  0  0  0
  3  6  1  0  0  0  0
  4  5  1  0  0  0  0
  6  7  1  6  0  0  0
  6  8  1  0  0  0  0
  8  9  1  1  0  0  0
  8 10  1  0  0  0  0
M  END
>  <name>
O=C1[C@H](C[C;olefin])[C@@H]([C;olefin])[C@H](O)C1

>  <apo>
2

>  <freq>
1

>  <freq0>
0

>  <freq1>
1

>  <freqA>
0.99887151

>  <a_count>
24

$$$$

  MOE2015           2D

 13 13  0  0  1  0  0  0  0  0999 V2000
    8.3130   -2.2270    0.0000 O   0  0  0  0  0  0  0  0  0  0  0  0
    7.0140   -1.4770    0.0000 C   0  0  0  0  0  0  0  0  0  0  0  0
    7.0140    0.0230    0.0000 N   0  0  0  0  0  0  0  0  0  0  0  0
    5.7150    0.7730    0.0000 C   0  0  0  0  0  0  0  0  0  0  0  0
    5.7150    2.2730    0.0000 C   0  0  0  0  0  0  0  0  0  0  0  0
    7.0140    3.0230    0.0000 O   0  0  0  0  0  0  0  0  0  0  0  0
    4.4160    3.0230    0.0000 C   0  0  0  0  0  0  0  0  0  0  0  0
    3.1160    2.2730    0.0000 C   0  0  0  0  0  0  0  0  0  0  0  0
    3.1160    0.7730    0.0000 C   0  0  0  0  0  0  0  0  0  0  0  0
    1.8170    0.0230    0.0000 C   0  0  3  0  0  0  0  0  0  0  0  0
    1.8170   -1.4770    0.0000 O   0  0  0  0  0  0  0  0  0  0  0  0
    0.5180    0.7730    0.0000 C   0  0  0  0  0  0  0  0  0  0  0  0
    4.4160    0.0230    0.0000 C   0  0  0  0  0  0  0  0  0  0  0  0
  1  2  2  0  0  0  0
  2  3  1  0  0  0  0
  3  4  1  0  0  0  0
  4  5  1  0  0  0  0
  4 13  2  0  0  0  0
  5  6  1  0  0  0  0
  5  7  2  0  0  0  0
  7  8  1  0  0  0  0
  8  9  2  0  0  0  0
  9 10  1  0  0  0  0
  9 13  1  0  0  0  0
 10 11  1  0  0  0  0
 10 12  1  0  0  0  0
M  END
>  <name>
O=CNc1c(O)ccc(C(O)[C;amine])c1

>  <apo>
1

>  <freq>
1

>  <freq0>
0

>  <freq1>
1

>  <freqA>
0.99887151

>  <a_count>
24

$$$$

  MOE2015           2D

 13 13  0  0  1  0  0  0  0  0999 V2000
    8.3130   -2.2270    0.0000 O   0  0  0  0  0  0  0  0  0  0  0  0
    7.0140   -1.4770    0.0000 C   0  0  0  0  0  0  0  0  0  0  0  0
    7.0140    0.0230    0.0000 N   0  0  0  0  0  0  0  0  0  0  0  0
    5.7150    0.7730    0.0000 C   0  0  0  0  0  0  0  0  0  0  0  0
    5.7150    2.2730    0.0000 C   0  0  0  0  0  0  0  0  0  0  0  0
    7.0140    3.0230    0.0000 O   0  0  0  0  0  0  0  0  0  0  0  0
    4.4160    3.0230    0.0000 C   0  0  0  0  0  0  0  0  0  0  0  0
    3.1160    2.2730    0.0000 C   0  0  0  0  0  0  0  0  0  0  0  0
    3.1160    0.7730    0.0000 C   0  0  0  0  0  0  0  0  0  0  0  0
    1.8170    0.0230    0.0000 C   0  0  2  0  0  0  0  0  0  0  0  0
    1.8170   -1.4770    0.0000 O   0  0  0  0  0  0  0  0  0  0  0  0
    0.5180    0.7730    0.0000 C   0  0  0  0  0  0  0  0  0  0  0  0
    4.4160    0.0230    0.0000 C   0  0  0  0  0  0  0  0  0  0  0  0
  1  2  2  0  0  0  0
  2  3  1  0  0  0  0
  3  4  1  0  0  0  0
  4  5  1  0  0  0  0
  4 13  2  0  0  0  0
  5  6  1  0  0  0  0
  5  7  2  0  0  0  0
  7  8  1  0  0  0  0
  8  9  2  0  0  0  0
  9 10  1  0  0  0  0
  9 13  1  0  0  0  0
 10 11  1  0  0  0  0
 10 12  1  6  0  0  0
M  END
>  <name>
O=CNc1c(O)ccc([C@H](O)[C;amine])c1

>  <apo>
1

>  <freq>
1

>  <freq0>
0

>  <freq1>
1

>  <freqA>
0.99887151

>  <a_count>
24

$$$$

  MOE2015           2D

 11 10  0  0  1  0  0  0  0  0999 V2000
    8.6970    2.3300    0.0000 O   0  0  0  0  0  0  0  0  0  0  0  0
    7.3980    1.5800    0.0000 C   0  0  0  0  0  0  0  0  0  0  0  0
    6.0990    2.3300    0.0000 C   0  0  2  0  0  0  0  0  0  0  0  0
    6.0990    3.8300    0.0000 N   0  0  0  0  0  0  0  0  0  0  0  0
    4.7990    1.5800    0.0000 C   0  0  0  0  0  0  0  0  0  0  0  0
    3.5000    2.3300    0.0000 C   0  0  1  0  0  0  0  0  0  0  0  0
    3.5000    3.8300    0.0000 O   0  0  0  0  0  0  0  0  0  0  0  0
    2.2010    1.5800    0.0000 C   0  0  2  0  0  0  0  0  0  0  0  0
    2.2010    0.0800    0.0000 O   0  0  0  0  0  0  0  0  0  0  0  0
    0.9020    2.3300    0.0000 C   0  0  0  0  0  0  0  0  0  0  0  0
   -0.3970    1.5800    0.0000 O   0  0  0  0  0  0  0  0  0  0  0  0
  1  2  2  0  0  0  0
  2  3  1  0  0  0  0
  3  4  1  1  0  0  0
  3  5  1  0  0  0  0
  5  6  1  0  0  0  0
  6  7  1  6  0  0  0
  6  8  1  0  0  0  0
  8  9  1  6  0  0  0
  8 10  1  0  0  0  0
 10 11  1  0  0  0  0
M  END
>  <name>
O=C[C@H]([N;amide])[C;ether][C@@H](O)[C@H](O)CO

>  <apo>
2

>  <freq>
1

>  <freq0>
0

>  <freq1>
1

>  <freqA>
0.99887151

>  <a_count>
24

$$$$

  MOE2015           2D

 12 12  0  0  1  0  0  0  0  0999 V2000
    8.8090    3.4850    0.0000 O   0  0  0  0  0  0  0  0  0  0  0  0
    7.5100    4.2350    0.0000 C   0  0  0  0  0  0  0  0  0  0  0  0
    6.2110    3.4850    0.0000 C   0  0  1  0  0  0  0  0  0  0  0  0
    6.2110    1.9850    0.0000 N   0  0  0  0  0  0  0  0  0  0  0  0
    4.9120    4.2350    0.0000 C   0  0  0  0  0  0  0  0  0  0  0  0
    3.6130    3.4850    0.0000 C   0  0  0  0  0  0  0  0  0  0  0  0
    3.6130    1.9850    0.0000 C   0  0  0  0  0  0  0  0  0  0  0  0
    2.3140    1.2350    0.0000 C   0  0  0  0  0  0  0  0  0  0  0  0
    1.0150    1.9850    0.0000 C   0  0  0  0  0  0  0  0  0  0  0  0
   -0.2840    1.2350    0.0000 N   0  0  0  0  0  0  0  0  0  0  0  0
    1.0150    3.4850    0.0000 C   0  0  0  0  0  0  0  0  0  0  0  0
    2.3140    4.2350    0.0000 C   0  0  0  0  0  0  0  0  0  0  0  0
  1  2  2  0  0  0  0
  2  3  1  0  0  0  0
  3  4  1  1  0  0  0
  3  5  1  0  0  0  0
  5  6  1  0  0  0  0
  6  7  1  0  0  0  0
  6 12  2  0  0  0  0
  7  8  2  0  0  0  0
  8  9  1  0  0  0  0
  9 10  1  0  0  0  0
  9 11  2  0  0  0  0
 11 12  1  0  0  0  0
M  END
>  <name>
O=[C;amide][C@@H](N)Cc1ccc([N;amine])cc1

>  <apo>
2

>  <freq>
1

>  <freq0>
0

>  <freq1>
1

>  <freqA>
0.99887151

>  <a_count>
24

$$$$

  MOE2015           2D

 12 12  0  0  1  0  0  0  0  0999 V2000
    8.8090    3.4850    0.0000 O   0  0  0  0  0  0  0  0  0  0  0  0
    7.5100    4.2350    0.0000 C   0  0  0  0  0  0  0  0  0  0  0  0
    6.2110    3.4850    0.0000 C   0  0  1  0  0  0  0  0  0  0  0  0
    6.2110    1.9850    0.0000 N   0  0  0  0  0  0  0  0  0  0  0  0
    4.9120    4.2350    0.0000 C   0  0  0  0  0  0  0  0  0  0  0  0
    3.6130    3.4850    0.0000 C   0  0  0  0  0  0  0  0  0  0  0  0
    3.6130    1.9850    0.0000 C   0  0  0  0  0  0  0  0  0  0  0  0
    2.3140    1.2350    0.0000 C   0  0  0  0  0  0  0  0  0  0  0  0
    1.0150    1.9850    0.0000 C   0  0  0  0  0  0  0  0  0  0  0  0
   -0.2840    1.2350    0.0000 N   0  0  0  0  0  0  0  0  0  0  0  0
    1.0150    3.4850    0.0000 C   0  0  0  0  0  0  0  0  0  0  0  0
    2.3140    4.2350    0.0000 C   0  0  0  0  0  0  0  0  0  0  0  0
  1  2  2  0  0  0  0
  2  3  1  0  0  0  0
  3  4  1  1  0  0  0
  3  5  1  0  0  0  0
  5  6  1  0  0  0  0
  6  7  1  0  0  0  0
  6 12  2  0  0  0  0
  7  8  2  0  0  0  0
  8  9  1  0  0  0  0
  9 10  1  0  0  0  0
  9 11  2  0  0  0  0
 11 12  1  0  0  0  0
M  END
>  <name>
O=[C;amide][C@@H]([N;amide])Cc1ccc([N;amide])cc1

>  <apo>
3

>  <freq>
1

>  <freq0>
0

>  <freq1>
1

>  <freqA>
0.99887151

>  <a_count>
24

$$$$

  MOE2015           2D

 12 12  0  0  1  0  0  0  0  0999 V2000
    8.3750    0.0000    0.0000 O   0  0  0  0  0  0  0  0  0  0  0  0
    6.8750    0.0000    0.0000 C   0  0  0  0  0  0  0  0  0  0  0  0
    6.1250   -1.2990    0.0000 C   0  0  1  0  0  0  0  0  0  0  0  0
    6.8750   -2.5980    0.0000 N   0  0  0  0  0  0  0  0  0  0  0  0
    4.6250   -1.2990    0.0000 C   0  0  2  0  0  0  0  0  0  0  0  0
    3.8750    0.0000    0.0000 N   0  0  0  0  0  0  0  0  0  0  0  0
    2.3750    0.0000    0.0000 C   0  0  0  0  0  0  0  0  0  0  0  0
    1.6250    1.2990    0.0000 N   0  0  0  0  0  0  0  0  0  0  0  0
    1.6250   -1.2990    0.0000 N   0  0  0  0  0  0  0  0  0  0  0  0
    2.3750   -2.5980    0.0000 C   0  0  1  0  0  0  0  0  0  0  0  0
    1.6250   -3.8970    0.0000 O   0  0  0  0  0  0  0  0  0  0  0  0
    3.8750   -2.5980    0.0000 C   0  0  0  0  0  0  0  0  0  0  0  0
  1  2  2  0  0  0  0
  2  3  1  0  0  0  0
  3  4  1  1  0  0  0
  3  5  1  0  0  0  0
  5  6  1  1  0  0  0
  5 12  1  0  0  0  0
  6  7  1  0  0  0  0
  7  8  2  0  0  0  0
  7  9  1  0  0  0  0
  9 10  1  0  0  0  0
 10 11  1  6  0  0  0
 10 12  1  0  0  0  0
M  END
>  <name>
O=[C;amide][C@@H]([N;amide])[C@@H]1NC(=N)N[C@@H](O)C1

>  <apo>
2

>  <freq>
1

>  <freq0>
0

>  <freq1>
1

>  <freqA>
0.99887151

>  <a_count>
24

$$$$

  MOE2015           2D

 10 10  0  0  1  0  0  0  0  0999 V2000
    6.7670   -1.8130    0.0000 O   0  0  0  0  0  0  0  0  0  0  0  0
    5.4680   -1.0630    0.0000 C   0  0  0  0  0  0  0  0  0  0  0  0
    4.1690   -1.8130    0.0000 C   0  0  2  0  0  0  0  0  0  0  0  0
    2.8700   -1.0630    0.0000 C   0  0  0  0  0  0  0  0  0  0  0  0
    1.5710   -1.8130    0.0000 C   0  0  1  0  0  0  0  0  0  0  0  0
    0.2720   -1.0630    0.0000 N   0  0  0  0  0  0  0  0  0  0  0  0
    1.5710   -3.3130    0.0000 C   0  0  1  0  0  0  0  0  0  0  0  0
    0.2720   -4.0630    0.0000 N   0  0  0  0  0  0  0  0  0  0  0  0
    2.8700   -4.0630    0.0000 C   0  0  0  0  0  0  0  0  0  0  0  0
    4.1690   -3.3130    0.0000 C   0  0  0  0  0  0  0  0  0  0  0  0
  1  2  2  0  0  0  0
  3  2  1  1  0  0  0
  3  4  1  0  0  0  0
  3 10  1  0  0  0  0
  4  5  1  0  0  0  0
  5  6  1  6  0  0  0
  5  7  1  0  0  0  0
  7  8  1  6  0  0  0
  7  9  1  0  0  0  0
  9 10  1  0  0  0  0
M  END
>  <name>
O=[C;amide][C@@H]1C[C@@H]([N;amide])[C@@H]([N;amide])CC1

>  <apo>
3

>  <freq>
1

>  <freq0>
0

>  <freq1>
1

>  <freqA>
0.99887151

>  <a_count>
24

$$$$

  MOE2015           2D

 12 12  0  0  1  0  0  0  0  0999 V2000
    8.8090    3.4850    0.0000 O   0  0  0  0  0  0  0  0  0  0  0  0
    7.5100    4.2350    0.0000 C   0  0  0  0  0  0  0  0  0  0  0  0
    6.2110    3.4850    0.0000 C   0  0  2  0  0  0  0  0  0  0  0  0
    6.2110    1.9850    0.0000 N   0  0  0  0  0  0  0  0  0  0  0  0
    4.9120    4.2350    0.0000 C   0  0  0  0  0  0  0  0  0  0  0  0
    3.6130    3.4850    0.0000 C   0  0  0  0  0  0  0  0  0  0  0  0
    3.6130    1.9850    0.0000 C   0  0  0  0  0  0  0  0  0  0  0  0
    2.3140    1.2350    0.0000 C   0  0  0  0  0  0  0  0  0  0  0  0
    1.0150    1.9850    0.0000 C   0  0  0  0  0  0  0  0  0  0  0  0
   -0.2840    1.2350    0.0000 N   0  0  0  0  0  0  0  0  0  0  0  0
    1.0150    3.4850    0.0000 C   0  0  0  0  0  0  0  0  0  0  0  0
    2.3140    4.2350    0.0000 C   0  0  0  0  0  0  0  0  0  0  0  0
  1  2  2  0  0  0  0
  2  3  1  0  0  0  0
  3  4  1  6  0  0  0
  3  5  1  0  0  0  0
  5  6  1  0  0  0  0
  6  7  1  0  0  0  0
  6 12  2  0  0  0  0
  7  8  2  0  0  0  0
  8  9  1  0  0  0  0
  9 10  1  0  0  0  0
  9 11  2  0  0  0  0
 11 12  1  0  0  0  0
M  END
>  <name>
O=[C;amide][C@H]([N;amide])Cc1ccc([N;urea])cc1

>  <apo>
3

>  <freq>
1

>  <freq0>
0

>  <freq1>
1

>  <freqA>
0.99887151

>  <a_count>
24

$$$$

  MOE2015           2D

 15 16  0  0  0  0  0  0  0  0999 V2000
    3.6380    5.0010    0.0000 O   0  0  0  0  0  0  0  0  0  0  0  0
    2.8880    3.7020    0.0000 C   0  0  0  0  0  0  0  0  0  0  0  0
    3.6380    2.4030    0.0000 C   0  0  0  0  0  0  0  0  0  0  0  0
    2.8880    1.1040    0.0000 C   0  0  0  0  0  0  0  0  0  0  0  0
    1.3880    1.1040    0.0000 N   0  0  0  0  0  0  0  0  0  0  0  0
    0.5060   -0.1100    0.0000 N   0  0  0  0  0  0  0  0  0  0  0  0
   -0.9200    0.3540    0.0000 C   0  0  0  0  0  0  0  0  0  0  0  0
   -0.9200    1.8540    0.0000 C   0  0  0  0  0  0  0  0  0  0  0  0
    0.5060    2.3170    0.0000 N   0  0  0  0  0  0  0  0  0  0  0  0
    3.6380   -0.1950    0.0000 C   0  0  0  0  0  0  0  0  0  0  0  0
    5.1380   -0.1950    0.0000 C   0  0  0  0  0  0  0  0  0  0  0  0
    5.8880    1.1040    0.0000 C   0  0  0  0  0  0  0  0  0  0  0  0
    7.3880    1.1040    0.0000 O   0  0  0  0  0  0  0  0  0  0  0  0
    8.1380   -0.1950    0.0000 C   0  0  0  0  0  0  0  0  0  0  0  0
    5.1380    2.4030    0.0000 C   0  0  0  0  0  0  0  0  0  0  0  0
  1  2  2  0  0  0  0
  2  3  1  0  0  0  0
  3  4  1  0  0  0  0
  3 15  2  0  0  0  0
  4  5  1  0  0  0  0
  4 10  2  0  0  0  0
  5  6  1  0  0  0  0
  5  9  1  0  0  0  0
  6  7  2  0  0  0  0
  7  8  1  0  0  0  0
  8  9  2  0  0  0  0
 10 11  1  0  0  0  0
 11 12  2  0  0  0  0
 12 13  1  0  0  0  0
 12 15  1  0  0  0  0
 13 14  1  0  0  0  0
M  END
>  <name>
O=[C;amide]c1c(-n2nccn2)ccc(OC)c1

>  <apo>
1

>  <freq>
1

>  <freq0>
0

>  <freq1>
1

>  <freqA>
0.99887151

>  <a_count>
24

$$$$

  MOE2015           2D

 12 12  0  0  0  0  0  0  0  0999 V2000
   -1.1210   -4.1850    0.0000 O   0  0  0  0  0  0  0  0  0  0  0  0
    0.1780   -4.9350    0.0000 C   0  0  0  0  0  0  0  0  0  0  0  0
    1.4770   -4.1850    0.0000 C   0  0  0  0  0  0  0  0  0  0  0  0
    2.7760   -4.9350    0.0000 C   0  0  0  0  0  0  0  0  0  0  0  0
    4.0750   -4.1850    0.0000 C   0  0  0  0  0  0  0  0  0  0  0  0
    4.0750   -2.6850    0.0000 C   0  0  0  0  0  0  0  0  0  0  0  0
    5.3740   -1.9350    0.0000 C   0  0  0  0  0  0  0  0  0  0  0  0
    6.6730   -2.6850    0.0000 N   0  0  0  0  0  0  0  0  0  0  0  0
    7.9720   -1.9350    0.0000 N   0  0  0  0  0  0  0  0  0  0  0  0
    9.2710   -2.6850    0.0000 C   0  0  0  0  0  0  0  0  0  0  0  0
    2.7760   -1.9350    0.0000 C   0  0  0  0  0  0  0  0  0  0  0  0
    1.4770   -2.6850    0.0000 C   0  0  0  0  0  0  0  0  0  0  0  0
  1  2  2  0  0  0  0
  2  3  1  0  0  0  0
  3  4  1  0  0  0  0
  3 12  2  0  0  0  0
  4  5  2  0  0  0  0
  5  6  1  0  0  0  0
  6  7  1  0  0  0  0
  6 11  2  0  0  0  0
  7  8  1  0  0  0  0
  8  9  1  0  0  0  0
  9 10  1  0  0  0  0
 11 12  1  0  0  0  0
M  END
>  <name>
O=[C;amide]c1ccc(CNNC)cc1

>  <apo>
1

>  <freq>
1

>  <freq0>
0

>  <freq1>
1

>  <freqA>
0.99887151

>  <a_count>
24

$$$$

  MOE2015           2D

 17 19  0  0  0  0  0  0  0  0999 V2000
   11.7400   -2.5840    0.0000 O   0  0  0  0  0  0  0  0  0  0  0  0
   10.3790   -1.9540    0.0000 C   0  0  0  0  0  0  0  0  0  0  0  0
    9.1530   -2.8180    0.0000 C   0  0  0  0  0  0  0  0  0  0  0  0
    7.7330   -2.3340    0.0000 C   0  0  0  0  0  0  0  0  0  0  0  0
    6.8340   -3.5350    0.0000 N   0  0  0  0  0  0  0  0  0  0  0  0
    5.3340   -3.5130    0.0000 C   0  0  0  0  0  0  0  0  0  0  0  0
    4.6030   -2.2040    0.0000 N   0  0  0  0  0  0  0  0  0  0  0  0
    3.1030   -2.1820    0.0000 C   0  0  0  0  0  0  0  0  0  0  0  0
    2.3720   -0.8720    0.0000 N   0  0  0  0  0  0  0  0  0  0  0  0
    2.3340   -3.4700    0.0000 C   0  0  0  0  0  0  0  0  0  0  0  0
    0.8630   -3.7610    0.0000 N   0  0  0  0  0  0  0  0  0  0  0  0
    0.6840   -5.2500    0.0000 C   0  0  0  0  0  0  0  0  0  0  0  0
    2.0460   -5.8800    0.0000 N   0  0  0  0  0  0  0  0  0  0  0  0
    3.0650   -4.7800    0.0000 C   0  0  0  0  0  0  0  0  0  0  0  0
    4.5650   -4.8010    0.0000 N   0  0  0  0  0  0  0  0  0  0  0  0
    7.6980   -4.7610    0.0000 N   0  0  0  0  0  0  0  0  0  0  0  0
    9.1310   -4.3180    0.0000 C   0  0  0  0  0  0  0  0  0  0  0  0
  1  2  2  0  0  0  0
  2  3  1  0  0  0  0
  3  4  2  0  0  0  0
  3 17  1  0  0  0  0
  4  5  1  0  0  0  0
  5  6  1  0  0  0  0
  5 16  1  0  0  0  0
  6  7  1  0  0  0  0
  6 15  2  0  0  0  0
  7  8  2  0  0  0  0
  8  9  1  0  0  0  0
  8 10  1  0  0  0  0
 10 11  1  0  0  0  0
 10 14  2  0  0  0  0
 11 12  2  0  0  0  0
 12 13  1  0  0  0  0
 13 14  1  0  0  0  0
 14 15  1  0  0  0  0
 16 17  2  0  0  0  0
M  END
>  <name>
O=[C;amide]c1cn(-c2nc(N)c3nc[nH;NaroC]c3n2)nc1

>  <apo>
2

>  <freq>
1

>  <freq0>
0

>  <freq1>
1

>  <freqA>
0.99887151

>  <a_count>
24

$$$$

  MOE2015           2D

  9  9  0  0  0  0  0  0  0  0999 V2000
    7.8330    0.0000    0.0000 O   0  0  0  0  0  0  0  0  0  0  0  0
    6.3330    0.0000    0.0000 C   0  0  0  0  0  0  0  0  0  0  0  0
    5.5830   -1.2990    0.0000 C   0  0  0  0  0  0  0  0  0  0  0  0
    4.0830   -1.2990    0.0000 C   0  0  0  0  0  0  0  0  0  0  0  0
    3.3330    0.0000    0.0000 C   0  0  0  0  0  0  0  0  0  0  0  0
    1.8330    0.0000    0.0000 C   0  0  0  0  0  0  0  0  0  0  0  0
    1.0830   -1.2990    0.0000 N   0  0  0  0  0  0  0  0  0  0  0  0
    1.8330   -2.5980    0.0000 C   0  0  0  0  0  0  0  0  0  0  0  0
    3.3330   -2.5980    0.0000 C   0  0  0  0  0  0  0  0  0  0  0  0
  1  2  1  0  0  0  0
  2  3  1  0  0  0  0
  3  4  1  0  0  0  0
  4  5  1  0  0  0  0
  4  9  1  0  0  0  0
  5  6  1  0  0  0  0
  6  7  1  0  0  0  0
  7  8  1  0  0  0  0
  8  9  1  0  0  0  0
M  END
>  <name>
OCCC1CC[N;amine]CC1

>  <apo>
1

>  <freq>
1

>  <freq0>
0

>  <freq1>
1

>  <freqA>
0.99887151

>  <a_count>
24

$$$$

  MOE2015           2D

 11 11  0  0  1  0  0  0  0  0999 V2000
    6.1360    1.1810    0.0000 O   0  0  0  0  0  0  0  0  0  0  0  0
    5.3860    2.4800    0.0000 C   0  0  0  0  0  0  0  0  0  0  0  0
    3.8860    2.4800    0.0000 C   0  0  2  0  0  0  0  0  0  0  0  0
    3.1360    3.7790    0.0000 C   0  0  1  0  0  0  0  0  0  0  0  0
    3.8860    5.0780    0.0000 O   0  0  0  0  0  0  0  0  0  0  0  0
    1.6360    3.7790    0.0000 C   0  0  0  0  0  0  0  0  0  0  0  0
    0.8860    2.4800    0.0000 C   0  0  1  0  0  0  0  0  0  0  0  0
   -0.6140    2.4800    0.0000 N   0  0  0  0  0  0  0  0  0  0  0  0
    1.6360    1.1810    0.0000 C   0  0  2  0  0  0  0  0  0  0  0  0
    0.8860   -0.1180    0.0000 O   0  0  0  0  0  0  0  0  0  0  0  0
    3.1360    1.1810    0.0000 O   0  0  0  0  0  0  0  0  0  0  0  0
  1  2  1  0  0  0  0
  3  2  1  1  0  0  0
  3  4  1  0  0  0  0
  3 11  1  0  0  0  0
  4  5  1  6  0  0  0
  4  6  1  0  0  0  0
  6  7  1  0  0  0  0
  7  8  1  6  0  0  0
  7  9  1  0  0  0  0
  9 10  1  1  0  0  0
  9 11  1  0  0  0  0
M  END
>  <name>
OC[C@@H]1[C@@H](O)[C;ether][C@@H]([N;amide])[C@H](O)O1

>  <apo>
2

>  <freq>
1

>  <freq0>
0

>  <freq1>
1

>  <freqA>
0.99887151

>  <a_count>
24

$$$$

  MOE2015           2D

 11 11  0  0  1  0  0  0  0  0999 V2000
    6.5450    0.4720    0.0000 O   0  0  0  0  0  0  0  0  0  0  0  0
    5.7950    1.7710    0.0000 C   0  0  0  0  0  0  0  0  0  0  0  0
    4.2950    1.7710    0.0000 C   0  0  2  0  0  0  0  0  0  0  0  0
    3.5450    3.0700    0.0000 C   0  0  1  0  0  0  0  0  0  0  0  0
    4.2950    4.3690    0.0000 O   0  0  0  0  0  0  0  0  0  0  0  0
    2.0450    3.0700    0.0000 C   0  0  2  0  0  0  0  0  0  0  0  0
    1.2950    4.3690    0.0000 O   0  0  0  0  0  0  0  0  0  0  0  0
    1.2950    1.7710    0.0000 C   0  0  2  0  0  0  0  0  0  0  0  0
   -0.2050    1.7710    0.0000 N   0  0  0  0  0  0  0  0  0  0  0  0
    2.0450    0.4720    0.0000 C   0  0  0  0  0  0  0  0  0  0  0  0
    3.5450    0.4720    0.0000 O   0  0  0  0  0  0  0  0  0  0  0  0
  1  2  1  0  0  0  0
  3  2  1  1  0  0  0
  3  4  1  0  0  0  0
  3 11  1  0  0  0  0
  4  5  1  6  0  0  0
  4  6  1  0  0  0  0
  6  7  1  1  0  0  0
  6  8  1  0  0  0  0
  8  9  1  1  0  0  0
  8 10  1  0  0  0  0
 10 11  1  0  0  0  0
M  END
>  <name>
OC[C@@H]1[C@@H](O)[C@H](O)[C@H](N)[C;ether]O1

>  <apo>
1

>  <freq>
1

>  <freq0>
0

>  <freq1>
1

>  <freqA>
0.99887151

>  <a_count>
24

$$$$

  MOE2015           2D

 10 10  0  0  1  0  0  0  0  0999 V2000
    2.4950   -2.4950    0.0000 O   0  0  0  0  0  0  0  0  0  0  0  0
    2.4950   -0.9950    0.0000 C   0  0  2  0  0  0  0  0  0  0  0  0
    3.7940   -0.2450    0.0000 C   0  0  1  0  0  0  0  0  0  0  0  0
    5.0930   -0.9950    0.0000 C   0  0  0  0  0  0  0  0  0  0  0  0
    3.7940    1.2550    0.0000 O   0  0  0  0  0  0  0  0  0  0  0  0
    2.4950    2.0050    0.0000 C   0  0  0  0  0  0  0  0  0  0  0  0
    1.1960    1.2550    0.0000 C   0  0  0  0  0  0  0  0  0  0  0  0
    1.1960   -0.2450    0.0000 C   0  0  2  0  0  0  0  0  0  0  0  0
   -0.3040   -0.2450    0.0000 O   0  0  0  0  0  0  0  0  0  0  0  0
    0.4460   -1.5440    0.0000 C   0  0  0  0  0  0  0  0  0  0  0  0
  2  1  1  1  0  0  0
  2  3  1  0  0  0  0
  2  8  1  0  0  0  0
  3  4  1  6  0  0  0
  3  5  1  0  0  0  0
  5  6  1  0  0  0  0
  6  7  1  0  0  0  0
  7  8  1  0  0  0  0
  8  9  1  1  0  0  0
  8 10  1  6  0  0  0
M  END
>  <name>
O[C@@H]1[C@@H](C)O[C;ether]C[C@@]1(O)C

>  <apo>
1

>  <freq>
1

>  <freq0>
0

>  <freq1>
1

>  <freqA>
0.99887151

>  <a_count>
24

$$$$

  MOE2015           2D

 10 10  0  0  1  0  0  0  0  0999 V2000
    1.6500    2.8580    0.0000 O   0  0  0  0  0  0  0  0  0  0  0  0
    2.4000    1.5590    0.0000 C   0  0  2  0  0  0  0  0  0  0  0  0
    1.6500    0.2600    0.0000 C   0  0  1  0  0  0  0  0  0  0  0  0
    0.1500    0.2600    0.0000 C   0  0  0  0  0  0  0  0  0  0  0  0
   -0.6000   -1.0390    0.0000 N   0  0  0  0  0  0  0  0  0  0  0  0
    2.4000   -1.0390    0.0000 O   0  0  0  0  0  0  0  0  0  0  0  0
    3.9000   -1.0390    0.0000 C   0  0  0  0  0  0  0  0  0  0  0  0
    4.6500    0.2600    0.0000 C   0  0  2  0  0  0  0  0  0  0  0  0
    6.1500    0.2600    0.0000 N   0  0  0  0  0  0  0  0  0  0  0  0
    3.9000    1.5590    0.0000 C   0  0  0  0  0  0  0  0  0  0  0  0
  2  1  1  1  0  0  0
  2  3  1  0  0  0  0
  2 10  1  0  0  0  0
  3  4  1  6  0  0  0
  3  6  1  0  0  0  0
  4  5  1  0  0  0  0
  6  7  1  0  0  0  0
  7  8  1  0  0  0  0
  8  9  1  1  0  0  0
  8 10  1  0  0  0  0
M  END
>  <name>
O[C@@H]1[C@@H](CN)O[C;ether][C@H](N)C1

>  <apo>
1

>  <freq>
1

>  <freq0>
0

>  <freq1>
1

>  <freqA>
0.99887151

>  <a_count>
24

$$$$

  MOE2015           2D

 10 10  0  0  1  0  0  0  0  0999 V2000
    2.4950   -2.4950    0.0000 O   0  0  0  0  0  0  0  0  0  0  0  0
    2.4950   -0.9950    0.0000 C   0  0  1  0  0  0  0  0  0  0  0  0
    3.7940   -0.2450    0.0000 C   0  0  2  0  0  0  0  0  0  0  0  0
    5.0930   -0.9950    0.0000 C   0  0  0  0  0  0  0  0  0  0  0  0
    3.7940    1.2550    0.0000 O   0  0  0  0  0  0  0  0  0  0  0  0
    2.4950    2.0050    0.0000 C   0  0  0  0  0  0  0  0  0  0  0  0
    1.1960    1.2550    0.0000 C   0  0  0  0  0  0  0  0  0  0  0  0
    1.1960   -0.2450    0.0000 C   0  0  1  0  0  0  0  0  0  0  0  0
   -0.3040   -0.2450    0.0000 O   0  0  0  0  0  0  0  0  0  0  0  0
    0.4460   -1.5440    0.0000 C   0  0  0  0  0  0  0  0  0  0  0  0
  2  1  1  6  0  0  0
  2  3  1  0  0  0  0
  2  8  1  0  0  0  0
  3  4  1  1  0  0  0
  3  5  1  0  0  0  0
  5  6  1  0  0  0  0
  6  7  1  0  0  0  0
  7  8  1  0  0  0  0
  8  9  1  6  0  0  0
  8 10  1  1  0  0  0
M  END
>  <name>
O[C@H]1[C@H](C)O[C;ether]C[C@]1(O)C

>  <apo>
1

>  <freq>
1

>  <freq0>
0

>  <freq1>
1

>  <freqA>
0.99887151

>  <a_count>
24

$$$$

  MOE2015           2D

 13 13  0  0  1  0  0  0  0  0999 V2000
    2.0170    3.5340    0.0000 P   0  0  0  0  0  0  0  0  0  0  0  0
    2.7800    2.2420    0.0000 O   0  0  0  0  0  0  0  0  0  0  0  0
    0.7250    2.7710    0.0000 O   0  0  0  0  0  0  0  0  0  0  0  0
   -0.5810    3.5080    0.0000 C   0  0  0  0  0  0  0  0  0  0  0  0
   -1.8730    2.7450    0.0000 C   0  0  2  0  0  0  0  0  0  0  0  0
   -3.2490    3.3410    0.0000 C   0  0  1  0  0  0  0  0  0  0  0  0
   -3.5750    4.8050    0.0000 O   0  0  0  0  0  0  0  0  0  0  0  0
   -4.2420    2.2170    0.0000 C   0  0  2  0  0  0  0  0  0  0  0  0
   -5.7350    2.3590    0.0000 O   0  0  0  0  0  0  0  0  0  0  0  0
   -3.4790    0.9250    0.0000 C   0  0  0  0  0  0  0  0  0  0  0  0
   -2.0150    1.2520    0.0000 O   0  0  0  0  0  0  0  0  0  0  0  0
    1.2540    4.8250    0.0000 O   0  0  0  0  0  0  0  0  0  0  0  0
    3.3080    4.2970    0.0000 O   0  0  0  0  0  0  0  0  0  0  0  0
  1  2  2  0  0  0  0
  1  3  1  0  0  0  0
  1 12  1  0  0  0  0
  1 13  1  0  0  0  0
  3  4  1  0  0  0  0
  5  4  1  1  0  0  0
  5  6  1  0  0  0  0
  5 11  1  0  0  0  0
  6  7  1  6  0  0  0
  6  8  1  0  0  0  0
  8  9  1  1  0  0  0
  8 10  1  0  0  0  0
 10 11  1  0  0  0  0
M  END
>  <name>
P(=O)(OC[C@@H]1[C@@H](O)[C@H](O)[C;NaroC]O1)(O)O

>  <apo>
1

>  <freq>
1

>  <freq0>
0

>  <freq1>
1

>  <freqA>
0.99887151

>  <a_count>
24

$$$$

  MOE2015           2D

 12 11  0  0  1  0  0  0  0  0999 V2000
   -0.8660   -1.5000    0.0000 P   0  0  0  0  0  0  0  0  0  0  0  0
   -0.1160   -2.7990    0.0000 O   0  0  0  0  0  0  0  0  0  0  0  0
    0.4330   -0.7500    0.0000 O   0  0  0  0  0  0  0  0  0  0  0  0
    1.7320   -1.5000    0.0000 C   0  0  0  0  0  0  0  0  0  0  0  0
    3.0310   -0.7500    0.0000 C   0  0  2  0  0  0  0  0  0  0  0  0
    3.0310    0.7500    0.0000 O   0  0  0  0  0  0  0  0  0  0  0  0
    4.3300   -1.5000    0.0000 C   0  0  0  0  0  0  0  0  0  0  0  0
    5.6290   -0.7500    0.0000 O   0  0  0  0  0  0  0  0  0  0  0  0
   -2.1650   -2.2500    0.0000 O   0  0  0  0  0  0  0  0  0  0  0  0
   -3.4640   -1.5000    0.0000 C   0  0  0  0  0  0  0  0  0  0  0  0
   -4.7630   -2.2500    0.0000 C   0  0  0  0  0  0  0  0  0  0  0  0
   -1.6160   -0.2010    0.0000 O   0  5  0  0  0  0  0  0  0  0  0  0
  1  2  2  0  0  0  0
  1  3  1  0  0  0  0
  1  9  1  0  0  0  0
  1 12  1  0  0  0  0
  3  4  1  0  0  0  0
  4  5  1  0  0  0  0
  5  6  1  6  0  0  0
  5  7  1  0  0  0  0
  7  8  1  0  0  0  0
  9 10  1  0  0  0  0
 10 11  1  0  0  0  0
M  CHG  1  12  -1
M  END
>  <name>
P(=O)(OC[C@H]([O;ester])C[O;ester])(OC[C;quatN])[O-]

>  <apo>
3

>  <freq>
1

>  <freq0>
0

>  <freq1>
1

>  <freqA>
0.99887151

>  <a_count>
24

$$$$

  MOE2015           2D

 14 16  0  0  0  0  0  0  0  0999 V2000
    1.5000   -1.5000    0.0000 S   0  0  0  0  0  0  0  0  0  0  0  0
    2.7990   -0.7500    0.0000 C   0  0  0  0  0  0  0  0  0  0  0  0
    2.7990    0.7500    0.0000 C   0  0  0  0  0  0  0  0  0  0  0  0
    4.0980    1.5000    0.0000 C   0  0  0  0  0  0  0  0  0  0  0  0
    5.3970    0.7500    0.0000 C   0  0  0  0  0  0  0  0  0  0  0  0
    5.3970   -0.7500    0.0000 C   0  0  0  0  0  0  0  0  0  0  0  0
    4.0980   -1.5000    0.0000 C   0  0  0  0  0  0  0  0  0  0  0  0
    1.5000    1.5000    0.0000 C   0  0  0  0  0  0  0  0  0  0  0  0
    0.2010    0.7500    0.0000 C   0  0  0  0  0  0  0  0  0  0  0  0
    0.2010   -0.7500    0.0000 C   0  0  0  0  0  0  0  0  0  0  0  0
   -1.0980   -1.5000    0.0000 C   0  0  0  0  0  0  0  0  0  0  0  0
   -2.3970   -0.7500    0.0000 C   0  0  0  0  0  0  0  0  0  0  0  0
   -2.3970    0.7500    0.0000 C   0  0  0  0  0  0  0  0  0  0  0  0
   -1.0980    1.5000    0.0000 C   0  0  0  0  0  0  0  0  0  0  0  0
  1  2  1  0  0  0  0
  1 10  1  0  0  0  0
  2  3  1  0  0  0  0
  2  7  2  0  0  0  0
  3  4  2  0  0  0  0
  3  8  1  0  0  0  0
  4  5  1  0  0  0  0
  5  6  2  0  0  0  0
  6  7  1  0  0  0  0
  8  9  1  0  0  0  0
  9 10  1  0  0  0  0
  9 14  2  0  0  0  0
 10 11  2  0  0  0  0
 11 12  1  0  0  0  0
 12 13  2  0  0  0  0
 13 14  1  0  0  0  0
M  END
>  <name>
S1c2c(cccc2)[C;olefin]c2c1cccc2

>  <apo>
1

>  <freq>
1

>  <freq0>
0

>  <freq1>
1

>  <freqA>
0.99887151

>  <a_count>
24

$$$$

  MOE2015           2D

 13 12  0  0  1  0  0  0  0  0999 V2000
   -0.4110    2.1580    0.0000 S   0  0  0  0  0  0  0  0  0  0  0  0
   -0.4110    0.6580    0.0000 P   0  0  0  0  0  0  0  0  0  0  0  0
    1.0890    0.6580    0.0000 S   0  0  0  0  0  0  0  0  0  0  0  0
    1.8390    1.9570    0.0000 C   0  0  3  0  0  0  0  0  0  0  0  0
    1.0890    3.2560    0.0000 C   0  0  0  0  0  0  0  0  0  0  0  0
    1.8390    4.5550    0.0000 O   0  0  0  0  0  0  0  0  0  0  0  0
    3.3390    1.9570    0.0000 C   0  0  0  0  0  0  0  0  0  0  0  0
    4.0890    0.6580    0.0000 C   0  0  0  0  0  0  0  0  0  0  0  0
    5.5890    0.6580    0.0000 O   0  0  0  0  0  0  0  0  0  0  0  0
   -0.4110   -0.8420    0.0000 O   0  0  0  0  0  0  0  0  0  0  0  0
   -1.7100   -1.5920    0.0000 C   0  0  0  0  0  0  0  0  0  0  0  0
   -1.9110    0.6580    0.0000 O   0  0  0  0  0  0  0  0  0  0  0  0
   -2.6610    1.9570    0.0000 C   0  0  0  0  0  0  0  0  0  0  0  0
  1  2  2  0  0  0  0
  2  3  1  0  0  0  0
  2 10  1  0  0  0  0
  2 12  1  0  0  0  0
  3  4  1  0  0  0  0
  4  5  1  0  0  0  0
  4  7  1  0  0  0  0
  5  6  2  0  0  0  0
  7  8  1  0  0  0  0
  8  9  2  0  0  0  0
 10 11  1  0  0  0  0
 12 13  1  0  0  0  0
M  END
>  <name>
S=P(SC([C;ester]=O)C[C;ester]=O)(OC)OC

>  <apo>
2

>  <freq>
1

>  <freq0>
0

>  <freq1>
1

>  <freqA>
0.99887151

>  <a_count>
24

$$$$

  MOE2015           2D

 12 13  0  0  0  0  0  0  0  0999 V2000
    0.0000   -3.2480    0.0000 C   0  0  0  0  0  0  0  0  0  0  0  0
    1.5000   -3.2480    0.0000 C   0  0  0  0  0  0  0  0  0  0  0  0
   -0.7500   -1.9490    0.0000 C   0  0  0  0  0  0  0  0  0  0  0  0
   -2.2500   -1.9490    0.0000 C   0  0  0  0  0  0  0  0  0  0  0  0
   -3.0000   -0.6500    0.0000 C   0  0  0  0  0  0  0  0  0  0  0  0
   -2.2500    0.6500    0.0000 C   0  0  0  0  0  0  0  0  0  0  0  0
   -0.7500    0.6500    0.0000 C   0  0  0  0  0  0  0  0  0  0  0  0
    0.0000   -0.6500    0.0000 C   0  0  0  0  0  0  0  0  0  0  0  0
   -4.5000   -0.6500    0.0000 C   0  0  0  0  0  0  0  0  0  0  0  0
   -5.2500   -1.9490    0.0000 C   0  0  0  0  0  0  0  0  0  0  0  0
   -4.5000   -3.2480    0.0000 C   0  0  0  0  0  0  0  0  0  0  0  0
   -3.0000   -3.2480    0.0000 C   0  0  0  0  0  0  0  0  0  0  0  0
  1  2  1  0  0  0  0
  1  3  1  0  0  0  0
  3  4  1  0  0  0  0
  3  8  2  0  0  0  0
  4  5  1  0  0  0  0
  4 12  2  0  0  0  0
  5  6  1  0  0  0  0
  5  9  2  0  0  0  0
  6  7  2  0  0  0  0
  7  8  1  0  0  0  0
  9 10  1  0  0  0  0
 10 11  2  0  0  0  0
 11 12  1  0  0  0  0
M  END
>  <name>
[C;amine](C)c1c2c(ccc1)cccc2

>  <apo>
1

>  <freq>
1

>  <freq0>
0

>  <freq1>
1

>  <freqA>
0.99887151

>  <a_count>
24

$$$$

  MOE2015           2D

 12 13  0  0  0  0  0  0  0  0999 V2000
    6.6440    1.7800    0.0000 C   0  0  0  0  0  0  0  0  0  0  0  0
    5.3450    1.0300    0.0000 C   0  0  0  0  0  0  0  0  0  0  0  0
    4.0460    1.7800    0.0000 C   0  0  0  0  0  0  0  0  0  0  0  0
    2.7470    1.0300    0.0000 C   0  0  0  0  0  0  0  0  0  0  0  0
    1.4480    1.7800    0.0000 C   0  0  0  0  0  0  0  0  0  0  0  0
    0.0210    1.3170    0.0000 O   0  0  0  0  0  0  0  0  0  0  0  0
   -0.8600    2.5300    0.0000 C   0  0  0  0  0  0  0  0  0  0  0  0
    0.0210    3.7440    0.0000 O   0  0  0  0  0  0  0  0  0  0  0  0
    1.4480    3.2800    0.0000 C   0  0  0  0  0  0  0  0  0  0  0  0
    2.7470    4.0300    0.0000 C   0  0  0  0  0  0  0  0  0  0  0  0
    4.0460    3.2800    0.0000 C   0  0  0  0  0  0  0  0  0  0  0  0
    7.9430    1.0300    0.0000 C   0  0  0  0  0  0  0  0  0  0  0  0
  1  2  1  0  0  0  0
  1 12  1  0  0  0  0
  2  3  1  0  0  0  0
  3  4  1  0  0  0  0
  3 11  2  0  0  0  0
  4  5  2  0  0  0  0
  5  6  1  0  0  0  0
  5  9  1  0  0  0  0
  6  7  1  0  0  0  0
  7  8  1  0  0  0  0
  8  9  1  0  0  0  0
  9 10  2  0  0  0  0
 10 11  1  0  0  0  0
M  END
>  <name>
[C;amine](Cc1cc2OCOc2cc1)C

>  <apo>
1

>  <freq>
1

>  <freq0>
0

>  <freq1>
1

>  <freqA>
0.99887151

>  <a_count>
24

$$$$

  MOE2015           2D

 10 10  0  0  0  0  0  0  0  0999 V2000
    4.1380   -2.0090    0.0000 C   0  0  0  0  0  0  0  0  0  0  0  0
    2.8390   -2.7590    0.0000 C   0  0  0  0  0  0  0  0  0  0  0  0
    1.5400   -2.0090    0.0000 C   0  0  0  0  0  0  0  0  0  0  0  0
    0.2410   -2.7590    0.0000 C   0  0  0  0  0  0  0  0  0  0  0  0
   -1.0580   -2.0090    0.0000 C   0  0  0  0  0  0  0  0  0  0  0  0
   -1.0580   -0.5090    0.0000 C   0  0  0  0  0  0  0  0  0  0  0  0
    0.2410    0.2410    0.0000 C   0  0  0  0  0  0  0  0  0  0  0  0
    1.5400   -0.5090    0.0000 C   0  0  0  0  0  0  0  0  0  0  0  0
    5.4370   -2.7590    0.0000 C   0  0  0  0  0  0  0  0  0  0  0  0
    4.1380   -0.5090    0.0000 C   0  0  0  0  0  0  0  0  0  0  0  0
  1  2  1  0  0  0  0
  1  9  1  0  0  0  0
  1 10  1  0  0  0  0
  2  3  1  0  0  0  0
  3  4  1  0  0  0  0
  3  8  2  0  0  0  0
  4  5  2  0  0  0  0
  5  6  1  0  0  0  0
  6  7  2  0  0  0  0
  7  8  1  0  0  0  0
M  END
>  <name>
[C;amine](Cc1ccccc1)(C)C

>  <apo>
1

>  <freq>
1

>  <freq0>
0

>  <freq1>
1

>  <freqA>
0.99887151

>  <a_count>
24

$$$$

  MOE2015           2D

 11 12  0  0  1  0  0  0  0  0999 V2000
    7.9690   -0.1950    0.0000 C   0  0  0  0  0  0  0  0  0  0  0  0
    6.7110    0.6210    0.0000 C   0  0  1  0  0  0  0  0  0  0  0  0
    5.3110    0.0840    0.0000 C   0  0  0  0  0  0  0  0  0  0  0  0
    4.3670    1.2500    0.0000 C   0  0  1  0  0  0  0  0  0  0  0  0
    2.8690    1.1710    0.0000 C   0  0  0  0  0  0  0  0  0  0  0  0
    2.0520   -0.0870    0.0000 N   0  0  0  0  0  0  0  0  0  0  0  0
    0.6030    0.3010    0.0000 C   0  0  0  0  0  0  0  0  0  0  0  0
    0.5250    1.7990    0.0000 C   0  0  0  0  0  0  0  0  0  0  0  0
    1.9250    2.3370    0.0000 N   0  0  0  0  0  0  0  0  0  0  0  0
    5.1840    2.5080    0.0000 N   0  0  0  0  0  0  0  0  0  0  0  0
    6.6330    2.1190    0.0000 C   0  0  0  0  0  0  0  0  0  0  0  0
  2  1  1  1  0  0  0
  2  3  1  0  0  0  0
  2 11  1  0  0  0  0
  3  4  1  0  0  0  0
  4  5  1  1  0  0  0
  4 10  1  0  0  0  0
  5  6  1  0  0  0  0
  5  9  2  0  0  0  0
  6  7  1  0  0  0  0
  7  8  2  0  0  0  0
  8  9  1  0  0  0  0
 10 11  1  0  0  0  0
M  END
>  <name>
[C;ether][C@H]1C[C@@H](c2[nH][c;biphenyl]cn2)[N;amide]C1

>  <apo>
3

>  <freq>
1

>  <freq0>
0

>  <freq1>
1

>  <freqA>
0.99887151

>  <a_count>
24

$$$$

  MOE2015           2D

 12 13  0  0  0  0  0  0  0  0999 V2000
    8.4840   -0.2020    0.0000 N   0  0  0  0  0  0  0  0  0  0  0  0
    7.2630    0.6690    0.0000 C   0  0  0  0  0  0  0  0  0  0  0  0
    5.8400    0.1930    0.0000 S   0  0  0  0  0  0  0  0  0  0  0  0
    4.9480    1.3990    0.0000 C   0  0  0  0  0  0  0  0  0  0  0  0
    3.4480    1.3850    0.0000 N   0  0  0  0  0  0  0  0  0  0  0  0
    2.6870    2.6780    0.0000 C   0  0  0  0  0  0  0  0  0  0  0  0
    1.1870    2.6640    0.0000 C   0  0  0  0  0  0  0  0  0  0  0  0
    0.4480    1.3590    0.0000 N   0  0  0  0  0  0  0  0  0  0  0  0
    1.2100    0.0660    0.0000 C   0  0  0  0  0  0  0  0  0  0  0  0
    2.7100    0.0800    0.0000 C   0  0  0  0  0  0  0  0  0  0  0  0
    5.8190    2.6200    0.0000 C   0  0  0  0  0  0  0  0  0  0  0  0
    7.2490    2.1690    0.0000 N   0  0  0  0  0  0  0  0  0  0  0  0
  1  2  1  0  0  0  0
  2  3  1  0  0  0  0
  2 12  2  0  0  0  0
  3  4  1  0  0  0  0
  4  5  1  0  0  0  0
  4 11  2  0  0  0  0
  5  6  1  0  0  0  0
  5 10  1  0  0  0  0
  6  7  1  0  0  0  0
  7  8  1  0  0  0  0
  8  9  1  0  0  0  0
  9 10  1  0  0  0  0
 11 12  1  0  0  0  0
M  END
>  <name>
[N;amide]c1sc(N2CC[N;amine]CC2)[c;biphenyl]n1

>  <apo>
3

>  <freq>
1

>  <freq0>
0

>  <freq1>
1

>  <freqA>
0.99887151

>  <a_count>
24

$$$$

  MOE2015           2D

  8  7  0  0  0  0  0  0  0  0999 V2000
    2.0620   -2.0620    0.0000 O   0  0  0  0  0  0  0  0  0  0  0  0
    2.0620   -0.5620    0.0000 C   0  0  0  0  0  0  0  0  0  0  0  0
    3.3620    0.1870    0.0000 C   0  0  0  0  0  0  0  0  0  0  0  0
    4.6610   -0.5620    0.0000 C   0  0  0  0  0  0  0  0  0  0  0  0
    3.3620    1.6880    0.0000 C   0  0  0  0  0  0  0  0  0  0  0  0
    0.7630    0.1880    0.0000 C   0  0  0  0  0  0  0  0  0  0  0  0
   -0.5360   -0.5630    0.0000 C   0  0  0  0  0  0  0  0  0  0  0  0
    0.7630    1.6880    0.0000 C   0  0  0  0  0  0  0  0  0  0  0  0
  1  2  1  0  0  0  0
  2  3  1  0  0  0  0
  2  6  1  0  0  0  0
  3  4  1  0  0  0  0
  3  5  1  0  0  0  0
  6  7  1  0  0  0  0
  6  8  1  0  0  0  0
M  END
>  <name>
[O;ester]C(C([C;olefin])C)C(C)C

>  <apo>
2

>  <freq>
1

>  <freq0>
0

>  <freq1>
1

>  <freqA>
0.99887151

>  <a_count>
24

$$$$

  MOE2015           2D

 12 12  0  0  0  0  0  0  0  0999 V2000
    0.0000    0.0000    0.0000 O   0  0  0  0  0  0  0  0  0  0  0  0
    1.5000    0.0000    0.0000 C   0  0  0  0  0  0  0  0  0  0  0  0
    2.2500    1.2990    0.0000 C   0  0  0  0  0  0  0  0  0  0  0  0
    1.5000    2.5980    0.0000 O   0  0  0  0  0  0  0  0  0  0  0  0
    3.7500    1.2990    0.0000 C   0  0  0  0  0  0  0  0  0  0  0  0
    4.5000    2.5980    0.0000 O   0  0  0  0  0  0  0  0  0  0  0  0
    4.5000    0.0000    0.0000 C   0  0  0  0  0  0  0  0  0  0  0  0
    6.0000    0.0000    0.0000 O   0  0  0  0  0  0  0  0  0  0  0  0
    3.7500   -1.2990    0.0000 C   0  0  0  0  0  0  0  0  0  0  0  0
    4.5000   -2.5980    0.0000 O   0  0  0  0  0  0  0  0  0  0  0  0
    2.2500   -1.2990    0.0000 C   0  0  0  0  0  0  0  0  0  0  0  0
    1.5000   -2.5980    0.0000 O   0  0  0  0  0  0  0  0  0  0  0  0
  1  2  1  0  0  0  0
  2  3  1  0  0  0  0
  2 11  1  0  0  0  0
  3  4  1  0  0  0  0
  3  5  1  0  0  0  0
  5  6  1  0  0  0  0
  5  7  1  0  0  0  0
  7  8  1  0  0  0  0
  7  9  1  0  0  0  0
  9 10  1  0  0  0  0
  9 11  1  0  0  0  0
 11 12  1  0  0  0  0
M  END
>  <name>
[O;ester]C1C([O;ester])C([O;ester])C([O;ester])C([O;ester])C1[O;ester]

>  <apo>
6

>  <freq>
1

>  <freq0>
0

>  <freq1>
1

>  <freqA>
0.99887151

>  <a_count>
24

$$$$

  MOE2015           2D

 11 13  0  0  1  0  0  0  0  0999 V2000
   -0.2280   -0.8210    0.0000 O   0  0  0  0  0  0  0  0  0  0  0  0
    1.0590   -1.5930    0.0000 C   0  0  0  0  0  0  0  0  0  0  0  0
    2.2780   -1.8230    0.0000 C   0  0  0  0  0  0  0  0  0  0  0  0
    3.8460   -0.9530    0.0000 C   0  0  2  0  0  0  0  0  0  0  0  0
    4.7910   -2.1420    0.0000 N   0  0  0  0  0  0  0  0  0  0  0  0
    6.0860   -2.8990    0.0000 C   0  0  0  0  0  0  0  0  0  0  0  0
    3.4930   -1.9320    0.0000 C   0  0  1  0  0  0  0  0  0  0  0  0
    3.3780   -0.4970    0.0000 C   0  0  1  0  0  0  0  0  0  0  0  0
    2.5610    0.6870    0.0000 O   0  0  0  0  0  0  0  0  0  0  0  0
    4.0410    0.6610    0.0000 C   0  0  1  0  0  0  0  0  0  0  0  0
    2.0130   -2.7840    0.0000 C   0  0  0  0  0  0  0  0  0  0  0  0
  1  2  1  0  0  0  0
  2  3  1  0  0  0  0
  2 11  1  0  0  0  0
  4  3  1  1  0  0  0
  4  5  1  0  0  0  0
  4 10  1  0  0  0  0
  5  6  1  0  0  0  0
  7  5  1  6  0  0  0
  7  8  1  0  0  0  0
  7 11  1  0  0  0  0
  8  9  1  1  0  0  0
  8 10  1  0  0  0  0
 10  9  1  1  0  0  0
M  END
>  <name>
[O;ester]C1C[C@@H]2N(C)[C@@H]([C@H]3O[C@@H]23)C1

>  <apo>
1

>  <freq>
1

>  <freq0>
0

>  <freq1>
1

>  <freqA>
0.99887151

>  <a_count>
24

$$$$

  MOE2015           2D

 12 12  0  0  1  0  0  0  0  0999 V2000
    6.5630    0.9740    0.0000 O   0  0  0  0  0  0  0  0  0  0  0  0
    5.8120    2.2730    0.0000 C   0  0  0  0  0  0  0  0  0  0  0  0
    4.3130    2.2730    0.0000 C   0  0  2  0  0  0  0  0  0  0  0  0
    3.5630    3.5720    0.0000 C   0  0  2  0  0  0  0  0  0  0  0  0
    4.3130    4.8710    0.0000 O   0  0  0  0  0  0  0  0  0  0  0  0
    2.0620    3.5720    0.0000 C   0  0  2  0  0  0  0  0  0  0  0  0
    1.3130    4.8710    0.0000 O   0  0  0  0  0  0  0  0  0  0  0  0
    1.3120    2.2730    0.0000 C   0  0  1  0  0  0  0  0  0  0  0  0
   -0.1880    2.2730    0.0000 O   0  0  0  0  0  0  0  0  0  0  0  0
    2.0620    0.9740    0.0000 C   0  0  3  0  0  0  0  0  0  0  0  0
    1.3120   -0.3250    0.0000 O   0  0  0  0  0  0  0  0  0  0  0  0
    3.5620    0.9740    0.0000 O   0  0  0  0  0  0  0  0  0  0  0  0
  1  2  1  0  0  0  0
  3  2  1  1  0  0  0
  3  4  1  0  0  0  0
  3 12  1  0  0  0  0
  4  5  1  1  0  0  0
  4  6  1  0  0  0  0
  6  7  1  1  0  0  0
  6  8  1  0  0  0  0
  8  9  1  6  0  0  0
  8 10  1  0  0  0  0
 10 11  1  0  0  0  0
 10 12  1  0  0  0  0
M  END
>  <name>
[O;ester]C[C@@H]1[C@H]([O;ester])[C@H]([O;ester])[C@@H]([O;ester])C([O;ester])O1

>  <apo>
5

>  <freq>
1

>  <freq0>
0

>  <freq1>
1

>  <freqA>
0.99887151

>  <a_count>
24

$$$$

  MOE2015           2D

 15 17  0  0  0  0  0  0  0  0999 V2000
    2.1500    3.7240    0.0000 O   0  0  0  0  0  0  0  0  0  0  0  0
    2.9000    2.4250    0.0000 C   0  0  0  0  0  0  0  0  0  0  0  0
    4.4000    2.4250    0.0000 N   0  0  0  0  0  0  0  0  0  0  0  0
    5.1500    1.1260    0.0000 C   0  0  0  0  0  0  0  0  0  0  0  0
    4.4000   -0.1730    0.0000 C   0  0  0  0  0  0  0  0  0  0  0  0
    2.9000   -0.1730    0.0000 C   0  0  0  0  0  0  0  0  0  0  0  0
    2.1500    1.1260    0.0000 C   0  0  0  0  0  0  0  0  0  0  0  0
    0.6500    1.1260    0.0000 C   0  0  0  0  0  0  0  0  0  0  0  0
   -0.1000   -0.1730    0.0000 C   0  0  0  0  0  0  0  0  0  0  0  0
    0.6500   -1.4720    0.0000 C   0  0  0  0  0  0  0  0  0  0  0  0
    2.1500   -1.4720    0.0000 C   0  0  0  0  0  0  0  0  0  0  0  0
    5.1500   -1.4720    0.0000 C   0  0  0  0  0  0  0  0  0  0  0  0
    6.6500   -1.4720    0.0000 C   0  0  0  0  0  0  0  0  0  0  0  0
    7.4000   -0.1730    0.0000 C   0  0  0  0  0  0  0  0  0  0  0  0
    6.6500    1.1260    0.0000 C   0  0  0  0  0  0  0  0  0  0  0  0
  1  2  1  0  0  0  0
  2  3  2  0  0  0  0
  2  7  1  0  0  0  0
  3  4  1  0  0  0  0
  4  5  1  0  0  0  0
  4 15  2  0  0  0  0
  5  6  1  0  0  0  0
  5 12  2  0  0  0  0
  6  7  1  0  0  0  0
  6 11  2  0  0  0  0
  7  8  2  0  0  0  0
  8  9  1  0  0  0  0
  9 10  2  0  0  0  0
 10 11  1  0  0  0  0
 12 13  1  0  0  0  0
 13 14  2  0  0  0  0
 14 15  1  0  0  0  0
M  END
>  <name>
[O;ether]c1nc2c(c3c1cccc3)cccc2

>  <apo>
1

>  <freq>
1

>  <freq0>
0

>  <freq1>
1

>  <freqA>
0.99887151

>  <a_count>
24

$$$$

  MOE2015           2D

 15 17  0  0  0  0  0  0  0  0999 V2000
    9.7500   -2.6120    0.0000 S   0  0  0  0  0  0  0  0  0  0  0  0
    8.4510   -1.8620    0.0000 C   0  0  0  0  0  0  0  0  0  0  0  0
    7.1520   -2.6120    0.0000 C   0  0  0  0  0  0  0  0  0  0  0  0
    5.8530   -1.8620    0.0000 C   0  0  0  0  0  0  0  0  0  0  0  0
    4.5540   -2.6120    0.0000 N   0  0  0  0  0  0  0  0  0  0  0  0
    3.2550   -1.8620    0.0000 C   0  0  0  0  0  0  0  0  0  0  0  0
    3.2550   -0.3620    0.0000 C   0  0  0  0  0  0  0  0  0  0  0  0
    4.5540    0.3880    0.0000 S   0  0  0  0  0  0  0  0  0  0  0  0
    5.8530   -0.3620    0.0000 C   0  0  0  0  0  0  0  0  0  0  0  0
    7.1520    0.3880    0.0000 C   0  0  0  0  0  0  0  0  0  0  0  0
    8.4510   -0.3620    0.0000 C   0  0  0  0  0  0  0  0  0  0  0  0
    1.9560    0.3880    0.0000 C   0  0  0  0  0  0  0  0  0  0  0  0
    0.6560   -0.3620    0.0000 C   0  0  0  0  0  0  0  0  0  0  0  0
    0.6560   -1.8620    0.0000 C   0  0  0  0  0  0  0  0  0  0  0  0
    1.9560   -2.6120    0.0000 C   0  0  0  0  0  0  0  0  0  0  0  0
  1  2  1  0  0  0  0
  2  3  1  0  0  0  0
  2 11  2  0  0  0  0
  3  4  2  0  0  0  0
  4  5  1  0  0  0  0
  4  9  1  0  0  0  0
  5  6  1  0  0  0  0
  6  7  1  0  0  0  0
  6 15  2  0  0  0  0
  7  8  1  0  0  0  0
  7 12  2  0  0  0  0
  8  9  1  0  0  0  0
  9 10  2  0  0  0  0
 10 11  1  0  0  0  0
 12 13  1  0  0  0  0
 13 14  2  0  0  0  0
 14 15  1  0  0  0  0
M  END
>  <name>
[S;thioether]c1cc2[N;amine]c3c(Sc2cc1)cccc3

>  <apo>
2

>  <freq>
1

>  <freq0>
0

>  <freq1>
1

>  <freqA>
0.99887151

>  <a_count>
24

$$$$

  MOE2015           2D

 15 16  0  0  0  0  0  0  0  0999 V2000
    0.0000    1.8060    0.0000 S   0  0  0  0  0  0  0  0  0  0  0  0
    1.5000    1.8060    0.0000 C   0  0  0  0  0  0  0  0  0  0  0  0
    2.2500    0.5070    0.0000 C   0  0  0  0  0  0  0  0  0  0  0  0
    3.7500    0.5070    0.0000 C   0  0  0  0  0  0  0  0  0  0  0  0
    4.7540   -0.6070    0.0000 N   0  0  0  0  0  0  0  0  0  0  0  0
    6.1240    0.0030    0.0000 C   0  0  0  0  0  0  0  0  0  0  0  0
    7.4230   -0.7470    0.0000 N   0  0  0  0  0  0  0  0  0  0  0  0
    8.7220    0.0030    0.0000 C   0  0  0  0  0  0  0  0  0  0  0  0
    8.7220    1.5030    0.0000 O   0  0  0  0  0  0  0  0  0  0  0  0
   10.0210   -0.7470    0.0000 O   0  0  0  0  0  0  0  0  0  0  0  0
   11.3200    0.0030    0.0000 C   0  0  0  0  0  0  0  0  0  0  0  0
    5.9670    1.4940    0.0000 N   0  0  0  0  0  0  0  0  0  0  0  0
    4.5000    1.8060    0.0000 C   0  0  0  0  0  0  0  0  0  0  0  0
    3.7500    3.1050    0.0000 C   0  0  0  0  0  0  0  0  0  0  0  0
    2.2500    3.1050    0.0000 C   0  0  0  0  0  0  0  0  0  0  0  0
  1  2  1  0  0  0  0
  2  3  1  0  0  0  0
  2 15  2  0  0  0  0
  3  4  2  0  0  0  0
  4  5  1  0  0  0  0
  4 13  1  0  0  0  0
  5  6  1  0  0  0  0
  6  7  1  0  0  0  0
  6 12  2  0  0  0  0
  7  8  1  0  0  0  0
  8  9  2  0  0  0  0
  8 10  1  0  0  0  0
 10 11  1  0  0  0  0
 12 13  1  0  0  0  0
 13 14  2  0  0  0  0
 14 15  1  0  0  0  0
M  END
>  <name>
[S;thioether]c1cc2[nH]c(NC(=O)OC)nc2cc1

>  <apo>
1

>  <freq>
1

>  <freq0>
0

>  <freq1>
1

>  <freqA>
0.99887151

>  <a_count>
24

$$$$

  MOE2015           2D

 12 12  0  0  0  0  0  0  0  0999 V2000
    6.4060   -1.7170    0.0000 Br  0  0  0  0  0  0  0  0  0  0  0  0
    5.1070   -0.9670    0.0000 C   0  0  0  0  0  0  0  0  0  0  0  0
    5.1070    0.5330    0.0000 C   0  0  0  0  0  0  0  0  0  0  0  0
    6.4060    1.2830    0.0000 C   0  0  0  0  0  0  0  0  0  0  0  0
    3.8080    1.2830    0.0000 C   0  0  0  0  0  0  0  0  0  0  0  0
    2.5090    0.5330    0.0000 C   0  0  0  0  0  0  0  0  0  0  0  0
    1.2100    1.2830    0.0000 O   0  0  0  0  0  0  0  0  0  0  0  0
    1.2100    2.7830    0.0000 C   0  0  0  0  0  0  0  0  0  0  0  0
    2.5090   -0.9670    0.0000 C   0  0  0  0  0  0  0  0  0  0  0  0
    1.2100   -1.7170    0.0000 O   0  0  0  0  0  0  0  0  0  0  0  0
    1.2100   -3.2170    0.0000 C   0  0  0  0  0  0  0  0  0  0  0  0
    3.8080   -1.7170    0.0000 C   0  0  0  0  0  0  0  0  0  0  0  0
  1  2  1  0  0  0  0
  2  3  1  0  0  0  0
  2 12  2  0  0  0  0
  3  4  1  0  0  0  0
  3  5  2  0  0  0  0
  5  6  1  0  0  0  0
  6  7  1  0  0  0  0
  6  9  2  0  0  0  0
  7  8  1  0  0  0  0
  9 10  1  0  0  0  0
  9 12  1  0  0  0  0
 10 11  1  0  0  0  0
M  END
>  <name>
Brc1c([C;quatN])cc(OC)c(OC)c1

>  <apo>
1

>  <freq>
1

>  <freq0>
0

>  <freq1>
1

>  <freqA>
0.99887151

>  <a_count>
23

$$$$

  MOE2015           2D

  7  6  0  0  0  0  0  0  0  0999 V2000
    0.2140    0.0570    0.0000 C   0  0  0  0  0  0  0  0  0  0  0  0
   -1.0850   -0.6930    0.0000 C   0  0  0  0  0  0  0  0  0  0  0  0
   -2.3840    0.0570    0.0000 C   0  0  0  0  0  0  0  0  0  0  0  0
   -3.6830   -0.6930    0.0000 C   0  0  0  0  0  0  0  0  0  0  0  0
    1.5130   -0.6930    0.0000 C   0  0  0  0  0  0  0  0  0  0  0  0
    2.8120    0.0570    0.0000 C   0  0  0  0  0  0  0  0  0  0  0  0
    4.1110   -0.6930    0.0000 C   0  0  0  0  0  0  0  0  0  0  0  0
  1  2  1  0  0  0  0
  1  5  1  0  0  0  0
  2  3  1  0  0  0  0
  3  4  1  0  0  0  0
  5  6  1  0  0  0  0
  6  7  1  0  0  0  0
M  END
>  <name>
C(CC[C;amine])CCC

>  <apo>
1

>  <freq>
1

>  <freq0>
0

>  <freq1>
1

>  <freqA>
0.99887151

>  <a_count>
23

$$$$

  MOE2015           2D

 11 12  0  0  0  0  0  0  0  0999 V2000
    1.0270    1.2420    0.0000 C   0  0  0  0  0  0  0  0  0  0  0  0
    2.3260    1.9920    0.0000 C   0  0  0  0  0  0  0  0  0  0  0  0
   -0.2720    1.9920    0.0000 C   0  0  0  0  0  0  0  0  0  0  0  0
   -1.5710    1.2420    0.0000 C   0  0  0  0  0  0  0  0  0  0  0  0
   -2.8700    1.9920    0.0000 C   0  0  0  0  0  0  0  0  0  0  0  0
   -2.8700    3.4920    0.0000 C   0  0  0  0  0  0  0  0  0  0  0  0
   -4.2970    3.9560    0.0000 O   0  0  0  0  0  0  0  0  0  0  0  0
   -5.1780    2.7420    0.0000 C   0  0  0  0  0  0  0  0  0  0  0  0
   -4.2970    1.5280    0.0000 C   0  0  0  0  0  0  0  0  0  0  0  0
   -1.5710    4.2420    0.0000 C   0  0  0  0  0  0  0  0  0  0  0  0
   -0.2720    3.4920    0.0000 C   0  0  0  0  0  0  0  0  0  0  0  0
  1  2  1  0  0  0  0
  1  3  1  0  0  0  0
  3  4  1  0  0  0  0
  3 11  2  0  0  0  0
  4  5  2  0  0  0  0
  5  6  1  0  0  0  0
  5  9  1  0  0  0  0
  6  7  1  0  0  0  0
  6 10  2  0  0  0  0
  7  8  1  0  0  0  0
  8  9  1  0  0  0  0
 10 11  1  0  0  0  0
M  END
>  <name>
C([C;amine])c1cc2c(OCC2)cc1

>  <apo>
1

>  <freq>
1

>  <freq0>
0

>  <freq1>
1

>  <freqA>
0.99887151

>  <a_count>
23

$$$$

  MOE2015           2D

  8  8  0  0  1  0  0  0  0  0999 V2000
    0.6450    2.3000    0.0000 C   0  0  0  0  0  0  0  0  0  0  0  0
    1.9260    1.5200    0.0000 C   0  0  0  0  0  0  0  0  0  0  0  0
   -0.6710    1.5810    0.0000 C   0  0  1  0  0  0  0  0  0  0  0  0
   -2.0270    2.2230    0.0000 N   0  0  0  0  0  0  0  0  0  0  0  0
   -2.3040    3.6970    0.0000 C   0  0  0  0  0  0  0  0  0  0  0  0
   -3.0560    1.1320    0.0000 C   0  0  0  0  0  0  0  0  0  0  0  0
   -2.3370   -0.1840    0.0000 C   0  0  0  0  0  0  0  0  0  0  0  0
   -0.8620    0.0930    0.0000 C   0  0  0  0  0  0  0  0  0  0  0  0
  1  2  1  0  0  0  0
  3  1  1  6  0  0  0
  3  4  1  0  0  0  0
  3  8  1  0  0  0  0
  4  5  1  0  0  0  0
  4  6  1  0  0  0  0
  6  7  1  0  0  0  0
  7  8  1  0  0  0  0
M  END
>  <name>
C([C;ether])[C@H]1N(C)CCC1

>  <apo>
1

>  <freq>
1

>  <freq0>
0

>  <freq1>
1

>  <freqA>
0.99887151

>  <a_count>
23

$$$$

  MOE2015           2D

 10 10  0  0  0  0  0  0  0  0999 V2000
   -4.5000    2.5980    0.0000 C   0  0  0  0  0  0  0  0  0  0  0  0
   -5.2500    1.2990    0.0000 C   0  0  0  0  0  0  0  0  0  0  0  0
   -3.0000    2.5980    0.0000 C   0  0  0  0  0  0  0  0  0  0  0  0
   -2.2500    3.8970    0.0000 N   0  0  0  0  0  0  0  0  0  0  0  0
   -0.7500    3.8970    0.0000 C   0  0  0  0  0  0  0  0  0  0  0  0
    0.0000    2.5980    0.0000 C   0  0  0  0  0  0  0  0  0  0  0  0
    1.5000    2.5980    0.0000 C   0  0  0  0  0  0  0  0  0  0  0  0
    2.2500    3.8970    0.0000 C   0  0  0  0  0  0  0  0  0  0  0  0
   -0.7500    1.2990    0.0000 C   0  0  0  0  0  0  0  0  0  0  0  0
   -2.2500    1.2990    0.0000 C   0  0  0  0  0  0  0  0  0  0  0  0
  1  2  1  0  0  0  0
  1  3  1  0  0  0  0
  3  4  1  0  0  0  0
  3 10  2  0  0  0  0
  4  5  2  0  0  0  0
  5  6  1  0  0  0  0
  6  7  1  0  0  0  0
  6  9  2  0  0  0  0
  7  8  1  0  0  0  0
  9 10  1  0  0  0  0
M  END
>  <name>
C([C;ether])c1ncc(CC)cc1

>  <apo>
1

>  <freq>
1

>  <freq0>
0

>  <freq1>
1

>  <freqA>
0.99887151

>  <a_count>
23

$$$$

  MOE2015           2D

 14 15  0  0  1  0  0  0  0  0999 V2000
    0.0000    0.0000    0.0000 Cl  0  0  0  0  0  0  0  0  0  0  0  0
    1.5000    0.0000    0.0000 C   0  0  0  0  0  0  0  0  0  0  0  0
    2.2500    1.2990    0.0000 C   0  0  0  0  0  0  0  0  0  0  0  0
    1.5000    2.5980    0.0000 C   0  0  0  0  0  0  0  0  0  0  0  0
    2.2500    3.8970    0.0000 O   0  0  0  0  0  0  0  0  0  0  0  0
    0.0000    2.5980    0.0000 O   0  0  0  0  0  0  0  0  0  0  0  0
    3.7500    1.2990    0.0000 N   0  0  0  0  0  0  0  0  0  0  0  0
    5.0490    2.0490    0.0000 C   0  0  0  0  0  0  0  0  0  0  0  0
    5.4370    3.4980    0.0000 O   0  0  0  0  0  0  0  0  0  0  0  0
    5.7990    0.7500    0.0000 C   0  0  1  0  0  0  0  0  0  0  0  0
    7.2480    0.3620    0.0000 N   0  0  0  0  0  0  0  0  0  0  0  0
    4.5000    0.0000    0.0000 C   0  0  1  0  0  0  0  0  0  0  0  0
    3.7500   -1.2990    0.0000 C   0  0  0  0  0  0  0  0  0  0  0  0
    2.2500   -1.2990    0.0000 C   0  0  0  0  0  0  0  0  0  0  0  0
  1  2  1  0  0  0  0
  2  3  2  0  0  0  0
  2 14  1  0  0  0  0
  3  4  1  0  0  0  0
  3  7  1  0  0  0  0
  4  5  2  0  0  0  0
  4  6  1  0  0  0  0
  7  8  1  0  0  0  0
 12  7  1  1  0  0  0
  8  9  2  0  0  0  0
  8 10  1  0  0  0  0
 10 11  1  1  0  0  0
 10 12  1  0  0  0  0
 12 13  1  0  0  0  0
 13 14  1  0  0  0  0
M  END
>  <name>
ClC1=C(C(=O)O)N2C(=O)[C@@H]([N;amide])[C@H]2CC1

>  <apo>
1

>  <freq>
1

>  <freq0>
0

>  <freq1>
1

>  <freqA>
0.99887151

>  <a_count>
23

$$$$

  MOE2015           2D

 13 14  0  0  0  0  0  0  0  0999 V2000
    0.4520    1.7760    0.0000 Cl  0  0  0  0  0  0  0  0  0  0  0  0
    1.7510    1.0260    0.0000 C   0  0  0  0  0  0  0  0  0  0  0  0
    1.7510   -0.4740    0.0000 C   0  0  0  0  0  0  0  0  0  0  0  0
    0.4520   -1.2240    0.0000 C   0  0  0  0  0  0  0  0  0  0  0  0
    0.4520   -2.7240    0.0000 C   0  0  0  0  0  0  0  0  0  0  0  0
    3.0500   -1.2240    0.0000 C   0  0  0  0  0  0  0  0  0  0  0  0
    4.3490   -0.4740    0.0000 C   0  0  0  0  0  0  0  0  0  0  0  0
    4.3490    1.0260    0.0000 C   0  0  0  0  0  0  0  0  0  0  0  0
    5.7750    1.4900    0.0000 N   0  0  0  0  0  0  0  0  0  0  0  0
    6.6570    0.2760    0.0000 C   0  0  0  0  0  0  0  0  0  0  0  0
    8.1570    0.2760    0.0000 O   0  0  0  0  0  0  0  0  0  0  0  0
    5.7750   -0.9380    0.0000 C   0  0  0  0  0  0  0  0  0  0  0  0
    3.0500    1.7760    0.0000 C   0  0  0  0  0  0  0  0  0  0  0  0
  1  2  1  0  0  0  0
  2  3  1  0  0  0  0
  2 13  2  0  0  0  0
  3  4  1  0  0  0  0
  3  6  2  0  0  0  0
  4  5  1  0  0  0  0
  6  7  1  0  0  0  0
  7  8  2  0  0  0  0
  7 12  1  0  0  0  0
  8  9  1  0  0  0  0
  8 13  1  0  0  0  0
  9 10  1  0  0  0  0
 10 11  2  0  0  0  0
 10 12  1  0  0  0  0
M  END
>  <name>
Clc1c(C[C;amine])cc2c(NC(=O)C2)c1

>  <apo>
1

>  <freq>
1

>  <freq0>
0

>  <freq1>
1

>  <freqA>
0.99887151

>  <a_count>
23

$$$$

  MOE2015           2D

 14 15  0  0  0  0  0  0  0  0999 V2000
    3.0110    3.0110    0.0000 Cl  0  0  0  0  0  0  0  0  0  0  0  0
    3.0110    1.5110    0.0000 C   0  0  0  0  0  0  0  0  0  0  0  0
    4.3100    0.7610    0.0000 C   0  0  0  0  0  0  0  0  0  0  0  0
    5.6090    1.5110    0.0000 C   0  0  0  0  0  0  0  0  0  0  0  0
    6.9080    0.7610    0.0000 O   0  0  0  0  0  0  0  0  0  0  0  0
    4.3100   -0.7390    0.0000 C   0  0  0  0  0  0  0  0  0  0  0  0
    5.6090   -1.4890    0.0000 Cl  0  0  0  0  0  0  0  0  0  0  0  0
    3.0110   -1.4890    0.0000 C   0  0  0  0  0  0  0  0  0  0  0  0
    1.7110   -0.7390    0.0000 C   0  0  0  0  0  0  0  0  0  0  0  0
    1.7110    0.7610    0.0000 C   0  0  0  0  0  0  0  0  0  0  0  0
    0.4120    1.5110    0.0000 C   0  0  0  0  0  0  0  0  0  0  0  0
   -0.8870    0.7610    0.0000 C   0  0  0  0  0  0  0  0  0  0  0  0
   -0.8870   -0.7390    0.0000 N   0  0  0  0  0  0  0  0  0  0  0  0
    0.4120   -1.4890    0.0000 C   0  0  0  0  0  0  0  0  0  0  0  0
  1  2  1  0  0  0  0
  2  3  1  0  0  0  0
  2 10  2  0  0  0  0
  3  4  1  0  0  0  0
  3  6  2  0  0  0  0
  4  5  2  0  0  0  0
  6  7  1  0  0  0  0
  6  8  1  0  0  0  0
  8  9  2  0  0  0  0
  9 10  1  0  0  0  0
  9 14  1  0  0  0  0
 10 11  1  0  0  0  0
 11 12  1  0  0  0  0
 12 13  1  0  0  0  0
 13 14  1  0  0  0  0
M  END
>  <name>
Clc1c([C;amide]=O)c(Cl)cc2c1CC[N;amide]C2

>  <apo>
2

>  <freq>
1

>  <freq0>
0

>  <freq1>
1

>  <freqA>
0.99887151

>  <a_count>
23

$$$$

  MOE2015           2D

 13 13  0  0  1  0  0  0  0  0999 V2000
    1.2120    4.6970    0.0000 Cl  0  0  0  0  0  0  0  0  0  0  0  0
    0.4620    3.3970    0.0000 C   0  0  0  0  0  0  0  0  0  0  0  0
    1.2120    2.0980    0.0000 C   0  0  0  0  0  0  0  0  0  0  0  0
    2.7120    2.0980    0.0000 C   0  0  2  0  0  0  0  0  0  0  0  0
    3.4620    0.7990    0.0000 O   0  0  0  0  0  0  0  0  0  0  0  0
    4.9620    0.7990    0.0000 C   0  0  0  0  0  0  0  0  0  0  0  0
    5.7120   -0.5000    0.0000 O   0  0  0  0  0  0  0  0  0  0  0  0
    5.7120    2.0980    0.0000 N   0  0  0  0  0  0  0  0  0  0  0  0
    3.4620    3.3970    0.0000 C   0  0  0  0  0  0  0  0  0  0  0  0
    0.4620    0.7990    0.0000 C   0  0  0  0  0  0  0  0  0  0  0  0
   -1.0380    0.7990    0.0000 C   0  0  0  0  0  0  0  0  0  0  0  0
   -1.7880    2.0980    0.0000 C   0  0  0  0  0  0  0  0  0  0  0  0
   -1.0380    3.3970    0.0000 C   0  0  0  0  0  0  0  0  0  0  0  0
  1  2  1  0  0  0  0
  2  3  2  0  0  0  0
  2 13  1  0  0  0  0
  3  4  1  0  0  0  0
  3 10  1  0  0  0  0
  4  5  1  0  0  0  0
  4  9  1  1  0  0  0
  5  6  1  0  0  0  0
  6  7  2  0  0  0  0
  6  8  1  0  0  0  0
 10 11  2  0  0  0  0
 11 12  1  0  0  0  0
 12 13  2  0  0  0  0
M  END
>  <name>
Clc1c([C@H](OC(=O)N)[C;NaroC])cccc1

>  <apo>
1

>  <freq>
1

>  <freq0>
0

>  <freq1>
1

>  <freqA>
0.99887151

>  <a_count>
23

$$$$

  MOE2015           2D

 13 13  0  0  0  0  0  0  0  0999 V2000
   -0.8080    0.8080    0.0000 F   0  0  0  0  0  0  0  0  0  0  0  0
   -0.8080    2.3080    0.0000 C   0  0  0  0  0  0  0  0  0  0  0  0
   -2.3080    2.3080    0.0000 F   0  0  0  0  0  0  0  0  0  0  0  0
   -0.8080    3.8080    0.0000 F   0  0  0  0  0  0  0  0  0  0  0  0
    0.6920    2.3080    0.0000 C   0  0  0  0  0  0  0  0  0  0  0  0
    0.6920    3.8080    0.0000 C   0  0  0  0  0  0  0  0  0  0  0  0
    0.6920    0.8080    0.0000 C   0  0  0  0  0  0  0  0  0  0  0  0
    2.1920    2.3080    0.0000 C   0  0  0  0  0  0  0  0  0  0  0  0
    2.9420    1.0090    0.0000 N   0  0  0  0  0  0  0  0  0  0  0  0
    4.4420    1.0090    0.0000 C   0  0  0  0  0  0  0  0  0  0  0  0
    5.1920    2.3080    0.0000 C   0  0  0  0  0  0  0  0  0  0  0  0
    4.4420    3.6070    0.0000 C   0  0  0  0  0  0  0  0  0  0  0  0
    2.9420    3.6070    0.0000 C   0  0  0  0  0  0  0  0  0  0  0  0
  1  2  1  0  0  0  0
  2  3  1  0  0  0  0
  2  4  1  0  0  0  0
  2  5  1  0  0  0  0
  5  6  1  0  0  0  0
  5  7  1  0  0  0  0
  5  8  1  0  0  0  0
  8  9  1  0  0  0  0
  8 13  2  0  0  0  0
  9 10  2  0  0  0  0
 10 11  1  0  0  0  0
 11 12  2  0  0  0  0
 12 13  1  0  0  0  0
M  END
>  <name>
FC(F)(F)C(C)(C)c1ncc[c;biphenyl]c1

>  <apo>
1

>  <freq>
1

>  <freq0>
0

>  <freq1>
1

>  <freqA>
0.99887151

>  <a_count>
23

$$$$

  MOE2015           2D

 15 16  0  0  0  0  0  0  0  0999 V2000
    0.4270   -0.7390    0.0000 F   0  0  0  0  0  0  0  0  0  0  0  0
    1.1770    0.5600    0.0000 C   0  0  0  0  0  0  0  0  0  0  0  0
    1.9270   -0.7390    0.0000 F   0  0  0  0  0  0  0  0  0  0  0  0
   -0.1220    1.3100    0.0000 C   0  0  0  0  0  0  0  0  0  0  0  0
    2.4760    1.3100    0.0000 C   0  0  0  0  0  0  0  0  0  0  0  0
    2.4760    2.8100    0.0000 C   0  0  0  0  0  0  0  0  0  0  0  0
    1.1770    3.5600    0.0000 O   0  0  0  0  0  0  0  0  0  0  0  0
    3.7750    3.5600    0.0000 N   0  0  0  0  0  0  0  0  0  0  0  0
    5.0740    2.8100    0.0000 C   0  0  0  0  0  0  0  0  0  0  0  0
    5.0740    1.3100    0.0000 C   0  0  0  0  0  0  0  0  0  0  0  0
    3.7750    0.5600    0.0000 N   0  0  0  0  0  0  0  0  0  0  0  0
    6.3730    0.5600    0.0000 C   0  0  0  0  0  0  0  0  0  0  0  0
    7.6720    1.3100    0.0000 C   0  0  0  0  0  0  0  0  0  0  0  0
    7.6720    2.8100    0.0000 C   0  0  0  0  0  0  0  0  0  0  0  0
    6.3730    3.5600    0.0000 C   0  0  0  0  0  0  0  0  0  0  0  0
  1  2  1  0  0  0  0
  2  3  1  0  0  0  0
  2  4  1  0  0  0  0
  2  5  1  0  0  0  0
  5  6  1  0  0  0  0
  5 11  2  0  0  0  0
  6  7  1  0  0  0  0
  6  8  2  0  0  0  0
  8  9  1  0  0  0  0
  9 10  1  0  0  0  0
  9 15  2  0  0  0  0
 10 11  1  0  0  0  0
 10 12  2  0  0  0  0
 12 13  1  0  0  0  0
 13 14  2  0  0  0  0
 14 15  1  0  0  0  0
M  END
>  <name>
FC(F)([C;olefin])c1c([O;ether])nc2c(n1)cccc2

>  <apo>
2

>  <freq>
1

>  <freq0>
0

>  <freq1>
1

>  <freqA>
0.99887151

>  <a_count>
23

$$$$

  MOE2015           2D

 15 17  0  0  0  0  0  0  0  0999 V2000
    2.6040    2.0210    0.0000 F   0  0  0  0  0  0  0  0  0  0  0  0
    3.0670    0.5940    0.0000 C   0  0  0  0  0  0  0  0  0  0  0  0
    4.1090    1.6730    0.0000 F   0  0  0  0  0  0  0  0  0  0  0  0
    1.6670    0.0570    0.0000 C   0  0  0  0  0  0  0  0  0  0  0  0
    1.7450   -1.4410    0.0000 C   0  0  0  0  0  0  0  0  0  0  0  0
    3.1940   -1.8300    0.0000 C   0  0  0  0  0  0  0  0  0  0  0  0
    4.0110   -0.5720    0.0000 C   0  0  0  0  0  0  0  0  0  0  0  0
    5.5090   -0.6500    0.0000 C   0  0  0  0  0  0  0  0  0  0  0  0
    6.1900   -1.9870    0.0000 C   0  0  0  0  0  0  0  0  0  0  0  0
    5.3730   -3.2450    0.0000 C   0  0  0  0  0  0  0  0  0  0  0  0
    3.8750   -3.1660    0.0000 C   0  0  0  0  0  0  0  0  0  0  0  0
    0.4870   -2.2580    0.0000 C   0  0  0  0  0  0  0  0  0  0  0  0
   -0.8490   -1.5770    0.0000 C   0  0  0  0  0  0  0  0  0  0  0  0
   -0.9280   -0.0790    0.0000 C   0  0  0  0  0  0  0  0  0  0  0  0
    0.3300    0.7380    0.0000 C   0  0  0  0  0  0  0  0  0  0  0  0
  1  2  1  0  0  0  0
  2  3  1  0  0  0  0
  2  4  1  0  0  0  0
  2  7  1  0  0  0  0
  4  5  1  0  0  0  0
  4 15  2  0  0  0  0
  5  6  1  0  0  0  0
  5 12  2  0  0  0  0
  6  7  1  0  0  0  0
  6 11  2  0  0  0  0
  7  8  2  0  0  0  0
  8  9  1  0  0  0  0
  9 10  2  0  0  0  0
 10 11  1  0  0  0  0
 12 13  1  0  0  0  0
 13 14  2  0  0  0  0
 14 15  1  0  0  0  0
M  END
>  <name>
FC1(F)c2c(-c3c1c[c;biphenyl]cc3)cc[c;biphenyl]c2

>  <apo>
2

>  <freq>
1

>  <freq0>
0

>  <freq1>
1

>  <freqA>
0.99887151

>  <a_count>
23

$$$$

  MOE2015           2D

 11 11  0  0  0  0  0  0  0  0999 V2000
   -2.3180    4.0150    0.0000 O   0  0  0  0  0  0  0  0  0  0  0  0
   -1.5680    5.3140    0.0000 C   0  0  0  0  0  0  0  0  0  0  0  0
   -1.5680    2.7160    0.0000 C   0  0  0  0  0  0  0  0  0  0  0  0
   -2.3180    1.4170    0.0000 C   0  0  0  0  0  0  0  0  0  0  0  0
   -3.8180    1.4170    0.0000 O   0  0  0  0  0  0  0  0  0  0  0  0
   -4.5680    0.1180    0.0000 C   0  0  0  0  0  0  0  0  0  0  0  0
   -1.5680    0.1180    0.0000 C   0  0  0  0  0  0  0  0  0  0  0  0
   -0.0680    0.1180    0.0000 C   0  0  0  0  0  0  0  0  0  0  0  0
    0.6820    1.4170    0.0000 C   0  0  0  0  0  0  0  0  0  0  0  0
    2.1820    1.4170    0.0000 C   0  0  0  0  0  0  0  0  0  0  0  0
   -0.0680    2.7160    0.0000 C   0  0  0  0  0  0  0  0  0  0  0  0
  1  2  1  0  0  0  0
  1  3  1  0  0  0  0
  3  4  1  0  0  0  0
  3 11  2  0  0  0  0
  4  5  1  0  0  0  0
  4  7  2  0  0  0  0
  5  6  1  0  0  0  0
  7  8  1  0  0  0  0
  8  9  2  0  0  0  0
  9 10  1  0  0  0  0
  9 11  1  0  0  0  0
M  END
>  <name>
O(C)c1c(OC)ccc([C;olefin])c1

>  <apo>
1

>  <freq>
1

>  <freq0>
0

>  <freq1>
1

>  <freqA>
0.99887151

>  <a_count>
23

$$$$

  MOE2015           2D

 13 14  0  0  0  0  0  0  0  0999 V2000
    1.1940    1.3400    0.0000 O   0  0  0  0  0  0  0  0  0  0  0  0
    2.4930    2.0900    0.0000 C   0  0  0  0  0  0  0  0  0  0  0  0
   -0.1050    2.0900    0.0000 C   0  0  0  0  0  0  0  0  0  0  0  0
   -0.1050    3.5900    0.0000 C   0  0  0  0  0  0  0  0  0  0  0  0
   -1.4040    4.3400    0.0000 C   0  0  0  0  0  0  0  0  0  0  0  0
   -1.4040    5.8400    0.0000 N   0  0  0  0  0  0  0  0  0  0  0  0
   -2.7030    3.5900    0.0000 C   0  0  0  0  0  0  0  0  0  0  0  0
   -4.0020    4.3400    0.0000 N   0  0  0  0  0  0  0  0  0  0  0  0
   -5.3010    3.5900    0.0000 C   0  0  0  0  0  0  0  0  0  0  0  0
   -5.3010    2.0900    0.0000 C   0  0  0  0  0  0  0  0  0  0  0  0
   -4.0020    1.3400    0.0000 C   0  0  0  0  0  0  0  0  0  0  0  0
   -2.7030    2.0900    0.0000 C   0  0  0  0  0  0  0  0  0  0  0  0
   -1.4040    1.3400    0.0000 C   0  0  0  0  0  0  0  0  0  0  0  0
  1  2  1  0  0  0  0
  1  3  1  0  0  0  0
  3  4  1  0  0  0  0
  3 13  2  0  0  0  0
  4  5  2  0  0  0  0
  5  6  1  0  0  0  0
  5  7  1  0  0  0  0
  7  8  1  0  0  0  0
  7 12  2  0  0  0  0
  8  9  2  0  0  0  0
  9 10  1  0  0  0  0
 10 11  2  0  0  0  0
 11 12  1  0  0  0  0
 12 13  1  0  0  0  0
M  END
>  <name>
O(C)c1cc([N;amine])c2ncccc2c1

>  <apo>
1

>  <freq>
1

>  <freq0>
0

>  <freq1>
1

>  <freqA>
0.99887151

>  <a_count>
23

$$$$

  MOE2015           2D

 12 12  0  0  0  0  0  0  0  0999 V2000
   -1.5000    0.8660    0.0000 O   0  0  0  0  0  0  0  0  0  0  0  0
   -2.2500    2.1650    0.0000 N   0  0  0  0  0  0  0  0  0  0  0  0
   -1.5000    3.4640    0.0000 C   0  0  0  0  0  0  0  0  0  0  0  0
   -2.2500    4.7630    0.0000 N   0  0  0  0  0  0  0  0  0  0  0  0
    0.0000    3.4640    0.0000 C   0  0  0  0  0  0  0  0  0  0  0  0
    0.7500    2.1650    0.0000 C   0  0  0  0  0  0  0  0  0  0  0  0
    2.2500    2.1650    0.0000 C   0  0  0  0  0  0  0  0  0  0  0  0
    3.0000    3.4640    0.0000 C   0  0  0  0  0  0  0  0  0  0  0  0
    4.5000    3.4640    0.0000 C   0  0  0  0  0  0  0  0  0  0  0  0
    5.2500    4.7630    0.0000 N   0  0  0  0  0  0  0  0  0  0  0  0
    2.2500    4.7630    0.0000 C   0  0  0  0  0  0  0  0  0  0  0  0
    0.7500    4.7630    0.0000 C   0  0  0  0  0  0  0  0  0  0  0  0
  1  2  1  0  0  0  0
  2  3  2  0  0  0  0
  3  4  1  0  0  0  0
  3  5  1  0  0  0  0
  5  6  1  0  0  0  0
  5 12  2  0  0  0  0
  6  7  2  0  0  0  0
  7  8  1  0  0  0  0
  8  9  1  0  0  0  0
  8 11  2  0  0  0  0
  9 10  1  0  0  0  0
 11 12  1  0  0  0  0
M  END
>  <name>
O/N=C(/N)\c1ccc(C[N;amide])cc1

>  <apo>
1

>  <freq>
1

>  <freq0>
0

>  <freq1>
1

>  <freqA>
0.99887151

>  <a_count>
23

$$$$

  MOE2015           2D

 10  9  0  0  0  0  0  0  0  0999 V2000
    0.5570    2.0800    0.0000 O   0  0  0  0  0  0  0  0  0  0  0  0
    1.8560    1.3300    0.0000 C   0  0  0  0  0  0  0  0  0  0  0  0
    3.1550    2.0800    0.0000 O   0  0  0  0  0  0  0  0  0  0  0  0
    1.8560   -0.1700    0.0000 C   0  0  0  0  0  0  0  0  0  0  0  0
    0.5570   -0.9200    0.0000 N   0  0  0  0  0  0  0  0  0  0  0  0
    3.1550   -0.9200    0.0000 C   0  0  0  0  0  0  0  0  0  0  0  0
    4.4540   -0.1700    0.0000 C   0  0  0  0  0  0  0  0  0  0  0  0
    5.7530   -0.9200    0.0000 C   0  0  0  0  0  0  0  0  0  0  0  0
    7.0520   -0.1700    0.0000 C   0  0  0  0  0  0  0  0  0  0  0  0
    8.3520   -0.9200    0.0000 C   0  0  0  0  0  0  0  0  0  0  0  0
  1  2  2  0  0  0  0
  2  3  1  0  0  0  0
  2  4  1  0  0  0  0
  4  5  1  0  0  0  0
  4  6  2  0  0  0  0
  6  7  1  0  0  0  0
  7  8  1  0  0  0  0
  8  9  1  0  0  0  0
  9 10  1  0  0  0  0
M  END
>  <name>
O=C(O)/C(/[N;amide])=C\CCC[C;thioether]

>  <apo>
2

>  <freq>
1

>  <freq0>
0

>  <freq1>
1

>  <freqA>
0.99887151

>  <a_count>
23

$$$$

  MOE2015           2D

 14 15  0  0  1  0  0  0  0  0999 V2000
    4.4240   -4.4240    0.0000 O   0  0  0  0  0  0  0  0  0  0  0  0
    4.4240   -2.9240    0.0000 C   0  0  0  0  0  0  0  0  0  0  0  0
    5.7230   -2.1740    0.0000 O   0  0  0  0  0  0  0  0  0  0  0  0
    3.1250   -2.1740    0.0000 C   0  0  3  0  0  0  0  0  0  0  0  0
    3.1250   -0.6740    0.0000 C   0  0  0  0  0  0  0  0  0  0  0  0
    1.8260   -2.9240    0.0000 C   0  0  0  0  0  0  0  0  0  0  0  0
    0.5270   -2.1740    0.0000 C   0  0  0  0  0  0  0  0  0  0  0  0
   -0.7720   -2.9240    0.0000 C   0  0  0  0  0  0  0  0  0  0  0  0
   -2.1990   -2.4600    0.0000 N   0  0  0  0  0  0  0  0  0  0  0  0
   -3.0810   -3.6740    0.0000 C   0  0  0  0  0  0  0  0  0  0  0  0
   -2.1990   -4.8870    0.0000 O   0  0  0  0  0  0  0  0  0  0  0  0
   -0.7720   -4.4240    0.0000 C   0  0  0  0  0  0  0  0  0  0  0  0
    0.5270   -5.1740    0.0000 C   0  0  0  0  0  0  0  0  0  0  0  0
    1.8260   -4.4240    0.0000 C   0  0  0  0  0  0  0  0  0  0  0  0
  1  2  2  0  0  0  0
  2  3  1  0  0  0  0
  2  4  1  0  0  0  0
  4  5  1  0  0  0  0
  4  6  1  0  0  0  0
  6  7  1  0  0  0  0
  6 14  2  0  0  0  0
  7  8  2  0  0  0  0
  8  9  1  0  0  0  0
  8 12  1  0  0  0  0
  9 10  2  0  0  0  0
 10 11  1  0  0  0  0
 11 12  1  0  0  0  0
 12 13  2  0  0  0  0
 13 14  1  0  0  0  0
M  END
>  <name>
O=C(O)C(C)c1cc2n[c;biphenyl]oc2cc1

>  <apo>
1

>  <freq>
1

>  <freq0>
0

>  <freq1>
1

>  <freqA>
0.99887151

>  <a_count>
23

$$$$

  MOE2015           2D

  9  8  0  0  0  0  0  0  0  0999 V2000
   -0.3030    1.1320    0.0000 O   0  0  0  0  0  0  0  0  0  0  0  0
    0.9960    1.8820    0.0000 C   0  0  0  0  0  0  0  0  0  0  0  0
    0.9960    3.3820    0.0000 O   0  0  0  0  0  0  0  0  0  0  0  0
    2.2950    1.1320    0.0000 C   0  0  0  0  0  0  0  0  0  0  0  0
    3.5940    0.3820    0.0000 C   0  0  0  0  0  0  0  0  0  0  0  0
    4.8930    1.1320    0.0000 C   0  0  0  0  0  0  0  0  0  0  0  0
    6.1920    0.3820    0.0000 C   0  0  0  0  0  0  0  0  0  0  0  0
    1.5450   -0.1670    0.0000 C   0  0  0  0  0  0  0  0  0  0  0  0
    3.0450    2.4310    0.0000 C   0  0  0  0  0  0  0  0  0  0  0  0
  1  2  2  0  0  0  0
  2  3  1  0  0  0  0
  2  4  1  0  0  0  0
  4  5  1  0  0  0  0
  4  8  1  0  0  0  0
  4  9  1  0  0  0  0
  5  6  1  0  0  0  0
  6  7  1  0  0  0  0
M  END
>  <name>
O=C(O)C(CC[C;ether])(C)C

>  <apo>
1

>  <freq>
1

>  <freq0>
0

>  <freq1>
1

>  <freqA>
0.99887151

>  <a_count>
23

$$$$

  MOE2015           2D

 13 13  0  0  0  0  0  0  0  0999 V2000
    9.9420   -0.9330    0.0000 O   0  0  0  0  0  0  0  0  0  0  0  0
    8.6430   -1.6830    0.0000 C   0  0  0  0  0  0  0  0  0  0  0  0
    8.6430   -3.1830    0.0000 O   0  0  0  0  0  0  0  0  0  0  0  0
    7.3440   -0.9330    0.0000 C   0  0  0  0  0  0  0  0  0  0  0  0
    6.0450   -1.6830    0.0000 C   0  0  0  0  0  0  0  0  0  0  0  0
    4.7460   -0.9330    0.0000 C   0  0  0  0  0  0  0  0  0  0  0  0
    4.7460    0.5670    0.0000 O   0  0  0  0  0  0  0  0  0  0  0  0
    3.4470   -1.6830    0.0000 C   0  0  0  0  0  0  0  0  0  0  0  0
    3.4470   -3.1830    0.0000 C   0  0  0  0  0  0  0  0  0  0  0  0
    2.1480   -3.9330    0.0000 C   0  0  0  0  0  0  0  0  0  0  0  0
    0.8490   -3.1830    0.0000 C   0  0  0  0  0  0  0  0  0  0  0  0
    0.8490   -1.6830    0.0000 C   0  0  0  0  0  0  0  0  0  0  0  0
    2.1480   -0.9330    0.0000 C   0  0  0  0  0  0  0  0  0  0  0  0
  1  2  2  0  0  0  0
  2  3  1  0  0  0  0
  2  4  1  0  0  0  0
  4  5  1  0  0  0  0
  5  6  1  0  0  0  0
  6  7  2  0  0  0  0
  6  8  1  0  0  0  0
  8  9  1  0  0  0  0
  8 13  2  0  0  0  0
  9 10  2  0  0  0  0
 10 11  1  0  0  0  0
 11 12  2  0  0  0  0
 12 13  1  0  0  0  0
M  END
>  <name>
O=C(O)CCC(=O)c1cc[c;biphenyl]cc1

>  <apo>
1

>  <freq>
1

>  <freq0>
0

>  <freq1>
1

>  <freqA>
0.99887151

>  <a_count>
23

$$$$

  MOE2015           2D

 10 10  0  0  1  0  0  0  0  0999 V2000
    5.6250   -0.1300    0.0000 O   0  0  0  0  0  0  0  0  0  0  0  0
    4.8750   -1.4290    0.0000 C   0  0  0  0  0  0  0  0  0  0  0  0
    5.6250   -2.7280    0.0000 O   0  0  0  0  0  0  0  0  0  0  0  0
    3.3750   -1.4290    0.0000 C   0  0  2  0  0  0  0  0  0  0  0  0
    2.6250   -0.1300    0.0000 N   0  0  0  0  0  0  0  0  0  0  0  0
    1.1250   -0.1300    0.0000 C   0  0  0  0  0  0  0  0  0  0  0  0
    0.3750   -1.4290    0.0000 C   0  0  0  0  0  0  0  0  0  0  0  0
    1.1250   -2.7280    0.0000 C   0  0  1  0  0  0  0  0  0  0  0  0
    0.3750   -4.0270    0.0000 C   0  0  0  0  0  0  0  0  0  0  0  0
    2.6250   -2.7280    0.0000 C   0  0  0  0  0  0  0  0  0  0  0  0
  1  2  2  0  0  0  0
  2  3  1  0  0  0  0
  4  2  1  1  0  0  0
  4  5  1  0  0  0  0
  4 10  1  0  0  0  0
  5  6  1  0  0  0  0
  6  7  1  0  0  0  0
  7  8  1  0  0  0  0
  8  9  1  6  0  0  0
  8 10  1  0  0  0  0
M  END
>  <name>
O=C(O)[C@@H]1[N;amide]CC[C@@H](C)C1

>  <apo>
1

>  <freq>
1

>  <freq0>
0

>  <freq1>
1

>  <freqA>
0.99887151

>  <a_count>
23

$$$$

  MOE2015           2D

 12 12  0  0  1  0  0  0  0  0999 V2000
    7.7840    2.0860    0.0000 O   0  0  0  0  0  0  0  0  0  0  0  0
    6.4850    1.3360    0.0000 C   0  0  0  0  0  0  0  0  0  0  0  0
    6.4850   -0.1640    0.0000 O   0  0  0  0  0  0  0  0  0  0  0  0
    5.1860    2.0860    0.0000 C   0  0  2  0  0  0  0  0  0  0  0  0
    5.1860    3.5860    0.0000 N   0  0  0  0  0  0  0  0  0  0  0  0
    3.8870    1.3360    0.0000 C   0  0  0  0  0  0  0  0  0  0  0  0
    2.5880    2.0860    0.0000 C   0  0  0  0  0  0  0  0  0  0  0  0
    2.5880    3.5860    0.0000 C   0  0  0  0  0  0  0  0  0  0  0  0
    1.2890    4.3360    0.0000 C   0  0  0  0  0  0  0  0  0  0  0  0
   -0.0100    3.5860    0.0000 C   0  0  0  0  0  0  0  0  0  0  0  0
   -0.0100    2.0860    0.0000 C   0  0  0  0  0  0  0  0  0  0  0  0
    1.2890    1.3360    0.0000 C   0  0  0  0  0  0  0  0  0  0  0  0
  1  2  2  0  0  0  0
  2  3  1  0  0  0  0
  2  4  1  0  0  0  0
  4  5  1  1  0  0  0
  4  6  1  0  0  0  0
  6  7  1  0  0  0  0
  7  8  1  0  0  0  0
  7 12  2  0  0  0  0
  8  9  2  0  0  0  0
  9 10  1  0  0  0  0
 10 11  2  0  0  0  0
 11 12  1  0  0  0  0
M  END
>  <name>
O=C(O)[C@H]([N;amide])Cc1ccccc1

>  <apo>
1

>  <freq>
1

>  <freq0>
0

>  <freq1>
1

>  <freqA>
0.99887151

>  <a_count>
23

$$$$

  MOE2015           2D

 12 13  0  0  1  0  0  0  0  0999 V2000
    7.2980    2.2120    0.0000 O   0  0  0  0  0  0  0  0  0  0  0  0
    5.9990    2.9620    0.0000 C   0  0  0  0  0  0  0  0  0  0  0  0
    5.9990    4.4620    0.0000 O   0  0  0  0  0  0  0  0  0  0  0  0
    4.7000    2.2120    0.0000 C   0  0  1  0  0  0  0  0  0  0  0  0
    4.5430    0.7210    0.0000 N   0  0  0  0  0  0  0  0  0  0  0  0
    3.0760    0.4090    0.0000 C   0  0  0  0  0  0  0  0  0  0  0  0
    2.3260    1.7080    0.0000 C   0  0  0  0  0  0  0  0  0  0  0  0
    1.3230    0.5930    0.0000 S   0  0  0  0  0  0  0  0  0  0  0  0
   -0.0480    1.2030    0.0000 C   0  0  0  0  0  0  0  0  0  0  0  0
    0.1090    2.6950    0.0000 C   0  0  0  0  0  0  0  0  0  0  0  0
    1.5760    3.0070    0.0000 S   0  0  0  0  0  0  0  0  0  0  0  0
    3.3300    2.8230    0.0000 C   0  0  0  0  0  0  0  0  0  0  0  0
  1  2  2  0  0  0  0
  2  3  1  0  0  0  0
  4  2  1  1  0  0  0
  4  5  1  0  0  0  0
  4 12  1  0  0  0  0
  5  6  1  0  0  0  0
  6  7  1  0  0  0  0
  7  8  1  0  0  0  0
  7 11  1  0  0  0  0
  7 12  1  0  0  0  0
  8  9  1  0  0  0  0
  9 10  1  0  0  0  0
 10 11  1  0  0  0  0
M  END
>  <name>
O=C(O)[C@H]1[N;amide]CC2(SCCS2)C1

>  <apo>
1

>  <freq>
1

>  <freq0>
0

>  <freq1>
1

>  <freqA>
0.99887151

>  <a_count>
23

$$$$

  MOE2015           2D

 11 11  0  0  1  0  0  0  0  0999 V2000
    3.6310    3.1390    0.0000 O   0  0  0  0  0  0  0  0  0  0  0  0
    2.4850    2.1730    0.0000 C   0  0  0  0  0  0  0  0  0  0  0  0
    2.5930    0.6760    0.0000 C   0  0  0  0  0  0  0  0  0  0  0  0
    3.8670   -0.1150    0.0000 C   0  0  0  0  0  0  0  0  0  0  0  0
    5.1890    0.5920    0.0000 C   0  0  0  0  0  0  0  0  0  0  0  0
    6.4630   -0.2000    0.0000 C   0  0  0  0  0  0  0  0  0  0  0  0
    1.2030    0.1110    0.0000 C   0  0  0  0  0  0  0  0  0  0  0  0
    0.8440   -1.3450    0.0000 C   0  0  0  0  0  0  0  0  0  0  0  0
    0.2360    1.2580    0.0000 C   0  0  3  0  0  0  0  0  0  0  0  0
   -1.2600    1.1500    0.0000 O   0  0  0  0  0  0  0  0  0  0  0  0
    1.0280    2.5320    0.0000 C   0  0  0  0  0  0  0  0  0  0  0  0
  1  2  2  0  0  0  0
  2  3  1  0  0  0  0
  2 11  1  0  0  0  0
  3  4  1  0  0  0  0
  3  7  2  0  0  0  0
  4  5  1  0  0  0  0
  5  6  2  0  0  0  0
  7  8  1  0  0  0  0
  7  9  1  0  0  0  0
  9 10  1  0  0  0  0
  9 11  1  0  0  0  0
M  END
>  <name>
O=C1C(CC=C)=C(C)C([O;ester])C1

>  <apo>
1

>  <freq>
1

>  <freq0>
0

>  <freq1>
1

>  <freqA>
0.99887151

>  <a_count>
23

$$$$

  MOE2015           2D

 11 11  0  0  0  0  0  0  0  0999 V2000
    1.7050   -2.0080    0.0000 O   0  0  0  0  0  0  0  0  0  0  0  0
    2.4550   -0.7090    0.0000 C   0  0  0  0  0  0  0  0  0  0  0  0
    1.7050    0.5900    0.0000 C   0  0  0  0  0  0  0  0  0  0  0  0
    0.2050    0.5900    0.0000 C   0  0  0  0  0  0  0  0  0  0  0  0
   -0.5450   -0.7090    0.0000 N   0  0  0  0  0  0  0  0  0  0  0  0
    2.4550    1.8900    0.0000 C   0  0  0  0  0  0  0  0  0  0  0  0
    1.7050    3.1890    0.0000 C   0  0  0  0  0  0  0  0  0  0  0  0
    3.9550    1.8900    0.0000 C   0  0  0  0  0  0  0  0  0  0  0  0
    4.7050    0.5900    0.0000 C   0  0  0  0  0  0  0  0  0  0  0  0
    6.2050    0.5900    0.0000 C   0  0  0  0  0  0  0  0  0  0  0  0
    3.9550   -0.7090    0.0000 N   0  0  0  0  0  0  0  0  0  0  0  0
  1  2  2  0  0  0  0
  2  3  1  0  0  0  0
  2 11  1  0  0  0  0
  3  4  1  0  0  0  0
  3  6  2  0  0  0  0
  4  5  1  0  0  0  0
  6  7  1  0  0  0  0
  6  8  1  0  0  0  0
  8  9  2  0  0  0  0
  9 10  1  0  0  0  0
  9 11  1  0  0  0  0
M  END
>  <name>
O=C1C(C[N;amide])=C(C)C=C(C)N1

>  <apo>
1

>  <freq>
1

>  <freq0>
0

>  <freq1>
1

>  <freqA>
0.99887151

>  <a_count>
23

$$$$

  MOE2015           2D

 13 14  0  0  0  0  0  0  0  0999 V2000
    1.5700    3.9680    0.0000 O   0  0  0  0  0  0  0  0  0  0  0  0
    1.5700    2.4680    0.0000 C   0  0  0  0  0  0  0  0  0  0  0  0
    0.2710    1.7180    0.0000 N   0  0  0  0  0  0  0  0  0  0  0  0
    0.2710    0.2180    0.0000 C   0  0  0  0  0  0  0  0  0  0  0  0
   -1.0280   -0.5320    0.0000 C   0  0  0  0  0  0  0  0  0  0  0  0
    1.5700   -0.5320    0.0000 N   0  0  0  0  0  0  0  0  0  0  0  0
    2.8690    0.2180    0.0000 C   0  0  0  0  0  0  0  0  0  0  0  0
    2.8690    1.7180    0.0000 C   0  0  0  0  0  0  0  0  0  0  0  0
    4.1680    2.4680    0.0000 C   0  0  0  0  0  0  0  0  0  0  0  0
    5.4670    1.7180    0.0000 C   0  0  0  0  0  0  0  0  0  0  0  0
    6.7660    2.4680    0.0000 C   0  0  0  0  0  0  0  0  0  0  0  0
    5.4670    0.2180    0.0000 C   0  0  0  0  0  0  0  0  0  0  0  0
    4.1680   -0.5320    0.0000 C   0  0  0  0  0  0  0  0  0  0  0  0
  1  2  2  0  0  0  0
  2  3  1  0  0  0  0
  2  8  1  0  0  0  0
  3  4  2  0  0  0  0
  4  5  1  0  0  0  0
  4  6  1  0  0  0  0
  6  7  1  0  0  0  0
  7  8  1  0  0  0  0
  7 13  2  0  0  0  0
  8  9  2  0  0  0  0
  9 10  1  0  0  0  0
 10 11  1  0  0  0  0
 10 12  2  0  0  0  0
 12 13  1  0  0  0  0
M  END
>  <name>
O=C1N=C(C)Nc2c1cc([C;amine])cc2

>  <apo>
1

>  <freq>
1

>  <freq0>
0

>  <freq1>
1

>  <freqA>
0.99887151

>  <a_count>
23

$$$$

  MOE2015           2D

 12 13  0  0  0  0  0  0  0  0999 V2000
    7.8110   -0.9680    0.0000 O   0  0  0  0  0  0  0  0  0  0  0  0
    6.5120   -0.2180    0.0000 C   0  0  0  0  0  0  0  0  0  0  0  0
    6.3550    1.2740    0.0000 N   0  0  0  0  0  0  0  0  0  0  0  0
    4.8880    1.5860    0.0000 C   0  0  0  0  0  0  0  0  0  0  0  0
    4.1380    0.2870    0.0000 C   0  0  0  0  0  0  0  0  0  0  0  0
    2.6380    0.2870    0.0000 C   0  0  0  0  0  0  0  0  0  0  0  0
    1.8880   -1.0120    0.0000 C   0  0  0  0  0  0  0  0  0  0  0  0
    0.3880   -1.0120    0.0000 C   0  0  0  0  0  0  0  0  0  0  0  0
    1.8880    1.5860    0.0000 C   0  0  0  0  0  0  0  0  0  0  0  0
    2.6380    2.8850    0.0000 C   0  0  0  0  0  0  0  0  0  0  0  0
    4.1380    2.8850    0.0000 C   0  0  0  0  0  0  0  0  0  0  0  0
    5.1410   -0.8280    0.0000 C   0  0  0  0  0  0  0  0  0  0  0  0
  1  2  2  0  0  0  0
  2  3  1  0  0  0  0
  2 12  1  0  0  0  0
  3  4  1  0  0  0  0
  4  5  1  0  0  0  0
  4 11  2  0  0  0  0
  5  6  2  0  0  0  0
  5 12  1  0  0  0  0
  6  7  1  0  0  0  0
  6  9  1  0  0  0  0
  7  8  1  0  0  0  0
  9 10  2  0  0  0  0
 10 11  1  0  0  0  0
M  END
>  <name>
O=C1Nc2c(c(C[C;amine])ccc2)C1

>  <apo>
1

>  <freq>
1

>  <freq0>
0

>  <freq1>
1

>  <freqA>
0.99887151

>  <a_count>
23

$$$$

  MOE2015           2D

 10  9  0  0  1  0  0  0  0  0999 V2000
    7.9500   -1.8190    0.0000 O   0  0  0  0  0  0  0  0  0  0  0  0
    6.4500   -1.8190    0.0000 C   0  0  0  0  0  0  0  0  0  0  0  0
    5.7000   -0.5200    0.0000 N   0  0  0  0  0  0  0  0  0  0  0  0
    4.2000   -0.5200    0.0000 C   0  0  2  0  0  0  0  0  0  0  0  0
    3.4500    0.7790    0.0000 C   0  0  0  0  0  0  0  0  0  0  0  0
    4.2000    2.0780    0.0000 O   0  0  0  0  0  0  0  0  0  0  0  0
    3.4500   -1.8190    0.0000 C   0  0  0  0  0  0  0  0  0  0  0  0
    1.9500   -1.8190    0.0000 C   0  0  0  0  0  0  0  0  0  0  0  0
    1.2000   -3.1180    0.0000 C   0  0  0  0  0  0  0  0  0  0  0  0
    1.2000   -0.5200    0.0000 C   0  0  0  0  0  0  0  0  0  0  0  0
  1  2  2  0  0  0  0
  2  3  1  0  0  0  0
  4  3  1  1  0  0  0
  4  5  1  0  0  0  0
  4  7  1  0  0  0  0
  5  6  2  0  0  0  0
  7  8  1  0  0  0  0
  8  9  1  0  0  0  0
  8 10  1  0  0  0  0
M  END
>  <name>
O=CN[C@H]([C;ester]=O)CC(C)C

>  <apo>
1

>  <freq>
1

>  <freq0>
0

>  <freq1>
1

>  <freqA>
0.99887151

>  <a_count>
23

$$$$

  MOE2015           2D

 11 10  0  0  1  0  0  0  0  0999 V2000
   -0.3280    1.2260    0.0000 O   0  0  0  0  0  0  0  0  0  0  0  0
    0.9710    1.9760    0.0000 C   0  0  0  0  0  0  0  0  0  0  0  0
    2.2700    1.2260    0.0000 C   0  0  2  0  0  0  0  0  0  0  0  0
    2.2700   -0.2740    0.0000 O   0  0  0  0  0  0  0  0  0  0  0  0
    3.5690    1.9760    0.0000 C   0  0  2  0  0  0  0  0  0  0  0  0
    3.5690    3.4760    0.0000 O   0  0  0  0  0  0  0  0  0  0  0  0
    4.8680    1.2260    0.0000 C   0  0  0  0  0  0  0  0  0  0  0  0
    6.1670    1.9760    0.0000 C   0  0  1  0  0  0  0  0  0  0  0  0
    6.1670    3.4760    0.0000 O   0  0  0  0  0  0  0  0  0  0  0  0
    7.4660    1.2260    0.0000 C   0  0  0  0  0  0  0  0  0  0  0  0
    8.7650    1.9760    0.0000 O   0  0  0  0  0  0  0  0  0  0  0  0
  1  2  2  0  0  0  0
  2  3  1  0  0  0  0
  3  4  1  1  0  0  0
  3  5  1  0  0  0  0
  5  6  1  6  0  0  0
  5  7  1  0  0  0  0
  7  8  1  0  0  0  0
  8  9  1  1  0  0  0
  8 10  1  0  0  0  0
 10 11  1  0  0  0  0
M  END
>  <name>
O=C[C@H](O)[C@H](O)[C;ether][C@@H](O)CO

>  <apo>
1

>  <freq>
1

>  <freq0>
0

>  <freq1>
1

>  <freqA>
0.99887151

>  <a_count>
23

$$$$

  MOE2015           2D

 13 14  0  0  0  0  0  0  0  0999 V2000
    9.3460    1.2060    0.0000 O   0  0  0  0  0  0  0  0  0  0  0  0
    8.2210    2.1970    0.0000 C   0  0  0  0  0  0  0  0  0  0  0  0
    6.7990    1.7180    0.0000 C   0  0  0  0  0  0  0  0  0  0  0  0
    5.6740    2.7100    0.0000 C   0  0  0  0  0  0  0  0  0  0  0  0
    4.2100    2.3820    0.0000 N   0  0  0  0  0  0  0  0  0  0  0  0
    3.4460    3.6730    0.0000 C   0  0  0  0  0  0  0  0  0  0  0  0
    4.4380    4.7990    0.0000 N   0  0  0  0  0  0  0  0  0  0  0  0
    5.8140    4.2030    0.0000 C   0  0  0  0  0  0  0  0  0  0  0  0
    1.9460    3.6570    0.0000 C   0  0  0  0  0  0  0  0  0  0  0  0
    1.2100    2.3500    0.0000 C   0  0  0  0  0  0  0  0  0  0  0  0
    1.9740    1.0590    0.0000 C   0  0  0  0  0  0  0  0  0  0  0  0
    1.2380   -0.2480    0.0000 C   0  0  0  0  0  0  0  0  0  0  0  0
    3.4740    1.0750    0.0000 C   0  0  0  0  0  0  0  0  0  0  0  0
  1  2  2  0  0  0  0
  2  3  1  0  0  0  0
  3  4  1  0  0  0  0
  4  5  1  0  0  0  0
  4  8  2  0  0  0  0
  5  6  1  0  0  0  0
  5 13  1  0  0  0  0
  6  7  2  0  0  0  0
  6  9  1  0  0  0  0
  7  8  1  0  0  0  0
  9 10  2  0  0  0  0
 10 11  1  0  0  0  0
 11 12  1  0  0  0  0
 11 13  2  0  0  0  0
M  END
>  <name>
O=[C;amide]Cc1n2c(n[c;biphenyl]1)C=CC(C)=C2

>  <apo>
2

>  <freq>
1

>  <freq0>
0

>  <freq1>
1

>  <freqA>
0.99887151

>  <a_count>
23

$$$$

  MOE2015           2D

  9  9  0  0  0  0  0  0  0  0999 V2000
    7.8330    0.0000    0.0000 O   0  0  0  0  0  0  0  0  0  0  0  0
    6.3330    0.0000    0.0000 C   0  0  0  0  0  0  0  0  0  0  0  0
    5.5830   -1.2990    0.0000 C   0  0  0  0  0  0  0  0  0  0  0  0
    4.0830   -1.2990    0.0000 C   0  0  0  0  0  0  0  0  0  0  0  0
    3.3330    0.0000    0.0000 C   0  0  0  0  0  0  0  0  0  0  0  0
    1.8330    0.0000    0.0000 C   0  0  0  0  0  0  0  0  0  0  0  0
    1.0830   -1.2990    0.0000 C   0  0  0  0  0  0  0  0  0  0  0  0
    1.8330   -2.5980    0.0000 C   0  0  0  0  0  0  0  0  0  0  0  0
    3.3330   -2.5980    0.0000 C   0  0  0  0  0  0  0  0  0  0  0  0
  1  2  2  0  0  0  0
  2  3  1  0  0  0  0
  3  4  1  0  0  0  0
  4  5  1  0  0  0  0
  4  9  1  0  0  0  0
  5  6  1  0  0  0  0
  6  7  1  0  0  0  0
  7  8  1  0  0  0  0
  8  9  1  0  0  0  0
M  END
>  <name>
O=[C;amide][C;amine]C1CCCCC1

>  <apo>
2

>  <freq>
1

>  <freq0>
0

>  <freq1>
1

>  <freqA>
0.99887151

>  <a_count>
23

$$$$

  MOE2015           2D

 12 12  0  0  1  0  0  0  0  0999 V2000
    8.8090    3.4850    0.0000 O   0  0  0  0  0  0  0  0  0  0  0  0
    7.5100    4.2350    0.0000 C   0  0  0  0  0  0  0  0  0  0  0  0
    6.2110    3.4850    0.0000 C   0  0  1  0  0  0  0  0  0  0  0  0
    6.2110    1.9850    0.0000 N   0  0  0  0  0  0  0  0  0  0  0  0
    4.9120    4.2350    0.0000 C   0  0  0  0  0  0  0  0  0  0  0  0
    3.6130    3.4850    0.0000 C   0  0  0  0  0  0  0  0  0  0  0  0
    3.6130    1.9850    0.0000 C   0  0  0  0  0  0  0  0  0  0  0  0
    2.3140    1.2350    0.0000 C   0  0  0  0  0  0  0  0  0  0  0  0
    1.0150    1.9850    0.0000 C   0  0  0  0  0  0  0  0  0  0  0  0
   -0.2840    1.2350    0.0000 O   0  0  0  0  0  0  0  0  0  0  0  0
    1.0150    3.4850    0.0000 C   0  0  0  0  0  0  0  0  0  0  0  0
    2.3140    4.2350    0.0000 C   0  0  0  0  0  0  0  0  0  0  0  0
  1  2  2  0  0  0  0
  2  3  1  0  0  0  0
  3  4  1  1  0  0  0
  3  5  1  0  0  0  0
  5  6  1  0  0  0  0
  6  7  1  0  0  0  0
  6 12  2  0  0  0  0
  7  8  2  0  0  0  0
  8  9  1  0  0  0  0
  9 10  1  0  0  0  0
  9 11  2  0  0  0  0
 11 12  1  0  0  0  0
M  END
>  <name>
O=[C;amide][C@@H]([N;amide])Cc1ccc([O;ether])cc1

>  <apo>
3

>  <freq>
1

>  <freq0>
0

>  <freq1>
1

>  <freqA>
0.99887151

>  <a_count>
23

$$$$

  MOE2015           2D

 12 13  0  0  1  0  0  0  0  0999 V2000
    8.0010   -3.2690    0.0000 O   0  0  0  0  0  0  0  0  0  0  0  0
    6.7020   -4.0190    0.0000 C   0  0  0  0  0  0  0  0  0  0  0  0
    5.4030   -3.2690    0.0000 C   0  0  2  0  0  0  0  0  0  0  0  0
    5.4030   -1.7690    0.0000 N   0  0  0  0  0  0  0  0  0  0  0  0
    4.1040   -1.0190    0.0000 C   0  0  0  0  0  0  0  0  0  0  0  0
    2.8050   -1.7690    0.0000 C   0  0  0  0  0  0  0  0  0  0  0  0
    2.8050   -3.2690    0.0000 C   0  0  0  0  0  0  0  0  0  0  0  0
    1.5060   -4.0190    0.0000 C   0  0  0  0  0  0  0  0  0  0  0  0
    0.2070   -3.2690    0.0000 C   0  0  0  0  0  0  0  0  0  0  0  0
    0.2070   -1.7690    0.0000 C   0  0  0  0  0  0  0  0  0  0  0  0
    1.5060   -1.0190    0.0000 C   0  0  0  0  0  0  0  0  0  0  0  0
    4.1040   -4.0190    0.0000 C   0  0  0  0  0  0  0  0  0  0  0  0
  1  2  2  0  0  0  0
  3  2  1  1  0  0  0
  3  4  1  0  0  0  0
  3 12  1  0  0  0  0
  4  5  1  0  0  0  0
  5  6  1  0  0  0  0
  6  7  2  0  0  0  0
  6 11  1  0  0  0  0
  7  8  1  0  0  0  0
  7 12  1  0  0  0  0
  8  9  2  0  0  0  0
  9 10  1  0  0  0  0
 10 11  2  0  0  0  0
M  END
>  <name>
O=[C;amide][C@@H]1[N;amide]Cc2c(cccc2)C1

>  <apo>
2

>  <freq>
1

>  <freq0>
0

>  <freq1>
1

>  <freqA>
0.99887151

>  <a_count>
23

$$$$

  MOE2015           2D

 11 11  0  0  1  0  0  0  0  0999 V2000
    8.1690   -3.0070    0.0000 O   0  0  0  0  0  0  0  0  0  0  0  0
    6.8700   -3.7570    0.0000 C   0  0  0  0  0  0  0  0  0  0  0  0
    5.5710   -3.0070    0.0000 C   0  0  2  0  0  0  0  0  0  0  0  0
    4.2720   -3.7570    0.0000 C   0  0  0  0  0  0  0  0  0  0  0  0
    2.9730   -3.0070    0.0000 C   0  0  0  0  0  0  0  0  0  0  0  0
    1.6740   -3.7570    0.0000 C   0  0  0  0  0  0  0  0  0  0  0  0
    0.3750   -3.0070    0.0000 C   0  0  0  0  0  0  0  0  0  0  0  0
    0.3750   -1.5070    0.0000 C   0  0  0  0  0  0  0  0  0  0  0  0
    1.6740   -0.7570    0.0000 C   0  0  0  0  0  0  0  0  0  0  0  0
    2.9730   -1.5070    0.0000 C   0  0  0  0  0  0  0  0  0  0  0  0
    5.5710   -1.5070    0.0000 C   0  0  0  0  0  0  0  0  0  0  0  0
  1  2  2  0  0  0  0
  2  3  1  0  0  0  0
  3  4  1  0  0  0  0
  3 11  1  6  0  0  0
  4  5  1  0  0  0  0
  5  6  1  0  0  0  0
  5 10  2  0  0  0  0
  6  7  2  0  0  0  0
  7  8  1  0  0  0  0
  8  9  2  0  0  0  0
  9 10  1  0  0  0  0
M  END
>  <name>
O=[C;amide][C@H](Cc1ccccc1)[C;amine]

>  <apo>
2

>  <freq>
1

>  <freq0>
0

>  <freq1>
1

>  <freqA>
0.99887151

>  <a_count>
23

$$$$

  MOE2015           2D

  9  8  0  0  1  0  0  0  0  0999 V2000
   -0.4970   -1.8540    0.0000 O   0  0  0  0  0  0  0  0  0  0  0  0
    0.8020   -2.6040    0.0000 C   0  0  0  0  0  0  0  0  0  0  0  0
    2.1010   -1.8540    0.0000 C   0  0  2  0  0  0  0  0  0  0  0  0
    2.1010   -0.3540    0.0000 N   0  0  0  0  0  0  0  0  0  0  0  0
    3.4000   -2.6040    0.0000 C   0  0  0  0  0  0  0  0  0  0  0  0
    4.6990   -1.8540    0.0000 C   0  0  0  0  0  0  0  0  0  0  0  0
    5.9980   -2.6040    0.0000 C   0  0  0  0  0  0  0  0  0  0  0  0
    7.2970   -1.8540    0.0000 C   0  0  0  0  0  0  0  0  0  0  0  0
    8.5960   -2.6040    0.0000 N   0  0  0  0  0  0  0  0  0  0  0  0
  1  2  2  0  0  0  0
  2  3  1  0  0  0  0
  3  4  1  6  0  0  0
  3  5  1  0  0  0  0
  5  6  1  0  0  0  0
  6  7  1  0  0  0  0
  7  8  1  0  0  0  0
  8  9  1  0  0  0  0
M  END
>  <name>
O=[C;amide][C@H]([N;amide])CCCCN

>  <apo>
2

>  <freq>
1

>  <freq0>
0

>  <freq1>
1

>  <freqA>
0.99887151

>  <a_count>
23

$$$$

  MOE2015           2D

 12 12  0  0  1  0  0  0  0  0999 V2000
    8.8090    3.4850    0.0000 O   0  0  0  0  0  0  0  0  0  0  0  0
    7.5100    4.2350    0.0000 C   0  0  0  0  0  0  0  0  0  0  0  0
    6.2110    3.4850    0.0000 C   0  0  2  0  0  0  0  0  0  0  0  0
    6.2110    1.9850    0.0000 N   0  0  0  0  0  0  0  0  0  0  0  0
    4.9120    4.2350    0.0000 C   0  0  0  0  0  0  0  0  0  0  0  0
    3.6130    3.4850    0.0000 C   0  0  0  0  0  0  0  0  0  0  0  0
    3.6130    1.9850    0.0000 C   0  0  0  0  0  0  0  0  0  0  0  0
    2.3140    1.2350    0.0000 C   0  0  0  0  0  0  0  0  0  0  0  0
    1.0150    1.9850    0.0000 C   0  0  0  0  0  0  0  0  0  0  0  0
   -0.2840    1.2350    0.0000 O   0  0  0  0  0  0  0  0  0  0  0  0
    1.0150    3.4850    0.0000 C   0  0  0  0  0  0  0  0  0  0  0  0
    2.3140    4.2350    0.0000 C   0  0  0  0  0  0  0  0  0  0  0  0
  1  2  2  0  0  0  0
  2  3  1  0  0  0  0
  3  4  1  6  0  0  0
  3  5  1  0  0  0  0
  5  6  1  0  0  0  0
  6  7  1  0  0  0  0
  6 12  2  0  0  0  0
  7  8  2  0  0  0  0
  8  9  1  0  0  0  0
  9 10  1  0  0  0  0
  9 11  2  0  0  0  0
 11 12  1  0  0  0  0
M  END
>  <name>
O=[C;amide][C@H]([N;amide])Cc1ccc([O;ether])cc1

>  <apo>
3

>  <freq>
1

>  <freq0>
0

>  <freq1>
1

>  <freqA>
0.99887151

>  <a_count>
23

$$$$

  MOE2015           2D

 10 11  0  0  1  0  0  0  0  0999 V2000
    6.9740   -1.6340    0.0000 O   0  0  0  0  0  0  0  0  0  0  0  0
    5.6750   -2.3840    0.0000 C   0  0  0  0  0  0  0  0  0  0  0  0
    4.3760   -1.6340    0.0000 C   0  0  1  0  0  0  0  0  0  0  0  0
    4.2190   -0.1430    0.0000 N   0  0  0  0  0  0  0  0  0  0  0  0
    2.7520    0.1690    0.0000 C   0  0  0  0  0  0  0  0  0  0  0  0
    2.0020   -1.1300    0.0000 C   0  0  1  0  0  0  0  0  0  0  0  0
    3.0060   -2.2440    0.0000 C   0  0  2  0  0  0  0  0  0  0  0  0
    2.2560   -3.5430    0.0000 C   0  0  0  0  0  0  0  0  0  0  0  0
    0.7890   -3.2320    0.0000 C   0  0  0  0  0  0  0  0  0  0  0  0
    0.6320   -1.7400    0.0000 C   0  0  0  0  0  0  0  0  0  0  0  0
  1  2  2  0  0  0  0
  3  2  1  6  0  0  0
  3  4  1  0  0  0  0
  3  7  1  0  0  0  0
  4  5  1  0  0  0  0
  6  5  1  1  0  0  0
  6  7  1  0  0  0  0
  6 10  1  0  0  0  0
  7  8  1  1  0  0  0
  8  9  1  0  0  0  0
  9 10  1  0  0  0  0
M  END
>  <name>
O=[C;amide][C@H]1[N;amide]C[C@H]2[C@@H]1CCC2

>  <apo>
2

>  <freq>
1

>  <freq0>
0

>  <freq1>
1

>  <freqA>
0.99887151

>  <a_count>
23

$$$$

  MOE2015           2D

 14 15  0  0  0  0  0  0  0  0999 V2000
    2.6110    4.5230    0.0000 O   0  0  0  0  0  0  0  0  0  0  0  0
    3.3610    3.2240    0.0000 C   0  0  0  0  0  0  0  0  0  0  0  0
    2.6110    1.9250    0.0000 C   0  0  0  0  0  0  0  0  0  0  0  0
    3.3610    0.6260    0.0000 C   0  0  0  0  0  0  0  0  0  0  0  0
    4.8610    0.6260    0.0000 N   0  0  0  0  0  0  0  0  0  0  0  0
    5.7430   -0.5880    0.0000 N   0  0  0  0  0  0  0  0  0  0  0  0
    7.1700   -0.1240    0.0000 C   0  0  0  0  0  0  0  0  0  0  0  0
    7.1700    1.3760    0.0000 C   0  0  0  0  0  0  0  0  0  0  0  0
    5.7430    1.8400    0.0000 N   0  0  0  0  0  0  0  0  0  0  0  0
    2.6110   -0.6730    0.0000 C   0  0  0  0  0  0  0  0  0  0  0  0
    1.1110   -0.6730    0.0000 C   0  0  0  0  0  0  0  0  0  0  0  0
    0.3610    0.6260    0.0000 C   0  0  0  0  0  0  0  0  0  0  0  0
   -1.1390    0.6260    0.0000 C   0  0  0  0  0  0  0  0  0  0  0  0
    1.1110    1.9250    0.0000 C   0  0  0  0  0  0  0  0  0  0  0  0
  1  2  2  0  0  0  0
  2  3  1  0  0  0  0
  3  4  1  0  0  0  0
  3 14  2  0  0  0  0
  4  5  1  0  0  0  0
  4 10  2  0  0  0  0
  5  6  1  0  0  0  0
  5  9  1  0  0  0  0
  6  7  2  0  0  0  0
  7  8  1  0  0  0  0
  8  9  2  0  0  0  0
 10 11  1  0  0  0  0
 11 12  2  0  0  0  0
 12 13  1  0  0  0  0
 12 14  1  0  0  0  0
M  END
>  <name>
O=[C;amide]c1c(-n2nccn2)ccc(C)c1

>  <apo>
1

>  <freq>
1

>  <freq0>
0

>  <freq1>
1

>  <freqA>
0.99887151

>  <a_count>
23

$$$$

  MOE2015           2D

 12 12  0  0  1  0  0  0  0  0999 V2000
    8.1880    2.5690    0.0000 O   0  0  0  0  0  0  0  0  0  0  0  0
    6.8890    3.3190    0.0000 C   0  0  0  0  0  0  0  0  0  0  0  0
    5.5900    2.5690    0.0000 C   0  0  2  0  0  0  0  0  0  0  0  0
    5.5900    1.0690    0.0000 O   0  0  0  0  0  0  0  0  0  0  0  0
    4.2910    3.3190    0.0000 C   0  0  1  0  0  0  0  0  0  0  0  0
    4.2910    4.8190    0.0000 N   0  0  0  0  0  0  0  0  0  0  0  0
    2.9920    2.5690    0.0000 C   0  0  0  0  0  0  0  0  0  0  0  0
    2.9920    1.0690    0.0000 C   0  0  0  0  0  0  0  0  0  0  0  0
    1.6930    0.3190    0.0000 C   0  0  0  0  0  0  0  0  0  0  0  0
    0.3940    1.0690    0.0000 C   0  0  0  0  0  0  0  0  0  0  0  0
    0.3940    2.5690    0.0000 C   0  0  0  0  0  0  0  0  0  0  0  0
    1.6930    3.3190    0.0000 C   0  0  0  0  0  0  0  0  0  0  0  0
  1  2  2  0  0  0  0
  2  3  1  0  0  0  0
  3  4  1  6  0  0  0
  3  5  1  0  0  0  0
  5  6  1  6  0  0  0
  5  7  1  0  0  0  0
  7  8  1  0  0  0  0
  7 12  2  0  0  0  0
  8  9  2  0  0  0  0
  9 10  1  0  0  0  0
 10 11  2  0  0  0  0
 11 12  1  0  0  0  0
M  END
>  <name>
O=[C;ester][C@H](O)[C@@H]([N;amide])c1ccccc1

>  <apo>
2

>  <freq>
1

>  <freq0>
0

>  <freq1>
1

>  <freqA>
0.99887151

>  <a_count>
23

$$$$

  MOE2015           2D

 12 12  0  0  1  0  0  0  0  0999 V2000
    7.0390   -1.8860    0.0000 O   0  0  0  0  0  0  0  0  0  0  0  0
    5.7400   -1.1360    0.0000 C   0  0  3  0  0  0  0  0  0  0  0  0
    5.7400    0.3640    0.0000 C   0  0  0  0  0  0  0  0  0  0  0  0
    4.4410   -1.8860    0.0000 C   0  0  0  0  0  0  0  0  0  0  0  0
    3.1420   -1.1360    0.0000 N   0  0  0  0  0  0  0  0  0  0  0  0
    1.8430   -1.8860    0.0000 C   0  0  0  0  0  0  0  0  0  0  0  0
    0.5440   -1.1360    0.0000 C   0  0  0  0  0  0  0  0  0  0  0  0
    0.5440    0.3640    0.0000 O   0  0  0  0  0  0  0  0  0  0  0  0
    1.8430   -3.3860    0.0000 C   0  0  0  0  0  0  0  0  0  0  0  0
    0.5440   -4.1360    0.0000 O   0  0  0  0  0  0  0  0  0  0  0  0
    3.1420   -4.1360    0.0000 C   0  0  0  0  0  0  0  0  0  0  0  0
    4.4410   -3.3860    0.0000 C   0  0  0  0  0  0  0  0  0  0  0  0
  1  2  1  0  0  0  0
  2  3  1  0  0  0  0
  2  4  1  0  0  0  0
  4  5  1  0  0  0  0
  4 12  2  0  0  0  0
  5  6  2  0  0  0  0
  6  7  1  0  0  0  0
  6  9  1  0  0  0  0
  7  8  1  0  0  0  0
  9 10  1  0  0  0  0
  9 11  2  0  0  0  0
 11 12  1  0  0  0  0
M  END
>  <name>
OC([C;amine])c1nc(CO)c(O)cc1

>  <apo>
1

>  <freq>
1

>  <freq0>
0

>  <freq1>
1

>  <freqA>
0.99887151

>  <a_count>
23

$$$$

  MOE2015           2D

 11 11  0  0  1  0  0  0  0  0999 V2000
    5.1140   -0.1180    0.0000 O   0  0  0  0  0  0  0  0  0  0  0  0
    4.3640   -1.4170    0.0000 C   0  0  3  0  0  0  0  0  0  0  0  0
    5.1140   -2.7160    0.0000 C   0  0  0  0  0  0  0  0  0  0  0  0
    6.6140   -2.7160    0.0000 C   0  0  0  0  0  0  0  0  0  0  0  0
    2.8640   -1.4170    0.0000 C   0  0  0  0  0  0  0  0  0  0  0  0
    2.1140   -2.7160    0.0000 C   0  0  0  0  0  0  0  0  0  0  0  0
    0.6140   -2.7160    0.0000 C   0  0  0  0  0  0  0  0  0  0  0  0
   -0.1360   -1.4170    0.0000 C   0  0  0  0  0  0  0  0  0  0  0  0
   -1.6360   -1.4170    0.0000 O   0  0  0  0  0  0  0  0  0  0  0  0
    0.6140   -0.1180    0.0000 C   0  0  0  0  0  0  0  0  0  0  0  0
    2.1140   -0.1180    0.0000 C   0  0  0  0  0  0  0  0  0  0  0  0
  1  2  1  0  0  0  0
  2  3  1  0  0  0  0
  2  5  1  0  0  0  0
  3  4  1  0  0  0  0
  5  6  1  0  0  0  0
  5 11  2  0  0  0  0
  6  7  2  0  0  0  0
  7  8  1  0  0  0  0
  8  9  1  0  0  0  0
  8 10  2  0  0  0  0
 10 11  1  0  0  0  0
M  END
>  <name>
OC([C;amine]C)c1ccc(O)cc1

>  <apo>
1

>  <freq>
1

>  <freq0>
0

>  <freq1>
1

>  <freqA>
0.99887151

>  <a_count>
23

$$$$

  MOE2015           2D

 11 11  0  0  1  0  0  0  0  0999 V2000
    6.5450    0.4720    0.0000 O   0  0  0  0  0  0  0  0  0  0  0  0
    5.7950    1.7710    0.0000 C   0  0  0  0  0  0  0  0  0  0  0  0
    4.2950    1.7710    0.0000 C   0  0  0  0  0  0  0  0  0  0  0  0
    3.5450    3.0700    0.0000 C   0  0  1  0  0  0  0  0  0  0  0  0
    4.2950    4.3690    0.0000 O   0  0  0  0  0  0  0  0  0  0  0  0
    2.0450    3.0700    0.0000 C   0  0  1  0  0  0  0  0  0  0  0  0
    1.2950    4.3690    0.0000 O   0  0  0  0  0  0  0  0  0  0  0  0
    1.2950    1.7710    0.0000 C   0  0  1  0  0  0  0  0  0  0  0  0
   -0.2050    1.7710    0.0000 O   0  0  0  0  0  0  0  0  0  0  0  0
    2.0450    0.4720    0.0000 C   0  0  0  0  0  0  0  0  0  0  0  0
    3.5450    0.4720    0.0000 C   0  0  0  0  0  0  0  0  0  0  0  0
  1  2  1  0  0  0  0
  2  3  1  0  0  0  0
  3  4  1  0  0  0  0
  3 11  2  0  0  0  0
  4  5  1  6  0  0  0
  4  6  1  0  0  0  0
  6  7  1  6  0  0  0
  6  8  1  0  0  0  0
  8  9  1  6  0  0  0
  8 10  1  0  0  0  0
 10 11  1  0  0  0  0
M  END
>  <name>
OCC=1[C@@H](O)[C@@H](O)[C@@H](O)[C;amine]C=1

>  <apo>
1

>  <freq>
1

>  <freq0>
0

>  <freq1>
1

>  <freqA>
0.99887151

>  <a_count>
23

$$$$

  MOE2015           2D

 11 11  0  0  1  0  0  0  0  0999 V2000
    6.5450   -1.4170    0.0000 O   0  0  0  0  0  0  0  0  0  0  0  0
    5.7950   -2.7160    0.0000 C   0  0  0  0  0  0  0  0  0  0  0  0
    4.2950   -2.7160    0.0000 C   0  0  2  0  0  0  0  0  0  0  0  0
    3.5450   -4.0150    0.0000 O   0  0  0  0  0  0  0  0  0  0  0  0
    2.0450   -4.0150    0.0000 C   0  0  3  0  0  0  0  0  0  0  0  0
    1.2950   -5.3140    0.0000 O   0  0  0  0  0  0  0  0  0  0  0  0
    1.2950   -2.7160    0.0000 C   0  0  2  0  0  0  0  0  0  0  0  0
   -0.2050   -2.7160    0.0000 O   0  0  0  0  0  0  0  0  0  0  0  0
    2.0450   -1.4170    0.0000 C   0  0  2  0  0  0  0  0  0  0  0  0
    1.2950   -0.1180    0.0000 O   0  0  0  0  0  0  0  0  0  0  0  0
    3.5450   -1.4170    0.0000 C   0  0  0  0  0  0  0  0  0  0  0  0
  1  2  1  0  0  0  0
  3  2  1  6  0  0  0
  3  4  1  0  0  0  0
  3 11  1  0  0  0  0
  4  5  1  0  0  0  0
  5  6  1  0  0  0  0
  5  7  1  0  0  0  0
  7  8  1  6  0  0  0
  7  9  1  0  0  0  0
  9 10  1  6  0  0  0
  9 11  1  0  0  0  0
M  END
>  <name>
OC[C@@H]1OC(O)[C@H](O)[C@H](O)[C;ether]1

>  <apo>
1

>  <freq>
1

>  <freq0>
0

>  <freq1>
1

>  <freqA>
0.99887151

>  <a_count>
23

$$$$

  MOE2015           2D

 11 11  0  0  1  0  0  0  0  0999 V2000
    7.0680   -2.9820    0.0000 O   0  0  0  0  0  0  0  0  0  0  0  0
    5.7190   -3.6380    0.0000 C   0  0  0  0  0  0  0  0  0  0  0  0
    4.4770   -2.7970    0.0000 C   0  0  2  0  0  0  0  0  0  0  0  0
    3.0660   -3.3080    0.0000 O   0  0  0  0  0  0  0  0  0  0  0  0
    2.1450   -2.1250    0.0000 C   0  0  2  0  0  0  0  0  0  0  0  0
    0.8240   -1.4130    0.0000 O   0  0  0  0  0  0  0  0  0  0  0  0
    0.9030   -2.9670    0.0000 C   0  0  0  0  0  0  0  0  0  0  0  0
    1.0120   -4.4630    0.0000 O   0  0  0  0  0  0  0  0  0  0  0  0
    2.9850   -0.8830    0.0000 C   0  0  1  0  0  0  0  0  0  0  0  0
    2.4740    0.5280    0.0000 O   0  0  0  0  0  0  0  0  0  0  0  0
    4.4260   -1.2980    0.0000 C   0  0  0  0  0  0  0  0  0  0  0  0
  1  2  1  0  0  0  0
  3  2  1  6  0  0  0
  3  4  1  0  0  0  0
  3 11  1  0  0  0  0
  4  5  1  0  0  0  0
  5  6  1  1  0  0  0
  5  7  1  6  0  0  0
  5  9  1  0  0  0  0
  7  8  1  0  0  0  0
  9 10  1  1  0  0  0
  9 11  1  0  0  0  0
M  END
>  <name>
OC[C@@H]1O[C@](O)(CO)[C@@H](O)[C;ether]1

>  <apo>
1

>  <freq>
1

>  <freq0>
0

>  <freq1>
1

>  <freqA>
0.99887151

>  <a_count>
23

$$$$

  MOE2015           2D

 10 10  0  0  1  0  0  0  0  0999 V2000
   -0.3750   -3.5070    0.0000 O   0  0  0  0  0  0  0  0  0  0  0  0
    0.3750   -2.2080    0.0000 C   0  0  0  0  0  0  0  0  0  0  0  0
    1.8750   -2.2080    0.0000 C   0  0  2  0  0  0  0  0  0  0  0  0
    2.6250   -0.9090    0.0000 C   0  0  1  0  0  0  0  0  0  0  0  0
    1.8750    0.3900    0.0000 O   0  0  0  0  0  0  0  0  0  0  0  0
    4.1250   -0.9090    0.0000 C   0  0  0  0  0  0  0  0  0  0  0  0
    4.8750   -2.2080    0.0000 C   0  0  1  0  0  0  0  0  0  0  0  0
    6.3750   -2.2080    0.0000 N   0  0  0  0  0  0  0  0  0  0  0  0
    4.1250   -3.5070    0.0000 C   0  0  0  0  0  0  0  0  0  0  0  0
    2.6250   -3.5070    0.0000 O   0  0  0  0  0  0  0  0  0  0  0  0
  1  2  1  0  0  0  0
  3  2  1  6  0  0  0
  3  4  1  0  0  0  0
  3 10  1  0  0  0  0
  4  5  1  1  0  0  0
  4  6  1  0  0  0  0
  6  7  1  0  0  0  0
  7  8  1  1  0  0  0
  7  9  1  0  0  0  0
  9 10  1  0  0  0  0
M  END
>  <name>
OC[C@@H]1[C@@H](O)[C;ether][C@@H]([N;amide])[C;ether]O1

>  <apo>
3

>  <freq>
1

>  <freq0>
0

>  <freq1>
1

>  <freqA>
0.99887151

>  <a_count>
23

$$$$

  MOE2015           2D

 11 11  0  0  1  0  0  0  0  0999 V2000
    6.5450    0.4720    0.0000 O   0  0  0  0  0  0  0  0  0  0  0  0
    5.7950    1.7710    0.0000 C   0  0  0  0  0  0  0  0  0  0  0  0
    4.2950    1.7710    0.0000 C   0  0  2  0  0  0  0  0  0  0  0  0
    3.5450    3.0700    0.0000 C   0  0  1  0  0  0  0  0  0  0  0  0
    4.2950    4.3690    0.0000 O   0  0  0  0  0  0  0  0  0  0  0  0
    2.0450    3.0700    0.0000 C   0  0  1  0  0  0  0  0  0  0  0  0
    1.2950    4.3690    0.0000 O   0  0  0  0  0  0  0  0  0  0  0  0
    1.2950    1.7710    0.0000 C   0  0  1  0  0  0  0  0  0  0  0  0
   -0.2050    1.7710    0.0000 O   0  0  0  0  0  0  0  0  0  0  0  0
    2.0450    0.4720    0.0000 C   0  0  0  0  0  0  0  0  0  0  0  0
    3.5450    0.4720    0.0000 O   0  0  0  0  0  0  0  0  0  0  0  0
  1  2  1  0  0  0  0
  3  2  1  1  0  0  0
  3  4  1  0  0  0  0
  3 11  1  0  0  0  0
  4  5  1  6  0  0  0
  4  6  1  0  0  0  0
  6  7  1  6  0  0  0
  6  8  1  0  0  0  0
  8  9  1  6  0  0  0
  8 10  1  0  0  0  0
 10 11  1  0  0  0  0
M  END
>  <name>
OC[C@@H]1[C@@H](O)[C@@H](O)[C@@H](O)[C;ether]O1

>  <apo>
1

>  <freq>
1

>  <freq0>
0

>  <freq1>
1

>  <freqA>
0.99887151

>  <a_count>
23

$$$$

  MOE2015           2D

  9  9  0  0  1  0  0  0  0  0999 V2000
    2.3330   -2.3330    0.0000 O   0  0  0  0  0  0  0  0  0  0  0  0
    2.3330   -0.8330    0.0000 C   0  0  2  0  0  0  0  0  0  0  0  0
    3.6320   -0.0830    0.0000 C   0  0  2  0  0  0  0  0  0  0  0  0
    4.9310   -0.8330    0.0000 C   0  0  0  0  0  0  0  0  0  0  0  0
    3.6320    1.4170    0.0000 O   0  0  0  0  0  0  0  0  0  0  0  0
    2.3330    2.1670    0.0000 C   0  0  0  0  0  0  0  0  0  0  0  0
    1.0340    1.4170    0.0000 C   0  0  0  0  0  0  0  0  0  0  0  0
    1.0340   -0.0830    0.0000 C   0  0  2  0  0  0  0  0  0  0  0  0
   -0.2650   -0.8330    0.0000 C   0  0  0  0  0  0  0  0  0  0  0  0
  2  1  1  1  0  0  0
  2  3  1  0  0  0  0
  2  8  1  0  0  0  0
  3  4  1  1  0  0  0
  3  5  1  0  0  0  0
  5  6  1  0  0  0  0
  6  7  1  0  0  0  0
  7  8  1  0  0  0  0
  8  9  1  1  0  0  0
M  END
>  <name>
O[C@@H]1[C@H](C)O[C;ether]C[C@@H;amine]1C

>  <apo>
2

>  <freq>
1

>  <freq0>
0

>  <freq1>
1

>  <freqA>
0.99887151

>  <a_count>
23

$$$$

  MOE2015           2D

  9  8  0  0  1  0  0  0  0  0999 V2000
    0.0000    0.0000    0.0000 O   0  0  0  0  0  0  0  0  0  0  0  0
    0.7500   -1.2990    0.0000 C   0  0  2  0  0  0  0  0  0  0  0  0
    2.2500   -1.2990    0.0000 C   0  0  3  0  0  0  0  0  0  0  0  0
    3.0000   -2.5980    0.0000 C   0  0  0  0  0  0  0  0  0  0  0  0
    4.5000   -2.5980    0.0000 C   0  0  0  0  0  0  0  0  0  0  0  0
    6.0000   -2.5980    0.0000 C   0  0  0  0  0  0  0  0  0  0  0  0
    7.5000   -2.5980    0.0000 C   0  0  0  0  0  0  0  0  0  0  0  0
    3.0000    0.0000    0.0000 C   0  0  0  0  0  0  0  0  0  0  0  0
    0.0000   -2.5980    0.0000 C   0  0  0  0  0  0  0  0  0  0  0  0
  2  1  1  6  0  0  0
  2  3  1  0  0  0  0
  2  9  1  0  0  0  0
  3  4  1  0  0  0  0
  3  8  1  0  0  0  0
  4  5  1  0  0  0  0
  5  6  3  0  0  0  0
  6  7  1  0  0  0  0
M  END
>  <name>
O[C@H](C(CC#CC)C)[C;olefin]

>  <apo>
1

>  <freq>
1

>  <freq0>
0

>  <freq1>
1

>  <freqA>
0.99887151

>  <a_count>
23

$$$$

  MOE2015           2D

 11 11  0  0  1  0  0  0  0  0999 V2000
    5.1140   -0.1180    0.0000 O   0  0  0  0  0  0  0  0  0  0  0  0
    4.3640   -1.4170    0.0000 C   0  0  2  0  0  0  0  0  0  0  0  0
    5.1140   -2.7160    0.0000 C   0  0  0  0  0  0  0  0  0  0  0  0
    6.6140   -2.7160    0.0000 C   0  0  0  0  0  0  0  0  0  0  0  0
    2.8640   -1.4170    0.0000 C   0  0  0  0  0  0  0  0  0  0  0  0
    2.1140   -2.7160    0.0000 C   0  0  0  0  0  0  0  0  0  0  0  0
    0.6140   -2.7160    0.0000 C   0  0  0  0  0  0  0  0  0  0  0  0
   -0.1360   -1.4170    0.0000 C   0  0  0  0  0  0  0  0  0  0  0  0
   -1.6360   -1.4170    0.0000 O   0  0  0  0  0  0  0  0  0  0  0  0
    0.6140   -0.1180    0.0000 C   0  0  0  0  0  0  0  0  0  0  0  0
    2.1140   -0.1180    0.0000 C   0  0  0  0  0  0  0  0  0  0  0  0
  2  1  1  6  0  0  0
  2  3  1  0  0  0  0
  2  5  1  0  0  0  0
  3  4  1  0  0  0  0
  5  6  1  0  0  0  0
  5 11  2  0  0  0  0
  6  7  2  0  0  0  0
  7  8  1  0  0  0  0
  8  9  1  0  0  0  0
  8 10  2  0  0  0  0
 10 11  1  0  0  0  0
M  END
>  <name>
O[C@H]([C;amine]C)c1ccc(O)cc1

>  <apo>
1

>  <freq>
1

>  <freq0>
0

>  <freq1>
1

>  <freqA>
0.99887151

>  <a_count>
23

$$$$

  MOE2015           2D

  9  9  0  0  1  0  0  0  0  0999 V2000
    2.3330   -2.3330    0.0000 O   0  0  0  0  0  0  0  0  0  0  0  0
    2.3330   -0.8330    0.0000 C   0  0  1  0  0  0  0  0  0  0  0  0
    3.6320   -0.0830    0.0000 C   0  0  2  0  0  0  0  0  0  0  0  0
    4.9310   -0.8330    0.0000 C   0  0  0  0  0  0  0  0  0  0  0  0
    3.6320    1.4170    0.0000 O   0  0  0  0  0  0  0  0  0  0  0  0
    2.3330    2.1670    0.0000 C   0  0  0  0  0  0  0  0  0  0  0  0
    1.0340    1.4170    0.0000 C   0  0  0  0  0  0  0  0  0  0  0  0
    1.0340   -0.0830    0.0000 C   0  0  2  0  0  0  0  0  0  0  0  0
   -0.2650   -0.8330    0.0000 C   0  0  0  0  0  0  0  0  0  0  0  0
  2  1  1  6  0  0  0
  2  3  1  0  0  0  0
  2  8  1  0  0  0  0
  3  4  1  1  0  0  0
  3  5  1  0  0  0  0
  5  6  1  0  0  0  0
  6  7  1  0  0  0  0
  7  8  1  0  0  0  0
  8  9  1  1  0  0  0
M  END
>  <name>
O[C@H]1[C@H](C)O[C;ether]C[C@@H;amine]1C

>  <apo>
2

>  <freq>
1

>  <freq0>
0

>  <freq1>
1

>  <freqA>
0.99887151

>  <a_count>
23

$$$$

  MOE2015           2D

 11 12  0  0  0  0  0  0  0  0999 V2000
    1.5460    1.5460    0.0000 O   0  0  0  0  0  0  0  0  0  0  0  0
    1.5460    0.0460    0.0000 C   0  0  0  0  0  0  0  0  0  0  0  0
    2.8450   -0.7040    0.0000 C   0  0  0  0  0  0  0  0  0  0  0  0
    2.8450   -2.2040    0.0000 C   0  0  0  0  0  0  0  0  0  0  0  0
    1.5460   -2.9540    0.0000 C   0  0  0  0  0  0  0  0  0  0  0  0
    0.2470   -2.2040    0.0000 C   0  0  0  0  0  0  0  0  0  0  0  0
    0.2470   -0.7040    0.0000 C   0  0  0  0  0  0  0  0  0  0  0  0
    4.1440   -2.9540    0.0000 C   0  0  0  0  0  0  0  0  0  0  0  0
    5.4430   -2.2040    0.0000 C   0  0  0  0  0  0  0  0  0  0  0  0
    5.4430   -0.7040    0.0000 C   0  0  0  0  0  0  0  0  0  0  0  0
    4.1440    0.0460    0.0000 C   0  0  0  0  0  0  0  0  0  0  0  0
  1  2  1  0  0  0  0
  2  3  1  0  0  0  0
  2  7  2  0  0  0  0
  3  4  2  0  0  0  0
  3 11  1  0  0  0  0
  4  5  1  0  0  0  0
  4  8  1  0  0  0  0
  5  6  2  0  0  0  0
  6  7  1  0  0  0  0
  8  9  1  0  0  0  0
  9 10  1  0  0  0  0
 10 11  1  0  0  0  0
M  END
>  <name>
Oc1c2c(ccc1)C[C;amine]CC2

>  <apo>
1

>  <freq>
1

>  <freq0>
0

>  <freq1>
1

>  <freqA>
0.99887151

>  <a_count>
23

$$$$

  MOE2015           2D

 14 14  0  0  0  0  0  0  0  0999 V2000
    3.0500   -3.0500    0.0000 S   0  0  0  0  0  0  0  0  0  0  0  0
    3.0500   -1.5500    0.0000 O   0  0  0  0  0  0  0  0  0  0  0  0
    3.0500   -4.5500    0.0000 O   0  0  0  0  0  0  0  0  0  0  0  0
    4.5500   -3.0500    0.0000 N   0  0  0  0  0  0  0  0  0  0  0  0
    1.5500   -3.0500    0.0000 C   0  0  0  0  0  0  0  0  0  0  0  0
    0.8000   -1.7510    0.0000 C   0  0  0  0  0  0  0  0  0  0  0  0
   -0.7000   -1.7510    0.0000 C   0  0  0  0  0  0  0  0  0  0  0  0
   -1.4500   -0.4520    0.0000 C   0  0  0  0  0  0  0  0  0  0  0  0
   -0.7000    0.8470    0.0000 O   0  0  0  0  0  0  0  0  0  0  0  0
   -1.4500   -3.0500    0.0000 C   0  0  0  0  0  0  0  0  0  0  0  0
   -2.9500   -3.0500    0.0000 O   0  0  0  0  0  0  0  0  0  0  0  0
   -3.7000   -4.3490    0.0000 C   0  0  0  0  0  0  0  0  0  0  0  0
   -0.7000   -4.3490    0.0000 C   0  0  0  0  0  0  0  0  0  0  0  0
    0.8000   -4.3490    0.0000 C   0  0  0  0  0  0  0  0  0  0  0  0
  1  2  2  0  0  0  0
  1  3  2  0  0  0  0
  1  4  1  0  0  0  0
  1  5  1  0  0  0  0
  5  6  1  0  0  0  0
  5 14  2  0  0  0  0
  6  7  2  0  0  0  0
  7  8  1  0  0  0  0
  7 10  1  0  0  0  0
  8  9  2  0  0  0  0
 10 11  1  0  0  0  0
 10 13  2  0  0  0  0
 11 12  1  0  0  0  0
 13 14  1  0  0  0  0
M  END
>  <name>
S(=O)(=O)(N)c1cc([C;amide]=O)c(OC)cc1

>  <apo>
1

>  <freq>
1

>  <freq0>
0

>  <freq1>
1

>  <freqA>
0.99887151

>  <a_count>
23

$$$$

  MOE2015           2D

  7  6  0  0  1  0  0  0  0  0999 V2000
   -0.0210   -0.0780    0.0000 C   0  0  2  0  0  0  0  0  0  0  0  0
    1.2780   -0.8280    0.0000 C   0  0  0  0  0  0  0  0  0  0  0  0
    2.5770   -0.0780    0.0000 C   0  0  0  0  0  0  0  0  0  0  0  0
    3.8760   -0.8280    0.0000 C   0  0  0  0  0  0  0  0  0  0  0  0
   -1.3200   -0.8280    0.0000 C   0  0  0  0  0  0  0  0  0  0  0  0
   -2.6190   -0.0780    0.0000 C   0  0  0  0  0  0  0  0  0  0  0  0
   -0.0210    1.4220    0.0000 C   0  0  0  0  0  0  0  0  0  0  0  0
  1  2  1  0  0  0  0
  1  5  1  0  0  0  0
  1  7  1  6  0  0  0
  2  3  1  0  0  0  0
  3  4  1  0  0  0  0
  5  6  1  0  0  0  0
M  END
>  <name>
[C@@H]([C;ether][C;olefin]C)(CC)[C;olefin]

>  <apo>
3

>  <freq>
1

>  <freq0>
0

>  <freq1>
1

>  <freqA>
0.99887151

>  <a_count>
23

$$$$

  MOE2015           2D

 10 12  0  0  0  0  0  0  0  0999 V2000
    1.5070   -0.1010    0.0000 N   0  3  0  0  0  0  0  0  0  0  0  0
    0.9560    1.1640    0.0000 C   0  0  0  0  0  0  0  0  0  0  0  0
   -0.2320    1.9100    0.0000 N   0  0  0  0  0  0  0  0  0  0  0  0
    1.3510    2.0640    0.0000 C   0  0  0  0  0  0  0  0  0  0  0  0
    1.9030    0.6950    0.0000 N   0  0  0  0  0  0  0  0  0  0  0  0
    3.2140   -0.0750    0.0000 C   0  0  0  0  0  0  0  0  0  0  0  0
    0.7890   -0.3820    0.0000 C   0  0  0  0  0  0  0  0  0  0  0  0
   -0.7760   -0.4880    0.0000 N   0  0  0  0  0  0  0  0  0  0  0  0
    0.4740   -1.1120    0.0000 C   0  0  0  0  0  0  0  0  0  0  0  0
   -1.3100    0.8840    0.0000 C   0  0  0  0  0  0  0  0  0  0  0  0
  1  2  1  0  0  0  0
  1  6  1  0  0  0  0
  1  9  1  0  0  0  0
  2  3  1  0  0  0  0
  3  4  1  0  0  0  0
  3 10  1  0  0  0  0
  4  5  1  0  0  0  0
  5  6  1  0  0  0  0
  5  7  1  0  0  0  0
  7  8  1  0  0  0  0
  8  9  1  0  0  0  0
  8 10  1  0  0  0  0
M  CHG  1   1   1
M  END
>  <name>
[N+;quatN]12CN3CN(C1)CN(C2)C3

>  <apo>
1

>  <freq>
1

>  <freq0>
0

>  <freq1>
1

>  <freqA>
0.99887151

>  <a_count>
23

$$$$

  MOE2015           2D

 10 10  0  0  0  0  0  0  0  0999 V2000
    0.6040    2.2540    0.0000 N   0  0  0  0  0  0  0  0  0  0  0  0
    1.9030    1.5040    0.0000 C   0  0  0  0  0  0  0  0  0  0  0  0
    3.2020    2.2540    0.0000 C   0  0  0  0  0  0  0  0  0  0  0  0
   -0.6950    1.5040    0.0000 C   0  0  0  0  0  0  0  0  0  0  0  0
   -1.9940    2.2540    0.0000 C   0  0  0  0  0  0  0  0  0  0  0  0
   -1.9940    3.7540    0.0000 C   0  0  0  0  0  0  0  0  0  0  0  0
   -3.2930    1.5040    0.0000 C   0  0  0  0  0  0  0  0  0  0  0  0
   -3.2930    0.0040    0.0000 C   0  0  0  0  0  0  0  0  0  0  0  0
   -1.9940   -0.7460    0.0000 C   0  0  0  0  0  0  0  0  0  0  0  0
   -0.6950    0.0040    0.0000 C   0  0  0  0  0  0  0  0  0  0  0  0
  1  2  1  0  0  0  0
  1  4  1  0  0  0  0
  2  3  1  0  0  0  0
  4  5  1  0  0  0  0
  4 10  2  0  0  0  0
  5  6  1  0  0  0  0
  5  7  2  0  0  0  0
  7  8  1  0  0  0  0
  8  9  2  0  0  0  0
  9 10  1  0  0  0  0
M  END
>  <name>
[N;amide](CC)c1c(C)cccc1

>  <apo>
1

>  <freq>
1

>  <freq0>
0

>  <freq1>
1

>  <freqA>
0.99887151

>  <a_count>
23

$$$$

  MOE2015           2D

 10 10  0  0  1  0  0  0  0  0999 V2000
    4.5000    2.5980    0.0000 N   0  0  0  0  0  0  0  0  0  0  0  0
    3.7500    1.2990    0.0000 C   0  0  1  0  0  0  0  0  0  0  0  0
    4.5000    0.0000    0.0000 C   0  0  0  0  0  0  0  0  0  0  0  0
    6.0000    0.0000    0.0000 C   0  0  0  0  0  0  0  0  0  0  0  0
    2.2500    1.2990    0.0000 C   0  0  0  0  0  0  0  0  0  0  0  0
    1.5000    0.0000    0.0000 C   0  0  0  0  0  0  0  0  0  0  0  0
    0.0000    0.0000    0.0000 C   0  0  0  0  0  0  0  0  0  0  0  0
   -0.7500    1.2990    0.0000 C   0  0  0  0  0  0  0  0  0  0  0  0
    0.0000    2.5980    0.0000 C   0  0  0  0  0  0  0  0  0  0  0  0
    1.5000    2.5980    0.0000 C   0  0  0  0  0  0  0  0  0  0  0  0
  2  1  1  1  0  0  0
  2  3  1  0  0  0  0
  2  5  1  0  0  0  0
  3  4  1  0  0  0  0
  5  6  1  0  0  0  0
  5 10  2  0  0  0  0
  6  7  2  0  0  0  0
  7  8  1  0  0  0  0
  8  9  2  0  0  0  0
  9 10  1  0  0  0  0
M  END
>  <name>
[N;amide][C@@H](C[C;amine])c1ccccc1

>  <apo>
2

>  <freq>
1

>  <freq0>
0

>  <freq1>
1

>  <freqA>
0.99887151

>  <a_count>
23

$$$$

  MOE2015           2D

 10 10  0  0  1  0  0  0  0  0999 V2000
    7.3870   -1.9790    0.0000 N   0  0  0  0  0  0  0  0  0  0  0  0
    6.0880   -1.2290    0.0000 C   0  0  2  0  0  0  0  0  0  0  0  0
    4.7890   -1.9790    0.0000 C   0  0  0  0  0  0  0  0  0  0  0  0
    3.4900   -1.2290    0.0000 C   0  0  0  0  0  0  0  0  0  0  0  0
    3.4900    0.2710    0.0000 C   0  0  0  0  0  0  0  0  0  0  0  0
    2.1910    1.0210    0.0000 C   0  0  0  0  0  0  0  0  0  0  0  0
    0.8920    0.2710    0.0000 C   0  0  0  0  0  0  0  0  0  0  0  0
    0.8920   -1.2290    0.0000 C   0  0  0  0  0  0  0  0  0  0  0  0
    2.1910   -1.9790    0.0000 C   0  0  0  0  0  0  0  0  0  0  0  0
    6.0880    0.2710    0.0000 C   0  0  0  0  0  0  0  0  0  0  0  0
  2  1  1  6  0  0  0
  2  3  1  0  0  0  0
  2 10  1  0  0  0  0
  3  4  1  0  0  0  0
  4  5  1  0  0  0  0
  4  9  2  0  0  0  0
  5  6  2  0  0  0  0
  6  7  1  0  0  0  0
  7  8  2  0  0  0  0
  8  9  1  0  0  0  0
M  END
>  <name>
[N;amide][C@H](Cc1ccccc1)C

>  <apo>
1

>  <freq>
1

>  <freq0>
0

>  <freq1>
1

>  <freqA>
0.99887151

>  <a_count>
23

$$$$

  MOE2015           2D

  8  8  0  0  0  0  0  0  0  0999 V2000
    0.5570    1.1300    0.0000 N   0  0  0  0  0  0  0  0  0  0  0  0
    0.1690    2.5790    0.0000 C   0  0  0  0  0  0  0  0  0  0  0  0
   -1.1300    3.3290    0.0000 C   0  0  0  0  0  0  0  0  0  0  0  0
   -2.5790    2.9410    0.0000 C   0  0  0  0  0  0  0  0  0  0  0  0
   -3.3290    1.6420    0.0000 C   0  0  0  0  0  0  0  0  0  0  0  0
   -2.9410    0.1930    0.0000 C   0  0  0  0  0  0  0  0  0  0  0  0
   -1.6420   -0.5570    0.0000 C   0  0  0  0  0  0  0  0  0  0  0  0
   -0.1930   -0.1690    0.0000 C   0  0  0  0  0  0  0  0  0  0  0  0
  1  2  1  0  0  0  0
  1  8  1  0  0  0  0
  2  3  1  0  0  0  0
  3  4  1  0  0  0  0
  4  5  1  0  0  0  0
  5  6  1  0  0  0  0
  6  7  1  0  0  0  0
  7  8  1  0  0  0  0
M  END
>  <name>
[N;amine]1CCCCCCC1

>  <apo>
1

>  <freq>
1

>  <freq0>
0

>  <freq1>
1

>  <freqA>
0.99887151

>  <a_count>
23

$$$$

  MOE2015           2D

  9 10  0  0  1  0  0  0  0  0999 V2000
    6.1150    0.2690    0.0000 O   0  0  0  0  0  0  0  0  0  0  0  0
    4.6210    0.1370    0.0000 C   0  0  2  0  0  0  0  0  0  0  0  0
    3.2420    1.0100    0.0000 C   0  0  0  0  0  0  0  0  0  0  0  0
    2.9970    2.4600    0.0000 C   0  0  0  0  0  0  0  0  0  0  0  0
    2.0260    1.4680    0.0000 C   0  0  0  0  0  0  0  0  0  0  0  0
    2.2850    0.0440    0.0000 N   0  3  0  0  0  0  0  0  0  0  0  0
    3.6150   -0.7810    0.0000 C   0  0  0  0  0  0  0  0  0  0  0  0
    0.9250   -0.8010    0.0000 C   0  0  0  0  0  0  0  0  0  0  0  0
    1.5710    0.1700    0.0000 C   0  0  0  0  0  0  0  0  0  0  0  0
  2  1  1  1  0  0  0
  2  3  1  0  0  0  0
  2  7  1  0  0  0  0
  3  4  1  0  0  0  0
  3  9  1  0  0  0  0
  4  5  1  0  0  0  0
  5  6  1  0  0  0  0
  6  7  1  0  0  0  0
  6  8  1  0  0  0  0
  8  9  1  0  0  0  0
M  CHG  1   6   1
M  END
>  <name>
[O;ester][C@@H]1C2CC[N+;quatN](C1)CC2

>  <apo>
2

>  <freq>
1

>  <freq0>
0

>  <freq1>
1

>  <freqA>
0.99887151

>  <a_count>
23

$$$$

  MOE2015           2D

 11 11  0  0  0  0  0  0  0  0999 V2000
    0.2660    1.4630    0.0000 O   0  0  0  0  0  0  0  0  0  0  0  0
    1.5650    0.7130    0.0000 C   0  0  0  0  0  0  0  0  0  0  0  0
    2.8640    1.4630    0.0000 C   0  0  0  0  0  0  0  0  0  0  0  0
    2.8640    2.9630    0.0000 C   0  0  0  0  0  0  0  0  0  0  0  0
    4.1630    0.7130    0.0000 C   0  0  0  0  0  0  0  0  0  0  0  0
    5.4620    1.4630    0.0000 C   0  0  0  0  0  0  0  0  0  0  0  0
    4.1630   -0.7870    0.0000 C   0  0  0  0  0  0  0  0  0  0  0  0
    5.4620   -1.5370    0.0000 O   0  0  0  0  0  0  0  0  0  0  0  0
    2.8640   -1.5370    0.0000 C   0  0  0  0  0  0  0  0  0  0  0  0
    1.5650   -0.7870    0.0000 C   0  0  0  0  0  0  0  0  0  0  0  0
    0.2660   -1.5370    0.0000 C   0  0  0  0  0  0  0  0  0  0  0  0
  1  2  1  0  0  0  0
  2  3  1  0  0  0  0
  2 10  2  0  0  0  0
  3  4  1  0  0  0  0
  3  5  2  0  0  0  0
  5  6  1  0  0  0  0
  5  7  1  0  0  0  0
  7  8  1  0  0  0  0
  7  9  2  0  0  0  0
  9 10  1  0  0  0  0
 10 11  1  0  0  0  0
M  END
>  <name>
[O;ester]c1c(C)c(C)c([O;ether])cc1C

>  <apo>
2

>  <freq>
1

>  <freq0>
0

>  <freq1>
1

>  <freqA>
0.99887151

>  <a_count>
23

$$$$

  MOE2015           2D

 14 16  0  0  0  0  0  0  0  0999 V2000
    0.3940    4.3800    0.0000 O   0  0  0  0  0  0  0  0  0  0  0  0
    0.3230    2.8820    0.0000 C   0  0  0  0  0  0  0  0  0  0  0  0
    1.5840    2.0710    0.0000 C   0  0  0  0  0  0  0  0  0  0  0  0
    1.5130    0.5720    0.0000 C   0  0  0  0  0  0  0  0  0  0  0  0
    2.9160    0.0410    0.0000 N   0  0  0  0  0  0  0  0  0  0  0  0
    3.8540    1.2120    0.0000 C   0  0  0  0  0  0  0  0  0  0  0  0
    3.0320    2.4660    0.0000 C   0  0  0  0  0  0  0  0  0  0  0  0
    3.7060    3.8050    0.0000 C   0  0  0  0  0  0  0  0  0  0  0  0
    5.2040    3.8910    0.0000 C   0  0  0  0  0  0  0  0  0  0  0  0
    6.0270    2.6370    0.0000 C   0  0  0  0  0  0  0  0  0  0  0  0
    5.3520    1.2970    0.0000 C   0  0  0  0  0  0  0  0  0  0  0  0
    0.1800   -0.1150    0.0000 C   0  0  0  0  0  0  0  0  0  0  0  0
   -1.0820    0.6960    0.0000 C   0  0  0  0  0  0  0  0  0  0  0  0
   -1.0110    2.1950    0.0000 C   0  0  0  0  0  0  0  0  0  0  0  0
  1  2  1  0  0  0  0
  2  3  1  0  0  0  0
  2 14  2  0  0  0  0
  3  4  2  0  0  0  0
  3  7  1  0  0  0  0
  4  5  1  0  0  0  0
  4 12  1  0  0  0  0
  5  6  1  0  0  0  0
  6  7  1  0  0  0  0
  6 11  2  0  0  0  0
  7  8  2  0  0  0  0
  8  9  1  0  0  0  0
  9 10  2  0  0  0  0
 10 11  1  0  0  0  0
 12 13  2  0  0  0  0
 13 14  1  0  0  0  0
M  END
>  <name>
[O;ether]c1c2c([nH]c3c2cccc3)ccc1

>  <apo>
1

>  <freq>
1

>  <freq0>
0

>  <freq1>
1

>  <freqA>
0.99887151

>  <a_count>
23

$$$$

  MOE2015           2D

 13 14  0  0  0  0  0  0  0  0999 V2000
    0.1040   -2.3800    0.0000 O   0  0  0  0  0  0  0  0  0  0  0  0
    1.4030   -1.6300    0.0000 C   0  0  0  0  0  0  0  0  0  0  0  0
    2.7020   -2.3800    0.0000 C   0  0  0  0  0  0  0  0  0  0  0  0
    4.0010   -1.6300    0.0000 C   0  0  0  0  0  0  0  0  0  0  0  0
    5.4280   -2.0940    0.0000 S   0  0  0  0  0  0  0  0  0  0  0  0
    6.3100   -0.8800    0.0000 C   0  0  0  0  0  0  0  0  0  0  0  0
    7.8100   -0.8800    0.0000 N   0  0  0  0  0  0  0  0  0  0  0  0
    8.5600   -2.1790    0.0000 C   0  0  0  0  0  0  0  0  0  0  0  0
    8.5600    0.4190    0.0000 C   0  0  0  0  0  0  0  0  0  0  0  0
    5.4280    0.3340    0.0000 N   0  0  0  0  0  0  0  0  0  0  0  0
    4.0010   -0.1300    0.0000 C   0  0  0  0  0  0  0  0  0  0  0  0
    2.7020    0.6200    0.0000 C   0  0  0  0  0  0  0  0  0  0  0  0
    1.4030   -0.1300    0.0000 C   0  0  0  0  0  0  0  0  0  0  0  0
  1  2  1  0  0  0  0
  2  3  1  0  0  0  0
  2 13  2  0  0  0  0
  3  4  2  0  0  0  0
  4  5  1  0  0  0  0
  4 11  1  0  0  0  0
  5  6  1  0  0  0  0
  6  7  1  0  0  0  0
  6 10  2  0  0  0  0
  7  8  1  0  0  0  0
  7  9  1  0  0  0  0
 10 11  1  0  0  0  0
 11 12  2  0  0  0  0
 12 13  1  0  0  0  0
M  END
>  <name>
[O;ether]c1cc2sc(N(C)C)nc2cc1

>  <apo>
1

>  <freq>
1

>  <freq0>
0

>  <freq1>
1

>  <freqA>
0.99887151

>  <a_count>
23

$$$$

  MOE2015           2D

 12 12  0  0  0  0  0  0  0  0999 V2000
   -4.8750    2.8150    0.0000 S   0  0  0  0  0  0  0  0  0  0  0  0
   -5.6250    4.1140    0.0000 O   0  0  0  0  0  0  0  0  0  0  0  0
   -5.6250    1.5160    0.0000 O   0  0  0  0  0  0  0  0  0  0  0  0
   -3.3750    2.8150    0.0000 C   0  0  0  0  0  0  0  0  0  0  0  0
   -2.6250    1.5160    0.0000 C   0  0  0  0  0  0  0  0  0  0  0  0
   -1.1250    1.5160    0.0000 C   0  0  0  0  0  0  0  0  0  0  0  0
   -0.3750    2.8150    0.0000 C   0  0  0  0  0  0  0  0  0  0  0  0
    1.1250    2.8150    0.0000 C   0  0  0  0  0  0  0  0  0  0  0  0
    1.8750    1.5160    0.0000 C   0  0  0  0  0  0  0  0  0  0  0  0
    3.3750    1.5160    0.0000 N   0  0  0  0  0  0  0  0  0  0  0  0
   -1.1250    4.1140    0.0000 C   0  0  0  0  0  0  0  0  0  0  0  0
   -2.6250    4.1140    0.0000 C   0  0  0  0  0  0  0  0  0  0  0  0
  1  2  2  0  0  0  0
  1  3  2  0  0  0  0
  1  4  1  0  0  0  0
  4  5  1  0  0  0  0
  4 12  2  0  0  0  0
  5  6  2  0  0  0  0
  6  7  1  0  0  0  0
  7  8  1  0  0  0  0
  7 11  2  0  0  0  0
  8  9  1  0  0  0  0
  9 10  1  0  0  0  0
 11 12  1  0  0  0  0
M  END
>  <name>
[SH;so2amide](=O)(=O)c1ccc(CC[N;urea])cc1

>  <apo>
2

>  <freq>
1

>  <freq0>
0

>  <freq1>
1

>  <freqA>
0.99887151

>  <a_count>
23

$$$$

  MOE2015           2D

 13 13  0  0  0  0  0  0  0  0999 V2000
    0.0000    0.0000    0.0000 Br  0  0  0  0  0  0  0  0  0  0  0  0
    1.5000    0.0000    0.0000 C   0  0  0  0  0  0  0  0  0  0  0  0
    2.2500    1.2990    0.0000 C   0  0  0  0  0  0  0  0  0  0  0  0
    1.5000    2.5980    0.0000 O   0  0  0  0  0  0  0  0  0  0  0  0
    0.0000    2.5980    0.0000 C   0  0  0  0  0  0  0  0  0  0  0  0
    3.7500    1.2990    0.0000 C   0  0  0  0  0  0  0  0  0  0  0  0
    4.5000    2.5980    0.0000 C   0  0  0  0  0  0  0  0  0  0  0  0
    6.0000    2.5980    0.0000 O   0  0  0  0  0  0  0  0  0  0  0  0
    4.5000    0.0000    0.0000 C   0  0  0  0  0  0  0  0  0  0  0  0
    6.0000    0.0000    0.0000 O   0  0  0  0  0  0  0  0  0  0  0  0
    6.7500   -1.2990    0.0000 C   0  0  0  0  0  0  0  0  0  0  0  0
    3.7500   -1.2990    0.0000 C   0  0  0  0  0  0  0  0  0  0  0  0
    2.2500   -1.2990    0.0000 C   0  0  0  0  0  0  0  0  0  0  0  0
  1  2  1  0  0  0  0
  2  3  1  0  0  0  0
  2 13  2  0  0  0  0
  3  4  1  0  0  0  0
  3  6  2  0  0  0  0
  4  5  1  0  0  0  0
  6  7  1  0  0  0  0
  6  9  1  0  0  0  0
  7  8  2  0  0  0  0
  9 10  1  0  0  0  0
  9 12  2  0  0  0  0
 10 11  1  0  0  0  0
 12 13  1  0  0  0  0
M  END
>  <name>
Brc1c(OC)c([C;amide]=O)c(OC)cc1

>  <apo>
1

>  <freq>
1

>  <freq0>
0

>  <freq1>
1

>  <freqA>
0.99887151

>  <a_count>
22

$$$$

  MOE2015           2D

 11 12  0  0  0  0  0  0  0  0999 V2000
    0.4500   -2.7300    0.0000 C   0  0  0  0  0  0  0  0  0  0  0  0
    1.8710   -2.2490    0.0000 C   0  0  0  0  0  0  0  0  0  0  0  0
   -0.6770   -1.7410    0.0000 C   0  0  0  0  0  0  0  0  0  0  0  0
   -2.1400   -2.0710    0.0000 C   0  0  0  0  0  0  0  0  0  0  0  0
   -2.9070   -0.7810    0.0000 C   0  0  0  0  0  0  0  0  0  0  0  0
   -1.9170    0.3460    0.0000 N   0  0  0  0  0  0  0  0  0  0  0  0
   -0.5390   -0.2470    0.0000 C   0  0  0  0  0  0  0  0  0  0  0  0
   -4.4060   -0.8000    0.0000 C   0  0  0  0  0  0  0  0  0  0  0  0
   -5.1400   -2.1080    0.0000 C   0  0  0  0  0  0  0  0  0  0  0  0
   -4.3740   -3.3980    0.0000 C   0  0  0  0  0  0  0  0  0  0  0  0
   -2.8740   -3.3790    0.0000 C   0  0  0  0  0  0  0  0  0  0  0  0
  1  2  1  0  0  0  0
  1  3  1  0  0  0  0
  3  4  1  0  0  0  0
  3  7  2  0  0  0  0
  4  5  1  0  0  0  0
  4 11  2  0  0  0  0
  5  6  1  0  0  0  0
  5  8  2  0  0  0  0
  6  7  1  0  0  0  0
  8  9  1  0  0  0  0
  9 10  2  0  0  0  0
 10 11  1  0  0  0  0
M  END
>  <name>
C([C;amine])c1c2c([nH]c1)cccc2

>  <apo>
1

>  <freq>
1

>  <freq0>
0

>  <freq1>
1

>  <freqA>
0.99887151

>  <a_count>
22

$$$$

  MOE2015           2D

 14 14  0  0  0  0  0  0  0  0999 V2000
    1.8210    2.7840    0.0000 Cl  0  0  0  0  0  0  0  0  0  0  0  0
    2.5710    1.4850    0.0000 C   0  0  0  0  0  0  0  0  0  0  0  0
    4.0710    1.4850    0.0000 C   0  0  0  0  0  0  0  0  0  0  0  0
    4.8210    2.7840    0.0000 O   0  0  0  0  0  0  0  0  0  0  0  0
    4.8210    0.1860    0.0000 C   0  0  0  0  0  0  0  0  0  0  0  0
    6.3210    0.1860    0.0000 Cl  0  0  0  0  0  0  0  0  0  0  0  0
    4.0710   -1.1130    0.0000 C   0  0  0  0  0  0  0  0  0  0  0  0
    4.8210   -2.4120    0.0000 C   0  0  0  0  0  0  0  0  0  0  0  0
    6.3210   -2.4120    0.0000 C   0  0  0  0  0  0  0  0  0  0  0  0
    2.5710   -1.1130    0.0000 C   0  0  0  0  0  0  0  0  0  0  0  0
    1.8210   -2.4120    0.0000 C   0  0  0  0  0  0  0  0  0  0  0  0
    0.3210   -2.4120    0.0000 O   0  0  0  0  0  0  0  0  0  0  0  0
    1.8210    0.1860    0.0000 C   0  0  0  0  0  0  0  0  0  0  0  0
    0.3210    0.1860    0.0000 O   0  0  0  0  0  0  0  0  0  0  0  0
  1  2  1  0  0  0  0
  2  3  1  0  0  0  0
  2 13  2  0  0  0  0
  3  4  1  0  0  0  0
  3  5  2  0  0  0  0
  5  6  1  0  0  0  0
  5  7  1  0  0  0  0
  7  8  1  0  0  0  0
  7 10  2  0  0  0  0
  8  9  1  0  0  0  0
 10 11  1  0  0  0  0
 10 13  1  0  0  0  0
 11 12  2  0  0  0  0
 13 14  1  0  0  0  0
M  END
>  <name>
Clc1c(O)c(Cl)c(CC)c([C;ester]=O)c1O

>  <apo>
1

>  <freq>
1

>  <freq0>
0

>  <freq1>
1

>  <freqA>
0.99887151

>  <a_count>
22

$$$$

  MOE2015           2D

 15 15  0  0  0  0  0  0  0  0999 V2000
    0.7250    2.7060    0.0000 Cl  0  0  0  0  0  0  0  0  0  0  0  0
    2.0240    1.9560    0.0000 C   0  0  0  0  0  0  0  0  0  0  0  0
    2.0240    0.4560    0.0000 C   0  0  0  0  0  0  0  0  0  0  0  0
    0.7250   -0.2940    0.0000 S   0  0  0  0  0  0  0  0  0  0  0  0
   -0.0250    1.0050    0.0000 O   0  0  0  0  0  0  0  0  0  0  0  0
    1.4750   -1.5930    0.0000 O   0  0  0  0  0  0  0  0  0  0  0  0
   -0.5740   -1.0440    0.0000 N   0  0  0  0  0  0  0  0  0  0  0  0
    3.3230   -0.2940    0.0000 C   0  0  0  0  0  0  0  0  0  0  0  0
    4.6220    0.4560    0.0000 C   0  0  0  0  0  0  0  0  0  0  0  0
    5.9210   -0.2940    0.0000 C   0  0  0  0  0  0  0  0  0  0  0  0
    7.2200    0.4560    0.0000 O   0  0  0  0  0  0  0  0  0  0  0  0
    5.9210   -1.7940    0.0000 O   0  0  0  0  0  0  0  0  0  0  0  0
    4.6220    1.9560    0.0000 C   0  0  0  0  0  0  0  0  0  0  0  0
    5.9210    2.7060    0.0000 N   0  0  0  0  0  0  0  0  0  0  0  0
    3.3230    2.7060    0.0000 C   0  0  0  0  0  0  0  0  0  0  0  0
  1  2  1  0  0  0  0
  2  3  1  0  0  0  0
  2 15  2  0  0  0  0
  3  4  1  0  0  0  0
  3  8  2  0  0  0  0
  4  5  2  0  0  0  0
  4  6  2  0  0  0  0
  4  7  1  0  0  0  0
  8  9  1  0  0  0  0
  9 10  1  0  0  0  0
  9 13  2  0  0  0  0
 10 11  2  0  0  0  0
 10 12  1  0  0  0  0
 13 14  1  0  0  0  0
 13 15  1  0  0  0  0
M  END
>  <name>
Clc1c(S(=O)(=O)N)cc(C(=O)O)c([N;amine])c1

>  <apo>
1

>  <freq>
1

>  <freq0>
0

>  <freq1>
1

>  <freqA>
0.99887151

>  <a_count>
22

$$$$

  MOE2015           2D

 13 13  0  0  0  0  0  0  0  0999 V2000
    0.5170    1.5310    0.0000 Cl  0  0  0  0  0  0  0  0  0  0  0  0
    1.8160    0.7810    0.0000 C   0  0  0  0  0  0  0  0  0  0  0  0
    3.1150    1.5310    0.0000 C   0  0  0  0  0  0  0  0  0  0  0  0
    3.1150    3.0310    0.0000 N   0  0  0  0  0  0  0  0  0  0  0  0
    4.4140    0.7810    0.0000 C   0  0  0  0  0  0  0  0  0  0  0  0
    5.7130    1.5310    0.0000 Cl  0  0  0  0  0  0  0  0  0  0  0  0
    4.4140   -0.7190    0.0000 C   0  0  0  0  0  0  0  0  0  0  0  0
    5.7130   -1.4690    0.0000 O   0  0  0  0  0  0  0  0  0  0  0  0
    5.7130   -2.9690    0.0000 C   0  0  0  0  0  0  0  0  0  0  0  0
    3.1150   -1.4690    0.0000 C   0  0  0  0  0  0  0  0  0  0  0  0
    1.8160   -0.7190    0.0000 C   0  0  0  0  0  0  0  0  0  0  0  0
    0.5170   -1.4690    0.0000 O   0  0  0  0  0  0  0  0  0  0  0  0
    0.5170   -2.9690    0.0000 C   0  0  0  0  0  0  0  0  0  0  0  0
  1  2  1  0  0  0  0
  2  3  1  0  0  0  0
  2 11  2  0  0  0  0
  3  4  1  0  0  0  0
  3  5  2  0  0  0  0
  5  6  1  0  0  0  0
  5  7  1  0  0  0  0
  7  8  1  0  0  0  0
  7 10  2  0  0  0  0
  8  9  1  0  0  0  0
 10 11  1  0  0  0  0
 11 12  1  0  0  0  0
 12 13  1  0  0  0  0
M  END
>  <name>
Clc1c([N;urea])c(Cl)c(OC)cc1OC

>  <apo>
1

>  <freq>
1

>  <freq0>
0

>  <freq1>
1

>  <freqA>
0.99887151

>  <a_count>
22

$$$$

  MOE2015           2D

 14 15  0  0  0  0  0  0  0  0999 V2000
    8.5710    0.0000    0.0000 Cl  0  0  0  0  0  0  0  0  0  0  0  0
    7.0710    0.0000    0.0000 C   0  0  0  0  0  0  0  0  0  0  0  0
    6.3210    1.2990    0.0000 C   0  0  0  0  0  0  0  0  0  0  0  0
    4.8210    1.2990    0.0000 C   0  0  0  0  0  0  0  0  0  0  0  0
    4.0710    2.5980    0.0000 C   0  0  0  0  0  0  0  0  0  0  0  0
    4.8210    3.8970    0.0000 O   0  0  0  0  0  0  0  0  0  0  0  0
    2.5710    2.5980    0.0000 N   0  0  0  0  0  0  0  0  0  0  0  0
    1.8210    1.2990    0.0000 C   0  0  0  0  0  0  0  0  0  0  0  0
    2.5710    0.0000    0.0000 C   0  0  0  0  0  0  0  0  0  0  0  0
    1.8210   -1.2990    0.0000 O   0  0  0  0  0  0  0  0  0  0  0  0
    0.3210   -1.2990    0.0000 C   0  0  0  0  0  0  0  0  0  0  0  0
    4.0710    0.0000    0.0000 C   0  0  0  0  0  0  0  0  0  0  0  0
    4.8210   -1.2990    0.0000 C   0  0  0  0  0  0  0  0  0  0  0  0
    6.3210   -1.2990    0.0000 C   0  0  0  0  0  0  0  0  0  0  0  0
  1  2  1  0  0  0  0
  2  3  1  0  0  0  0
  2 14  2  0  0  0  0
  3  4  2  0  0  0  0
  4  5  1  0  0  0  0
  4 12  1  0  0  0  0
  5  6  1  0  0  0  0
  5  7  2  0  0  0  0
  7  8  1  0  0  0  0
  8  9  2  0  0  0  0
  9 10  1  0  0  0  0
  9 12  1  0  0  0  0
 10 11  1  0  0  0  0
 12 13  2  0  0  0  0
 13 14  1  0  0  0  0
M  END
>  <name>
Clc1cc2c([O;ether])ncc(OC)c2cc1

>  <apo>
1

>  <freq>
1

>  <freq0>
0

>  <freq1>
1

>  <freqA>
0.99887151

>  <a_count>
22

$$$$

  MOE2015           2D

 16 17  0  0  0  0  0  0  0  0999 V2000
    9.4180    0.0500    0.0000 Cl  0  0  0  0  0  0  0  0  0  0  0  0
    7.9180    0.0500    0.0000 C   0  0  0  0  0  0  0  0  0  0  0  0
    7.0360   -1.1630    0.0000 S   0  0  0  0  0  0  0  0  0  0  0  0
    5.6100   -0.7000    0.0000 C   0  0  0  0  0  0  0  0  0  0  0  0
    4.3110   -1.4500    0.0000 C   0  0  0  0  0  0  0  0  0  0  0  0
    4.3110   -2.9500    0.0000 O   0  0  0  0  0  0  0  0  0  0  0  0
    3.0120   -0.7000    0.0000 C   0  0  0  0  0  0  0  0  0  0  0  0
    1.7130   -1.4500    0.0000 C   0  0  0  0  0  0  0  0  0  0  0  0
    1.7130   -2.9500    0.0000 O   0  0  0  0  0  0  0  0  0  0  0  0
    3.0120    0.8000    0.0000 N   0  0  0  0  0  0  0  0  0  0  0  0
    1.7130    1.5500    0.0000 C   0  0  0  0  0  0  0  0  0  0  0  0
    4.3110    1.5500    0.0000 S   0  0  0  0  0  0  0  0  0  0  0  0
    5.0610    2.8490    0.0000 O   0  0  0  0  0  0  0  0  0  0  0  0
    3.5610    2.8490    0.0000 O   0  0  0  0  0  0  0  0  0  0  0  0
    5.6100    0.8000    0.0000 C   0  0  0  0  0  0  0  0  0  0  0  0
    7.0360    1.2640    0.0000 C   0  0  0  0  0  0  0  0  0  0  0  0
  1  2  1  0  0  0  0
  2  3  1  0  0  0  0
  2 16  2  0  0  0  0
  3  4  1  0  0  0  0
  4  5  1  0  0  0  0
  4 15  2  0  0  0  0
  5  6  1  0  0  0  0
  5  7  2  0  0  0  0
  7  8  1  0  0  0  0
  7 10  1  0  0  0  0
  8  9  2  0  0  0  0
 10 11  1  0  0  0  0
 10 12  1  0  0  0  0
 12 13  2  0  0  0  0
 12 14  2  0  0  0  0
 12 15  1  0  0  0  0
 15 16  1  0  0  0  0
M  END
>  <name>
Clc1sc2C(O)=C([C;amide]=O)N(C)S(=O)(=O)c2c1

>  <apo>
1

>  <freq>
1

>  <freq0>
0

>  <freq1>
1

>  <freqA>
0.99887151

>  <a_count>
22

$$$$

  MOE2015           2D

 12 12  0  0  0  0  0  0  0  0999 V2000
    1.8130    3.1390    0.0000 F   0  0  0  0  0  0  0  0  0  0  0  0
    2.5630    1.8400    0.0000 C   0  0  0  0  0  0  0  0  0  0  0  0
    1.8120    0.5410    0.0000 C   0  0  0  0  0  0  0  0  0  0  0  0
    0.3120    0.5410    0.0000 C   0  0  0  0  0  0  0  0  0  0  0  0
    0.3130   -0.9590    0.0000 O   0  0  0  0  0  0  0  0  0  0  0  0
    0.3120    2.0410    0.0000 C   0  0  0  0  0  0  0  0  0  0  0  0
   -1.1880    0.5410    0.0000 C   0  0  0  0  0  0  0  0  0  0  0  0
    2.5620   -0.7580    0.0000 C   0  0  0  0  0  0  0  0  0  0  0  0
    4.0630   -0.7580    0.0000 C   0  0  0  0  0  0  0  0  0  0  0  0
    4.8120    0.5410    0.0000 C   0  0  0  0  0  0  0  0  0  0  0  0
    6.3130    0.5410    0.0000 F   0  0  0  0  0  0  0  0  0  0  0  0
    4.0630    1.8400    0.0000 C   0  0  0  0  0  0  0  0  0  0  0  0
  1  2  1  0  0  0  0
  2  3  1  0  0  0  0
  2 12  2  0  0  0  0
  3  4  1  0  0  0  0
  3  8  2  0  0  0  0
  4  5  1  0  0  0  0
  4  6  1  0  0  0  0
  4  7  1  0  0  0  0
  8  9  1  0  0  0  0
  9 10  2  0  0  0  0
 10 11  1  0  0  0  0
 10 12  1  0  0  0  0
M  END
>  <name>
Fc1c(C(O)([C;NaroC])[C;NaroC])ccc(F)c1

>  <apo>
2

>  <freq>
1

>  <freq0>
0

>  <freq1>
1

>  <freqA>
0.99887151

>  <a_count>
22

$$$$

  MOE2015           2D

 12 12  0  0  1  0  0  0  0  0999 V2000
    0.2780   -1.0380    0.0000 F   0  0  0  0  0  0  0  0  0  0  0  0
    1.5770   -0.2880    0.0000 C   0  0  0  0  0  0  0  0  0  0  0  0
    2.8760   -1.0380    0.0000 C   0  0  0  0  0  0  0  0  0  0  0  0
    4.1750   -0.2880    0.0000 C   0  0  0  0  0  0  0  0  0  0  0  0
    4.1750    1.2120    0.0000 C   0  0  0  0  0  0  0  0  0  0  0  0
    5.4740    1.9620    0.0000 C   0  0  0  0  0  0  0  0  0  0  0  0
    6.7730    1.2120    0.0000 C   0  0  2  0  0  0  0  0  0  0  0  0
    6.7730   -0.2880    0.0000 N   0  0  0  0  0  0  0  0  0  0  0  0
    8.0720    1.9620    0.0000 C   0  0  0  0  0  0  0  0  0  0  0  0
    9.3710    1.2120    0.0000 O   0  0  0  0  0  0  0  0  0  0  0  0
    2.8760    1.9620    0.0000 C   0  0  0  0  0  0  0  0  0  0  0  0
    1.5770    1.2120    0.0000 C   0  0  0  0  0  0  0  0  0  0  0  0
  1  2  1  0  0  0  0
  2  3  1  0  0  0  0
  2 12  2  0  0  0  0
  3  4  2  0  0  0  0
  4  5  1  0  0  0  0
  5  6  1  0  0  0  0
  5 11  2  0  0  0  0
  6  7  1  0  0  0  0
  7  8  1  1  0  0  0
  7  9  1  0  0  0  0
  9 10  2  0  0  0  0
 11 12  1  0  0  0  0
M  END
>  <name>
Fc1ccc(C[C@H]([N;amide])[C;ester]=O)cc1

>  <apo>
2

>  <freq>
1

>  <freq0>
0

>  <freq1>
1

>  <freqA>
0.99887151

>  <a_count>
22

$$$$

  MOE2015           2D

 15 15  0  0  0  0  0  0  0  0999 V2000
    6.0710    1.9730    0.0000 I   0  0  0  0  0  0  0  0  0  0  0  0
    4.7720    1.2230    0.0000 C   0  0  0  0  0  0  0  0  0  0  0  0
    4.7720   -0.2770    0.0000 C   0  0  0  0  0  0  0  0  0  0  0  0
    6.0710   -1.0270    0.0000 N   0  0  0  0  0  0  0  0  0  0  0  0
    7.3700   -0.2770    0.0000 C   0  0  0  0  0  0  0  0  0  0  0  0
    3.4730   -1.0270    0.0000 C   0  0  0  0  0  0  0  0  0  0  0  0
    3.4730   -2.5270    0.0000 I   0  0  0  0  0  0  0  0  0  0  0  0
    2.1740   -0.2770    0.0000 C   0  0  0  0  0  0  0  0  0  0  0  0
    0.8750   -1.0270    0.0000 C   0  0  0  0  0  0  0  0  0  0  0  0
   -0.4240   -0.2770    0.0000 O   0  0  0  0  0  0  0  0  0  0  0  0
    0.8750   -2.5270    0.0000 O   0  0  0  0  0  0  0  0  0  0  0  0
    2.1740    1.2230    0.0000 C   0  0  0  0  0  0  0  0  0  0  0  0
    0.8750    1.9730    0.0000 I   0  0  0  0  0  0  0  0  0  0  0  0
    3.4730    1.9730    0.0000 C   0  0  0  0  0  0  0  0  0  0  0  0
    3.4730    3.4730    0.0000 N   0  0  0  0  0  0  0  0  0  0  0  0
  1  2  1  0  0  0  0
  2  3  1  0  0  0  0
  2 14  2  0  0  0  0
  3  4  1  0  0  0  0
  3  6  2  0  0  0  0
  4  5  1  0  0  0  0
  6  7  1  0  0  0  0
  6  8  1  0  0  0  0
  8  9  1  0  0  0  0
  8 12  2  0  0  0  0
  9 10  2  0  0  0  0
  9 11  1  0  0  0  0
 12 13  1  0  0  0  0
 12 14  1  0  0  0  0
 14 15  1  0  0  0  0
M  END
>  <name>
Ic1c([N;amide]C)c(I)c(C(=O)O)c(I)c1[N;amide]

>  <apo>
2

>  <freq>
1

>  <freq0>
0

>  <freq1>
1

>  <freqA>
0.99887151

>  <a_count>
22

$$$$

  MOE2015           2D

  9  9  0  0  0  0  0  0  0  0999 V2000
    9.0840    0.0000    0.0000 N   0  0  0  0  0  0  0  0  0  0  0  0
    7.5840    0.0000    0.0000 C   0  0  0  0  0  0  0  0  0  0  0  0
    6.0840    0.0000    0.0000 C   0  0  0  0  0  0  0  0  0  0  0  0
    5.3340   -1.2990    0.0000 C   0  0  0  0  0  0  0  0  0  0  0  0
    3.8340   -1.2990    0.0000 C   0  0  0  0  0  0  0  0  0  0  0  0
    2.9530   -0.0860    0.0000 C   0  0  0  0  0  0  0  0  0  0  0  0
    1.5260   -0.5490    0.0000 C   0  0  0  0  0  0  0  0  0  0  0  0
    1.5260   -2.0490    0.0000 C   0  0  0  0  0  0  0  0  0  0  0  0
    2.9530   -2.5130    0.0000 C   0  0  0  0  0  0  0  0  0  0  0  0
  1  2  3  0  0  0  0
  2  3  1  0  0  0  0
  3  4  1  0  0  0  0
  4  5  1  0  0  0  0
  5  6  1  0  0  0  0
  5  9  1  0  0  0  0
  6  7  1  0  0  0  0
  7  8  1  0  0  0  0
  8  9  1  0  0  0  0
M  END
>  <name>
N#CC[C;NaroC]C1CCCC1

>  <apo>
1

>  <freq>
1

>  <freq0>
0

>  <freq1>
1

>  <freqA>
0.99887151

>  <a_count>
22

$$$$

  MOE2015           2D

 14 16  0  0  0  0  0  0  0  0999 V2000
    1.9530    3.0170    0.0000 N   0  0  0  0  0  0  0  0  0  0  0  0
    2.7030    1.7180    0.0000 C   0  0  0  0  0  0  0  0  0  0  0  0
    4.2030    1.7180    0.0000 N   0  0  0  0  0  0  0  0  0  0  0  0
    4.9530    0.4190    0.0000 C   0  0  0  0  0  0  0  0  0  0  0  0
    4.2030   -0.8800    0.0000 C   0  0  0  0  0  0  0  0  0  0  0  0
    2.7030   -0.8800    0.0000 C   0  0  0  0  0  0  0  0  0  0  0  0
    1.7000   -1.9950    0.0000 N   0  0  0  0  0  0  0  0  0  0  0  0
    0.3290   -1.3850    0.0000 C   0  0  0  0  0  0  0  0  0  0  0  0
    0.4860    0.1070    0.0000 N   0  0  0  0  0  0  0  0  0  0  0  0
    1.9530    0.4190    0.0000 C   0  0  0  0  0  0  0  0  0  0  0  0
    4.9530   -2.1790    0.0000 C   0  0  0  0  0  0  0  0  0  0  0  0
    6.4530   -2.1790    0.0000 C   0  0  0  0  0  0  0  0  0  0  0  0
    7.2030   -0.8800    0.0000 C   0  0  0  0  0  0  0  0  0  0  0  0
    6.4530    0.4190    0.0000 C   0  0  0  0  0  0  0  0  0  0  0  0
  1  2  1  0  0  0  0
  2  3  1  0  0  0  0
  2 10  2  0  0  0  0
  3  4  2  0  0  0  0
  4  5  1  0  0  0  0
  4 14  1  0  0  0  0
  5  6  2  0  0  0  0
  5 11  1  0  0  0  0
  6  7  1  0  0  0  0
  6 10  1  0  0  0  0
  7  8  1  0  0  0  0
  8  9  2  0  0  0  0
  9 10  1  0  0  0  0
 11 12  2  0  0  0  0
 12 13  1  0  0  0  0
 13 14  2  0  0  0  0
M  END
>  <name>
Nc1nc2c(c3[nH;NaroC]cnc13)cccc2

>  <apo>
1

>  <freq>
1

>  <freq0>
0

>  <freq1>
1

>  <freqA>
0.99887151

>  <a_count>
22

$$$$

  MOE2015           2D

 10 10  0  0  0  0  0  0  0  0999 V2000
   -3.0000    0.0000    0.0000 O   0  0  0  0  0  0  0  0  0  0  0  0
   -4.5000    0.0000    0.0000 C   0  0  0  0  0  0  0  0  0  0  0  0
   -2.2500    1.2990    0.0000 C   0  0  0  0  0  0  0  0  0  0  0  0
   -0.7500    1.2990    0.0000 C   0  0  0  0  0  0  0  0  0  0  0  0
    0.0000    0.0000    0.0000 C   0  0  0  0  0  0  0  0  0  0  0  0
    1.5000    0.0000    0.0000 C   0  0  0  0  0  0  0  0  0  0  0  0
    0.0000    2.5980    0.0000 C   0  0  0  0  0  0  0  0  0  0  0  0
   -0.7500    3.8970    0.0000 C   0  0  0  0  0  0  0  0  0  0  0  0
   -2.2500    3.8970    0.0000 C   0  0  0  0  0  0  0  0  0  0  0  0
   -3.0000    2.5980    0.0000 C   0  0  0  0  0  0  0  0  0  0  0  0
  1  2  1  0  0  0  0
  1  3  1  0  0  0  0
  3  4  1  0  0  0  0
  3 10  2  0  0  0  0
  4  5  1  0  0  0  0
  4  7  2  0  0  0  0
  5  6  1  0  0  0  0
  7  8  1  0  0  0  0
  8  9  2  0  0  0  0
  9 10  1  0  0  0  0
M  END
>  <name>
O(C)c1c([C;ether]C)ccc[c;biphenyl]1

>  <apo>
2

>  <freq>
1

>  <freq0>
0

>  <freq1>
1

>  <freqA>
0.99887151

>  <a_count>
22

$$$$

  MOE2015           2D

 10 10  0  0  0  0  0  0  0  0999 V2000
   -4.5000    2.5980    0.0000 O   0  0  0  0  0  0  0  0  0  0  0  0
   -5.2500    1.2990    0.0000 C   0  0  0  0  0  0  0  0  0  0  0  0
   -3.0000    2.5980    0.0000 C   0  0  0  0  0  0  0  0  0  0  0  0
   -2.2500    3.8970    0.0000 C   0  0  0  0  0  0  0  0  0  0  0  0
   -0.7500    3.8970    0.0000 C   0  0  0  0  0  0  0  0  0  0  0  0
    0.0000    2.5980    0.0000 C   0  0  0  0  0  0  0  0  0  0  0  0
    1.5000    2.5980    0.0000 C   0  0  0  0  0  0  0  0  0  0  0  0
    2.2500    3.8970    0.0000 C   0  0  0  0  0  0  0  0  0  0  0  0
   -0.7500    1.2990    0.0000 C   0  0  0  0  0  0  0  0  0  0  0  0
   -2.2500    1.2990    0.0000 C   0  0  0  0  0  0  0  0  0  0  0  0
  1  2  1  0  0  0  0
  1  3  1  0  0  0  0
  3  4  1  0  0  0  0
  3 10  2  0  0  0  0
  4  5  2  0  0  0  0
  5  6  1  0  0  0  0
  6  7  1  0  0  0  0
  6  9  2  0  0  0  0
  7  8  1  0  0  0  0
  9 10  1  0  0  0  0
M  END
>  <name>
O(C)c1ccc(C[C;amine])cc1

>  <apo>
1

>  <freq>
1

>  <freq0>
0

>  <freq1>
1

>  <freqA>
0.99887151

>  <a_count>
22

$$$$

  MOE2015           2D

 12 12  0  0  0  0  0  0  0  0999 V2000
    7.0390   -1.8860    0.0000 O   0  0  0  0  0  0  0  0  0  0  0  0
    5.7400   -1.1360    0.0000 C   0  0  0  0  0  0  0  0  0  0  0  0
    5.7400    0.3640    0.0000 C   0  0  0  0  0  0  0  0  0  0  0  0
    4.4410   -1.8860    0.0000 C   0  0  0  0  0  0  0  0  0  0  0  0
    3.1420   -1.1360    0.0000 C   0  0  0  0  0  0  0  0  0  0  0  0
    1.8430   -1.8860    0.0000 C   0  0  0  0  0  0  0  0  0  0  0  0
    0.5440   -1.1360    0.0000 O   0  0  0  0  0  0  0  0  0  0  0  0
    0.5440    0.3640    0.0000 C   0  0  0  0  0  0  0  0  0  0  0  0
    1.8430   -3.3860    0.0000 C   0  0  0  0  0  0  0  0  0  0  0  0
    0.5440   -4.1360    0.0000 O   0  0  0  0  0  0  0  0  0  0  0  0
    3.1420   -4.1360    0.0000 C   0  0  0  0  0  0  0  0  0  0  0  0
    4.4410   -3.3860    0.0000 C   0  0  0  0  0  0  0  0  0  0  0  0
  1  2  2  0  0  0  0
  2  3  1  0  0  0  0
  2  4  1  0  0  0  0
  4  5  1  0  0  0  0
  4 12  2  0  0  0  0
  5  6  2  0  0  0  0
  6  7  1  0  0  0  0
  6  9  1  0  0  0  0
  7  8  1  0  0  0  0
  9 10  1  0  0  0  0
  9 11  2  0  0  0  0
 11 12  1  0  0  0  0
M  END
>  <name>
O=C(C)c1cc(OC)c([O;ether])cc1

>  <apo>
1

>  <freq>
1

>  <freq0>
0

>  <freq1>
1

>  <freqA>
0.99887151

>  <a_count>
22

$$$$

  MOE2015           2D

 12 12  0  0  0  0  0  0  0  0999 V2000
    2.5950    2.5950    0.0000 O   0  0  0  0  0  0  0  0  0  0  0  0
    2.5950    1.0950    0.0000 C   0  0  0  0  0  0  0  0  0  0  0  0
    3.8940    0.3450    0.0000 N   0  0  0  0  0  0  0  0  0  0  0  0
    5.1930    1.0950    0.0000 O   0  0  0  0  0  0  0  0  0  0  0  0
    6.4920    0.3450    0.0000 C   0  0  0  0  0  0  0  0  0  0  0  0
    1.2960    0.3450    0.0000 N   0  0  0  0  0  0  0  0  0  0  0  0
   -0.0030    1.0950    0.0000 C   0  0  0  0  0  0  0  0  0  0  0  0
   -0.0030    2.5950    0.0000 C   0  0  0  0  0  0  0  0  0  0  0  0
   -1.3020    3.3450    0.0000 C   0  0  0  0  0  0  0  0  0  0  0  0
   -2.6010    2.5950    0.0000 C   0  0  0  0  0  0  0  0  0  0  0  0
   -2.6010    1.0950    0.0000 C   0  0  0  0  0  0  0  0  0  0  0  0
   -1.3020    0.3450    0.0000 C   0  0  0  0  0  0  0  0  0  0  0  0
  1  2  2  0  0  0  0
  2  3  1  0  0  0  0
  2  6  1  0  0  0  0
  3  4  1  0  0  0  0
  4  5  1  0  0  0  0
  6  7  1  0  0  0  0
  7  8  1  0  0  0  0
  7 12  2  0  0  0  0
  8  9  2  0  0  0  0
  9 10  1  0  0  0  0
 10 11  2  0  0  0  0
 11 12  1  0  0  0  0
M  END
>  <name>
O=C(NOC)Nc1cc[c;biphenyl]cc1

>  <apo>
1

>  <freq>
1

>  <freq0>
0

>  <freq1>
1

>  <freqA>
0.99887151

>  <a_count>
22

$$$$

  MOE2015           2D

 10 10  0  0  0  0  0  0  0  0999 V2000
    0.4750    0.4750    0.0000 O   0  0  0  0  0  0  0  0  0  0  0  0
    0.4750   -1.0250    0.0000 C   0  0  0  0  0  0  0  0  0  0  0  0
   -0.8240   -1.7750    0.0000 O   0  0  0  0  0  0  0  0  0  0  0  0
    1.7750   -1.7750    0.0000 C   0  0  0  0  0  0  0  0  0  0  0  0
    0.4750   -2.5250    0.0000 N   0  0  0  0  0  0  0  0  0  0  0  0
    2.5250   -3.0740    0.0000 C   0  0  0  0  0  0  0  0  0  0  0  0
    4.0250   -3.0740    0.0000 C   0  0  0  0  0  0  0  0  0  0  0  0
    4.7750   -1.7750    0.0000 N   0  0  0  0  0  0  0  0  0  0  0  0
    4.0250   -0.4750    0.0000 C   0  0  0  0  0  0  0  0  0  0  0  0
    2.5250   -0.4750    0.0000 C   0  0  0  0  0  0  0  0  0  0  0  0
  1  2  2  0  0  0  0
  2  3  1  0  0  0  0
  2  4  1  0  0  0  0
  4  5  1  0  0  0  0
  4  6  1  0  0  0  0
  4 10  1  0  0  0  0
  6  7  1  0  0  0  0
  7  8  1  0  0  0  0
  8  9  1  0  0  0  0
  9 10  1  0  0  0  0
M  END
>  <name>
O=C(O)C1(N)CC[N;amide]CC1

>  <apo>
1

>  <freq>
1

>  <freq0>
0

>  <freq1>
1

>  <freqA>
0.99887151

>  <a_count>
22

$$$$

  MOE2015           2D

 10  9  0  0  1  0  0  0  0  0999 V2000
    7.7220    0.2690    0.0000 O   0  0  0  0  0  0  0  0  0  0  0  0
    6.4230    1.0190    0.0000 C   0  0  0  0  0  0  0  0  0  0  0  0
    6.4230    2.5190    0.0000 O   0  0  0  0  0  0  0  0  0  0  0  0
    5.1240    0.2690    0.0000 C   0  0  0  0  0  0  0  0  0  0  0  0
    3.8250    1.0190    0.0000 C   0  0  3  0  0  0  0  0  0  0  0  0
    3.8250    2.5190    0.0000 O   0  0  0  0  0  0  0  0  0  0  0  0
    2.5260    0.2690    0.0000 C   0  0  0  0  0  0  0  0  0  0  0  0
    1.2270    1.0190    0.0000 C   0  0  3  0  0  0  0  0  0  0  0  0
    1.2270    2.5190    0.0000 O   0  0  0  0  0  0  0  0  0  0  0  0
   -0.0720    0.2690    0.0000 C   0  0  0  0  0  0  0  0  0  0  0  0
  1  2  2  0  0  0  0
  2  3  1  0  0  0  0
  2  4  1  0  0  0  0
  4  5  1  0  0  0  0
  5  6  1  0  0  0  0
  5  7  1  0  0  0  0
  7  8  1  0  0  0  0
  8  9  1  0  0  0  0
  8 10  1  0  0  0  0
M  END
>  <name>
O=C(O)CC(O)CC(O)[C;olefin]

>  <apo>
1

>  <freq>
1

>  <freq0>
0

>  <freq1>
1

>  <freqA>
0.99887151

>  <a_count>
22

$$$$

  MOE2015           2D

 12 12  0  0  0  0  0  0  0  0999 V2000
   10.0250    0.5610    0.0000 O   0  0  0  0  0  0  0  0  0  0  0  0
    8.7260    1.3110    0.0000 C   0  0  0  0  0  0  0  0  0  0  0  0
    8.7260    2.8110    0.0000 O   0  0  0  0  0  0  0  0  0  0  0  0
    7.4270    0.5610    0.0000 C   0  0  0  0  0  0  0  0  0  0  0  0
    6.1280    1.3110    0.0000 C   0  0  0  0  0  0  0  0  0  0  0  0
    4.8290    0.5610    0.0000 N   0  0  0  0  0  0  0  0  0  0  0  0
    3.5300    1.3110    0.0000 C   0  0  0  0  0  0  0  0  0  0  0  0
    2.2310    0.5610    0.0000 N   0  0  0  0  0  0  0  0  0  0  0  0
    0.9320    1.3110    0.0000 C   0  0  0  0  0  0  0  0  0  0  0  0
    0.9320    2.8110    0.0000 C   0  0  0  0  0  0  0  0  0  0  0  0
    2.2310    3.5610    0.0000 C   0  0  0  0  0  0  0  0  0  0  0  0
    3.5300    2.8110    0.0000 C   0  0  0  0  0  0  0  0  0  0  0  0
  1  2  2  0  0  0  0
  2  3  1  0  0  0  0
  2  4  1  0  0  0  0
  4  5  1  0  0  0  0
  5  6  1  0  0  0  0
  6  7  1  0  0  0  0
  7  8  1  0  0  0  0
  7 12  2  0  0  0  0
  8  9  2  0  0  0  0
  9 10  1  0  0  0  0
 10 11  2  0  0  0  0
 11 12  1  0  0  0  0
M  END
>  <name>
O=C(O)CC[N;amide]c1ncccc1

>  <apo>
1

>  <freq>
1

>  <freq0>
0

>  <freq1>
1

>  <freqA>
0.99887151

>  <a_count>
22

$$$$

  MOE2015           2D

 15 15  0  0  0  0  0  0  0  0999 V2000
    3.5810    1.5140    0.0000 O   0  0  0  0  0  0  0  0  0  0  0  0
    4.3220    2.8190    0.0000 C   0  0  0  0  0  0  0  0  0  0  0  0
    5.8220    2.8300    0.0000 O   0  0  0  0  0  0  0  0  0  0  0  0
    3.5620    4.1120    0.0000 C   0  0  0  0  0  0  0  0  0  0  0  0
    2.0620    4.1020    0.0000 O   0  0  0  0  0  0  0  0  0  0  0  0
    1.3030    5.3950    0.0000 N   0  0  0  0  0  0  0  0  0  0  0  0
   -0.1970    5.3840    0.0000 C   0  0  0  0  0  0  0  0  0  0  0  0
   -0.9560    6.6780    0.0000 C   0  0  0  0  0  0  0  0  0  0  0  0
   -0.2160    7.9820    0.0000 O   0  0  0  0  0  0  0  0  0  0  0  0
   -0.9380    4.0800    0.0000 C   0  0  0  0  0  0  0  0  0  0  0  0
   -2.4280    3.9120    0.0000 N   0  0  0  0  0  0  0  0  0  0  0  0
   -2.7300    2.4430    0.0000 C   0  0  0  0  0  0  0  0  0  0  0  0
   -4.0950    1.8230    0.0000 N   0  0  0  0  0  0  0  0  0  0  0  0
   -1.4250    1.7020    0.0000 S   0  0  0  0  0  0  0  0  0  0  0  0
   -0.3180    2.7140    0.0000 C   0  0  0  0  0  0  0  0  0  0  0  0
  1  2  2  0  0  0  0
  2  3  1  0  0  0  0
  2  4  1  0  0  0  0
  4  5  1  0  0  0  0
  5  6  1  0  0  0  0
  6  7  2  0  0  0  0
  7  8  1  0  0  0  0
  7 10  1  0  0  0  0
  8  9  2  0  0  0  0
 10 11  1  0  0  0  0
 10 15  2  0  0  0  0
 11 12  2  0  0  0  0
 12 13  1  0  0  0  0
 12 14  1  0  0  0  0
 14 15  1  0  0  0  0
M  END
>  <name>
O=C(O)CO/N=C(/[C;amide]=O)\c1nc(N)sc1

>  <apo>
1

>  <freq>
1

>  <freq0>
0

>  <freq1>
1

>  <freqA>
0.99887151

>  <a_count>
22

$$$$

  MOE2015           2D

  9  8  0  0  1  0  0  0  0  0999 V2000
   -0.2970   -1.1100    0.0000 O   0  0  0  0  0  0  0  0  0  0  0  0
    1.0020   -1.8600    0.0000 C   0  0  0  0  0  0  0  0  0  0  0  0
    1.0020   -3.3600    0.0000 O   0  0  0  0  0  0  0  0  0  0  0  0
    2.3010   -1.1100    0.0000 C   0  0  1  0  0  0  0  0  0  0  0  0
    2.3010    0.3900    0.0000 N   0  0  0  0  0  0  0  0  0  0  0  0
    3.6000   -1.8600    0.0000 C   0  0  0  0  0  0  0  0  0  0  0  0
    4.8990   -1.1100    0.0000 C   0  0  0  0  0  0  0  0  0  0  0  0
    6.1980   -1.8600    0.0000 C   0  0  0  0  0  0  0  0  0  0  0  0
    7.4970   -1.1100    0.0000 C   0  0  0  0  0  0  0  0  0  0  0  0
  1  2  2  0  0  0  0
  2  3  1  0  0  0  0
  2  4  1  0  0  0  0
  4  5  1  1  0  0  0
  4  6  1  0  0  0  0
  6  7  1  0  0  0  0
  7  8  1  0  0  0  0
  8  9  1  0  0  0  0
M  END
>  <name>
O=C(O)[C@@H](N)CCC[C;amine]

>  <apo>
1

>  <freq>
1

>  <freq0>
0

>  <freq1>
1

>  <freqA>
0.99887151

>  <a_count>
22

$$$$

  MOE2015           2D

 13 13  0  0  1  0  0  0  0  0999 V2000
    8.0770    1.9990    0.0000 O   0  0  0  0  0  0  0  0  0  0  0  0
    6.5770    1.9990    0.0000 C   0  0  0  0  0  0  0  0  0  0  0  0
    5.8270    3.2980    0.0000 O   0  0  0  0  0  0  0  0  0  0  0  0
    5.8270    0.6990    0.0000 C   0  0  1  0  0  0  0  0  0  0  0  0
    6.5770   -0.6000    0.0000 N   0  0  0  0  0  0  0  0  0  0  0  0
    4.3270    0.6990    0.0000 C   0  0  0  0  0  0  0  0  0  0  0  0
    3.5770   -0.6000    0.0000 C   0  0  0  0  0  0  0  0  0  0  0  0
    2.0770   -0.6000    0.0000 C   0  0  0  0  0  0  0  0  0  0  0  0
    1.3270   -1.8990    0.0000 O   0  0  0  0  0  0  0  0  0  0  0  0
    1.3270    0.6990    0.0000 C   0  0  0  0  0  0  0  0  0  0  0  0
    2.0770    1.9990    0.0000 C   0  0  0  0  0  0  0  0  0  0  0  0
    1.3270    3.2980    0.0000 O   0  0  0  0  0  0  0  0  0  0  0  0
    3.5770    1.9990    0.0000 C   0  0  0  0  0  0  0  0  0  0  0  0
  1  2  2  0  0  0  0
  2  3  1  0  0  0  0
  2  4  1  0  0  0  0
  4  5  1  1  0  0  0
  4  6  1  0  0  0  0
  6  7  2  0  0  0  0
  6 13  1  0  0  0  0
  7  8  1  0  0  0  0
  8  9  1  0  0  0  0
  8 10  2  0  0  0  0
 10 11  1  0  0  0  0
 11 12  1  0  0  0  0
 11 13  2  0  0  0  0
M  END
>  <name>
O=C(O)[C@@H]([N;amide])c1cc(O)cc([O;ether])[c;biphenyl]1

>  <apo>
3

>  <freq>
1

>  <freq0>
0

>  <freq1>
1

>  <freqA>
0.99887151

>  <a_count>
22

$$$$

  MOE2015           2D

 13 13  0  0  0  0  0  0  0  0999 V2000
    3.1520    0.8450    0.0000 O   0  0  0  0  0  0  0  0  0  0  0  0
    3.1520    2.3450    0.0000 C   0  0  0  0  0  0  0  0  0  0  0  0
    4.4510    3.0950    0.0000 O   0  0  0  0  0  0  0  0  0  0  0  0
    5.7500    2.3450    0.0000 C   0  0  0  0  0  0  0  0  0  0  0  0
    1.8530    3.0950    0.0000 N   0  0  0  0  0  0  0  0  0  0  0  0
    0.5540    2.3450    0.0000 C   0  0  0  0  0  0  0  0  0  0  0  0
   -0.7450    3.0950    0.0000 C   0  0  0  0  0  0  0  0  0  0  0  0
   -0.7450    4.5950    0.0000 N   0  0  0  0  0  0  0  0  0  0  0  0
   -2.0440    2.3450    0.0000 N   0  0  0  0  0  0  0  0  0  0  0  0
   -2.0440    0.8450    0.0000 C   0  0  0  0  0  0  0  0  0  0  0  0
   -0.7450    0.0950    0.0000 N   0  0  0  0  0  0  0  0  0  0  0  0
    0.5540    0.8450    0.0000 C   0  0  0  0  0  0  0  0  0  0  0  0
    1.8530    0.0950    0.0000 N   0  0  0  0  0  0  0  0  0  0  0  0
  1  2  2  0  0  0  0
  2  3  1  0  0  0  0
  2  5  1  0  0  0  0
  3  4  1  0  0  0  0
  5  6  1  0  0  0  0
  6  7  1  0  0  0  0
  6 12  2  0  0  0  0
  7  8  1  0  0  0  0
  7  9  2  0  0  0  0
  9 10  1  0  0  0  0
 10 11  2  0  0  0  0
 11 12  1  0  0  0  0
 12 13  1  0  0  0  0
M  END
>  <name>
O=C(OC)Nc1c(N)n[c;biphenyl]nc1N

>  <apo>
1

>  <freq>
1

>  <freq0>
0

>  <freq1>
1

>  <freqA>
0.99887151

>  <a_count>
22

$$$$

  MOE2015           2D

 12 13  0  0  0  0  0  0  0  0999 V2000
    5.8750    1.5740    0.0000 O   0  0  0  0  0  0  0  0  0  0  0  0
    4.5750    0.8240    0.0000 C   0  0  0  0  0  0  0  0  0  0  0  0
    4.4190   -0.6680    0.0000 N   0  0  0  0  0  0  0  0  0  0  0  0
    5.5330   -1.6710    0.0000 C   0  0  0  0  0  0  0  0  0  0  0  0
    6.9600   -1.2080    0.0000 C   0  0  0  0  0  0  0  0  0  0  0  0
    2.9510   -0.9800    0.0000 C   0  0  0  0  0  0  0  0  0  0  0  0
    2.2010    0.3190    0.0000 C   0  0  0  0  0  0  0  0  0  0  0  0
    3.2050    1.4340    0.0000 N   0  0  0  0  0  0  0  0  0  0  0  0
    0.7010    0.3190    0.0000 C   0  0  0  0  0  0  0  0  0  0  0  0
   -0.0490   -0.9800    0.0000 C   0  0  0  0  0  0  0  0  0  0  0  0
    0.7010   -2.2790    0.0000 C   0  0  0  0  0  0  0  0  0  0  0  0
    2.2010   -2.2790    0.0000 C   0  0  0  0  0  0  0  0  0  0  0  0
  1  2  2  0  0  0  0
  2  3  1  0  0  0  0
  2  8  1  0  0  0  0
  3  4  1  0  0  0  0
  3  6  1  0  0  0  0
  4  5  1  0  0  0  0
  6  7  1  0  0  0  0
  6 12  2  0  0  0  0
  7  8  1  0  0  0  0
  7  9  2  0  0  0  0
  9 10  1  0  0  0  0
 10 11  2  0  0  0  0
 11 12  1  0  0  0  0
M  END
>  <name>
O=C1N(C[C;amine])c2c(N1)cccc2

>  <apo>
1

>  <freq>
1

>  <freq0>
0

>  <freq1>
1

>  <freqA>
0.99887151

>  <a_count>
22

$$$$

  MOE2015           2D

 11 11  0  0  1  0  0  0  0  0999 V2000
    0.0620    4.0080    0.0000 O   0  0  0  0  0  0  0  0  0  0  0  0
    0.3730    2.5410    0.0000 C   0  0  0  0  0  0  0  0  0  0  0  0
    1.7440    1.9310    0.0000 C   0  0  2  0  0  0  0  0  0  0  0  0
    3.0430    2.6810    0.0000 C   0  0  0  0  0  0  0  0  0  0  0  0
    4.3420    1.9310    0.0000 C   0  0  2  0  0  0  0  0  0  0  0  0
    4.3420    0.4310    0.0000 N   0  0  0  0  0  0  0  0  0  0  0  0
    5.6410    2.6810    0.0000 C   0  0  0  0  0  0  0  0  0  0  0  0
    6.9400    3.4310    0.0000 N   0  0  0  0  0  0  0  0  0  0  0  0
    1.5870    0.4390    0.0000 C   0  0  0  0  0  0  0  0  0  0  0  0
    0.1200    0.1270    0.0000 C   0  0  0  0  0  0  0  0  0  0  0  0
   -0.6300    1.4260    0.0000 N   0  0  0  0  0  0  0  0  0  0  0  0
  1  2  2  0  0  0  0
  2  3  1  0  0  0  0
  2 11  1  0  0  0  0
  3  4  1  6  0  0  0
  3  9  1  0  0  0  0
  4  5  1  0  0  0  0
  5  6  1  1  0  0  0
  5  7  1  0  0  0  0
  7  8  3  0  0  0  0
  9 10  1  0  0  0  0
 10 11  1  0  0  0  0
M  END
>  <name>
O=C1[C@H](C[C@H]([N;amide])C#N)CCN1

>  <apo>
1

>  <freq>
1

>  <freq0>
0

>  <freq1>
1

>  <freqA>
0.99887151

>  <a_count>
22

$$$$

  MOE2015           2D

  9  9  0  0  1  0  0  0  0  0999 V2000
   -0.0310   -0.3260    0.0000 O   0  0  0  0  0  0  0  0  0  0  0  0
    1.4640   -0.1930    0.0000 C   0  0  0  0  0  0  0  0  0  0  0  0
    2.2340    1.0940    0.0000 N   0  0  0  0  0  0  0  0  0  0  0  0
    3.6960    0.7590    0.0000 C   0  0  0  0  0  0  0  0  0  0  0  0
    3.8290   -0.7350    0.0000 C   0  0  2  0  0  0  0  0  0  0  0  0
    5.1160   -1.5060    0.0000 C   0  0  0  0  0  0  0  0  0  0  0  0
    6.4270   -0.7770    0.0000 C   0  0  0  0  0  0  0  0  0  0  0  0
    7.7140   -1.5470    0.0000 C   0  0  0  0  0  0  0  0  0  0  0  0
    2.4490   -1.3240    0.0000 C   0  0  0  0  0  0  0  0  0  0  0  0
  1  2  2  0  0  0  0
  2  3  1  0  0  0  0
  2  9  1  0  0  0  0
  3  4  1  0  0  0  0
  4  5  1  0  0  0  0
  5  6  1  6  0  0  0
  5  9  1  0  0  0  0
  6  7  1  0  0  0  0
  7  8  1  0  0  0  0
M  END
>  <name>
O=C1[N;lactam]C[C@H](CCC)C1

>  <apo>
1

>  <freq>
1

>  <freq0>
0

>  <freq1>
1

>  <freqA>
0.99887151

>  <a_count>
22

$$$$

  MOE2015           2D

 12 13  0  0  0  0  0  0  0  0999 V2000
    0.3750   -3.2480    0.0000 O   0  0  0  0  0  0  0  0  0  0  0  0
    1.1250   -1.9490    0.0000 C   0  0  0  0  0  0  0  0  0  0  0  0
    2.6250   -1.9490    0.0000 C   0  0  0  0  0  0  0  0  0  0  0  0
    3.3750   -0.6500    0.0000 C   0  0  0  0  0  0  0  0  0  0  0  0
    4.8750   -0.6500    0.0000 C   0  0  0  0  0  0  0  0  0  0  0  0
    5.6250    0.6500    0.0000 O   0  0  0  0  0  0  0  0  0  0  0  0
    5.6250   -1.9490    0.0000 C   0  0  0  0  0  0  0  0  0  0  0  0
    4.8750   -3.2480    0.0000 C   0  0  0  0  0  0  0  0  0  0  0  0
    3.3750   -3.2480    0.0000 C   0  0  0  0  0  0  0  0  0  0  0  0
    2.6250    0.6500    0.0000 C   0  0  0  0  0  0  0  0  0  0  0  0
    1.1250    0.6500    0.0000 C   0  0  0  0  0  0  0  0  0  0  0  0
    0.3750   -0.6500    0.0000 C   0  0  0  0  0  0  0  0  0  0  0  0
  1  2  2  0  0  0  0
  2  3  1  0  0  0  0
  2 12  1  0  0  0  0
  3  4  1  0  0  0  0
  3  9  2  0  0  0  0
  4  5  2  0  0  0  0
  4 10  1  0  0  0  0
  5  6  1  0  0  0  0
  5  7  1  0  0  0  0
  7  8  2  0  0  0  0
  8  9  1  0  0  0  0
 10 11  1  0  0  0  0
 11 12  1  0  0  0  0
M  END
>  <name>
O=C1c2c(c([O;ether])ccc2)CCC1

>  <apo>
1

>  <freq>
1

>  <freq0>
0

>  <freq1>
1

>  <freqA>
0.99887151

>  <a_count>
22

$$$$

  MOE2015           2D

  8  7  0  0  0  0  0  0  0  0999 V2000
   -0.4220   -2.3240    0.0000 O   0  0  0  0  0  0  0  0  0  0  0  0
    0.8770   -1.5740    0.0000 C   0  0  0  0  0  0  0  0  0  0  0  0
    2.1760   -2.3240    0.0000 C   0  0  0  0  0  0  0  0  0  0  0  0
    3.4750   -1.5740    0.0000 C   0  0  0  0  0  0  0  0  0  0  0  0
    4.7750   -2.3240    0.0000 C   0  0  0  0  0  0  0  0  0  0  0  0
    6.0740   -1.5740    0.0000 C   0  0  0  0  0  0  0  0  0  0  0  0
    7.3730   -2.3240    0.0000 C   0  0  0  0  0  0  0  0  0  0  0  0
    8.6720   -1.5740    0.0000 C   0  0  0  0  0  0  0  0  0  0  0  0
  1  2  2  0  0  0  0
  2  3  1  0  0  0  0
  3  4  1  0  0  0  0
  4  5  1  0  0  0  0
  5  6  1  0  0  0  0
  6  7  1  0  0  0  0
  7  8  1  0  0  0  0
M  END
>  <name>
O=C[C;olefin]CCCCC

>  <apo>
1

>  <freq>
1

>  <freq0>
0

>  <freq1>
1

>  <freqA>
0.99887151

>  <a_count>
22

$$$$

  MOE2015           2D

  9  9  0  0  0  0  0  0  0  0999 V2000
   -0.6160    1.0670    0.0000 O   0  0  0  0  0  0  0  0  0  0  0  0
    0.1340    2.3660    0.0000 C   0  0  0  0  0  0  0  0  0  0  0  0
    1.6340    2.3660    0.0000 C   0  0  0  0  0  0  0  0  0  0  0  0
    0.8840    3.6650    0.0000 N   0  0  0  0  0  0  0  0  0  0  0  0
    1.6340    0.8660    0.0000 C   0  0  0  0  0  0  0  0  0  0  0  0
    2.9330    0.1160    0.0000 C   0  0  0  0  0  0  0  0  0  0  0  0
    4.2320    0.8660    0.0000 C   0  0  0  0  0  0  0  0  0  0  0  0
    4.2320    2.3660    0.0000 C   0  0  0  0  0  0  0  0  0  0  0  0
    2.9330    3.1160    0.0000 C   0  0  0  0  0  0  0  0  0  0  0  0
  1  2  2  0  0  0  0
  2  3  1  0  0  0  0
  3  4  1  0  0  0  0
  3  5  1  0  0  0  0
  3  9  1  0  0  0  0
  5  6  1  0  0  0  0
  6  7  1  0  0  0  0
  7  8  1  0  0  0  0
  8  9  1  0  0  0  0
M  END
>  <name>
O=[C;amide]C1(N)CCCCC1

>  <apo>
1

>  <freq>
1

>  <freq0>
0

>  <freq1>
1

>  <freqA>
0.99887151

>  <a_count>
22

$$$$

  MOE2015           2D

  9  9  0  0  1  0  0  0  0  0999 V2000
    5.5000   -3.1750    0.0000 O   0  0  0  0  0  0  0  0  0  0  0  0
    4.7500   -1.8760    0.0000 C   0  0  0  0  0  0  0  0  0  0  0  0
    3.2500   -1.8760    0.0000 C   0  0  3  0  0  0  0  0  0  0  0  0
    2.5000   -0.5770    0.0000 N   0  0  0  0  0  0  0  0  0  0  0  0
    3.2500    0.7220    0.0000 C   0  0  0  0  0  0  0  0  0  0  0  0
    1.0000   -0.5770    0.0000 C   0  0  0  0  0  0  0  0  0  0  0  0
    0.2500   -1.8760    0.0000 C   0  0  0  0  0  0  0  0  0  0  0  0
    1.0000   -3.1750    0.0000 C   0  0  0  0  0  0  0  0  0  0  0  0
    2.5000   -3.1750    0.0000 C   0  0  0  0  0  0  0  0  0  0  0  0
  1  2  2  0  0  0  0
  2  3  1  0  0  0  0
  3  4  1  0  0  0  0
  3  9  1  0  0  0  0
  4  5  1  0  0  0  0
  4  6  1  0  0  0  0
  6  7  1  0  0  0  0
  7  8  1  0  0  0  0
  8  9  1  0  0  0  0
M  END
>  <name>
O=[C;amide]C1N(C)CCCC1

>  <apo>
1

>  <freq>
1

>  <freq0>
0

>  <freq1>
1

>  <freqA>
0.99887151

>  <a_count>
22

$$$$

  MOE2015           2D

 15 16  0  0  0  0  0  0  0  0999 V2000
    6.7850    1.4600    0.0000 O   0  0  0  0  0  0  0  0  0  0  0  0
    6.0280    2.7540    0.0000 C   0  0  0  0  0  0  0  0  0  0  0  0
    4.5280    2.7460    0.0000 C   0  0  0  0  0  0  0  0  0  0  0  0
    3.7710    4.0410    0.0000 N   0  0  0  0  0  0  0  0  0  0  0  0
    4.5140    5.3440    0.0000 C   0  0  0  0  0  0  0  0  0  0  0  0
    2.2710    4.0330    0.0000 S   0  0  0  0  0  0  0  0  0  0  0  0
    1.0020    4.8320    0.0000 O   0  0  0  0  0  0  0  0  0  0  0  0
    2.3020    5.5330    0.0000 O   0  0  0  0  0  0  0  0  0  0  0  0
    1.5280    2.7300    0.0000 C   0  0  0  0  0  0  0  0  0  0  0  0
    2.2850    1.4350    0.0000 C   0  0  0  0  0  0  0  0  0  0  0  0
    3.7850    1.4430    0.0000 C   0  0  0  0  0  0  0  0  0  0  0  0
    4.5420    0.1480    0.0000 O   0  0  0  0  0  0  0  0  0  0  0  0
    1.2880    0.3150    0.0000 S   0  0  0  0  0  0  0  0  0  0  0  0
   -0.0860    0.9180    0.0000 C   0  0  0  0  0  0  0  0  0  0  0  0
    0.0630    2.4100    0.0000 C   0  0  0  0  0  0  0  0  0  0  0  0
  1  2  2  0  0  0  0
  2  3  1  0  0  0  0
  3  4  1  0  0  0  0
  3 11  2  0  0  0  0
  4  5  1  0  0  0  0
  4  6  1  0  0  0  0
  6  7  2  0  0  0  0
  6  8  2  0  0  0  0
  6  9  1  0  0  0  0
  9 10  2  0  0  0  0
  9 15  1  0  0  0  0
 10 11  1  0  0  0  0
 10 13  1  0  0  0  0
 11 12  1  0  0  0  0
 13 14  1  0  0  0  0
 14 15  2  0  0  0  0
M  END
>  <name>
O=[C;amide]C=1N(C)S(=O)(=O)c2c(C=1O)scc2

>  <apo>
1

>  <freq>
1

>  <freq0>
0

>  <freq1>
1

>  <freqA>
0.99887151

>  <a_count>
22

$$$$

  MOE2015           2D

  9  9  0  0  0  0  0  0  0  0999 V2000
    7.8330    0.0000    0.0000 O   0  0  0  0  0  0  0  0  0  0  0  0
    6.3330    0.0000    0.0000 C   0  0  0  0  0  0  0  0  0  0  0  0
    5.5830   -1.2990    0.0000 C   0  0  0  0  0  0  0  0  0  0  0  0
    4.0830   -1.2990    0.0000 C   0  0  0  0  0  0  0  0  0  0  0  0
    3.3330    0.0000    0.0000 C   0  0  0  0  0  0  0  0  0  0  0  0
    1.8330    0.0000    0.0000 C   0  0  0  0  0  0  0  0  0  0  0  0
    1.0830   -1.2990    0.0000 N   0  0  0  0  0  0  0  0  0  0  0  0
    1.8330   -2.5980    0.0000 C   0  0  0  0  0  0  0  0  0  0  0  0
    3.3330   -2.5980    0.0000 C   0  0  0  0  0  0  0  0  0  0  0  0
  1  2  2  0  0  0  0
  2  3  1  0  0  0  0
  3  4  1  0  0  0  0
  4  5  1  0  0  0  0
  4  9  1  0  0  0  0
  5  6  1  0  0  0  0
  6  7  1  0  0  0  0
  7  8  1  0  0  0  0
  8  9  1  0  0  0  0
M  END
>  <name>
O=[C;amide]CC1CC[N;urea]CC1

>  <apo>
2

>  <freq>
1

>  <freq0>
0

>  <freq1>
1

>  <freqA>
0.99887151

>  <a_count>
22

$$$$

  MOE2015           2D

 11 11  0  0  0  0  0  0  0  0999 V2000
    8.2060    2.1990    0.0000 O   0  0  0  0  0  0  0  0  0  0  0  0
    6.9070    1.4490    0.0000 C   0  0  0  0  0  0  0  0  0  0  0  0
    5.6080    2.1990    0.0000 C   0  0  0  0  0  0  0  0  0  0  0  0
    4.3090    1.4490    0.0000 C   0  0  0  0  0  0  0  0  0  0  0  0
    3.0100    2.1990    0.0000 C   0  0  0  0  0  0  0  0  0  0  0  0
    3.0100    3.6990    0.0000 C   0  0  0  0  0  0  0  0  0  0  0  0
    1.7110    4.4490    0.0000 N   0  0  0  0  0  0  0  0  0  0  0  0
    1.7110    1.4490    0.0000 C   0  0  0  0  0  0  0  0  0  0  0  0
    1.7110   -0.0510    0.0000 C   0  0  0  0  0  0  0  0  0  0  0  0
    3.0100   -0.8010    0.0000 C   0  0  0  0  0  0  0  0  0  0  0  0
    4.3090   -0.0510    0.0000 C   0  0  0  0  0  0  0  0  0  0  0  0
  1  2  2  0  0  0  0
  2  3  1  0  0  0  0
  3  4  1  0  0  0  0
  4  5  1  0  0  0  0
  4 11  2  0  0  0  0
  5  6  1  0  0  0  0
  5  8  2  0  0  0  0
  6  7  1  0  0  0  0
  8  9  1  0  0  0  0
  9 10  2  0  0  0  0
 10 11  1  0  0  0  0
M  END
>  <name>
O=[C;amide]Cc1c(CN)cccc1

>  <apo>
1

>  <freq>
1

>  <freq0>
0

>  <freq1>
1

>  <freqA>
0.99887151

>  <a_count>
22

$$$$

  MOE2015           2D

  9  9  0  0  1  0  0  0  0  0999 V2000
   -0.1350   -2.5720    0.0000 O   0  0  0  0  0  0  0  0  0  0  0  0
    1.3570   -2.7290    0.0000 C   0  0  0  0  0  0  0  0  0  0  0  0
    2.2390   -1.5150    0.0000 C   0  0  2  0  0  0  0  0  0  0  0  0
    3.7390   -1.5150    0.0000 C   0  0  1  0  0  0  0  0  0  0  0  0
    4.6200   -2.7290    0.0000 C   0  0  0  0  0  0  0  0  0  0  0  0
    6.1120   -2.5720    0.0000 C   0  0  0  0  0  0  0  0  0  0  0  0
    4.2020   -0.0880    0.0000 C   0  0  0  0  0  0  0  0  0  0  0  0
    2.9890    0.7930    0.0000 C   0  0  0  0  0  0  0  0  0  0  0  0
    1.7750   -0.0880    0.0000 N   0  0  0  0  0  0  0  0  0  0  0  0
  1  2  2  0  0  0  0
  3  2  1  1  0  0  0
  3  4  1  0  0  0  0
  3  9  1  0  0  0  0
  4  5  1  6  0  0  0
  4  7  1  0  0  0  0
  5  6  1  0  0  0  0
  7  8  1  0  0  0  0
  8  9  1  0  0  0  0
M  END
>  <name>
O=[C;amide][C@@H]1[C@@H](CC)[C;ether]C[N;amide]1

>  <apo>
3

>  <freq>
1

>  <freq0>
0

>  <freq1>
1

>  <freqA>
0.99887151

>  <a_count>
22

$$$$

  MOE2015           2D

  9  8  0  0  1  0  0  0  0  0999 V2000
    6.5470   -1.4210    0.0000 O   0  0  0  0  0  0  0  0  0  0  0  0
    5.2480   -2.1710    0.0000 C   0  0  0  0  0  0  0  0  0  0  0  0
    3.9490   -1.4210    0.0000 C   0  0  2  0  0  0  0  0  0  0  0  0
    2.6500   -2.1710    0.0000 C   0  0  2  0  0  0  0  0  0  0  0  0
    2.6500   -3.6710    0.0000 O   0  0  0  0  0  0  0  0  0  0  0  0
    1.3510   -1.4210    0.0000 C   0  0  2  0  0  0  0  0  0  0  0  0
    1.3510    0.0790    0.0000 N   0  0  0  0  0  0  0  0  0  0  0  0
    0.0520   -2.1710    0.0000 C   0  0  0  0  0  0  0  0  0  0  0  0
    3.9490    0.0790    0.0000 C   0  0  0  0  0  0  0  0  0  0  0  0
  1  2  2  0  0  0  0
  2  3  1  0  0  0  0
  3  4  1  0  0  0  0
  3  9  1  6  0  0  0
  4  5  1  6  0  0  0
  4  6  1  0  0  0  0
  6  7  1  1  0  0  0
  6  8  1  0  0  0  0
M  END
>  <name>
O=[C;amide][C@H]([C@H](O)[C@H]([N;amide])C)C

>  <apo>
2

>  <freq>
1

>  <freq0>
0

>  <freq1>
1

>  <freqA>
0.99887151

>  <a_count>
22

$$$$

  MOE2015           2D

 12 12  0  0  0  0  0  0  0  0999 V2000
    1.2470    0.9720    0.0000 O   0  0  0  0  0  0  0  0  0  0  0  0
    2.5460    0.2220    0.0000 C   0  0  0  0  0  0  0  0  0  0  0  0
    2.5460   -1.2780    0.0000 C   0  0  0  0  0  0  0  0  0  0  0  0
    3.8450   -2.0280    0.0000 C   0  0  0  0  0  0  0  0  0  0  0  0
    5.1440   -1.2780    0.0000 O   0  0  0  0  0  0  0  0  0  0  0  0
    6.4430   -2.0280    0.0000 C   0  0  0  0  0  0  0  0  0  0  0  0
    3.8450   -3.5280    0.0000 C   0  0  0  0  0  0  0  0  0  0  0  0
    2.5460   -4.2780    0.0000 C   0  0  0  0  0  0  0  0  0  0  0  0
    1.2470   -3.5280    0.0000 C   0  0  0  0  0  0  0  0  0  0  0  0
    1.2470   -2.0280    0.0000 C   0  0  0  0  0  0  0  0  0  0  0  0
   -0.0520   -1.2780    0.0000 O   0  0  0  0  0  0  0  0  0  0  0  0
   -1.3510   -2.0280    0.0000 C   0  0  0  0  0  0  0  0  0  0  0  0
  1  2  2  0  0  0  0
  2  3  1  0  0  0  0
  3  4  1  0  0  0  0
  3 10  2  0  0  0  0
  4  5  1  0  0  0  0
  4  7  2  0  0  0  0
  5  6  1  0  0  0  0
  7  8  1  0  0  0  0
  8  9  2  0  0  0  0
  9 10  1  0  0  0  0
 10 11  1  0  0  0  0
 11 12  1  0  0  0  0
M  END
>  <name>
O=[C;amide]c1c(OC)cccc1OC

>  <apo>
1

>  <freq>
1

>  <freq0>
0

>  <freq1>
1

>  <freqA>
0.99887151

>  <a_count>
22

$$$$

  MOE2015           2D

 12 13  0  0  0  0  0  0  0  0999 V2000
    7.7470    4.4730    0.0000 O   0  0  0  0  0  0  0  0  0  0  0  0
    6.9970    3.1740    0.0000 C   0  0  0  0  0  0  0  0  0  0  0  0
    5.4970    3.1740    0.0000 C   0  0  0  0  0  0  0  0  0  0  0  0
    4.6160    1.9600    0.0000 S   0  0  0  0  0  0  0  0  0  0  0  0
    3.1890    2.4240    0.0000 C   0  0  0  0  0  0  0  0  0  0  0  0
    3.1890    3.9240    0.0000 C   0  0  0  0  0  0  0  0  0  0  0  0
    4.6160    4.3870    0.0000 N   0  0  0  0  0  0  0  0  0  0  0  0
    1.8900    4.6740    0.0000 C   0  0  0  0  0  0  0  0  0  0  0  0
    0.5910    3.9240    0.0000 C   0  0  0  0  0  0  0  0  0  0  0  0
    0.5910    2.4240    0.0000 N   0  0  0  0  0  0  0  0  0  0  0  0
   -0.7080    1.6740    0.0000 C   0  0  0  0  0  0  0  0  0  0  0  0
    1.8900    1.6740    0.0000 C   0  0  0  0  0  0  0  0  0  0  0  0
  1  2  2  0  0  0  0
  2  3  1  0  0  0  0
  3  4  1  0  0  0  0
  3  7  2  0  0  0  0
  4  5  1  0  0  0  0
  5  6  2  0  0  0  0
  5 12  1  0  0  0  0
  6  7  1  0  0  0  0
  6  8  1  0  0  0  0
  8  9  1  0  0  0  0
  9 10  1  0  0  0  0
 10 11  1  0  0  0  0
 10 12  1  0  0  0  0
M  END
>  <name>
O=[C;amide]c1sc2c(n1)CCN(C)C2

>  <apo>
1

>  <freq>
1

>  <freq0>
0

>  <freq1>
1

>  <freqA>
0.99887151

>  <a_count>
22

$$$$

  MOE2015           2D

 10 10  0  0  1  0  0  0  0  0999 V2000
    6.7670    2.8630    0.0000 O   0  0  0  0  0  0  0  0  0  0  0  0
    5.4680    3.6130    0.0000 C   0  0  0  0  0  0  0  0  0  0  0  0
    4.1690    2.8630    0.0000 C   0  0  0  0  0  0  0  0  0  0  0  0
    4.1690    1.3630    0.0000 C   0  0  0  0  0  0  0  0  0  0  0  0
    2.8700    0.6130    0.0000 C   0  0  0  0  0  0  0  0  0  0  0  0
    1.5710    1.3630    0.0000 C   0  0  1  0  0  0  0  0  0  0  0  0
    0.2720    0.6130    0.0000 N   0  0  0  0  0  0  0  0  0  0  0  0
    1.5710    2.8630    0.0000 C   0  0  1  0  0  0  0  0  0  0  0  0
    0.2720    3.6130    0.0000 N   0  0  0  0  0  0  0  0  0  0  0  0
    2.8700    3.6130    0.0000 C   0  0  0  0  0  0  0  0  0  0  0  0
  1  2  2  0  0  0  0
  2  3  1  0  0  0  0
  3  4  2  0  0  0  0
  3 10  1  0  0  0  0
  4  5  1  0  0  0  0
  5  6  1  0  0  0  0
  6  7  1  1  0  0  0
  6  8  1  0  0  0  0
  8  9  1  1  0  0  0
  8 10  1  0  0  0  0
M  END
>  <name>
O=[C;ester]C1=C[C;ether][C@@H]([N;amide])[C@@H](N)C1

>  <apo>
3

>  <freq>
1

>  <freq0>
0

>  <freq1>
1

>  <freqA>
0.99887151

>  <a_count>
22

$$$$

  MOE2015           2D

 11 11  0  0  1  0  0  0  0  0999 V2000
    8.1690   -3.0070    0.0000 O   0  0  0  0  0  0  0  0  0  0  0  0
    6.8700   -3.7570    0.0000 C   0  0  0  0  0  0  0  0  0  0  0  0
    5.5710   -3.0070    0.0000 C   0  0  1  0  0  0  0  0  0  0  0  0
    5.5710   -1.5070    0.0000 N   0  0  0  0  0  0  0  0  0  0  0  0
    4.2720   -3.7570    0.0000 C   0  0  0  0  0  0  0  0  0  0  0  0
    2.9730   -3.0070    0.0000 C   0  0  0  0  0  0  0  0  0  0  0  0
    1.6740   -3.7570    0.0000 C   0  0  0  0  0  0  0  0  0  0  0  0
    0.3750   -3.0070    0.0000 C   0  0  0  0  0  0  0  0  0  0  0  0
    0.3750   -1.5070    0.0000 C   0  0  0  0  0  0  0  0  0  0  0  0
    1.6740   -0.7570    0.0000 C   0  0  0  0  0  0  0  0  0  0  0  0
    2.9730   -1.5070    0.0000 C   0  0  0  0  0  0  0  0  0  0  0  0
  1  2  2  0  0  0  0
  2  3  1  0  0  0  0
  3  4  1  6  0  0  0
  3  5  1  0  0  0  0
  5  6  1  0  0  0  0
  6  7  1  0  0  0  0
  6 11  2  0  0  0  0
  7  8  2  0  0  0  0
  8  9  1  0  0  0  0
  9 10  2  0  0  0  0
 10 11  1  0  0  0  0
M  END
>  <name>
O=[C;ester][C@@H](N)Cc1cc[c;biphenyl]cc1

>  <apo>
2

>  <freq>
1

>  <freq0>
0

>  <freq1>
1

>  <freqA>
0.99887151

>  <a_count>
22

$$$$

  MOE2015           2D

  8  7  0  0  1  0  0  0  0  0999 V2000
    6.3160   -1.8800    0.0000 O   0  0  0  0  0  0  0  0  0  0  0  0
    5.0170   -2.6300    0.0000 C   0  0  0  0  0  0  0  0  0  0  0  0
    3.7180   -1.8800    0.0000 C   0  0  1  0  0  0  0  0  0  0  0  0
    2.4190   -2.6300    0.0000 C   0  0  0  0  0  0  0  0  0  0  0  0
    1.1200   -1.8800    0.0000 C   0  0  0  0  0  0  0  0  0  0  0  0
   -0.1790   -2.6300    0.0000 C   0  0  0  0  0  0  0  0  0  0  0  0
    1.1200   -0.3800    0.0000 C   0  0  0  0  0  0  0  0  0  0  0  0
    3.7180   -0.3800    0.0000 C   0  0  0  0  0  0  0  0  0  0  0  0
  1  2  2  0  0  0  0
  2  3  1  0  0  0  0
  3  4  1  0  0  0  0
  3  8  1  1  0  0  0
  4  5  1  0  0  0  0
  5  6  1  0  0  0  0
  5  7  1  0  0  0  0
M  END
>  <name>
O=[C;ester][C@@H]([C;ether]C([C;ether])C)C

>  <apo>
3

>  <freq>
1

>  <freq0>
0

>  <freq1>
1

>  <freqA>
0.99887151

>  <a_count>
22

$$$$

  MOE2015           2D

 12 12  0  0  0  0  0  0  0  0999 V2000
    7.3120   -4.2220    0.0000 O   0  0  0  0  0  0  0  0  0  0  0  0
    6.5620   -2.9230    0.0000 C   0  0  0  0  0  0  0  0  0  0  0  0
    5.0620   -2.9230    0.0000 C   0  0  0  0  0  0  0  0  0  0  0  0
    4.3120   -1.6240    0.0000 C   0  0  0  0  0  0  0  0  0  0  0  0
    2.8120   -1.6240    0.0000 C   0  0  0  0  0  0  0  0  0  0  0  0
    2.0620   -0.3250    0.0000 O   0  0  0  0  0  0  0  0  0  0  0  0
    2.8120    0.9740    0.0000 C   0  0  0  0  0  0  0  0  0  0  0  0
    2.0620   -2.9230    0.0000 C   0  0  0  0  0  0  0  0  0  0  0  0
    0.5620   -2.9230    0.0000 O   0  0  0  0  0  0  0  0  0  0  0  0
   -0.1880   -4.2220    0.0000 C   0  0  0  0  0  0  0  0  0  0  0  0
    2.8120   -4.2220    0.0000 C   0  0  0  0  0  0  0  0  0  0  0  0
    4.3120   -4.2220    0.0000 C   0  0  0  0  0  0  0  0  0  0  0  0
  1  2  2  0  0  0  0
  2  3  1  0  0  0  0
  3  4  1  0  0  0  0
  3 12  2  0  0  0  0
  4  5  2  0  0  0  0
  5  6  1  0  0  0  0
  5  8  1  0  0  0  0
  6  7  1  0  0  0  0
  8  9  1  0  0  0  0
  8 11  2  0  0  0  0
  9 10  1  0  0  0  0
 11 12  1  0  0  0  0
M  END
>  <name>
O=[C;ester]c1cc(OC)c(OC)cc1

>  <apo>
1

>  <freq>
1

>  <freq0>
0

>  <freq1>
1

>  <freqA>
0.99887151

>  <a_count>
22

$$$$

  MOE2015           2D

 11 11  0  0  0  0  0  0  0  0999 V2000
    7.1590   -4.1330    0.0000 O   0  0  0  0  0  0  0  0  0  0  0  0
    6.4090   -2.8340    0.0000 C   0  0  0  0  0  0  0  0  0  0  0  0
    4.9090   -2.8340    0.0000 C   0  0  0  0  0  0  0  0  0  0  0  0
    4.1590   -1.5350    0.0000 C   0  0  0  0  0  0  0  0  0  0  0  0
    2.6590   -1.5350    0.0000 C   0  0  0  0  0  0  0  0  0  0  0  0
    1.9090   -2.8340    0.0000 C   0  0  0  0  0  0  0  0  0  0  0  0
    0.4090   -2.8340    0.0000 N   0  0  0  0  0  0  0  0  0  0  0  0
   -0.3410   -1.5350    0.0000 C   0  0  0  0  0  0  0  0  0  0  0  0
   -0.3410   -4.1330    0.0000 C   0  0  0  0  0  0  0  0  0  0  0  0
    2.6590   -4.1330    0.0000 C   0  0  0  0  0  0  0  0  0  0  0  0
    4.1590   -4.1330    0.0000 C   0  0  0  0  0  0  0  0  0  0  0  0
  1  2  2  0  0  0  0
  2  3  1  0  0  0  0
  3  4  1  0  0  0  0
  3 11  2  0  0  0  0
  4  5  2  0  0  0  0
  5  6  1  0  0  0  0
  6  7  1  0  0  0  0
  6 10  2  0  0  0  0
  7  8  1  0  0  0  0
  7  9  1  0  0  0  0
 10 11  1  0  0  0  0
M  END
>  <name>
O=[C;ester]c1ccc(N(C)C)cc1

>  <apo>
1

>  <freq>
1

>  <freq0>
0

>  <freq1>
1

>  <freqA>
0.99887151

>  <a_count>
22

$$$$

  MOE2015           2D

  8  8  0  0  0  0  0  0  0  0999 V2000
    0.0000    0.0000    0.0000 O   0  0  0  0  0  0  0  0  0  0  0  0
    1.5000    0.0000    0.0000 C   0  0  0  0  0  0  0  0  0  0  0  0
    2.2500   -1.2990    0.0000 C   0  0  0  0  0  0  0  0  0  0  0  0
    3.7500   -1.2990    0.0000 C   0  0  0  0  0  0  0  0  0  0  0  0
    4.5000    0.0000    0.0000 C   0  0  0  0  0  0  0  0  0  0  0  0
    6.0000    0.0000    0.0000 C   0  0  0  0  0  0  0  0  0  0  0  0
    3.7500    1.2990    0.0000 C   0  0  0  0  0  0  0  0  0  0  0  0
    2.2500    1.2990    0.0000 C   0  0  0  0  0  0  0  0  0  0  0  0
  1  2  1  0  0  0  0
  2  3  1  0  0  0  0
  2  8  1  0  0  0  0
  3  4  1  0  0  0  0
  4  5  1  0  0  0  0
  5  6  1  0  0  0  0
  5  7  1  0  0  0  0
  7  8  1  0  0  0  0
M  END
>  <name>
OC1CCC([C;olefin])C[C;ether]1

>  <apo>
2

>  <freq>
1

>  <freq0>
0

>  <freq1>
1

>  <freqA>
0.99887151

>  <a_count>
22

$$$$

  MOE2015           2D

  8  8  0  0  0  0  0  0  0  0999 V2000
    0.0000    0.0000    0.0000 O   0  0  0  0  0  0  0  0  0  0  0  0
    1.5000    0.0000    0.0000 C   0  0  0  0  0  0  0  0  0  0  0  0
    2.2500   -1.2990    0.0000 C   0  0  0  0  0  0  0  0  0  0  0  0
    3.7500   -1.2990    0.0000 C   0  0  0  0  0  0  0  0  0  0  0  0
    4.5000    0.0000    0.0000 C   0  0  0  0  0  0  0  0  0  0  0  0
    6.0000    0.0000    0.0000 C   0  0  0  0  0  0  0  0  0  0  0  0
    3.7500    1.2990    0.0000 C   0  0  0  0  0  0  0  0  0  0  0  0
    2.2500    1.2990    0.0000 C   0  0  0  0  0  0  0  0  0  0  0  0
  1  2  1  0  0  0  0
  2  3  1  0  0  0  0
  2  8  1  0  0  0  0
  3  4  1  0  0  0  0
  4  5  1  0  0  0  0
  5  6  1  0  0  0  0
  5  7  1  0  0  0  0
  7  8  1  0  0  0  0
M  END
>  <name>
OC1C[C;olefin]C(C)CC1

>  <apo>
1

>  <freq>
1

>  <freq0>
0

>  <freq1>
1

>  <freqA>
0.99887151

>  <a_count>
22

$$$$

  MOE2015           2D

 10 10  0  0  1  0  0  0  0  0999 V2000
    6.5070    1.7440    0.0000 O   0  0  0  0  0  0  0  0  0  0  0  0
    5.2080    0.9940    0.0000 C   0  0  0  0  0  0  0  0  0  0  0  0
    3.9090    1.7440    0.0000 C   0  0  3  0  0  0  0  0  0  0  0  0
    2.6100    0.9940    0.0000 C   0  0  3  0  0  0  0  0  0  0  0  0
    2.6100   -0.5060    0.0000 O   0  0  0  0  0  0  0  0  0  0  0  0
    1.3110    1.7440    0.0000 C   0  0  3  0  0  0  0  0  0  0  0  0
    0.0120    0.9940    0.0000 O   0  0  0  0  0  0  0  0  0  0  0  0
    1.3110    3.2440    0.0000 C   0  0  0  0  0  0  0  0  0  0  0  0
    2.6100    3.9940    0.0000 C   0  0  0  0  0  0  0  0  0  0  0  0
    3.9090    3.2440    0.0000 O   0  0  0  0  0  0  0  0  0  0  0  0
  1  2  1  0  0  0  0
  2  3  1  0  0  0  0
  3  4  1  0  0  0  0
  3 10  1  0  0  0  0
  4  5  1  0  0  0  0
  4  6  1  0  0  0  0
  6  7  1  0  0  0  0
  6  8  1  0  0  0  0
  8  9  1  0  0  0  0
  9 10  1  0  0  0  0
M  END
>  <name>
OCC1C(O)C(O)[C;ether][C;ether]O1

>  <apo>
2

>  <freq>
1

>  <freq0>
0

>  <freq1>
1

>  <freqA>
0.99887151

>  <a_count>
22

$$$$

  MOE2015           2D

 10 10  0  0  1  0  0  0  0  0999 V2000
    6.7670    2.8630    0.0000 O   0  0  0  0  0  0  0  0  0  0  0  0
    5.4680    3.6130    0.0000 C   0  0  0  0  0  0  0  0  0  0  0  0
    4.1690    2.8630    0.0000 C   0  0  2  0  0  0  0  0  0  0  0  0
    4.1690    1.3630    0.0000 O   0  0  0  0  0  0  0  0  0  0  0  0
    2.8700    0.6130    0.0000 C   0  0  0  0  0  0  0  0  0  0  0  0
    1.5710    1.3630    0.0000 C   0  0  1  0  0  0  0  0  0  0  0  0
    0.2720    0.6130    0.0000 O   0  0  0  0  0  0  0  0  0  0  0  0
    1.5710    2.8630    0.0000 C   0  0  2  0  0  0  0  0  0  0  0  0
    0.2720    3.6130    0.0000 O   0  0  0  0  0  0  0  0  0  0  0  0
    2.8700    3.6130    0.0000 C   0  0  0  0  0  0  0  0  0  0  0  0
  1  2  1  0  0  0  0
  3  2  1  6  0  0  0
  3  4  1  0  0  0  0
  3 10  1  0  0  0  0
  4  5  1  0  0  0  0
  5  6  1  0  0  0  0
  6  7  1  1  0  0  0
  6  8  1  0  0  0  0
  8  9  1  6  0  0  0
  8 10  1  0  0  0  0
M  END
>  <name>
OC[C@@H]1O[C;ether][C@@H](O)[C@H](O)[C;ether]1

>  <apo>
2

>  <freq>
1

>  <freq0>
0

>  <freq1>
1

>  <freqA>
0.99887151

>  <a_count>
22

$$$$

  MOE2015           2D

  9  9  0  0  1  0  0  0  0  0999 V2000
    2.3330   -2.3330    0.0000 O   0  0  0  0  0  0  0  0  0  0  0  0
    2.3330   -0.8330    0.0000 C   0  0  2  0  0  0  0  0  0  0  0  0
    3.6320   -0.0830    0.0000 C   0  0  2  0  0  0  0  0  0  0  0  0
    4.9310   -0.8330    0.0000 C   0  0  0  0  0  0  0  0  0  0  0  0
    3.6320    1.4170    0.0000 O   0  0  0  0  0  0  0  0  0  0  0  0
    2.3330    2.1670    0.0000 C   0  0  0  0  0  0  0  0  0  0  0  0
    1.0340    1.4170    0.0000 C   0  0  0  0  0  0  0  0  0  0  0  0
    1.0340   -0.0830    0.0000 C   0  0  2  0  0  0  0  0  0  0  0  0
   -0.2650   -0.8330    0.0000 N   0  0  0  0  0  0  0  0  0  0  0  0
  2  1  1  1  0  0  0
  2  3  1  0  0  0  0
  2  8  1  0  0  0  0
  3  4  1  1  0  0  0
  3  5  1  0  0  0  0
  5  6  1  0  0  0  0
  6  7  1  0  0  0  0
  7  8  1  0  0  0  0
  8  9  1  1  0  0  0
M  END
>  <name>
O[C@@H]1[C@H](C)O[C;ether]C[C@@H]1[N;amide]

>  <apo>
2

>  <freq>
1

>  <freq0>
0

>  <freq1>
1

>  <freqA>
0.99887151

>  <a_count>
22

$$$$

  MOE2015           2D

 11 12  0  0  1  0  0  0  0  0999 V2000
    7.0590   -0.4800    0.0000 O   0  0  0  0  0  0  0  0  0  0  0  0
    5.5590   -0.4800    0.0000 C   0  0  1  0  0  0  0  0  0  0  0  0
    4.6770    0.7340    0.0000 C   0  0  1  0  0  0  0  0  0  0  0  0
    5.1410    2.1600    0.0000 N   0  0  0  0  0  0  0  0  0  0  0  0
    3.2510    0.2700    0.0000 C   0  0  0  0  0  0  0  0  0  0  0  0
    3.2510   -1.2300    0.0000 C   0  0  0  0  0  0  0  0  0  0  0  0
    1.9520   -1.9800    0.0000 C   0  0  0  0  0  0  0  0  0  0  0  0
    0.6530   -1.2300    0.0000 C   0  0  0  0  0  0  0  0  0  0  0  0
    0.6530    0.2700    0.0000 C   0  0  0  0  0  0  0  0  0  0  0  0
    1.9520    1.0200    0.0000 C   0  0  0  0  0  0  0  0  0  0  0  0
    4.6770   -1.6940    0.0000 C   0  0  0  0  0  0  0  0  0  0  0  0
  2  1  1  6  0  0  0
  2  3  1  0  0  0  0
  2 11  1  0  0  0  0
  3  4  1  6  0  0  0
  3  5  1  0  0  0  0
  5  6  2  0  0  0  0
  5 10  1  0  0  0  0
  6  7  1  0  0  0  0
  6 11  1  0  0  0  0
  7  8  2  0  0  0  0
  8  9  1  0  0  0  0
  9 10  2  0  0  0  0
M  END
>  <name>
O[C@H]1[C@@H]([N;amide])c2c(cccc2)C1

>  <apo>
1

>  <freq>
1

>  <freq0>
0

>  <freq1>
1

>  <freqA>
0.99887151

>  <a_count>
22

$$$$

  MOE2015           2D

  9  9  0  0  1  0  0  0  0  0999 V2000
    2.3330   -2.3330    0.0000 O   0  0  0  0  0  0  0  0  0  0  0  0
    2.3330   -0.8330    0.0000 C   0  0  1  0  0  0  0  0  0  0  0  0
    3.6320   -0.0830    0.0000 C   0  0  2  0  0  0  0  0  0  0  0  0
    4.9310   -0.8330    0.0000 C   0  0  0  0  0  0  0  0  0  0  0  0
    3.6320    1.4170    0.0000 O   0  0  0  0  0  0  0  0  0  0  0  0
    2.3330    2.1670    0.0000 C   0  0  0  0  0  0  0  0  0  0  0  0
    1.0340    1.4170    0.0000 C   0  0  0  0  0  0  0  0  0  0  0  0
    1.0340   -0.0830    0.0000 C   0  0  2  0  0  0  0  0  0  0  0  0
   -0.2650   -0.8330    0.0000 N   0  0  0  0  0  0  0  0  0  0  0  0
  2  1  1  6  0  0  0
  2  3  1  0  0  0  0
  2  8  1  0  0  0  0
  3  4  1  1  0  0  0
  3  5  1  0  0  0  0
  5  6  1  0  0  0  0
  6  7  1  0  0  0  0
  7  8  1  0  0  0  0
  8  9  1  1  0  0  0
M  END
>  <name>
O[C@H]1[C@H](C)O[C;ether]C[C@@H]1N

>  <apo>
1

>  <freq>
1

>  <freq0>
0

>  <freq1>
1

>  <freqA>
0.99887151

>  <a_count>
22

$$$$

  MOE2015           2D

 10 10  0  0  0  0  0  0  0  0999 V2000
    0.8250   -1.4290    0.0000 O   0  0  0  0  0  0  0  0  0  0  0  0
    1.5750   -0.1300    0.0000 C   0  0  0  0  0  0  0  0  0  0  0  0
    3.0750   -0.1300    0.0000 C   0  0  0  0  0  0  0  0  0  0  0  0
    3.8250    1.1690    0.0000 C   0  0  0  0  0  0  0  0  0  0  0  0
    5.3250    1.1690    0.0000 N   0  3  0  0  0  0  0  0  0  0  0  0
    6.0750    2.4680    0.0000 C   0  0  0  0  0  0  0  0  0  0  0  0
    6.0750   -0.1300    0.0000 C   0  0  0  0  0  0  0  0  0  0  0  0
    3.0750    2.4680    0.0000 C   0  0  0  0  0  0  0  0  0  0  0  0
    1.5750    2.4680    0.0000 C   0  0  0  0  0  0  0  0  0  0  0  0
    0.8250    1.1690    0.0000 C   0  0  0  0  0  0  0  0  0  0  0  0
  1  2  1  0  0  0  0
  2  3  1  0  0  0  0
  2 10  2  0  0  0  0
  3  4  2  0  0  0  0
  4  5  1  0  0  0  0
  4  8  1  0  0  0  0
  5  6  1  0  0  0  0
  5  7  1  0  0  0  0
  8  9  2  0  0  0  0
  9 10  1  0  0  0  0
M  CHG  1   5   1
M  END
>  <name>
Oc1cc([N+;quatN](C)C)ccc1

>  <apo>
1

>  <freq>
1

>  <freq0>
0

>  <freq1>
1

>  <freqA>
0.99887151

>  <a_count>
22

$$$$

  MOE2015           2D

 10 10  0  0  0  0  0  0  0  0999 V2000
    0.0000    0.5200    0.0000 O   0  0  0  0  0  0  0  0  0  0  0  0
    1.5000    0.5200    0.0000 C   0  0  0  0  0  0  0  0  0  0  0  0
    2.2500   -0.7790    0.0000 C   0  0  0  0  0  0  0  0  0  0  0  0
    3.7500   -0.7790    0.0000 C   0  0  0  0  0  0  0  0  0  0  0  0
    4.5000    0.5200    0.0000 C   0  0  0  0  0  0  0  0  0  0  0  0
    6.0000    0.5200    0.0000 C   0  0  0  0  0  0  0  0  0  0  0  0
    6.7500   -0.7790    0.0000 C   0  0  0  0  0  0  0  0  0  0  0  0
    8.2500   -0.7790    0.0000 C   0  0  0  0  0  0  0  0  0  0  0  0
    3.7500    1.8190    0.0000 C   0  0  0  0  0  0  0  0  0  0  0  0
    2.2500    1.8190    0.0000 C   0  0  0  0  0  0  0  0  0  0  0  0
  1  2  1  0  0  0  0
  2  3  1  0  0  0  0
  2 10  2  0  0  0  0
  3  4  2  0  0  0  0
  4  5  1  0  0  0  0
  5  6  1  0  0  0  0
  5  9  2  0  0  0  0
  6  7  1  0  0  0  0
  7  8  1  0  0  0  0
  9 10  1  0  0  0  0
M  END
>  <name>
Oc1ccc(C[C;amine]C)cc1

>  <apo>
1

>  <freq>
1

>  <freq0>
0

>  <freq1>
1

>  <freqA>
0.99887151

>  <a_count>
22

$$$$

  MOE2015           2D

 12 11  0  0  0  0  0  0  0  0999 V2000
   -1.5790    1.5790    0.0000 P   0  0  0  0  0  0  0  0  0  0  0  0
   -1.5790    3.0790    0.0000 O   0  0  0  0  0  0  0  0  0  0  0  0
   -1.5790    0.0790    0.0000 O   0  0  0  0  0  0  0  0  0  0  0  0
   -3.0790    1.5790    0.0000 O   0  0  0  0  0  0  0  0  0  0  0  0
   -0.0790    1.5790    0.0000 C   0  0  0  0  0  0  0  0  0  0  0  0
    1.4210    1.5790    0.0000 P   0  0  0  0  0  0  0  0  0  0  0  0
    1.4210    3.0790    0.0000 O   0  0  0  0  0  0  0  0  0  0  0  0
    2.9210    1.5790    0.0000 O   0  0  0  0  0  0  0  0  0  0  0  0
    1.4210    0.0790    0.0000 O   0  0  0  0  0  0  0  0  0  0  0  0
   -0.0790    3.0790    0.0000 O   0  0  0  0  0  0  0  0  0  0  0  0
   -0.0790    0.0790    0.0000 C   0  0  0  0  0  0  0  0  0  0  0  0
   -1.3780   -0.6710    0.0000 C   0  0  0  0  0  0  0  0  0  0  0  0
  1  2  2  0  0  0  0
  1  3  1  0  0  0  0
  1  4  1  0  0  0  0
  1  5  1  0  0  0  0
  5  6  1  0  0  0  0
  5 10  1  0  0  0  0
  5 11  1  0  0  0  0
  6  7  2  0  0  0  0
  6  8  1  0  0  0  0
  6  9  1  0  0  0  0
 11 12  1  0  0  0  0
M  END
>  <name>
P(=O)(O)(O)C(P(=O)(O)O)(O)C[C;amine]

>  <apo>
1

>  <freq>
1

>  <freq0>
0

>  <freq1>
1

>  <freqA>
0.99887151

>  <a_count>
22

$$$$

  MOE2015           2D

 10 10  0  0  0  0  0  0  0  0999 V2000
    0.1280    0.4790    0.0000 N   0  0  0  0  0  0  0  0  0  0  0  0
    1.4270   -0.2710    0.0000 C   0  0  0  0  0  0  0  0  0  0  0  0
    2.7270    0.4790    0.0000 C   0  0  0  0  0  0  0  0  0  0  0  0
   -1.1710   -0.2710    0.0000 C   0  0  0  0  0  0  0  0  0  0  0  0
   -2.4700    0.4790    0.0000 C   0  0  0  0  0  0  0  0  0  0  0  0
   -2.4700    1.9790    0.0000 C   0  0  0  0  0  0  0  0  0  0  0  0
   -3.7690    2.7290    0.0000 C   0  0  0  0  0  0  0  0  0  0  0  0
   -5.0680    1.9790    0.0000 N   0  0  0  0  0  0  0  0  0  0  0  0
   -5.0680    0.4790    0.0000 C   0  0  0  0  0  0  0  0  0  0  0  0
   -3.7690   -0.2710    0.0000 C   0  0  0  0  0  0  0  0  0  0  0  0
  1  2  1  0  0  0  0
  1  4  1  0  0  0  0
  2  3  1  0  0  0  0
  4  5  1  0  0  0  0
  5  6  1  0  0  0  0
  5 10  2  0  0  0  0
  6  7  2  0  0  0  0
  7  8  1  0  0  0  0
  8  9  2  0  0  0  0
  9 10  1  0  0  0  0
M  END
>  <name>
[N;amide](CC)Cc1ccncc1

>  <apo>
1

>  <freq>
1

>  <freq0>
0

>  <freq1>
1

>  <freqA>
0.99887151

>  <a_count>
22

$$$$

  MOE2015           2D

  7  6  0  0  0  0  0  0  0  0999 V2000
   -0.1340    1.3560    0.0000 N   0  0  0  0  0  0  0  0  0  0  0  0
    1.1650    0.6060    0.0000 C   0  0  0  0  0  0  0  0  0  0  0  0
    2.4640    1.3560    0.0000 C   0  0  0  0  0  0  0  0  0  0  0  0
    3.7630    0.6060    0.0000 C   0  0  0  0  0  0  0  0  0  0  0  0
    5.0620    1.3560    0.0000 C   0  0  0  0  0  0  0  0  0  0  0  0
    6.3610    0.6060    0.0000 C   0  0  0  0  0  0  0  0  0  0  0  0
   -1.4330    0.6060    0.0000 C   0  0  0  0  0  0  0  0  0  0  0  0
  1  2  1  0  0  0  0
  1  7  1  0  0  0  0
  2  3  1  0  0  0  0
  3  4  1  0  0  0  0
  4  5  1  0  0  0  0
  5  6  1  0  0  0  0
M  END
>  <name>
[N;amide](CCCC[C;olefin])C

>  <apo>
2

>  <freq>
1

>  <freq0>
0

>  <freq1>
1

>  <freqA>
0.99887151

>  <a_count>
22

$$$$

  MOE2015           2D

  8  8  0  0  1  0  0  0  0  0999 V2000
    5.3440   -0.8120    0.0000 N   0  0  0  0  0  0  0  0  0  0  0  0
    4.5940   -2.1110    0.0000 C   0  0  0  0  0  0  0  0  0  0  0  0
    3.0940   -2.1110    0.0000 C   0  0  3  0  0  0  0  0  0  0  0  0
    2.3440   -3.4100    0.0000 N   0  0  0  0  0  0  0  0  0  0  0  0
    0.8440   -3.4100    0.0000 C   0  0  0  0  0  0  0  0  0  0  0  0
    0.0940   -2.1110    0.0000 C   0  0  0  0  0  0  0  0  0  0  0  0
    0.8440   -0.8120    0.0000 C   0  0  0  0  0  0  0  0  0  0  0  0
    2.3440   -0.8120    0.0000 C   0  0  0  0  0  0  0  0  0  0  0  0
  1  2  1  0  0  0  0
  2  3  1  0  0  0  0
  3  4  1  0  0  0  0
  3  8  1  0  0  0  0
  4  5  1  0  0  0  0
  5  6  1  0  0  0  0
  6  7  1  0  0  0  0
  7  8  1  0  0  0  0
M  END
>  <name>
[N;amide]CC1NCCCC1

>  <apo>
1

>  <freq>
1

>  <freq0>
0

>  <freq1>
1

>  <freqA>
0.99887151

>  <a_count>
22

$$$$

  MOE2015           2D

  7  6  0  0  0  0  0  0  0  0999 V2000
    0.2140    0.0570    0.0000 N   0  0  0  0  0  0  0  0  0  0  0  0
   -1.0850   -0.6930    0.0000 C   0  0  0  0  0  0  0  0  0  0  0  0
   -2.3840    0.0570    0.0000 C   0  0  0  0  0  0  0  0  0  0  0  0
   -3.6830   -0.6930    0.0000 C   0  0  0  0  0  0  0  0  0  0  0  0
    1.5130   -0.6930    0.0000 C   0  0  0  0  0  0  0  0  0  0  0  0
    2.8120    0.0570    0.0000 C   0  0  0  0  0  0  0  0  0  0  0  0
    4.1110   -0.6930    0.0000 C   0  0  0  0  0  0  0  0  0  0  0  0
  1  2  1  0  0  0  0
  1  5  1  0  0  0  0
  2  3  1  0  0  0  0
  3  4  1  0  0  0  0
  5  6  1  0  0  0  0
  6  7  1  0  0  0  0
M  END
>  <name>
[N;so2amide](CCC)CCC

>  <apo>
1

>  <freq>
1

>  <freq0>
0

>  <freq1>
1

>  <freqA>
0.99887151

>  <a_count>
22

$$$$

  MOE2015           2D

  9 10  0  0  1  0  0  0  0  0999 V2000
    6.1150    0.2690    0.0000 O   0  0  0  0  0  0  0  0  0  0  0  0
    4.6210    0.1370    0.0000 C   0  0  3  0  0  0  0  0  0  0  0  0
    3.2420    1.0100    0.0000 C   0  0  0  0  0  0  0  0  0  0  0  0
    2.9970    2.4600    0.0000 C   0  0  0  0  0  0  0  0  0  0  0  0
    2.0260    1.4680    0.0000 C   0  0  0  0  0  0  0  0  0  0  0  0
    2.2850    0.0440    0.0000 N   0  0  0  0  0  0  0  0  0  0  0  0
    3.6150   -0.7810    0.0000 C   0  0  0  0  0  0  0  0  0  0  0  0
    0.9250   -0.8010    0.0000 C   0  0  0  0  0  0  0  0  0  0  0  0
    1.5710    0.1700    0.0000 C   0  0  0  0  0  0  0  0  0  0  0  0
  1  2  1  0  0  0  0
  2  3  1  0  0  0  0
  2  7  1  0  0  0  0
  3  4  1  0  0  0  0
  3  9  1  0  0  0  0
  4  5  1  0  0  0  0
  5  6  1  0  0  0  0
  6  7  1  0  0  0  0
  6  8  1  0  0  0  0
  8  9  1  0  0  0  0
M  END
>  <name>
[O;ester]C1C2CCN(C1)CC2

>  <apo>
1

>  <freq>
1

>  <freq0>
0

>  <freq1>
1

>  <freqA>
0.99887151

>  <a_count>
22

$$$$

  MOE2015           2D

  8  8  0  0  1  0  0  0  0  0999 V2000
    5.5640   -1.0110    0.0000 O   0  0  0  0  0  0  0  0  0  0  0  0
    4.3410   -0.1430    0.0000 C   0  0  3  0  0  0  0  0  0  0  0  0
    2.9200   -0.6240    0.0000 C   0  0  0  0  0  0  0  0  0  0  0  0
    2.0230    0.5790    0.0000 N   0  3  0  0  0  0  0  0  0  0  0  0
    0.7650   -0.2360    0.0000 C   0  0  0  0  0  0  0  0  0  0  0  0
    0.7190    1.3190    0.0000 C   0  0  0  0  0  0  0  0  0  0  0  0
    2.8910    1.8030    0.0000 C   0  0  0  0  0  0  0  0  0  0  0  0
    4.3230    1.3560    0.0000 C   0  0  0  0  0  0  0  0  0  0  0  0
  1  2  1  0  0  0  0
  2  3  1  0  0  0  0
  2  8  1  0  0  0  0
  3  4  1  0  0  0  0
  4  5  1  0  0  0  0
  4  6  1  0  0  0  0
  4  7  1  0  0  0  0
  7  8  1  0  0  0  0
M  CHG  1   4   1
M  END
>  <name>
[O;ester]C1C[N+](C)(C)CC1

>  <apo>
1

>  <freq>
1

>  <freq0>
0

>  <freq1>
1

>  <freqA>
0.99887151

>  <a_count>
22

$$$$

  MOE2015           2D

  9  9  0  0  0  0  0  0  0  0999 V2000
    4.5000    2.5980    0.0000 C   0  0  0  0  0  0  0  0  0  0  0  0
    3.7500    1.2990    0.0000 C   0  0  0  0  0  0  0  0  0  0  0  0
    2.2500    1.2990    0.0000 C   0  0  0  0  0  0  0  0  0  0  0  0
    1.5000    0.0000    0.0000 C   0  0  0  0  0  0  0  0  0  0  0  0
    0.0000    0.0000    0.0000 C   0  0  0  0  0  0  0  0  0  0  0  0
   -0.7500    1.2990    0.0000 C   0  0  0  0  0  0  0  0  0  0  0  0
    0.0000    2.5980    0.0000 C   0  0  0  0  0  0  0  0  0  0  0  0
    1.5000    2.5980    0.0000 C   0  0  0  0  0  0  0  0  0  0  0  0
    6.0000    2.5980    0.0000 C   0  0  0  0  0  0  0  0  0  0  0  0
  1  2  1  0  0  0  0
  1  9  1  0  0  0  0
  2  3  1  0  0  0  0
  3  4  1  0  0  0  0
  3  8  2  0  0  0  0
  4  5  2  0  0  0  0
  5  6  1  0  0  0  0
  6  7  2  0  0  0  0
  7  8  1  0  0  0  0
M  END
>  <name>
C([C;olefin]c1ccccc1)C

>  <apo>
1

>  <freq>
1

>  <freq0>
0

>  <freq1>
1

>  <freqA>
0.99887151

>  <a_count>
21

$$$$

  MOE2015           2D

  8  8  0  0  1  0  0  0  0  0999 V2000
    5.4110   -0.8000    0.0000 C   0  0  0  0  0  0  0  0  0  0  0  0
    4.1120   -0.0500    0.0000 C   0  0  1  0  0  0  0  0  0  0  0  0
    2.8120   -0.8000    0.0000 O   0  0  0  0  0  0  0  0  0  0  0  0
    1.5130   -0.0500    0.0000 C   0  0  1  0  0  0  0  0  0  0  0  0
    0.2140   -0.8000    0.0000 C   0  0  0  0  0  0  0  0  0  0  0  0
    1.5130    1.4500    0.0000 C   0  0  0  0  0  0  0  0  0  0  0  0
    2.8120    2.2000    0.0000 N   0  0  0  0  0  0  0  0  0  0  0  0
    4.1120    1.4500    0.0000 C   0  0  0  0  0  0  0  0  0  0  0  0
  2  1  1  1  0  0  0
  2  3  1  0  0  0  0
  2  8  1  0  0  0  0
  3  4  1  0  0  0  0
  4  5  1  1  0  0  0
  4  6  1  0  0  0  0
  6  7  1  0  0  0  0
  7  8  1  0  0  0  0
M  END
>  <name>
C[C@H]1O[C@@H](C)C[N;amine]C1

>  <apo>
1

>  <freq>
1

>  <freq0>
0

>  <freq1>
1

>  <freqA>
0.99887151

>  <a_count>
21

$$$$

  MOE2015           2D

 11 11  0  0  1  0  0  0  0  0999 V2000
    2.7030    4.6330    0.0000 Cl  0  0  0  0  0  0  0  0  0  0  0  0
    3.4410    3.3270    0.0000 C   0  0  0  0  0  0  0  0  0  0  0  0
    4.9410    3.3130    0.0000 Cl  0  0  0  0  0  0  0  0  0  0  0  0
    2.6790    2.0350    0.0000 C   0  0  0  0  0  0  0  0  0  0  0  0
    1.1790    2.0490    0.0000 C   0  0  3  0  0  0  0  0  0  0  0  0
   -0.1260    1.3110    0.0000 C   0  0  0  0  0  0  0  0  0  0  0  0
    0.0560   -0.1780    0.0000 C   0  0  0  0  0  0  0  0  0  0  0  0
   -1.5170    0.7500    0.0000 C   0  0  0  0  0  0  0  0  0  0  0  0
   -0.1130    2.8110    0.0000 C   0  0  3  0  0  0  0  0  0  0  0  0
   -0.8510    4.1170    0.0000 C   0  0  0  0  0  0  0  0  0  0  0  0
   -2.3510    4.1300    0.0000 O   0  0  0  0  0  0  0  0  0  0  0  0
  1  2  1  0  0  0  0
  2  3  1  0  0  0  0
  2  4  2  0  0  0  0
  4  5  1  0  0  0  0
  5  6  1  0  0  0  0
  5  9  1  0  0  0  0
  6  7  1  0  0  0  0
  6  8  1  0  0  0  0
  6  9  1  0  0  0  0
  9 10  1  0  0  0  0
 10 11  2  0  0  0  0
M  END
>  <name>
Cl/C(/Cl)=C\C1C(C)(C)C1[C;ester]=O

>  <apo>
1

>  <freq>
1

>  <freq0>
0

>  <freq1>
1

>  <freqA>
0.99887151

>  <a_count>
21

$$$$

  MOE2015           2D

 14 15  0  0  1  0  0  0  0  0999 V2000
    0.0000    0.0000    0.0000 Cl  0  0  0  0  0  0  0  0  0  0  0  0
    1.5000    0.0000    0.0000 C   0  0  0  0  0  0  0  0  0  0  0  0
    2.2500    1.2990    0.0000 C   0  0  0  0  0  0  0  0  0  0  0  0
    1.5000    2.5980    0.0000 C   0  0  0  0  0  0  0  0  0  0  0  0
    2.2500    3.8970    0.0000 O   0  0  0  0  0  0  0  0  0  0  0  0
    0.0000    2.5980    0.0000 O   0  0  0  0  0  0  0  0  0  0  0  0
    3.7500    1.2990    0.0000 N   0  0  0  0  0  0  0  0  0  0  0  0
    5.0490    2.0490    0.0000 C   0  0  0  0  0  0  0  0  0  0  0  0
    5.4370    3.4980    0.0000 O   0  0  0  0  0  0  0  0  0  0  0  0
    5.7990    0.7500    0.0000 C   0  0  1  0  0  0  0  0  0  0  0  0
    7.2480    0.3620    0.0000 N   0  0  0  0  0  0  0  0  0  0  0  0
    4.5000    0.0000    0.0000 C   0  0  1  0  0  0  0  0  0  0  0  0
    3.7500   -1.2990    0.0000 S   0  0  0  0  0  0  0  0  0  0  0  0
    2.2500   -1.2990    0.0000 C   0  0  0  0  0  0  0  0  0  0  0  0
  1  2  1  0  0  0  0
  2  3  2  0  0  0  0
  2 14  1  0  0  0  0
  3  4  1  0  0  0  0
  3  7  1  0  0  0  0
  4  5  2  0  0  0  0
  4  6  1  0  0  0  0
  7  8  1  0  0  0  0
 12  7  1  1  0  0  0
  8  9  2  0  0  0  0
  8 10  1  0  0  0  0
 10 11  1  1  0  0  0
 10 12  1  0  0  0  0
 12 13  1  0  0  0  0
 13 14  1  0  0  0  0
M  END
>  <name>
ClC1=C(C(=O)O)N2C(=O)[C@@H]([N;amide])[C@H]2SC1

>  <apo>
1

>  <freq>
1

>  <freq0>
0

>  <freq1>
1

>  <freqA>
0.99887151

>  <a_count>
21

$$$$

  MOE2015           2D

  8  8  0  0  0  0  0  0  0  0999 V2000
    0.0000    0.0000    0.0000 Cl  0  0  0  0  0  0  0  0  0  0  0  0
    1.5000    0.0000    0.0000 C   0  0  0  0  0  0  0  0  0  0  0  0
    2.2500   -1.2990    0.0000 C   0  0  0  0  0  0  0  0  0  0  0  0
    3.7500   -1.2990    0.0000 C   0  0  0  0  0  0  0  0  0  0  0  0
    4.5000    0.0000    0.0000 C   0  0  0  0  0  0  0  0  0  0  0  0
    6.0000    0.0000    0.0000 C   0  0  0  0  0  0  0  0  0  0  0  0
    3.7500    1.2990    0.0000 C   0  0  0  0  0  0  0  0  0  0  0  0
    2.2500    1.2990    0.0000 C   0  0  0  0  0  0  0  0  0  0  0  0
  1  2  1  0  0  0  0
  2  3  1  0  0  0  0
  2  8  1  0  0  0  0
  3  4  1  0  0  0  0
  4  5  1  0  0  0  0
  5  6  1  0  0  0  0
  5  7  1  0  0  0  0
  7  8  1  0  0  0  0
M  END
>  <name>
ClC1[C;ether]CC([C;olefin])CC1

>  <apo>
2

>  <freq>
1

>  <freq0>
0

>  <freq1>
1

>  <freqA>
0.99887151

>  <a_count>
21

$$$$

  MOE2015           2D

 12 12  0  0  1  0  0  0  0  0999 V2000
    1.3120   -2.9230    0.0000 Cl  0  0  0  0  0  0  0  0  0  0  0  0
    2.0620   -1.6240    0.0000 C   0  0  0  0  0  0  0  0  0  0  0  0
    1.3120   -0.3250    0.0000 C   0  0  0  0  0  0  0  0  0  0  0  0
   -0.1880   -0.3250    0.0000 N   0  0  0  0  0  0  0  0  0  0  0  0
    2.0630    0.9740    0.0000 C   0  0  0  0  0  0  0  0  0  0  0  0
    1.3130    2.2730    0.0000 Cl  0  0  0  0  0  0  0  0  0  0  0  0
    3.5630    0.9740    0.0000 C   0  0  0  0  0  0  0  0  0  0  0  0
    4.3130   -0.3250    0.0000 C   0  0  0  0  0  0  0  0  0  0  0  0
    5.8120   -0.3250    0.0000 C   0  0  3  0  0  0  0  0  0  0  0  0
    6.5630   -1.6240    0.0000 O   0  0  0  0  0  0  0  0  0  0  0  0
    6.5620    0.9740    0.0000 C   0  0  0  0  0  0  0  0  0  0  0  0
    3.5630   -1.6240    0.0000 C   0  0  0  0  0  0  0  0  0  0  0  0
  1  2  1  0  0  0  0
  2  3  1  0  0  0  0
  2 12  2  0  0  0  0
  3  4  1  0  0  0  0
  3  5  2  0  0  0  0
  5  6  1  0  0  0  0
  5  7  1  0  0  0  0
  7  8  2  0  0  0  0
  8  9  1  0  0  0  0
  8 12  1  0  0  0  0
  9 10  1  0  0  0  0
  9 11  1  0  0  0  0
M  END
>  <name>
Clc1c(N)c(Cl)cc(C(O)[C;amine])c1

>  <apo>
1

>  <freq>
1

>  <freq0>
0

>  <freq1>
1

>  <freqA>
0.99887151

>  <a_count>
21

$$$$

  MOE2015           2D

 13 14  0  0  0  0  0  0  0  0999 V2000
    3.4790    3.3820    0.0000 Cl  0  0  0  0  0  0  0  0  0  0  0  0
    3.4790    1.8820    0.0000 C   0  0  0  0  0  0  0  0  0  0  0  0
    2.1800    1.1320    0.0000 C   0  0  0  0  0  0  0  0  0  0  0  0
    0.8810    1.8820    0.0000 N   0  0  0  0  0  0  0  0  0  0  0  0
    2.1800   -0.3680    0.0000 C   0  0  0  0  0  0  0  0  0  0  0  0
    3.4790   -1.1180    0.0000 C   0  0  0  0  0  0  0  0  0  0  0  0
    4.7780   -0.3680    0.0000 C   0  0  0  0  0  0  0  0  0  0  0  0
    6.0770   -1.1180    0.0000 C   0  0  0  0  0  0  0  0  0  0  0  0
    7.3760   -0.3680    0.0000 O   0  0  0  0  0  0  0  0  0  0  0  0
    4.7780    1.1320    0.0000 C   0  0  0  0  0  0  0  0  0  0  0  0
    3.1670   -2.5850    0.0000 O   0  0  0  0  0  0  0  0  0  0  0  0
    1.6750   -2.7420    0.0000 C   0  0  0  0  0  0  0  0  0  0  0  0
    1.0650   -1.3720    0.0000 C   0  0  0  0  0  0  0  0  0  0  0  0
  1  2  1  0  0  0  0
  2  3  1  0  0  0  0
  2 10  2  0  0  0  0
  3  4  1  0  0  0  0
  3  5  2  0  0  0  0
  5  6  1  0  0  0  0
  5 13  1  0  0  0  0
  6  7  2  0  0  0  0
  6 11  1  0  0  0  0
  7  8  1  0  0  0  0
  7 10  1  0  0  0  0
  8  9  2  0  0  0  0
 11 12  1  0  0  0  0
 12 13  1  0  0  0  0
M  END
>  <name>
Clc1c(N)c2c(c([C;amide]=O)c1)OCC2

>  <apo>
1

>  <freq>
1

>  <freq0>
0

>  <freq1>
1

>  <freqA>
0.99887151

>  <a_count>
21

$$$$

  MOE2015           2D

 12 12  0  0  0  0  0  0  0  0999 V2000
    0.5970    4.2780    0.0000 Cl  0  0  0  0  0  0  0  0  0  0  0  0
    0.5970    2.7780    0.0000 C   0  0  0  0  0  0  0  0  0  0  0  0
    1.8960    2.0280    0.0000 C   0  0  0  0  0  0  0  0  0  0  0  0
    3.1950    2.7780    0.0000 C   0  0  0  0  0  0  0  0  0  0  0  0
    4.4940    2.0280    0.0000 C   0  0  0  0  0  0  0  0  0  0  0  0
    4.4940    0.5280    0.0000 O   0  0  0  0  0  0  0  0  0  0  0  0
    5.7930    2.7780    0.0000 O   0  0  0  0  0  0  0  0  0  0  0  0
    7.0920    2.0280    0.0000 C   0  0  0  0  0  0  0  0  0  0  0  0
    1.8960    0.5280    0.0000 C   0  0  0  0  0  0  0  0  0  0  0  0
    0.5970   -0.2220    0.0000 C   0  0  0  0  0  0  0  0  0  0  0  0
   -0.7020    0.5280    0.0000 C   0  0  0  0  0  0  0  0  0  0  0  0
   -0.7020    2.0280    0.0000 C   0  0  0  0  0  0  0  0  0  0  0  0
  1  2  1  0  0  0  0
  2  3  1  0  0  0  0
  2 12  2  0  0  0  0
  3  4  1  0  0  0  0
  3  9  2  0  0  0  0
  4  5  1  0  0  0  0
  5  6  2  0  0  0  0
  5  7  1  0  0  0  0
  7  8  1  0  0  0  0
  9 10  1  0  0  0  0
 10 11  2  0  0  0  0
 11 12  1  0  0  0  0
M  END
>  <name>
Clc1c([C;amine]C(=O)OC)cccc1

>  <apo>
1

>  <freq>
1

>  <freq0>
0

>  <freq1>
1

>  <freqA>
0.99887151

>  <a_count>
21

$$$$

  MOE2015           2D

 10 10  0  0  0  0  0  0  0  0999 V2000
    0.0000    0.5200    0.0000 Cl  0  0  0  0  0  0  0  0  0  0  0  0
    1.5000    0.5200    0.0000 C   0  0  0  0  0  0  0  0  0  0  0  0
    2.2500   -0.7790    0.0000 C   0  0  0  0  0  0  0  0  0  0  0  0
    3.7500   -0.7790    0.0000 C   0  0  0  0  0  0  0  0  0  0  0  0
    4.5000    0.5200    0.0000 C   0  0  0  0  0  0  0  0  0  0  0  0
    6.0000    0.5200    0.0000 C   0  0  0  0  0  0  0  0  0  0  0  0
    6.7500   -0.7790    0.0000 C   0  0  0  0  0  0  0  0  0  0  0  0
    8.2500   -0.7790    0.0000 C   0  0  0  0  0  0  0  0  0  0  0  0
    3.7500    1.8190    0.0000 C   0  0  0  0  0  0  0  0  0  0  0  0
    2.2500    1.8190    0.0000 C   0  0  0  0  0  0  0  0  0  0  0  0
  1  2  1  0  0  0  0
  2  3  1  0  0  0  0
  2 10  2  0  0  0  0
  3  4  2  0  0  0  0
  4  5  1  0  0  0  0
  5  6  1  0  0  0  0
  5  9  2  0  0  0  0
  6  7  1  0  0  0  0
  7  8  1  0  0  0  0
  9 10  1  0  0  0  0
M  END
>  <name>
Clc1ccc(CC[C;ether])cc1

>  <apo>
1

>  <freq>
1

>  <freq0>
0

>  <freq1>
1

>  <freqA>
0.99887151

>  <a_count>
21

$$$$

  MOE2015           2D

 12 12  0  0  1  0  0  0  0  0999 V2000
   -0.0850    0.3160    0.0000 F   0  0  0  0  0  0  0  0  0  0  0  0
    1.2140    1.0660    0.0000 C   0  0  0  0  0  0  0  0  0  0  0  0
    2.5130    0.3160    0.0000 C   0  0  0  0  0  0  0  0  0  0  0  0
    3.8120    1.0660    0.0000 C   0  0  0  0  0  0  0  0  0  0  0  0
    5.1120    0.3160    0.0000 C   0  0  3  0  0  0  0  0  0  0  0  0
    6.4110    1.0660    0.0000 C   0  0  0  0  0  0  0  0  0  0  0  0
    6.4110    2.5660    0.0000 O   0  0  0  0  0  0  0  0  0  0  0  0
    7.7100    0.3160    0.0000 O   0  0  0  0  0  0  0  0  0  0  0  0
    5.1120   -1.1840    0.0000 C   0  0  0  0  0  0  0  0  0  0  0  0
    3.8130    2.5660    0.0000 C   0  0  0  0  0  0  0  0  0  0  0  0
    2.5130    3.3160    0.0000 C   0  0  0  0  0  0  0  0  0  0  0  0
    1.2140    2.5660    0.0000 C   0  0  0  0  0  0  0  0  0  0  0  0
  1  2  1  0  0  0  0
  2  3  1  0  0  0  0
  2 12  2  0  0  0  0
  3  4  2  0  0  0  0
  4  5  1  0  0  0  0
  4 10  1  0  0  0  0
  5  6  1  0  0  0  0
  5  9  1  0  0  0  0
  6  7  2  0  0  0  0
  6  8  1  0  0  0  0
 10 11  2  0  0  0  0
 11 12  1  0  0  0  0
M  END
>  <name>
Fc1cc(C(C(=O)O)C)cc[c;biphenyl]1

>  <apo>
1

>  <freq>
1

>  <freq0>
0

>  <freq1>
1

>  <freqA>
0.99887151

>  <a_count>
21

$$$$

  MOE2015           2D

 10 10  0  0  0  0  0  0  0  0999 V2000
    0.0000    0.5200    0.0000 I   0  0  0  0  0  0  0  0  0  0  0  0
    1.5000    0.5200    0.0000 C   0  0  0  0  0  0  0  0  0  0  0  0
    2.2500   -0.7790    0.0000 C   0  0  0  0  0  0  0  0  0  0  0  0
    3.7500   -0.7790    0.0000 C   0  0  0  0  0  0  0  0  0  0  0  0
    4.5000    0.5200    0.0000 C   0  0  0  0  0  0  0  0  0  0  0  0
    6.0000    0.5200    0.0000 C   0  0  0  0  0  0  0  0  0  0  0  0
    6.7500   -0.7790    0.0000 C   0  0  0  0  0  0  0  0  0  0  0  0
    8.2500   -0.7790    0.0000 C   0  0  0  0  0  0  0  0  0  0  0  0
    3.7500    1.8190    0.0000 C   0  0  0  0  0  0  0  0  0  0  0  0
    2.2500    1.8190    0.0000 C   0  0  0  0  0  0  0  0  0  0  0  0
  1  2  1  0  0  0  0
  2  3  1  0  0  0  0
  2 10  2  0  0  0  0
  3  4  2  0  0  0  0
  4  5  1  0  0  0  0
  5  6  1  0  0  0  0
  5  9  2  0  0  0  0
  6  7  1  0  0  0  0
  7  8  1  0  0  0  0
  9 10  1  0  0  0  0
M  END
>  <name>
Ic1ccc(C[C;amine]C)cc1

>  <apo>
1

>  <freq>
1

>  <freq0>
0

>  <freq1>
1

>  <freqA>
0.99887151

>  <a_count>
21

$$$$

  MOE2015           2D

 11 11  0  0  0  0  0  0  0  0999 V2000
    0.0030   -0.4100    0.0000 N   0  0  0  0  0  0  0  0  0  0  0  0
    1.4970   -0.2750    0.0000 C   0  0  0  0  0  0  0  0  0  0  0  0
    2.9910   -0.1390    0.0000 C   0  0  0  0  0  0  0  0  0  0  0  0
    3.7590    1.1490    0.0000 N   0  0  0  0  0  0  0  0  0  0  0  0
    3.1680    2.5280    0.0000 C   0  0  0  0  0  0  0  0  0  0  0  0
    5.2210    0.8170    0.0000 N   0  0  0  0  0  0  0  0  0  0  0  0
    5.3570   -0.6770    0.0000 C   0  0  0  0  0  0  0  0  0  0  0  0
    6.6450   -1.4450    0.0000 C   0  0  0  0  0  0  0  0  0  0  0  0
    7.9550   -0.7140    0.0000 N   0  0  0  0  0  0  0  0  0  0  0  0
    9.2430   -1.4820    0.0000 C   0  0  0  0  0  0  0  0  0  0  0  0
    3.9780   -1.2680    0.0000 C   0  0  0  0  0  0  0  0  0  0  0  0
  1  2  3  0  0  0  0
  2  3  1  0  0  0  0
  3  4  1  0  0  0  0
  3 11  2  0  0  0  0
  4  5  1  0  0  0  0
  4  6  1  0  0  0  0
  6  7  2  0  0  0  0
  7  8  1  0  0  0  0
  7 11  1  0  0  0  0
  8  9  1  0  0  0  0
  9 10  1  0  0  0  0
M  END
>  <name>
N#Cc1n(C)nc(C[N;amide]C)[c;biphenyl]1

>  <apo>
2

>  <freq>
1

>  <freq0>
0

>  <freq1>
1

>  <freqA>
0.99887151

>  <a_count>
21

$$$$

  MOE2015           2D

  8  9  0  0  0  0  0  0  0  0999 V2000
   -1.5660   -0.1530    0.0000 N   0  0  0  0  0  0  0  0  0  0  0  0
   -2.0330   -1.5480    0.0000 C   0  0  0  0  0  0  0  0  0  0  0  0
   -0.7110   -1.1320    0.0000 C   0  0  0  0  0  0  0  0  0  0  0  0
   -0.2670    0.2470    0.0000 C   0  0  0  0  0  0  0  0  0  0  0  0
   -1.0520    1.6020    0.0000 C   0  0  0  0  0  0  0  0  0  0  0  0
   -2.3720    1.2660    0.0000 C   0  0  0  0  0  0  0  0  0  0  0  0
    1.3300    0.3530    0.0000 C   0  0  0  0  0  0  0  0  0  0  0  0
    0.3040   -0.1990    0.0000 C   0  0  0  0  0  0  0  0  0  0  0  0
  1  2  1  0  0  0  0
  1  6  1  0  0  0  0
  1  8  1  0  0  0  0
  2  3  1  0  0  0  0
  3  4  1  0  0  0  0
  4  5  1  0  0  0  0
  4  7  1  0  0  0  0
  5  6  1  0  0  0  0
  7  8  1  0  0  0  0
M  END
>  <name>
N12CCC(CC1)[C;amine]C2

>  <apo>
1

>  <freq>
1

>  <freq0>
0

>  <freq1>
1

>  <freqA>
0.99887151

>  <a_count>
21

$$$$

  MOE2015           2D

  8  9  0  0  0  0  0  0  0  0999 V2000
   -1.5660   -0.1530    0.0000 N   0  0  0  0  0  0  0  0  0  0  0  0
   -2.0330   -1.5480    0.0000 C   0  0  0  0  0  0  0  0  0  0  0  0
   -0.7110   -1.1320    0.0000 C   0  0  0  0  0  0  0  0  0  0  0  0
   -0.2670    0.2470    0.0000 C   0  0  0  0  0  0  0  0  0  0  0  0
   -1.0520    1.6020    0.0000 C   0  0  0  0  0  0  0  0  0  0  0  0
   -2.3720    1.2660    0.0000 C   0  0  0  0  0  0  0  0  0  0  0  0
    1.3300    0.3530    0.0000 C   0  0  0  0  0  0  0  0  0  0  0  0
    0.3040   -0.1990    0.0000 C   0  0  0  0  0  0  0  0  0  0  0  0
  1  2  1  0  0  0  0
  1  6  1  0  0  0  0
  1  8  1  0  0  0  0
  2  3  1  0  0  0  0
  3  4  1  0  0  0  0
  4  5  1  0  0  0  0
  4  7  1  0  0  0  0
  5  6  1  0  0  0  0
  7  8  1  0  0  0  0
M  END
>  <name>
N12C[C;lactam]C(CC1)CC2

>  <apo>
1

>  <freq>
1

>  <freq0>
0

>  <freq1>
1

>  <freqA>
0.99887151

>  <a_count>
21

$$$$

  MOE2015           2D

  8  9  0  0  0  0  0  0  0  0999 V2000
   -1.5660   -0.1530    0.0000 N   0  0  0  0  0  0  0  0  0  0  0  0
   -2.0330   -1.5480    0.0000 C   0  0  0  0  0  0  0  0  0  0  0  0
   -0.7110   -1.1320    0.0000 C   0  0  0  0  0  0  0  0  0  0  0  0
   -0.2670    0.2470    0.0000 C   0  0  0  0  0  0  0  0  0  0  0  0
   -1.0520    1.6020    0.0000 C   0  0  0  0  0  0  0  0  0  0  0  0
   -2.3720    1.2660    0.0000 C   0  0  0  0  0  0  0  0  0  0  0  0
    1.3300    0.3530    0.0000 C   0  0  0  0  0  0  0  0  0  0  0  0
    0.3040   -0.1990    0.0000 C   0  0  0  0  0  0  0  0  0  0  0  0
  1  2  1  0  0  0  0
  1  6  1  0  0  0  0
  1  8  1  0  0  0  0
  2  3  1  0  0  0  0
  3  4  1  0  0  0  0
  4  5  1  0  0  0  0
  4  7  1  0  0  0  0
  5  6  1  0  0  0  0
  7  8  1  0  0  0  0
M  END
>  <name>
N12C[C;thioether]C(CC1)CC2

>  <apo>
1

>  <freq>
1

>  <freq0>
0

>  <freq1>
1

>  <freqA>
0.99887151

>  <a_count>
21

$$$$

  MOE2015           2D

 13 14  0  0  0  0  0  0  0  0999 V2000
    0.3570   -1.3310    0.0000 N   0  0  0  0  0  0  0  0  0  0  0  0
    1.6560   -0.5810    0.0000 C   0  0  0  0  0  0  0  0  0  0  0  0
    2.9550   -1.3310    0.0000 N   0  0  0  0  0  0  0  0  0  0  0  0
    4.2540   -0.5810    0.0000 C   0  0  0  0  0  0  0  0  0  0  0  0
    5.5530   -1.3310    0.0000 N   0  0  0  0  0  0  0  0  0  0  0  0
    6.8520   -0.5810    0.0000 C   0  0  0  0  0  0  0  0  0  0  0  0
    6.8520    0.9190    0.0000 C   0  0  0  0  0  0  0  0  0  0  0  0
    8.1510    1.6690    0.0000 C   0  0  0  0  0  0  0  0  0  0  0  0
    5.5530    1.6690    0.0000 N   0  0  0  0  0  0  0  0  0  0  0  0
    4.2540    0.9190    0.0000 C   0  0  0  0  0  0  0  0  0  0  0  0
    2.9550    1.6690    0.0000 C   0  0  0  0  0  0  0  0  0  0  0  0
    2.9550    3.1690    0.0000 N   0  0  0  0  0  0  0  0  0  0  0  0
    1.6560    0.9190    0.0000 N   0  0  0  0  0  0  0  0  0  0  0  0
  1  2  2  0  0  0  0
  2  3  1  0  0  0  0
  2 13  1  0  0  0  0
  3  4  2  0  0  0  0
  4  5  1  0  0  0  0
  4 10  1  0  0  0  0
  5  6  2  0  0  0  0
  6  7  1  0  0  0  0
  7  8  1  0  0  0  0
  7  9  2  0  0  0  0
  9 10  1  0  0  0  0
 10 11  2  0  0  0  0
 11 12  1  0  0  0  0
 11 13  1  0  0  0  0
M  END
>  <name>
N=C1N=C2N=CC([C;amine])=NC2=C(N)N1

>  <apo>
1

>  <freq>
1

>  <freq0>
0

>  <freq1>
1

>  <freqA>
0.99887151

>  <a_count>
21

$$$$

  MOE2015           2D

  8  8  0  0  0  0  0  0  0  0999 V2000
    4.2920    1.1500    0.0000 N   0  0  0  0  0  0  0  0  0  0  0  0
    2.9930    0.4000    0.0000 C   0  0  0  0  0  0  0  0  0  0  0  0
    4.2920   -0.3500    0.0000 C   0  0  0  0  0  0  0  0  0  0  0  0
    2.2430    1.6990    0.0000 C   0  0  0  0  0  0  0  0  0  0  0  0
    0.7430    1.6990    0.0000 N   0  0  0  0  0  0  0  0  0  0  0  0
   -0.0070    0.4000    0.0000 C   0  0  0  0  0  0  0  0  0  0  0  0
    0.7430   -0.8990    0.0000 N   0  0  0  0  0  0  0  0  0  0  0  0
    2.2430   -0.8990    0.0000 C   0  0  0  0  0  0  0  0  0  0  0  0
  1  2  1  0  0  0  0
  2  3  1  0  0  0  0
  2  4  1  0  0  0  0
  2  8  1  0  0  0  0
  4  5  1  0  0  0  0
  5  6  1  0  0  0  0
  6  7  1  0  0  0  0
  7  8  1  0  0  0  0
M  END
>  <name>
NC1(C)C[N;amine]C[N;amine]C1

>  <apo>
2

>  <freq>
1

>  <freq0>
0

>  <freq1>
1

>  <freqA>
0.99887151

>  <a_count>
21

$$$$

  MOE2015           2D

  9  9  0  0  1  0  0  0  0  0999 V2000
    6.0000   -3.4640    0.0000 N   0  0  0  0  0  0  0  0  0  0  0  0
    5.2500   -2.1650    0.0000 C   0  0  0  0  0  0  0  0  0  0  0  0
    3.7500   -2.1650    0.0000 C   0  0  0  0  0  0  0  0  0  0  0  0
    3.0000   -0.8660    0.0000 O   0  0  0  0  0  0  0  0  0  0  0  0
    1.5000   -0.8660    0.0000 C   0  0  0  0  0  0  0  0  0  0  0  0
    0.7500   -2.1650    0.0000 C   0  0  2  0  0  0  0  0  0  0  0  0
   -0.7500   -2.1650    0.0000 N   0  0  0  0  0  0  0  0  0  0  0  0
    1.5000   -3.4640    0.0000 C   0  0  0  0  0  0  0  0  0  0  0  0
    3.0000   -3.4640    0.0000 C   0  0  0  0  0  0  0  0  0  0  0  0
  1  2  1  0  0  0  0
  2  3  1  0  0  0  0
  3  4  1  0  0  0  0
  3  9  2  0  0  0  0
  4  5  1  0  0  0  0
  5  6  1  0  0  0  0
  6  7  1  1  0  0  0
  6  8  1  0  0  0  0
  8  9  1  0  0  0  0
M  END
>  <name>
NCC=1O[C;ether][C@H](N)CC=1

>  <apo>
1

>  <freq>
1

>  <freq0>
0

>  <freq1>
1

>  <freqA>
0.99887151

>  <a_count>
21

$$$$

  MOE2015           2D

  8  8  0  0  1  0  0  0  0  0999 V2000
    0.0000    0.0000    0.0000 N   0  0  0  0  0  0  0  0  0  0  0  0
    1.5000    0.0000    0.0000 C   0  0  1  0  0  0  0  0  0  0  0  0
    2.2500   -1.2990    0.0000 C   0  0  0  0  0  0  0  0  0  0  0  0
    3.7500   -1.2990    0.0000 O   0  0  0  0  0  0  0  0  0  0  0  0
    4.5000    0.0000    0.0000 C   0  0  1  0  0  0  0  0  0  0  0  0
    6.0000    0.0000    0.0000 C   0  0  0  0  0  0  0  0  0  0  0  0
    3.7500    1.2990    0.0000 C   0  0  0  0  0  0  0  0  0  0  0  0
    2.2500    1.2990    0.0000 C   0  0  0  0  0  0  0  0  0  0  0  0
  2  1  1  6  0  0  0
  2  3  1  0  0  0  0
  2  8  1  0  0  0  0
  3  4  1  0  0  0  0
  4  5  1  0  0  0  0
  5  6  1  6  0  0  0
  5  7  1  0  0  0  0
  7  8  1  0  0  0  0
M  END
>  <name>
N[C@H]1[C;ether]O[C@@H]([C;amine])CC1

>  <apo>
2

>  <freq>
1

>  <freq0>
0

>  <freq1>
1

>  <freqA>
0.99887151

>  <a_count>
21

$$$$

  MOE2015           2D

 11 11  0  0  0  0  0  0  0  0999 V2000
    5.1140   -0.1180    0.0000 O   0  0  0  0  0  0  0  0  0  0  0  0
    4.3640   -1.4170    0.0000 C   0  0  0  0  0  0  0  0  0  0  0  0
    5.1140   -2.7160    0.0000 C   0  0  0  0  0  0  0  0  0  0  0  0
    6.6140   -2.7160    0.0000 C   0  0  0  0  0  0  0  0  0  0  0  0
    2.8640   -1.4170    0.0000 C   0  0  0  0  0  0  0  0  0  0  0  0
    2.1140   -2.7160    0.0000 C   0  0  0  0  0  0  0  0  0  0  0  0
    0.6140   -2.7160    0.0000 C   0  0  0  0  0  0  0  0  0  0  0  0
   -0.1360   -1.4170    0.0000 C   0  0  0  0  0  0  0  0  0  0  0  0
   -1.6360   -1.4170    0.0000 O   0  0  0  0  0  0  0  0  0  0  0  0
    0.6140   -0.1180    0.0000 C   0  0  0  0  0  0  0  0  0  0  0  0
    2.1140   -0.1180    0.0000 C   0  0  0  0  0  0  0  0  0  0  0  0
  1  2  2  0  0  0  0
  2  3  1  0  0  0  0
  2  5  1  0  0  0  0
  3  4  1  0  0  0  0
  5  6  1  0  0  0  0
  5 11  2  0  0  0  0
  6  7  2  0  0  0  0
  7  8  1  0  0  0  0
  8  9  1  0  0  0  0
  8 10  2  0  0  0  0
 10 11  1  0  0  0  0
M  END
>  <name>
O=C(C[C;amine])c1ccc([O;ether])cc1

>  <apo>
2

>  <freq>
1

>  <freq0>
0

>  <freq1>
1

>  <freqA>
0.99887151

>  <a_count>
21

$$$$

  MOE2015           2D

  9  9  0  0  0  0  0  0  0  0999 V2000
    5.0000    0.2890    0.0000 O   0  0  0  0  0  0  0  0  0  0  0  0
    4.2500    1.5880    0.0000 C   0  0  0  0  0  0  0  0  0  0  0  0
    5.0000    2.8870    0.0000 N   0  0  0  0  0  0  0  0  0  0  0  0
    2.7500    1.5880    0.0000 C   0  0  0  0  0  0  0  0  0  0  0  0
    2.0000    2.8870    0.0000 C   0  0  0  0  0  0  0  0  0  0  0  0
    0.5000    2.8870    0.0000 C   0  0  0  0  0  0  0  0  0  0  0  0
   -0.2500    1.5880    0.0000 N   0  0  0  0  0  0  0  0  0  0  0  0
    0.5000    0.2890    0.0000 C   0  0  0  0  0  0  0  0  0  0  0  0
    2.0000    0.2890    0.0000 C   0  0  0  0  0  0  0  0  0  0  0  0
  1  2  2  0  0  0  0
  2  3  1  0  0  0  0
  2  4  1  0  0  0  0
  4  5  1  0  0  0  0
  4  9  1  0  0  0  0
  5  6  1  0  0  0  0
  6  7  1  0  0  0  0
  7  8  1  0  0  0  0
  8  9  1  0  0  0  0
M  END
>  <name>
O=C(N)C1CC[N;amine]CC1

>  <apo>
1

>  <freq>
1

>  <freq0>
0

>  <freq1>
1

>  <freqA>
0.99887151

>  <a_count>
21

$$$$

  MOE2015           2D

  9  9  0  0  0  0  0  0  0  0999 V2000
    5.0000    0.2890    0.0000 O   0  0  0  0  0  0  0  0  0  0  0  0
    4.2500    1.5880    0.0000 C   0  0  0  0  0  0  0  0  0  0  0  0
    5.0000    2.8870    0.0000 N   0  0  0  0  0  0  0  0  0  0  0  0
    2.7500    1.5880    0.0000 C   0  0  0  0  0  0  0  0  0  0  0  0
    2.0000    2.8870    0.0000 C   0  0  0  0  0  0  0  0  0  0  0  0
    0.5000    2.8870    0.0000 C   0  0  0  0  0  0  0  0  0  0  0  0
   -0.2500    1.5880    0.0000 N   0  0  0  0  0  0  0  0  0  0  0  0
    0.5000    0.2890    0.0000 C   0  0  0  0  0  0  0  0  0  0  0  0
    2.0000    0.2890    0.0000 C   0  0  0  0  0  0  0  0  0  0  0  0
  1  2  2  0  0  0  0
  2  3  1  0  0  0  0
  2  4  1  0  0  0  0
  4  5  1  0  0  0  0
  4  9  1  0  0  0  0
  5  6  1  0  0  0  0
  6  7  1  0  0  0  0
  7  8  1  0  0  0  0
  8  9  1  0  0  0  0
M  END
>  <name>
O=C(N)[C;amine]1CC[N;amine]CC1

>  <apo>
2

>  <freq>
1

>  <freq0>
0

>  <freq1>
1

>  <freqA>
0.99887151

>  <a_count>
21

$$$$

  MOE2015           2D

 12 12  0  0  0  0  0  0  0  0999 V2000
    3.2110    1.3360    0.0000 O   0  0  0  0  0  0  0  0  0  0  0  0
    3.2110    2.8360    0.0000 C   0  0  0  0  0  0  0  0  0  0  0  0
    4.5100    3.5860    0.0000 N   0  0  0  0  0  0  0  0  0  0  0  0
    5.8090    2.8360    0.0000 O   0  0  0  0  0  0  0  0  0  0  0  0
    1.9120    3.5860    0.0000 C   0  0  0  0  0  0  0  0  0  0  0  0
    0.6130    2.8360    0.0000 C   0  0  0  0  0  0  0  0  0  0  0  0
    0.6130    1.3360    0.0000 C   0  0  0  0  0  0  0  0  0  0  0  0
   -0.6860    0.5860    0.0000 C   0  0  0  0  0  0  0  0  0  0  0  0
   -1.9850    1.3360    0.0000 C   0  0  0  0  0  0  0  0  0  0  0  0
   -3.2840    0.5860    0.0000 O   0  0  0  0  0  0  0  0  0  0  0  0
   -1.9850    2.8360    0.0000 C   0  0  0  0  0  0  0  0  0  0  0  0
   -0.6860    3.5860    0.0000 C   0  0  0  0  0  0  0  0  0  0  0  0
  1  2  2  0  0  0  0
  2  3  1  0  0  0  0
  2  5  1  0  0  0  0
  3  4  1  0  0  0  0
  5  6  1  0  0  0  0
  6  7  1  0  0  0  0
  6 12  2  0  0  0  0
  7  8  2  0  0  0  0
  8  9  1  0  0  0  0
  9 10  1  0  0  0  0
  9 11  2  0  0  0  0
 11 12  1  0  0  0  0
M  END
>  <name>
O=C(NO)Cc1ccc([O;ether])cc1

>  <apo>
1

>  <freq>
1

>  <freq0>
0

>  <freq1>
1

>  <freqA>
0.99887151

>  <a_count>
21

$$$$

  MOE2015           2D

 13 13  0  0  1  0  0  0  0  0999 V2000
    0.0000    0.0000    0.0000 O   0  0  0  0  0  0  0  0  0  0  0  0
    1.5000    0.0000    0.0000 C   0  0  0  0  0  0  0  0  0  0  0  0
    2.2500    1.2990    0.0000 O   0  0  0  0  0  0  0  0  0  0  0  0
    2.2500   -1.2990    0.0000 C   0  0  3  0  0  0  0  0  0  0  0  0
    1.5000   -2.5980    0.0000 C   0  0  0  0  0  0  0  0  0  0  0  0
    0.0000   -2.5980    0.0000 O   0  0  0  0  0  0  0  0  0  0  0  0
    3.7500   -1.2990    0.0000 C   0  0  0  0  0  0  0  0  0  0  0  0
    4.5000    0.0000    0.0000 C   0  0  0  0  0  0  0  0  0  0  0  0
    6.0000    0.0000    0.0000 C   0  0  0  0  0  0  0  0  0  0  0  0
    6.7500   -1.2990    0.0000 C   0  0  0  0  0  0  0  0  0  0  0  0
    8.2500   -1.2990    0.0000 O   0  0  0  0  0  0  0  0  0  0  0  0
    6.0000   -2.5980    0.0000 C   0  0  0  0  0  0  0  0  0  0  0  0
    4.5000   -2.5980    0.0000 C   0  0  0  0  0  0  0  0  0  0  0  0
  1  2  2  0  0  0  0
  2  3  1  0  0  0  0
  2  4  1  0  0  0  0
  4  5  1  0  0  0  0
  4  7  1  0  0  0  0
  5  6  2  0  0  0  0
  7  8  1  0  0  0  0
  7 13  2  0  0  0  0
  8  9  2  0  0  0  0
  9 10  1  0  0  0  0
 10 11  1  0  0  0  0
 10 12  2  0  0  0  0
 12 13  1  0  0  0  0
M  END
>  <name>
O=C(O)C([C;amide]=O)c1ccc(O)cc1

>  <apo>
1

>  <freq>
1

>  <freq0>
0

>  <freq1>
1

>  <freqA>
0.99887151

>  <a_count>
21

$$$$

  MOE2015           2D

 10  9  0  0  1  0  0  0  0  0999 V2000
   -0.7430   -0.7430    0.0000 O   0  0  0  0  0  0  0  0  0  0  0  0
   -0.7430   -2.2430    0.0000 C   0  0  0  0  0  0  0  0  0  0  0  0
   -2.0420   -2.9930    0.0000 O   0  0  0  0  0  0  0  0  0  0  0  0
    0.5560   -2.9930    0.0000 C   0  0  0  0  0  0  0  0  0  0  0  0
    1.8550   -2.2430    0.0000 C   0  0  2  0  0  0  0  0  0  0  0  0
    3.1540   -2.9930    0.0000 C   0  0  2  0  0  0  0  0  0  0  0  0
    3.1540   -4.4930    0.0000 N   0  0  0  0  0  0  0  0  0  0  0  0
    4.4530   -2.2430    0.0000 C   0  0  0  0  0  0  0  0  0  0  0  0
    5.7520   -2.9930    0.0000 O   0  0  0  0  0  0  0  0  0  0  0  0
    1.8550   -0.7430    0.0000 C   0  0  0  0  0  0  0  0  0  0  0  0
  1  2  2  0  0  0  0
  2  3  1  0  0  0  0
  2  4  1  0  0  0  0
  4  5  1  0  0  0  0
  5  6  1  0  0  0  0
  5 10  1  1  0  0  0
  6  7  1  1  0  0  0
  6  8  1  0  0  0  0
  8  9  2  0  0  0  0
M  END
>  <name>
O=C(O)C[C@H]([C@H]([N;amide])[C;amide]=O)C

>  <apo>
2

>  <freq>
1

>  <freq0>
0

>  <freq1>
1

>  <freqA>
0.99887151

>  <a_count>
21

$$$$

  MOE2015           2D

 11 11  0  0  1  0  0  0  0  0999 V2000
    5.7270    3.3070    0.0000 O   0  0  0  0  0  0  0  0  0  0  0  0
    4.9770    2.0080    0.0000 C   0  0  0  0  0  0  0  0  0  0  0  0
    5.7270    0.7090    0.0000 O   0  0  0  0  0  0  0  0  0  0  0  0
    3.4770    2.0080    0.0000 C   0  0  2  0  0  0  0  0  0  0  0  0
    2.7270    0.7090    0.0000 C   0  0  1  0  0  0  0  0  0  0  0  0
    3.4770   -0.5900    0.0000 O   0  0  0  0  0  0  0  0  0  0  0  0
    1.2270    0.7090    0.0000 C   0  0  1  0  0  0  0  0  0  0  0  0
    0.4770   -0.5900    0.0000 O   0  0  0  0  0  0  0  0  0  0  0  0
    0.4770    2.0080    0.0000 C   0  0  0  0  0  0  0  0  0  0  0  0
    1.2270    3.3070    0.0000 C   0  0  0  0  0  0  0  0  0  0  0  0
    2.7270    3.3070    0.0000 O   0  0  0  0  0  0  0  0  0  0  0  0
  1  2  2  0  0  0  0
  2  3  1  0  0  0  0
  4  2  1  6  0  0  0
  4  5  1  0  0  0  0
  4 11  1  0  0  0  0
  5  6  1  1  0  0  0
  5  7  1  0  0  0  0
  7  8  1  1  0  0  0
  7  9  1  0  0  0  0
  9 10  1  0  0  0  0
 10 11  1  0  0  0  0
M  END
>  <name>
O=C(O)[C@@H]1[C@@H](O)[C@@H](O)[C;ether][C;ether]O1

>  <apo>
2

>  <freq>
1

>  <freq0>
0

>  <freq1>
1

>  <freqA>
0.99887151

>  <a_count>
21

$$$$

  MOE2015           2D

 13 13  0  0  0  0  0  0  0  0999 V2000
   -0.7500   -3.8970    0.0000 O   0  0  0  0  0  0  0  0  0  0  0  0
    0.0000   -2.5980    0.0000 C   0  0  0  0  0  0  0  0  0  0  0  0
   -0.7500   -1.2990    0.0000 O   0  0  0  0  0  0  0  0  0  0  0  0
    1.5000   -2.5980    0.0000 C   0  0  0  0  0  0  0  0  0  0  0  0
    2.2500   -1.2990    0.0000 C   0  0  0  0  0  0  0  0  0  0  0  0
    1.5000    0.0000    0.0000 O   0  0  0  0  0  0  0  0  0  0  0  0
    3.7500   -1.2990    0.0000 C   0  0  0  0  0  0  0  0  0  0  0  0
    4.5000   -2.5980    0.0000 C   0  0  0  0  0  0  0  0  0  0  0  0
    6.0000   -2.5980    0.0000 C   0  0  0  0  0  0  0  0  0  0  0  0
    6.7500   -3.8970    0.0000 C   0  0  0  0  0  0  0  0  0  0  0  0
    8.2500   -3.8970    0.0000 O   0  0  0  0  0  0  0  0  0  0  0  0
    3.7500   -3.8970    0.0000 C   0  0  0  0  0  0  0  0  0  0  0  0
    2.2500   -3.8970    0.0000 C   0  0  0  0  0  0  0  0  0  0  0  0
  1  2  2  0  0  0  0
  2  3  1  0  0  0  0
  2  4  1  0  0  0  0
  4  5  1  0  0  0  0
  4 13  2  0  0  0  0
  5  6  1  0  0  0  0
  5  7  2  0  0  0  0
  7  8  1  0  0  0  0
  8  9  1  0  0  0  0
  8 12  2  0  0  0  0
  9 10  1  0  0  0  0
 10 11  2  0  0  0  0
 12 13  1  0  0  0  0
M  END
>  <name>
O=C(O)c1c([O;ether])cc(C[C;amide]=O)cc1

>  <apo>
2

>  <freq>
1

>  <freq0>
0

>  <freq1>
1

>  <freqA>
0.99887151

>  <a_count>
21

$$$$

  MOE2015           2D

 13 14  0  0  0  0  0  0  0  0999 V2000
    7.2690    4.1970    0.0000 O   0  0  0  0  0  0  0  0  0  0  0  0
    6.5190    2.8980    0.0000 C   0  0  0  0  0  0  0  0  0  0  0  0
    7.2690    1.5990    0.0000 O   0  0  0  0  0  0  0  0  0  0  0  0
    5.0190    2.8980    0.0000 C   0  0  0  0  0  0  0  0  0  0  0  0
    4.2690    1.5990    0.0000 C   0  0  0  0  0  0  0  0  0  0  0  0
    2.7690    1.5990    0.0000 C   0  0  0  0  0  0  0  0  0  0  0  0
    2.0190    2.8980    0.0000 C   0  0  0  0  0  0  0  0  0  0  0  0
    2.7690    4.1970    0.0000 C   0  0  0  0  0  0  0  0  0  0  0  0
    4.2690    4.1970    0.0000 C   0  0  0  0  0  0  0  0  0  0  0  0
    0.5190    2.8980    0.0000 C   0  0  0  0  0  0  0  0  0  0  0  0
   -0.2310    1.5990    0.0000 C   0  0  0  0  0  0  0  0  0  0  0  0
    0.5190    0.3000    0.0000 C   0  0  0  0  0  0  0  0  0  0  0  0
    2.0190    0.3000    0.0000 C   0  0  0  0  0  0  0  0  0  0  0  0
  1  2  2  0  0  0  0
  2  3  1  0  0  0  0
  2  4  1  0  0  0  0
  4  5  1  0  0  0  0
  4  9  2  0  0  0  0
  5  6  2  0  0  0  0
  6  7  1  0  0  0  0
  6 13  1  0  0  0  0
  7  8  2  0  0  0  0
  7 10  1  0  0  0  0
  8  9  1  0  0  0  0
 10 11  2  0  0  0  0
 11 12  1  0  0  0  0
 12 13  2  0  0  0  0
M  END
>  <name>
O=C(O)c1cc2c(cc1)c[c;biphenyl]cc2

>  <apo>
1

>  <freq>
1

>  <freq0>
0

>  <freq1>
1

>  <freqA>
0.99887151

>  <a_count>
21

$$$$

  MOE2015           2D

 14 15  0  0  0  0  0  0  0  0999 V2000
    7.9160    1.9720    0.0000 O   0  0  0  0  0  0  0  0  0  0  0  0
    7.1660    3.2710    0.0000 C   0  0  0  0  0  0  0  0  0  0  0  0
    7.9160    4.5700    0.0000 O   0  0  0  0  0  0  0  0  0  0  0  0
    5.6660    3.2710    0.0000 C   0  0  0  0  0  0  0  0  0  0  0  0
    4.9160    4.5700    0.0000 C   0  0  0  0  0  0  0  0  0  0  0  0
    3.4160    4.5700    0.0000 C   0  0  0  0  0  0  0  0  0  0  0  0
    2.6660    3.2710    0.0000 C   0  0  0  0  0  0  0  0  0  0  0  0
    1.1660    3.2710    0.0000 N   0  0  0  0  0  0  0  0  0  0  0  0
    0.2840    2.0580    0.0000 N   0  0  0  0  0  0  0  0  0  0  0  0
   -1.1430    2.5210    0.0000 C   0  0  0  0  0  0  0  0  0  0  0  0
   -1.1430    4.0210    0.0000 N   0  0  0  0  0  0  0  0  0  0  0  0
    0.2840    4.4850    0.0000 C   0  0  0  0  0  0  0  0  0  0  0  0
    3.4160    1.9720    0.0000 C   0  0  0  0  0  0  0  0  0  0  0  0
    4.9160    1.9720    0.0000 C   0  0  0  0  0  0  0  0  0  0  0  0
  1  2  2  0  0  0  0
  2  3  1  0  0  0  0
  2  4  1  0  0  0  0
  4  5  1  0  0  0  0
  4 14  2  0  0  0  0
  5  6  2  0  0  0  0
  6  7  1  0  0  0  0
  7  8  1  0  0  0  0
  7 13  2  0  0  0  0
  8  9  1  0  0  0  0
  8 12  1  0  0  0  0
  9 10  2  0  0  0  0
 10 11  1  0  0  0  0
 11 12  2  0  0  0  0
 13 14  1  0  0  0  0
M  END
>  <name>
O=C(O)c1ccc(-n2n[c;biphenyl]n[c;biphenyl]2)cc1

>  <apo>
2

>  <freq>
1

>  <freq0>
0

>  <freq1>
1

>  <freqA>
0.99887151

>  <a_count>
21

$$$$

  MOE2015           2D

  9  8  0  0  1  0  0  0  0  0999 V2000
    1.6500   -1.6500    0.0000 O   0  0  0  0  0  0  0  0  0  0  0  0
    1.6500   -0.1500    0.0000 C   0  0  0  0  0  0  0  0  0  0  0  0
    2.9490    0.6000    0.0000 C   0  0  1  0  0  0  0  0  0  0  0  0
    4.2480   -0.1500    0.0000 C   0  0  0  0  0  0  0  0  0  0  0  0
    5.5470    0.6000    0.0000 O   0  0  0  0  0  0  0  0  0  0  0  0
    2.9490    2.1000    0.0000 C   0  0  0  0  0  0  0  0  0  0  0  0
    0.3510    0.6000    0.0000 C   0  0  0  0  0  0  0  0  0  0  0  0
   -0.9480   -0.1500    0.0000 C   0  0  0  0  0  0  0  0  0  0  0  0
    0.3510    2.1000    0.0000 C   0  0  0  0  0  0  0  0  0  0  0  0
  1  2  2  0  0  0  0
  2  3  1  0  0  0  0
  2  7  1  0  0  0  0
  3  4  1  0  0  0  0
  3  6  1  6  0  0  0
  4  5  2  0  0  0  0
  7  8  1  0  0  0  0
  7  9  1  0  0  0  0
M  END
>  <name>
O=C([C@@H]([C;ester]=O)C)C([C;ether])C

>  <apo>
2

>  <freq>
1

>  <freq0>
0

>  <freq1>
1

>  <freqA>
0.99887151

>  <a_count>
21

$$$$

  MOE2015           2D

 11 11  0  0  0  0  0  0  0  0999 V2000
    4.0450    1.3280    0.0000 O   0  0  0  0  0  0  0  0  0  0  0  0
    4.0250    2.8280    0.0000 C   0  0  0  0  0  0  0  0  0  0  0  0
    2.7160    3.5610    0.0000 N   0  0  0  0  0  0  0  0  0  0  0  0
    1.4270    2.7940    0.0000 C   0  0  0  0  0  0  0  0  0  0  0  0
    0.0490    3.3850    0.0000 C   0  0  0  0  0  0  0  0  0  0  0  0
   -0.2820    4.8480    0.0000 C   0  0  0  0  0  0  0  0  0  0  0  0
   -0.9400    2.2580    0.0000 C   0  0  0  0  0  0  0  0  0  0  0  0
   -2.4330    2.3950    0.0000 C   0  0  0  0  0  0  0  0  0  0  0  0
   -0.1730    0.9690    0.0000 N   0  0  0  0  0  0  0  0  0  0  0  0
    1.2900    1.3000    0.0000 O   0  0  0  0  0  0  0  0  0  0  0  0
    5.3140    3.5950    0.0000 C   0  0  0  0  0  0  0  0  0  0  0  0
  1  2  2  0  0  0  0
  2  3  1  0  0  0  0
  2 11  1  0  0  0  0
  3  4  1  0  0  0  0
  4  5  2  0  0  0  0
  4 10  1  0  0  0  0
  5  6  1  0  0  0  0
  5  7  1  0  0  0  0
  7  8  1  0  0  0  0
  7  9  2  0  0  0  0
  9 10  1  0  0  0  0
M  END
>  <name>
O=C([N;so2amide]c1c(C)c(C)no1)C

>  <apo>
1

>  <freq>
1

>  <freq0>
0

>  <freq1>
1

>  <freqA>
0.99887151

>  <a_count>
21

$$$$

  MOE2015           2D

 14 15  0  0  0  0  0  0  0  0999 V2000
    0.2000   -0.4270    0.0000 O   0  0  0  0  0  0  0  0  0  0  0  0
    1.1610    0.7250    0.0000 C   0  0  0  0  0  0  0  0  0  0  0  0
    2.6580    0.6240    0.0000 N   0  0  0  0  0  0  0  0  0  0  0  0
    3.4560   -0.6460    0.0000 N   0  0  0  0  0  0  0  0  0  0  0  0
    4.9550   -0.5900    0.0000 C   0  0  0  0  0  0  0  0  0  0  0  0
    5.6550    0.7360    0.0000 C   0  0  0  0  0  0  0  0  0  0  0  0
    7.1400    0.9480    0.0000 O   0  0  0  0  0  0  0  0  0  0  0  0
    7.3970    2.4260    0.0000 C   0  0  0  0  0  0  0  0  0  0  0  0
    6.0710    3.1270    0.0000 C   0  0  0  0  0  0  0  0  0  0  0  0
    4.9950    2.0820    0.0000 C   0  0  0  0  0  0  0  0  0  0  0  0
    3.2160    2.0160    0.0000 C   0  0  0  0  0  0  0  0  0  0  0  0
    2.0650    2.9770    0.0000 C   0  0  0  0  0  0  0  0  0  0  0  0
    2.1650    4.4740    0.0000 O   0  0  0  0  0  0  0  0  0  0  0  0
    0.7940    2.1790    0.0000 N   0  0  0  0  0  0  0  0  0  0  0  0
  1  2  2  0  0  0  0
  2  3  1  0  0  0  0
  2 14  1  0  0  0  0
  3  4  1  0  0  0  0
  3 11  1  0  0  0  0
  4  5  2  0  0  0  0
  5  6  1  0  0  0  0
  6  7  1  0  0  0  0
  6 10  2  0  0  0  0
  7  8  1  0  0  0  0
  8  9  2  0  0  0  0
  9 10  1  0  0  0  0
 11 12  1  0  0  0  0
 12 13  2  0  0  0  0
 12 14  1  0  0  0  0
M  END
>  <name>
O=C1N(/N=C\c2o[c;biphenyl]cc2)CC(=O)N1

>  <apo>
1

>  <freq>
1

>  <freq0>
0

>  <freq1>
1

>  <freqA>
0.99887151

>  <a_count>
21

$$$$

  MOE2015           2D

 12 13  0  0  0  0  0  0  0  0999 V2000
    8.0000    0.8660    0.0000 O   0  0  0  0  0  0  0  0  0  0  0  0
    6.5000    0.8660    0.0000 C   0  0  0  0  0  0  0  0  0  0  0  0
    5.7500   -0.4330    0.0000 N   0  0  0  0  0  0  0  0  0  0  0  0
    4.2500   -0.4330    0.0000 C   0  0  0  0  0  0  0  0  0  0  0  0
    3.5000    0.8660    0.0000 C   0  0  0  0  0  0  0  0  0  0  0  0
    2.0000    0.8660    0.0000 C   0  0  0  0  0  0  0  0  0  0  0  0
    1.2500    2.1650    0.0000 O   0  0  0  0  0  0  0  0  0  0  0  0
    1.2500   -0.4330    0.0000 C   0  0  0  0  0  0  0  0  0  0  0  0
    2.0000   -1.7320    0.0000 C   0  0  0  0  0  0  0  0  0  0  0  0
    3.5000   -1.7320    0.0000 C   0  0  0  0  0  0  0  0  0  0  0  0
    4.2500    2.1650    0.0000 C   0  0  0  0  0  0  0  0  0  0  0  0
    5.7500    2.1650    0.0000 C   0  0  0  0  0  0  0  0  0  0  0  0
  1  2  2  0  0  0  0
  2  3  1  0  0  0  0
  2 12  1  0  0  0  0
  3  4  1  0  0  0  0
  4  5  1  0  0  0  0
  4 10  2  0  0  0  0
  5  6  2  0  0  0  0
  5 11  1  0  0  0  0
  6  7  1  0  0  0  0
  6  8  1  0  0  0  0
  8  9  2  0  0  0  0
  9 10  1  0  0  0  0
 11 12  1  0  0  0  0
M  END
>  <name>
O=C1Nc2c(c([O;ether])ccc2)CC1

>  <apo>
1

>  <freq>
1

>  <freq0>
0

>  <freq1>
1

>  <freqA>
0.99887151

>  <a_count>
21

$$$$

  MOE2015           2D

 12 13  0  0  0  0  0  0  0  0999 V2000
    0.2280   -0.8500    0.0000 O   0  0  0  0  0  0  0  0  0  0  0  0
    1.5270   -0.1000    0.0000 C   0  0  0  0  0  0  0  0  0  0  0  0
    2.8260   -0.8500    0.0000 N   0  0  0  0  0  0  0  0  0  0  0  0
    4.1250   -0.1000    0.0000 C   0  0  0  0  0  0  0  0  0  0  0  0
    4.1250    1.4000    0.0000 C   0  0  0  0  0  0  0  0  0  0  0  0
    5.4240    2.1500    0.0000 C   0  0  0  0  0  0  0  0  0  0  0  0
    6.7230    1.4000    0.0000 C   0  0  0  0  0  0  0  0  0  0  0  0
    8.0220    2.1500    0.0000 O   0  0  0  0  0  0  0  0  0  0  0  0
    6.7230   -0.1000    0.0000 C   0  0  0  0  0  0  0  0  0  0  0  0
    5.4240   -0.8500    0.0000 C   0  0  0  0  0  0  0  0  0  0  0  0
    2.8260    2.1500    0.0000 C   0  0  0  0  0  0  0  0  0  0  0  0
    1.5270    1.4000    0.0000 C   0  0  0  0  0  0  0  0  0  0  0  0
  1  2  2  0  0  0  0
  2  3  1  0  0  0  0
  2 12  1  0  0  0  0
  3  4  1  0  0  0  0
  4  5  1  0  0  0  0
  4 10  2  0  0  0  0
  5  6  2  0  0  0  0
  5 11  1  0  0  0  0
  6  7  1  0  0  0  0
  7  8  1  0  0  0  0
  7  9  2  0  0  0  0
  9 10  1  0  0  0  0
 11 12  1  0  0  0  0
M  END
>  <name>
O=C1Nc2c(cc([O;ether])cc2)CC1

>  <apo>
1

>  <freq>
1

>  <freq0>
0

>  <freq1>
1

>  <freqA>
0.99887151

>  <a_count>
21

$$$$

  MOE2015           2D

 12 13  0  0  0  0  0  0  0  0999 V2000
    0.1030   -0.3840    0.0000 O   0  0  0  0  0  0  0  0  0  0  0  0
    1.4020    0.3660    0.0000 C   0  0  0  0  0  0  0  0  0  0  0  0
    2.7010   -0.3840    0.0000 N   0  0  0  0  0  0  0  0  0  0  0  0
    4.0000    0.3660    0.0000 C   0  0  0  0  0  0  0  0  0  0  0  0
    4.0000    1.8660    0.0000 C   0  0  0  0  0  0  0  0  0  0  0  0
    5.2990    2.6160    0.0000 C   0  0  0  0  0  0  0  0  0  0  0  0
    6.5980    1.8660    0.0000 C   0  0  0  0  0  0  0  0  0  0  0  0
    6.5980    0.3660    0.0000 C   0  0  0  0  0  0  0  0  0  0  0  0
    7.8970   -0.3840    0.0000 O   0  0  0  0  0  0  0  0  0  0  0  0
    5.2990   -0.3840    0.0000 C   0  0  0  0  0  0  0  0  0  0  0  0
    2.7010    2.6160    0.0000 C   0  0  0  0  0  0  0  0  0  0  0  0
    1.4020    1.8660    0.0000 C   0  0  0  0  0  0  0  0  0  0  0  0
  1  2  2  0  0  0  0
  2  3  1  0  0  0  0
  2 12  1  0  0  0  0
  3  4  1  0  0  0  0
  4  5  1  0  0  0  0
  4 10  2  0  0  0  0
  5  6  2  0  0  0  0
  5 11  1  0  0  0  0
  6  7  1  0  0  0  0
  7  8  2  0  0  0  0
  8  9  1  0  0  0  0
  8 10  1  0  0  0  0
 11 12  1  0  0  0  0
M  END
>  <name>
O=C1Nc2c(ccc([O;ether])c2)CC1

>  <apo>
1

>  <freq>
1

>  <freq0>
0

>  <freq1>
1

>  <freqA>
0.99887151

>  <a_count>
21

$$$$

  MOE2015           2D

 11 11  0  0  1  0  0  0  0  0999 V2000
    6.6820   -2.5980    0.0000 O   0  0  0  0  0  0  0  0  0  0  0  0
    5.1820   -2.5980    0.0000 C   0  0  0  0  0  0  0  0  0  0  0  0
    4.4320   -1.2990    0.0000 C   0  0  3  0  0  0  0  0  0  0  0  0
    5.1820    0.0000    0.0000 C   0  0  0  0  0  0  0  0  0  0  0  0
    6.6820    0.0000    0.0000 O   0  0  0  0  0  0  0  0  0  0  0  0
    2.9320   -1.2990    0.0000 C   0  0  0  0  0  0  0  0  0  0  0  0
    2.1820   -2.5980    0.0000 C   0  0  0  0  0  0  0  0  0  0  0  0
    0.6820   -2.5980    0.0000 C   0  0  0  0  0  0  0  0  0  0  0  0
   -0.0680   -1.2990    0.0000 C   0  0  0  0  0  0  0  0  0  0  0  0
    0.6820    0.0000    0.0000 C   0  0  0  0  0  0  0  0  0  0  0  0
    2.1820    0.0000    0.0000 C   0  0  0  0  0  0  0  0  0  0  0  0
  1  2  2  0  0  0  0
  2  3  1  0  0  0  0
  3  4  1  0  0  0  0
  3  6  1  0  0  0  0
  4  5  1  0  0  0  0
  6  7  1  0  0  0  0
  6 11  2  0  0  0  0
  7  8  2  0  0  0  0
  8  9  1  0  0  0  0
  9 10  2  0  0  0  0
 10 11  1  0  0  0  0
M  END
>  <name>
O=[C;amide]C(CO)c1ccccc1

>  <apo>
1

>  <freq>
1

>  <freq0>
0

>  <freq1>
1

>  <freqA>
0.99887151

>  <a_count>
21

$$$$

  MOE2015           2D

  9  8  0  0  1  0  0  0  0  0999 V2000
    6.4030   -0.8820    0.0000 O   0  0  0  0  0  0  0  0  0  0  0  0
    5.1040   -1.6320    0.0000 C   0  0  0  0  0  0  0  0  0  0  0  0
    3.8050   -0.8820    0.0000 C   0  0  3  0  0  0  0  0  0  0  0  0
    3.8050    0.6180    0.0000 O   0  0  0  0  0  0  0  0  0  0  0  0
    2.5060   -1.6320    0.0000 C   0  0  0  0  0  0  0  0  0  0  0  0
    1.2070   -2.3820    0.0000 C   0  0  0  0  0  0  0  0  0  0  0  0
   -0.0920   -1.6320    0.0000 O   0  0  0  0  0  0  0  0  0  0  0  0
    3.2560   -2.9310    0.0000 C   0  0  0  0  0  0  0  0  0  0  0  0
    1.7560   -0.3330    0.0000 C   0  0  0  0  0  0  0  0  0  0  0  0
  1  2  2  0  0  0  0
  2  3  1  0  0  0  0
  3  4  1  0  0  0  0
  3  5  1  0  0  0  0
  5  6  1  0  0  0  0
  5  8  1  0  0  0  0
  5  9  1  0  0  0  0
  6  7  1  0  0  0  0
M  END
>  <name>
O=[C;amide]C(O)C(CO)(C)C

>  <apo>
1

>  <freq>
1

>  <freq0>
0

>  <freq1>
1

>  <freqA>
0.99887151

>  <a_count>
21

$$$$

  MOE2015           2D

  8  7  0  0  0  0  0  0  0  0999 V2000
   -0.4220    1.5740    0.0000 O   0  0  0  0  0  0  0  0  0  0  0  0
    0.8770    2.3240    0.0000 C   0  0  0  0  0  0  0  0  0  0  0  0
    2.1760    1.5740    0.0000 C   0  0  0  0  0  0  0  0  0  0  0  0
    3.4750    2.3240    0.0000 C   0  0  0  0  0  0  0  0  0  0  0  0
    4.7750    1.5740    0.0000 C   0  0  0  0  0  0  0  0  0  0  0  0
    6.0740    2.3240    0.0000 C   0  0  0  0  0  0  0  0  0  0  0  0
    7.3730    1.5740    0.0000 C   0  0  0  0  0  0  0  0  0  0  0  0
    8.6720    2.3240    0.0000 N   0  0  0  0  0  0  0  0  0  0  0  0
  1  2  2  0  0  0  0
  2  3  1  0  0  0  0
  3  4  1  0  0  0  0
  4  5  1  0  0  0  0
  5  6  1  0  0  0  0
  6  7  1  0  0  0  0
  7  8  1  0  0  0  0
M  END
>  <name>
O=[C;amide][C;amine]CCCCN

>  <apo>
2

>  <freq>
1

>  <freq0>
0

>  <freq1>
1

>  <freqA>
0.99887151

>  <a_count>
21

$$$$

  MOE2015           2D

  8  7  0  0  1  0  0  0  0  0999 V2000
   -0.4530   -1.6920    0.0000 O   0  0  0  0  0  0  0  0  0  0  0  0
    0.8460   -2.4420    0.0000 C   0  0  0  0  0  0  0  0  0  0  0  0
    2.1450   -1.6920    0.0000 C   0  0  1  0  0  0  0  0  0  0  0  0
    2.1450   -0.1920    0.0000 N   0  0  0  0  0  0  0  0  0  0  0  0
    3.4440   -2.4420    0.0000 C   0  0  0  0  0  0  0  0  0  0  0  0
    4.7430   -1.6920    0.0000 C   0  0  0  0  0  0  0  0  0  0  0  0
    6.0420   -2.4420    0.0000 C   0  0  0  0  0  0  0  0  0  0  0  0
    7.3410   -1.6920    0.0000 C   0  0  0  0  0  0  0  0  0  0  0  0
  1  2  2  0  0  0  0
  2  3  1  0  0  0  0
  3  4  1  1  0  0  0
  3  5  1  0  0  0  0
  5  6  1  0  0  0  0
  6  7  1  0  0  0  0
  7  8  1  0  0  0  0
M  END
>  <name>
O=[C;amide][C@@H]([N;amide])CCCC

>  <apo>
2

>  <freq>
1

>  <freq0>
0

>  <freq1>
1

>  <freqA>
0.99887151

>  <a_count>
21

$$$$

  MOE2015           2D

  9  8  0  0  1  0  0  0  0  0999 V2000
   -0.5640   -2.1040    0.0000 O   0  0  0  0  0  0  0  0  0  0  0  0
    0.7350   -2.8540    0.0000 C   0  0  0  0  0  0  0  0  0  0  0  0
    2.0340   -2.1040    0.0000 C   0  0  1  0  0  0  0  0  0  0  0  0
    2.0340   -0.6040    0.0000 N   0  0  0  0  0  0  0  0  0  0  0  0
    3.3330   -2.8540    0.0000 C   0  0  0  0  0  0  0  0  0  0  0  0
    4.6320   -2.1040    0.0000 C   0  0  1  0  0  0  0  0  0  0  0  0
    4.6320   -0.6040    0.0000 O   0  0  0  0  0  0  0  0  0  0  0  0
    5.9310   -2.8540    0.0000 C   0  0  0  0  0  0  0  0  0  0  0  0
    7.2300   -2.1040    0.0000 N   0  0  0  0  0  0  0  0  0  0  0  0
  1  2  2  0  0  0  0
  2  3  1  0  0  0  0
  3  4  1  1  0  0  0
  3  5  1  0  0  0  0
  5  6  1  0  0  0  0
  6  7  1  1  0  0  0
  6  8  1  0  0  0  0
  8  9  1  0  0  0  0
M  END
>  <name>
O=[C;amide][C@@H]([N;amide])C[C@@H](O)[C;amine][N;amide]

>  <apo>
4

>  <freq>
1

>  <freq0>
0

>  <freq1>
1

>  <freqA>
0.99887151

>  <a_count>
21

$$$$

  MOE2015           2D

  9  8  0  0  1  0  0  0  0  0999 V2000
   -0.3360    1.2540    0.0000 O   0  0  0  0  0  0  0  0  0  0  0  0
    0.9630    2.0040    0.0000 C   0  0  0  0  0  0  0  0  0  0  0  0
    2.2620    1.2540    0.0000 C   0  0  1  0  0  0  0  0  0  0  0  0
    2.2620   -0.2460    0.0000 N   0  0  0  0  0  0  0  0  0  0  0  0
    3.5610    2.0040    0.0000 C   0  0  2  0  0  0  0  0  0  0  0  0
    3.5610    3.5040    0.0000 O   0  0  0  0  0  0  0  0  0  0  0  0
    4.8600    1.2540    0.0000 C   0  0  0  0  0  0  0  0  0  0  0  0
    6.1590    2.0040    0.0000 C   0  0  0  0  0  0  0  0  0  0  0  0
    7.4580    1.2540    0.0000 N   0  0  0  0  0  0  0  0  0  0  0  0
  1  2  2  0  0  0  0
  2  3  1  0  0  0  0
  3  4  1  6  0  0  0
  3  5  1  0  0  0  0
  5  6  1  6  0  0  0
  5  7  1  0  0  0  0
  7  8  1  0  0  0  0
  8  9  1  0  0  0  0
M  END
>  <name>
O=[C;amide][C@@H]([N;amide])[C@H](O)CCN

>  <apo>
2

>  <freq>
1

>  <freq0>
0

>  <freq1>
1

>  <freqA>
0.99887151

>  <a_count>
21

$$$$

  MOE2015           2D

  8  7  0  0  1  0  0  0  0  0999 V2000
    5.6420    1.5120    0.0000 O   0  0  0  0  0  0  0  0  0  0  0  0
    4.3430    0.7620    0.0000 C   0  0  0  0  0  0  0  0  0  0  0  0
    3.0440    1.5120    0.0000 C   0  0  1  0  0  0  0  0  0  0  0  0
    3.0440    3.0120    0.0000 N   0  0  0  0  0  0  0  0  0  0  0  0
    1.7440    0.7620    0.0000 C   0  0  0  0  0  0  0  0  0  0  0  0
    0.9940    2.0610    0.0000 C   0  0  0  0  0  0  0  0  0  0  0  0
    0.4450    0.0120    0.0000 C   0  0  0  0  0  0  0  0  0  0  0  0
    2.4940   -0.5370    0.0000 C   0  0  0  0  0  0  0  0  0  0  0  0
  1  2  2  0  0  0  0
  2  3  1  0  0  0  0
  3  4  1  6  0  0  0
  3  5  1  0  0  0  0
  5  6  1  0  0  0  0
  5  7  1  0  0  0  0
  5  8  1  0  0  0  0
M  END
>  <name>
O=[C;amide][C@@H]([N;urea])C(C)(C)C

>  <apo>
2

>  <freq>
1

>  <freq0>
0

>  <freq1>
1

>  <freqA>
0.99887151

>  <a_count>
21

$$$$

  MOE2015           2D

 10 10  0  0  1  0  0  0  0  0999 V2000
    7.3500   -2.3380    0.0000 O   0  0  0  0  0  0  0  0  0  0  0  0
    5.8500   -2.3380    0.0000 C   0  0  0  0  0  0  0  0  0  0  0  0
    5.1000   -1.0390    0.0000 C   0  0  2  0  0  0  0  0  0  0  0  0
    5.8500    0.2600    0.0000 N   0  0  0  0  0  0  0  0  0  0  0  0
    3.6000   -1.0390    0.0000 C   0  0  0  0  0  0  0  0  0  0  0  0
    2.8500   -2.3380    0.0000 C   0  0  0  0  0  0  0  0  0  0  0  0
    1.3500   -2.3380    0.0000 C   0  0  0  0  0  0  0  0  0  0  0  0
    0.6000   -1.0390    0.0000 C   0  0  0  0  0  0  0  0  0  0  0  0
    1.3500    0.2600    0.0000 C   0  0  0  0  0  0  0  0  0  0  0  0
    2.8500    0.2600    0.0000 C   0  0  0  0  0  0  0  0  0  0  0  0
  1  2  2  0  0  0  0
  2  3  1  0  0  0  0
  3  4  1  1  0  0  0
  3  5  1  0  0  0  0
  5  6  2  0  0  0  0
  5 10  1  0  0  0  0
  6  7  1  0  0  0  0
  7  8  1  0  0  0  0
  8  9  2  0  0  0  0
  9 10  1  0  0  0  0
M  END
>  <name>
O=[C;amide][C@H](N)C1=CCC=CC1

>  <apo>
1

>  <freq>
1

>  <freq0>
0

>  <freq1>
1

>  <freqA>
0.99887151

>  <a_count>
21

$$$$

  MOE2015           2D

 10 10  0  0  1  0  0  0  0  0999 V2000
    6.7670    2.8630    0.0000 O   0  0  0  0  0  0  0  0  0  0  0  0
    5.4680    3.6130    0.0000 C   0  0  0  0  0  0  0  0  0  0  0  0
    4.1690    2.8630    0.0000 C   0  0  1  0  0  0  0  0  0  0  0  0
    4.1690    1.3630    0.0000 N   0  0  0  0  0  0  0  0  0  0  0  0
    2.8700    0.6130    0.0000 C   0  0  0  0  0  0  0  0  0  0  0  0
    1.5710    1.3630    0.0000 C   0  0  1  0  0  0  0  0  0  0  0  0
    0.2720    0.6130    0.0000 C   0  0  0  0  0  0  0  0  0  0  0  0
    1.5710    2.8630    0.0000 C   0  0  0  0  0  0  0  0  0  0  0  0
    0.2720    3.6130    0.0000 O   0  0  0  0  0  0  0  0  0  0  0  0
    2.8700    3.6130    0.0000 C   0  0  0  0  0  0  0  0  0  0  0  0
  1  2  2  0  0  0  0
  3  2  1  1  0  0  0
  3  4  1  0  0  0  0
  3 10  1  0  0  0  0
  4  5  1  0  0  0  0
  5  6  1  0  0  0  0
  6  7  1  1  0  0  0
  6  8  1  0  0  0  0
  8  9  2  0  0  0  0
  8 10  1  0  0  0  0
M  END
>  <name>
O=[C;amide][C@H]1[N;amide]C[C@@H]([C;thioether])C(=O)C1

>  <apo>
3

>  <freq>
1

>  <freq0>
0

>  <freq1>
1

>  <freqA>
0.99887151

>  <a_count>
21

$$$$

  MOE2015           2D

 10 10  0  0  0  0  0  0  0  0999 V2000
    0.5600   -3.3380    0.0000 O   0  0  0  0  0  0  0  0  0  0  0  0
    1.9780   -2.8480    0.0000 C   0  0  0  0  0  0  0  0  0  0  0  0
    2.2630   -1.3760    0.0000 C   0  0  0  0  0  0  0  0  0  0  0  0
    3.6220   -0.7410    0.0000 C   0  0  0  0  0  0  0  0  0  0  0  0
    4.9340   -1.4670    0.0000 C   0  0  0  0  0  0  0  0  0  0  0  0
    6.2200   -0.6940    0.0000 C   0  0  0  0  0  0  0  0  0  0  0  0
    4.9610   -2.9670    0.0000 C   0  0  0  0  0  0  0  0  0  0  0  0
    3.4380    0.7480    0.0000 N   0  0  0  0  0  0  0  0  0  0  0  0
    1.9660    1.0330    0.0000 C   0  0  0  0  0  0  0  0  0  0  0  0
    1.2390   -0.2790    0.0000 C   0  0  0  0  0  0  0  0  0  0  0  0
  1  2  2  0  0  0  0
  2  3  1  0  0  0  0
  3  4  2  0  0  0  0
  3 10  1  0  0  0  0
  4  5  1  0  0  0  0
  4  8  1  0  0  0  0
  5  6  1  0  0  0  0
  5  7  1  0  0  0  0
  8  9  1  0  0  0  0
  9 10  2  0  0  0  0
M  END
>  <name>
O=[C;amide]c1c(C(C)C)[nH;NaroC][c;biphenyl][c;biphenyl]1

>  <apo>
4

>  <freq>
1

>  <freq0>
0

>  <freq1>
1

>  <freqA>
0.99887151

>  <a_count>
21

$$$$

  MOE2015           2D

 10 10  0  0  0  0  0  0  0  0999 V2000
    5.8330   -1.4370    0.0000 O   0  0  0  0  0  0  0  0  0  0  0  0
    4.5040   -0.7400    0.0000 C   0  0  0  0  0  0  0  0  0  0  0  0
    3.2370   -1.5420    0.0000 C   0  0  0  0  0  0  0  0  0  0  0  0
    1.8430   -0.9880    0.0000 C   0  0  0  0  0  0  0  0  0  0  0  0
    1.4720    0.4660    0.0000 C   0  0  0  0  0  0  0  0  0  0  0  0
    0.8850   -2.1420    0.0000 C   0  0  0  0  0  0  0  0  0  0  0  0
   -0.6120   -2.0460    0.0000 C   0  0  0  0  0  0  0  0  0  0  0  0
    1.6870   -3.4100    0.0000 N   0  0  0  0  0  0  0  0  0  0  0  0
    3.1400   -3.0390    0.0000 C   0  0  0  0  0  0  0  0  0  0  0  0
    4.2940   -3.9970    0.0000 C   0  0  0  0  0  0  0  0  0  0  0  0
  1  2  2  0  0  0  0
  2  3  1  0  0  0  0
  3  4  1  0  0  0  0
  3  9  2  0  0  0  0
  4  5  1  0  0  0  0
  4  6  2  0  0  0  0
  6  7  1  0  0  0  0
  6  8  1  0  0  0  0
  8  9  1  0  0  0  0
  9 10  1  0  0  0  0
M  END
>  <name>
O=[C;amide]c1c(C)c([C;olefin])[nH]c1C

>  <apo>
2

>  <freq>
1

>  <freq0>
0

>  <freq1>
1

>  <freqA>
0.99887151

>  <a_count>
21

$$$$

  MOE2015           2D

 13 14  0  0  0  0  0  0  0  0999 V2000
    0.0000   -3.3970    0.0000 O   0  0  0  0  0  0  0  0  0  0  0  0
    1.5000   -3.3970    0.0000 C   0  0  0  0  0  0  0  0  0  0  0  0
    2.2500   -2.0980    0.0000 C   0  0  0  0  0  0  0  0  0  0  0  0
    1.5000   -0.7990    0.0000 C   0  0  0  0  0  0  0  0  0  0  0  0
    0.0000   -0.7990    0.0000 O   0  0  0  0  0  0  0  0  0  0  0  0
    2.2500    0.5000    0.0000 C   0  0  0  0  0  0  0  0  0  0  0  0
    3.7500    0.5000    0.0000 C   0  0  0  0  0  0  0  0  0  0  0  0
    4.5000   -0.7990    0.0000 C   0  0  0  0  0  0  0  0  0  0  0  0
    3.7500   -2.0980    0.0000 C   0  0  0  0  0  0  0  0  0  0  0  0
    4.5000   -3.3970    0.0000 C   0  0  0  0  0  0  0  0  0  0  0  0
    6.0000   -3.3970    0.0000 C   0  0  0  0  0  0  0  0  0  0  0  0
    6.7500   -2.0980    0.0000 C   0  0  0  0  0  0  0  0  0  0  0  0
    6.0000   -0.7990    0.0000 C   0  0  0  0  0  0  0  0  0  0  0  0
  1  2  2  0  0  0  0
  2  3  1  0  0  0  0
  3  4  2  0  0  0  0
  3  9  1  0  0  0  0
  4  5  1  0  0  0  0
  4  6  1  0  0  0  0
  6  7  2  0  0  0  0
  7  8  1  0  0  0  0
  8  9  1  0  0  0  0
  8 13  2  0  0  0  0
  9 10  2  0  0  0  0
 10 11  1  0  0  0  0
 11 12  2  0  0  0  0
 12 13  1  0  0  0  0
M  END
>  <name>
O=[C;amide]c1c([O;ether])ccc2c1cccc2

>  <apo>
2

>  <freq>
1

>  <freq0>
0

>  <freq1>
1

>  <freqA>
0.99887151

>  <a_count>
21

$$$$

  MOE2015           2D

 11 11  0  0  0  0  0  0  0  0999 V2000
    7.3560   -2.5170    0.0000 O   0  0  0  0  0  0  0  0  0  0  0  0
    6.0570   -3.2670    0.0000 C   0  0  0  0  0  0  0  0  0  0  0  0
    4.7580   -2.5170    0.0000 C   0  0  0  0  0  0  0  0  0  0  0  0
    3.4590   -3.2670    0.0000 C   0  0  0  0  0  0  0  0  0  0  0  0
    2.1600   -2.5170    0.0000 C   0  0  0  0  0  0  0  0  0  0  0  0
    0.8610   -3.2670    0.0000 C   0  0  0  0  0  0  0  0  0  0  0  0
    0.8610   -4.7670    0.0000 C   0  0  0  0  0  0  0  0  0  0  0  0
    2.1600   -1.0170    0.0000 C   0  0  0  0  0  0  0  0  0  0  0  0
    0.8610   -0.2670    0.0000 O   0  0  0  0  0  0  0  0  0  0  0  0
    3.4590   -0.2670    0.0000 C   0  0  0  0  0  0  0  0  0  0  0  0
    4.7580   -1.0170    0.0000 C   0  0  0  0  0  0  0  0  0  0  0  0
  1  2  2  0  0  0  0
  2  3  1  0  0  0  0
  3  4  1  0  0  0  0
  3 11  2  0  0  0  0
  4  5  2  0  0  0  0
  5  6  1  0  0  0  0
  5  8  1  0  0  0  0
  6  7  1  0  0  0  0
  8  9  1  0  0  0  0
  8 10  2  0  0  0  0
 10 11  1  0  0  0  0
M  END
>  <name>
O=[C;amide]c1cc(C[C;olefin])c(O)cc1

>  <apo>
2

>  <freq>
1

>  <freq0>
0

>  <freq1>
1

>  <freqA>
0.99887151

>  <a_count>
21

$$$$

  MOE2015           2D

 11 11  0  0  0  0  0  0  0  0999 V2000
   10.6140    0.9350    0.0000 O   0  0  0  0  0  0  0  0  0  0  0  0
    9.3150    1.6850    0.0000 C   0  0  0  0  0  0  0  0  0  0  0  0
    8.0160    0.9350    0.0000 C   0  0  0  0  0  0  0  0  0  0  0  0
    6.7170    1.6850    0.0000 C   0  0  0  0  0  0  0  0  0  0  0  0
    5.4180    0.9350    0.0000 N   0  0  0  0  0  0  0  0  0  0  0  0
    4.1190    1.6850    0.0000 C   0  0  0  0  0  0  0  0  0  0  0  0
    2.8200    0.9350    0.0000 N   0  0  0  0  0  0  0  0  0  0  0  0
    1.5210    1.6850    0.0000 C   0  0  0  0  0  0  0  0  0  0  0  0
    1.5210    3.1850    0.0000 C   0  0  0  0  0  0  0  0  0  0  0  0
    2.8200    3.9350    0.0000 C   0  0  0  0  0  0  0  0  0  0  0  0
    4.1190    3.1850    0.0000 C   0  0  0  0  0  0  0  0  0  0  0  0
  1  2  2  0  0  0  0
  2  3  1  0  0  0  0
  3  4  1  0  0  0  0
  4  5  1  0  0  0  0
  5  6  1  0  0  0  0
  6  7  1  0  0  0  0
  6 11  2  0  0  0  0
  7  8  2  0  0  0  0
  8  9  1  0  0  0  0
  9 10  2  0  0  0  0
 10 11  1  0  0  0  0
M  END
>  <name>
O=[C;ester]CC[N;amide]c1ncccc1

>  <apo>
2

>  <freq>
1

>  <freq0>
0

>  <freq1>
1

>  <freqA>
0.99887151

>  <a_count>
21

$$$$

  MOE2015           2D

 10  9  0  0  0  0  0  0  0  0999 V2000
    7.0500    0.0000    0.0000 O   0  0  0  0  0  0  0  0  0  0  0  0
    5.5500    0.0000    0.0000 N   0  3  0  0  0  0  0  0  0  0  0  0
    4.8000   -1.2990    0.0000 O   0  5  0  0  0  0  0  0  0  0  0  0
    4.8000    1.2990    0.0000 C   0  0  0  0  0  0  0  0  0  0  0  0
    3.3000    1.2990    0.0000 C   0  0  0  0  0  0  0  0  0  0  0  0
    2.5500    0.0000    0.0000 N   0  0  0  0  0  0  0  0  0  0  0  0
    1.0500    0.0000    0.0000 C   0  0  0  0  0  0  0  0  0  0  0  0
    0.3000   -1.2990    0.0000 C   0  0  0  0  0  0  0  0  0  0  0  0
    2.5500    2.5980    0.0000 N   0  0  0  0  0  0  0  0  0  0  0  0
    3.3000    3.8970    0.0000 C   0  0  0  0  0  0  0  0  0  0  0  0
  1  2  2  0  0  0  0
  2  3  1  0  0  0  0
  2  4  1  0  0  0  0
  4  5  2  0  0  0  0
  5  6  1  0  0  0  0
  5  9  1  0  0  0  0
  6  7  1  0  0  0  0
  7  8  1  0  0  0  0
  9 10  1  0  0  0  0
M  CHG  1   2   1
M  CHG  1   3  -1
M  END
>  <name>
O=[N+]([O-])/C=C(\NC[C;thioether])/NC

>  <apo>
1

>  <freq>
1

>  <freq0>
0

>  <freq1>
1

>  <freqA>
0.99887151

>  <a_count>
21

$$$$

  MOE2015           2D

 10  9  0  0  0  0  0  0  0  0999 V2000
   -1.0500   -1.8190    0.0000 O   0  0  0  0  0  0  0  0  0  0  0  0
   -0.3000   -3.1180    0.0000 N   0  3  0  0  0  0  0  0  0  0  0  0
   -1.0500   -4.4170    0.0000 O   0  5  0  0  0  0  0  0  0  0  0  0
    1.2000   -3.1180    0.0000 C   0  0  0  0  0  0  0  0  0  0  0  0
    1.9500   -1.8190    0.0000 C   0  0  0  0  0  0  0  0  0  0  0  0
    3.4500   -1.8190    0.0000 N   0  0  0  0  0  0  0  0  0  0  0  0
    4.2000   -3.1180    0.0000 C   0  0  0  0  0  0  0  0  0  0  0  0
    5.7000   -3.1180    0.0000 C   0  0  0  0  0  0  0  0  0  0  0  0
    1.2000   -0.5200    0.0000 N   0  0  0  0  0  0  0  0  0  0  0  0
    1.9500    0.7790    0.0000 C   0  0  0  0  0  0  0  0  0  0  0  0
  1  2  2  0  0  0  0
  2  3  1  0  0  0  0
  2  4  1  0  0  0  0
  4  5  2  0  0  0  0
  5  6  1  0  0  0  0
  5  9  1  0  0  0  0
  6  7  1  0  0  0  0
  7  8  1  0  0  0  0
  9 10  1  0  0  0  0
M  CHG  1   2   1
M  CHG  1   3  -1
M  END
>  <name>
O=[N+]([O-])C=C(NC[C;thioether])NC

>  <apo>
1

>  <freq>
1

>  <freq0>
0

>  <freq1>
1

>  <freqA>
0.99887151

>  <a_count>
21

$$$$

  MOE2015           2D

  7  6  0  0  1  0  0  0  0  0999 V2000
    0.3210   -2.0410    0.0000 O   0  0  0  0  0  0  0  0  0  0  0  0
    1.0710   -0.7420    0.0000 C   0  0  3  0  0  0  0  0  0  0  0  0
    2.5710   -0.7420    0.0000 C   0  0  0  0  0  0  0  0  0  0  0  0
    4.0710   -0.7420    0.0000 C   0  0  0  0  0  0  0  0  0  0  0  0
    2.5710    0.7580    0.0000 C   0  0  0  0  0  0  0  0  0  0  0  0
    2.5710   -2.2420    0.0000 C   0  0  0  0  0  0  0  0  0  0  0  0
    0.3210    0.5570    0.0000 C   0  0  0  0  0  0  0  0  0  0  0  0
  1  2  1  0  0  0  0
  2  3  1  0  0  0  0
  2  7  1  0  0  0  0
  3  4  1  0  0  0  0
  3  5  1  0  0  0  0
  3  6  1  0  0  0  0
M  END
>  <name>
OC(C(C)(C)C)[C;olefin]

>  <apo>
1

>  <freq>
1

>  <freq0>
0

>  <freq1>
1

>  <freqA>
0.99887151

>  <a_count>
21

$$$$

  MOE2015           2D

  7  6  0  0  0  0  0  0  0  0999 V2000
    2.1430    2.1430    0.0000 O   0  0  0  0  0  0  0  0  0  0  0  0
    2.1430    0.6430    0.0000 C   0  0  0  0  0  0  0  0  0  0  0  0
    0.6430    0.6430    0.0000 C   0  0  0  0  0  0  0  0  0  0  0  0
   -0.1070   -0.6560    0.0000 C   0  0  0  0  0  0  0  0  0  0  0  0
   -0.1070    1.9420    0.0000 C   0  0  0  0  0  0  0  0  0  0  0  0
    3.6430    0.6430    0.0000 C   0  0  0  0  0  0  0  0  0  0  0  0
    2.1430   -0.8570    0.0000 C   0  0  0  0  0  0  0  0  0  0  0  0
  1  2  1  0  0  0  0
  2  3  1  0  0  0  0
  2  6  1  0  0  0  0
  2  7  1  0  0  0  0
  3  4  1  0  0  0  0
  3  5  1  0  0  0  0
M  END
>  <name>
OC(C([C;olefin])C)(C)C

>  <apo>
1

>  <freq>
1

>  <freq0>
0

>  <freq1>
1

>  <freqA>
0.99887151

>  <a_count>
21

$$$$

  MOE2015           2D

 11 11  0  0  1  0  0  0  0  0999 V2000
    6.1360   -3.5430    0.0000 O   0  0  0  0  0  0  0  0  0  0  0  0
    5.3860   -2.2440    0.0000 C   0  0  3  0  0  0  0  0  0  0  0  0
    6.1360   -0.9450    0.0000 C   0  0  0  0  0  0  0  0  0  0  0  0
    3.8860   -2.2440    0.0000 C   0  0  0  0  0  0  0  0  0  0  0  0
    3.1360   -0.9450    0.0000 C   0  0  0  0  0  0  0  0  0  0  0  0
    1.6360   -0.9450    0.0000 C   0  0  0  0  0  0  0  0  0  0  0  0
    0.8860    0.3540    0.0000 O   0  0  0  0  0  0  0  0  0  0  0  0
    0.8860   -2.2440    0.0000 C   0  0  0  0  0  0  0  0  0  0  0  0
   -0.6140   -2.2440    0.0000 O   0  0  0  0  0  0  0  0  0  0  0  0
    1.6360   -3.5430    0.0000 C   0  0  0  0  0  0  0  0  0  0  0  0
    3.1360   -3.5430    0.0000 C   0  0  0  0  0  0  0  0  0  0  0  0
  1  2  1  0  0  0  0
  2  3  1  0  0  0  0
  2  4  1  0  0  0  0
  4  5  1  0  0  0  0
  4 11  2  0  0  0  0
  5  6  2  0  0  0  0
  6  7  1  0  0  0  0
  6  8  1  0  0  0  0
  8  9  1  0  0  0  0
  8 10  2  0  0  0  0
 10 11  1  0  0  0  0
M  END
>  <name>
OC([C;amine])c1cc([O;ester])c([O;ester])cc1

>  <apo>
3

>  <freq>
1

>  <freq0>
0

>  <freq1>
1

>  <freqA>
0.99887151

>  <a_count>
21

$$$$

  MOE2015           2D

 10 10  0  0  1  0  0  0  0  0999 V2000
   -0.3750    3.2480    0.0000 O   0  0  0  0  0  0  0  0  0  0  0  0
    0.3750    1.9490    0.0000 C   0  0  3  0  0  0  0  0  0  0  0  0
   -0.3750    0.6500    0.0000 C   0  0  0  0  0  0  0  0  0  0  0  0
    1.8750    1.9490    0.0000 C   0  0  0  0  0  0  0  0  0  0  0  0
    2.6250    0.6500    0.0000 C   0  0  0  0  0  0  0  0  0  0  0  0
    4.1250    0.6500    0.0000 C   0  0  0  0  0  0  0  0  0  0  0  0
    4.8750    1.9490    0.0000 C   0  0  0  0  0  0  0  0  0  0  0  0
    6.3750    1.9490    0.0000 N   0  0  0  0  0  0  0  0  0  0  0  0
    4.1250    3.2480    0.0000 C   0  0  0  0  0  0  0  0  0  0  0  0
    2.6250    3.2480    0.0000 C   0  0  0  0  0  0  0  0  0  0  0  0
  1  2  1  0  0  0  0
  2  3  1  0  0  0  0
  2  4  1  0  0  0  0
  4  5  1  0  0  0  0
  4 10  2  0  0  0  0
  5  6  2  0  0  0  0
  6  7  1  0  0  0  0
  7  8  1  0  0  0  0
  7  9  2  0  0  0  0
  9 10  1  0  0  0  0
M  END
>  <name>
OC([C;amine])c1ccc([N;so2amide])cc1

>  <apo>
2

>  <freq>
1

>  <freq0>
0

>  <freq1>
1

>  <freqA>
0.99887151

>  <a_count>
21

$$$$

  MOE2015           2D

  9  9  0  0  1  0  0  0  0  0999 V2000
    4.6350   -3.4090    0.0000 O   0  0  0  0  0  0  0  0  0  0  0  0
    3.1350   -3.4090    0.0000 C   0  0  0  0  0  0  0  0  0  0  0  0
    2.3850   -2.1100    0.0000 C   0  0  2  0  0  0  0  0  0  0  0  0
    0.8930   -1.9540    0.0000 C   0  0  1  0  0  0  0  0  0  0  0  0
   -0.1100   -3.0680    0.0000 O   0  0  0  0  0  0  0  0  0  0  0  0
    0.5810   -0.4860    0.0000 C   0  0  0  0  0  0  0  0  0  0  0  0
    1.8810    0.2640    0.0000 C   0  0  0  0  0  0  0  0  0  0  0  0
    2.9950   -0.7400    0.0000 C   0  0  0  0  0  0  0  0  0  0  0  0
    4.4620   -0.4280    0.0000 C   0  0  0  0  0  0  0  0  0  0  0  0
  1  2  1  0  0  0  0
  3  2  1  6  0  0  0
  3  4  1  0  0  0  0
  3  8  1  0  0  0  0
  4  5  1  1  0  0  0
  4  6  1  0  0  0  0
  6  7  1  0  0  0  0
  7  8  1  0  0  0  0
  8  9  2  0  0  0  0
M  END
>  <name>
OC[C@@H]1[C@@H](O)C[C;NaroC]C1=C

>  <apo>
1

>  <freq>
1

>  <freq0>
0

>  <freq1>
1

>  <freqA>
0.99887151

>  <a_count>
21

$$$$

  MOE2015           2D

  9  9  0  0  1  0  0  0  0  0999 V2000
    5.0360    1.3690    0.0000 O   0  0  0  0  0  0  0  0  0  0  0  0
    3.7420    0.6100    0.0000 C   0  0  0  0  0  0  0  0  0  0  0  0
    2.4380    1.3500    0.0000 C   0  0  1  0  0  0  0  0  0  0  0  0
    2.3960   -0.1490    0.0000 O   0  0  0  0  0  0  0  0  0  0  0  0
    0.9540    1.5740    0.0000 C   0  0  2  0  0  0  0  0  0  0  0  0
   -0.0980    0.5050    0.0000 C   0  0  0  0  0  0  0  0  0  0  0  0
    0.7090    3.0530    0.0000 O   0  0  0  0  0  0  0  0  0  0  0  0
    2.0400    3.7440    0.0000 C   0  0  0  0  0  0  0  0  0  0  0  0
    3.1090    2.6920    0.0000 C   0  0  0  0  0  0  0  0  0  0  0  0
  1  2  1  0  0  0  0
  3  2  1  1  0  0  0
  3  4  1  6  0  0  0
  3  5  1  0  0  0  0
  3  9  1  0  0  0  0
  5  6  1  6  0  0  0
  5  7  1  0  0  0  0
  7  8  1  0  0  0  0
  8  9  1  0  0  0  0
M  END
>  <name>
OC[C@@]1(O)[C@H](C)O[C;ether][C;ether]1

>  <apo>
2

>  <freq>
1

>  <freq0>
0

>  <freq1>
1

>  <freqA>
0.99887151

>  <a_count>
21

$$$$

  MOE2015           2D

  8  8  0  0  1  0  0  0  0  0999 V2000
    5.4110   -0.8000    0.0000 O   0  0  0  0  0  0  0  0  0  0  0  0
    4.1120   -0.0500    0.0000 C   0  0  2  0  0  0  0  0  0  0  0  0
    2.8120   -0.8000    0.0000 C   0  0  0  0  0  0  0  0  0  0  0  0
    1.5130   -0.0500    0.0000 C   0  0  1  0  0  0  0  0  0  0  0  0
    0.2140   -0.8000    0.0000 N   0  0  0  0  0  0  0  0  0  0  0  0
    1.5130    1.4500    0.0000 C   0  0  0  0  0  0  0  0  0  0  0  0
    2.8120    2.2000    0.0000 C   0  0  0  0  0  0  0  0  0  0  0  0
    4.1120    1.4500    0.0000 C   0  0  0  0  0  0  0  0  0  0  0  0
  2  1  1  6  0  0  0
  2  3  1  0  0  0  0
  2  8  1  0  0  0  0
  3  4  1  0  0  0  0
  4  5  1  1  0  0  0
  4  6  1  0  0  0  0
  6  7  1  0  0  0  0
  7  8  1  0  0  0  0
M  END
>  <name>
O[C@@H]1[C;ether][C@@H](N)C[C;amine][C;ether]1

>  <apo>
3

>  <freq>
1

>  <freq0>
0

>  <freq1>
1

>  <freqA>
0.99887151

>  <a_count>
21

$$$$

  MOE2015           2D

  9  9  0  0  1  0  0  0  0  0999 V2000
    2.3330   -2.3330    0.0000 O   0  0  0  0  0  0  0  0  0  0  0  0
    2.3330   -0.8330    0.0000 C   0  0  2  0  0  0  0  0  0  0  0  0
    3.6320   -0.0830    0.0000 C   0  0  1  0  0  0  0  0  0  0  0  0
    4.9310   -0.8330    0.0000 C   0  0  0  0  0  0  0  0  0  0  0  0
    3.6320    1.4170    0.0000 O   0  0  0  0  0  0  0  0  0  0  0  0
    2.3330    2.1670    0.0000 C   0  0  0  0  0  0  0  0  0  0  0  0
    1.0340    1.4170    0.0000 C   0  0  0  0  0  0  0  0  0  0  0  0
    1.0340   -0.0830    0.0000 C   0  0  1  0  0  0  0  0  0  0  0  0
   -0.2650   -0.8330    0.0000 O   0  0  0  0  0  0  0  0  0  0  0  0
  2  1  1  1  0  0  0
  2  3  1  0  0  0  0
  2  8  1  0  0  0  0
  3  4  1  6  0  0  0
  3  5  1  0  0  0  0
  5  6  1  0  0  0  0
  6  7  1  0  0  0  0
  7  8  1  0  0  0  0
  8  9  1  6  0  0  0
M  END
>  <name>
O[C@@H]1[C@@H](C)O[C;ether]C[C@H]1O

>  <apo>
1

>  <freq>
1

>  <freq0>
0

>  <freq1>
1

>  <freqA>
0.99887151

>  <a_count>
21

$$$$

  MOE2015           2D

  9  9  0  0  1  0  0  0  0  0999 V2000
    1.3330    2.3090    0.0000 O   0  0  0  0  0  0  0  0  0  0  0  0
    2.0830    1.0100    0.0000 C   0  0  2  0  0  0  0  0  0  0  0  0
    1.3330   -0.2890    0.0000 C   0  0  2  0  0  0  0  0  0  0  0  0
   -0.1670   -0.2890    0.0000 O   0  0  0  0  0  0  0  0  0  0  0  0
    2.0830   -1.5880    0.0000 C   0  0  0  0  0  0  0  0  0  0  0  0
    3.5830   -1.5880    0.0000 O   0  0  0  0  0  0  0  0  0  0  0  0
    4.3330   -0.2890    0.0000 C   0  0  2  0  0  0  0  0  0  0  0  0
    5.8330   -0.2890    0.0000 C   0  0  0  0  0  0  0  0  0  0  0  0
    3.5830    1.0100    0.0000 C   0  0  0  0  0  0  0  0  0  0  0  0
  2  1  1  1  0  0  0
  2  3  1  0  0  0  0
  2  9  1  0  0  0  0
  3  4  1  1  0  0  0
  3  5  1  0  0  0  0
  5  6  1  0  0  0  0
  6  7  1  0  0  0  0
  7  8  1  1  0  0  0
  7  9  1  0  0  0  0
M  END
>  <name>
O[C@@H]1[C@H](O)[C;ether]O[C@H](C)[C;amine]1

>  <apo>
2

>  <freq>
1

>  <freq0>
0

>  <freq1>
1

>  <freqA>
0.99887151

>  <a_count>
21

$$$$

  MOE2015           2D

  8  8  0  0  1  0  0  0  0  0999 V2000
    5.4110   -0.8000    0.0000 O   0  0  0  0  0  0  0  0  0  0  0  0
    4.1120   -0.0500    0.0000 C   0  0  1  0  0  0  0  0  0  0  0  0
    2.8120   -0.8000    0.0000 C   0  0  0  0  0  0  0  0  0  0  0  0
    1.5130   -0.0500    0.0000 C   0  0  2  0  0  0  0  0  0  0  0  0
    0.2140   -0.8000    0.0000 N   0  0  0  0  0  0  0  0  0  0  0  0
    1.5130    1.4500    0.0000 C   0  0  0  0  0  0  0  0  0  0  0  0
    2.8120    2.2000    0.0000 C   0  0  0  0  0  0  0  0  0  0  0  0
    4.1120    1.4500    0.0000 C   0  0  0  0  0  0  0  0  0  0  0  0
  2  1  1  1  0  0  0
  2  3  1  0  0  0  0
  2  8  1  0  0  0  0
  3  4  1  0  0  0  0
  4  5  1  6  0  0  0
  4  6  1  0  0  0  0
  6  7  1  0  0  0  0
  7  8  1  0  0  0  0
M  END
>  <name>
O[C@H]1C[C@H](N)CC[C;thioether]1

>  <apo>
1

>  <freq>
1

>  <freq0>
0

>  <freq1>
1

>  <freqA>
0.99887151

>  <a_count>
21

$$$$

  MOE2015           2D

  9  9  0  0  1  0  0  0  0  0999 V2000
    2.3330   -2.3330    0.0000 O   0  0  0  0  0  0  0  0  0  0  0  0
    2.3330   -0.8330    0.0000 C   0  0  1  0  0  0  0  0  0  0  0  0
    3.6320   -0.0830    0.0000 C   0  0  1  0  0  0  0  0  0  0  0  0
    4.9310   -0.8330    0.0000 C   0  0  0  0  0  0  0  0  0  0  0  0
    3.6320    1.4170    0.0000 O   0  0  0  0  0  0  0  0  0  0  0  0
    2.3330    2.1670    0.0000 C   0  0  0  0  0  0  0  0  0  0  0  0
    1.0340    1.4170    0.0000 C   0  0  0  0  0  0  0  0  0  0  0  0
    1.0340   -0.0830    0.0000 C   0  0  2  0  0  0  0  0  0  0  0  0
   -0.2650   -0.8330    0.0000 O   0  0  0  0  0  0  0  0  0  0  0  0
  2  1  1  6  0  0  0
  2  3  1  0  0  0  0
  2  8  1  0  0  0  0
  3  4  1  6  0  0  0
  3  5  1  0  0  0  0
  5  6  1  0  0  0  0
  6  7  1  0  0  0  0
  7  8  1  0  0  0  0
  8  9  1  1  0  0  0
M  END
>  <name>
O[C@H]1[C@@H](C)O[C;ether]C[C@@H]1[O;ester]

>  <apo>
2

>  <freq>
1

>  <freq0>
0

>  <freq1>
1

>  <freqA>
0.99887151

>  <a_count>
21

$$$$

  MOE2015           2D

 11 11  0  0  0  0  0  0  0  0999 V2000
    1.0230    1.7710    0.0000 O   0  0  0  0  0  0  0  0  0  0  0  0
    1.7730    0.4720    0.0000 C   0  0  0  0  0  0  0  0  0  0  0  0
    1.0230   -0.8270    0.0000 C   0  0  0  0  0  0  0  0  0  0  0  0
   -0.4770   -0.8270    0.0000 C   0  0  0  0  0  0  0  0  0  0  0  0
    1.7730   -2.1260    0.0000 C   0  0  0  0  0  0  0  0  0  0  0  0
    3.2730   -2.1260    0.0000 C   0  0  0  0  0  0  0  0  0  0  0  0
    4.0230   -0.8270    0.0000 C   0  0  0  0  0  0  0  0  0  0  0  0
    5.5230   -0.8270    0.0000 C   0  0  0  0  0  0  0  0  0  0  0  0
    6.2730   -2.1260    0.0000 N   0  0  0  0  0  0  0  0  0  0  0  0
    6.2730    0.4720    0.0000 N   0  0  0  0  0  0  0  0  0  0  0  0
    3.2730    0.4720    0.0000 C   0  0  0  0  0  0  0  0  0  0  0  0
  1  2  1  0  0  0  0
  2  3  1  0  0  0  0
  2 11  2  0  0  0  0
  3  4  1  0  0  0  0
  3  5  2  0  0  0  0
  5  6  1  0  0  0  0
  6  7  2  0  0  0  0
  7  8  1  0  0  0  0
  7 11  1  0  0  0  0
  8  9  2  0  0  0  0
  8 10  1  0  0  0  0
M  END
>  <name>
Oc1c([C;olefin])ccc(C(=N)N)c1

>  <apo>
1

>  <freq>
1

>  <freq0>
0

>  <freq1>
1

>  <freqA>
0.99887151

>  <a_count>
21

$$$$

  MOE2015           2D

  8  9  0  0  0  0  0  0  0  0999 V2000
   -1.5660   -0.1530    0.0000 N   0  3  0  0  0  0  0  0  0  0  0  0
   -2.0330   -1.5480    0.0000 C   0  0  0  0  0  0  0  0  0  0  0  0
   -0.7110   -1.1320    0.0000 C   0  0  0  0  0  0  0  0  0  0  0  0
   -0.2670    0.2470    0.0000 N   0  0  0  0  0  0  0  0  0  0  0  0
   -1.0520    1.6020    0.0000 C   0  0  0  0  0  0  0  0  0  0  0  0
   -2.3720    1.2660    0.0000 C   0  0  0  0  0  0  0  0  0  0  0  0
    1.3300    0.3530    0.0000 C   0  0  0  0  0  0  0  0  0  0  0  0
    0.3040   -0.1990    0.0000 C   0  0  0  0  0  0  0  0  0  0  0  0
  1  2  1  0  0  0  0
  1  6  1  0  0  0  0
  1  8  1  0  0  0  0
  2  3  1  0  0  0  0
  3  4  1  0  0  0  0
  4  5  1  0  0  0  0
  4  7  1  0  0  0  0
  5  6  1  0  0  0  0
  7  8  1  0  0  0  0
M  CHG  1   1   1
M  END
>  <name>
[N+;quatN]12CCN(CC1)CC2

>  <apo>
1

>  <freq>
1

>  <freq0>
0

>  <freq1>
1

>  <freqA>
0.99887151

>  <a_count>
21

$$$$

  MOE2015           2D

  9  9  0  0  0  0  0  0  0  0999 V2000
    0.9170    1.5880    0.0000 N   0  3  0  0  0  0  0  0  0  0  0  0
    1.6670    2.8870    0.0000 C   0  0  0  0  0  0  0  0  0  0  0  0
    1.6670    0.2890    0.0000 C   0  0  0  0  0  0  0  0  0  0  0  0
   -0.5830    1.5880    0.0000 C   0  0  0  0  0  0  0  0  0  0  0  0
   -1.3330    0.2890    0.0000 C   0  0  0  0  0  0  0  0  0  0  0  0
   -2.8330    0.2890    0.0000 C   0  0  0  0  0  0  0  0  0  0  0  0
   -3.5830    1.5880    0.0000 C   0  0  0  0  0  0  0  0  0  0  0  0
   -2.8330    2.8870    0.0000 C   0  0  0  0  0  0  0  0  0  0  0  0
   -1.3330    2.8870    0.0000 C   0  0  0  0  0  0  0  0  0  0  0  0
  1  2  1  0  0  0  0
  1  3  1  0  0  0  0
  1  4  2  0  0  0  0
  4  5  1  0  0  0  0
  4  9  1  0  0  0  0
  5  6  2  0  0  0  0
  6  7  1  0  0  0  0
  7  8  1  0  0  0  0
  8  9  2  0  0  0  0
M  CHG  1   1   1
M  END
>  <name>
[N+](C)(C)=C1C=C[C;olefin]C=C1

>  <apo>
1

>  <freq>
1

>  <freq0>
0

>  <freq1>
1

>  <freqA>
0.99887151

>  <a_count>
21

$$$$

  MOE2015           2D

  8  9  0  0  1  0  0  0  0  0999 V2000
   -0.6260    3.2720    0.0000 N   0  0  0  0  0  0  0  0  0  0  0  0
    0.4000    2.4490    0.0000 C   0  0  1  0  0  0  0  0  0  0  0  0
   -0.2090    1.1450    0.0000 C   0  0  0  0  0  0  0  0  0  0  0  0
   -1.3560    0.4640    0.0000 C   0  0  0  0  0  0  0  0  0  0  0  0
   -0.3890    1.7710    0.0000 C   0  0  2  0  0  0  0  0  0  0  0  0
    1.4040    1.7550    0.0000 C   0  0  0  0  0  0  0  0  0  0  0  0
    2.3520    0.9540    0.0000 C   0  0  0  0  0  0  0  0  0  0  0  0
    2.1070    2.4600    0.0000 C   0  0  0  0  0  0  0  0  0  0  0  0
  2  1  1  6  0  0  0
  1  5  1  0  0  0  0
  2  3  1  0  0  0  0
  2  8  1  0  0  0  0
  3  4  1  0  0  0  0
  4  5  1  0  0  0  0
  5  6  1  1  0  0  0
  6  7  1  0  0  0  0
  7  8  1  0  0  0  0
M  END
>  <name>
[N;amine]1[C@H]2CC[C@@H]1C[C;NaroC]C2

>  <apo>
2

>  <freq>
1

>  <freq0>
0

>  <freq1>
1

>  <freqA>
0.99887151

>  <a_count>
21

$$$$

  MOE2015           2D

 12 13  0  0  0  0  0  0  0  0999 V2000
    0.5320    4.4530    0.0000 N   0  0  0  0  0  0  0  0  0  0  0  0
    0.0690    3.0270    0.0000 C   0  0  0  0  0  0  0  0  0  0  0  0
    0.9500    1.8130    0.0000 N   0  0  0  0  0  0  0  0  0  0  0  0
    2.4500    1.8130    0.0000 C   0  0  0  0  0  0  0  0  0  0  0  0
    3.2000    3.1120    0.0000 C   0  0  0  0  0  0  0  0  0  0  0  0
    4.7000    3.1120    0.0000 C   0  0  0  0  0  0  0  0  0  0  0  0
    5.4500    1.8130    0.0000 C   0  0  0  0  0  0  0  0  0  0  0  0
    4.7000    0.5140    0.0000 C   0  0  0  0  0  0  0  0  0  0  0  0
    3.2000    0.5140    0.0000 C   0  0  0  0  0  0  0  0  0  0  0  0
    0.0690    0.6000    0.0000 N   0  0  0  0  0  0  0  0  0  0  0  0
   -1.3580    1.0630    0.0000 C   0  0  0  0  0  0  0  0  0  0  0  0
   -1.3580    2.5630    0.0000 C   0  0  0  0  0  0  0  0  0  0  0  0
  1  2  1  0  0  0  0
  2  3  1  0  0  0  0
  2 12  2  0  0  0  0
  3  4  1  0  0  0  0
  3 10  1  0  0  0  0
  4  5  1  0  0  0  0
  4  9  2  0  0  0  0
  5  6  2  0  0  0  0
  6  7  1  0  0  0  0
  7  8  2  0  0  0  0
  8  9  1  0  0  0  0
 10 11  2  0  0  0  0
 11 12  1  0  0  0  0
M  END
>  <name>
[N;so2amide]c1n(-c2ccccc2)ncc1

>  <apo>
1

>  <freq>
1

>  <freq0>
0

>  <freq1>
1

>  <freqA>
0.99887151

>  <a_count>
21

$$$$

  MOE2015           2D

  8  8  0  0  0  0  0  0  0  0999 V2000
    0.0000    0.0000    0.0000 O   0  0  0  0  0  0  0  0  0  0  0  0
    1.5000    0.0000    0.0000 C   0  0  0  0  0  0  0  0  0  0  0  0
    2.2500   -1.2990    0.0000 C   0  0  0  0  0  0  0  0  0  0  0  0
    3.7500   -1.2990    0.0000 C   0  0  0  0  0  0  0  0  0  0  0  0
    4.5000    0.0000    0.0000 N   0  0  0  0  0  0  0  0  0  0  0  0
    6.0000    0.0000    0.0000 C   0  0  0  0  0  0  0  0  0  0  0  0
    3.7500    1.2990    0.0000 C   0  0  0  0  0  0  0  0  0  0  0  0
    2.2500    1.2990    0.0000 C   0  0  0  0  0  0  0  0  0  0  0  0
  1  2  1  0  0  0  0
  2  3  1  0  0  0  0
  2  8  1  0  0  0  0
  3  4  1  0  0  0  0
  4  5  1  0  0  0  0
  5  6  1  0  0  0  0
  5  7  1  0  0  0  0
  7  8  1  0  0  0  0
M  END
>  <name>
[O;ester]C1CCN(C)CC1

>  <apo>
1

>  <freq>
1

>  <freq0>
0

>  <freq1>
1

>  <freqA>
0.99887151

>  <a_count>
21

$$$$

  MOE2015           2D

  7  6  0  0  0  0  0  0  0  0999 V2000
    0.0000   -2.5980    0.0000 O   0  0  0  0  0  0  0  0  0  0  0  0
    1.5000   -2.5980    0.0000 C   0  0  0  0  0  0  0  0  0  0  0  0
    2.2500   -1.2990    0.0000 C   0  0  0  0  0  0  0  0  0  0  0  0
    3.7500   -1.2990    0.0000 C   0  0  0  0  0  0  0  0  0  0  0  0
    4.5000   -2.5980    0.0000 C   0  0  0  0  0  0  0  0  0  0  0  0
    1.5000    0.0000    0.0000 C   0  0  0  0  0  0  0  0  0  0  0  0
    2.2500    1.2990    0.0000 C   0  0  0  0  0  0  0  0  0  0  0  0
  1  2  1  0  0  0  0
  2  3  1  0  0  0  0
  3  4  1  0  0  0  0
  3  6  1  0  0  0  0
  4  5  1  0  0  0  0
  6  7  1  0  0  0  0
M  END
>  <name>
[O;ester]CC(CC)CC

>  <apo>
1

>  <freq>
1

>  <freq0>
0

>  <freq1>
1

>  <freqA>
0.99887151

>  <a_count>
21

$$$$

  MOE2015           2D

  9  9  0  0  0  0  0  0  0  0999 V2000
    5.5000   -3.1750    0.0000 O   0  0  0  0  0  0  0  0  0  0  0  0
    4.7500   -1.8760    0.0000 C   0  0  0  0  0  0  0  0  0  0  0  0
    3.2500   -1.8760    0.0000 C   0  0  0  0  0  0  0  0  0  0  0  0
    2.5000   -0.5770    0.0000 N   0  0  0  0  0  0  0  0  0  0  0  0
    3.2500    0.7220    0.0000 C   0  0  0  0  0  0  0  0  0  0  0  0
    1.0000   -0.5770    0.0000 C   0  0  0  0  0  0  0  0  0  0  0  0
    0.2500   -1.8760    0.0000 C   0  0  0  0  0  0  0  0  0  0  0  0
    1.0000   -3.1750    0.0000 C   0  0  0  0  0  0  0  0  0  0  0  0
    2.5000   -3.1750    0.0000 N   0  0  0  0  0  0  0  0  0  0  0  0
  1  2  1  0  0  0  0
  2  3  1  0  0  0  0
  3  4  1  0  0  0  0
  3  9  2  0  0  0  0
  4  5  1  0  0  0  0
  4  6  1  0  0  0  0
  6  7  1  0  0  0  0
  7  8  1  0  0  0  0
  8  9  1  0  0  0  0
M  END
>  <name>
[O;ester]CC=1N(C)CCCN=1

>  <apo>
1

>  <freq>
1

>  <freq0>
0

>  <freq1>
1

>  <freqA>
0.99887151

>  <a_count>
21

$$$$

  MOE2015           2D

  9  9  0  0  1  0  0  0  0  0999 V2000
    2.3330   -2.3330    0.0000 O   0  0  0  0  0  0  0  0  0  0  0  0
    2.3330   -0.8330    0.0000 C   0  0  2  0  0  0  0  0  0  0  0  0
    3.6320   -0.0830    0.0000 C   0  0  1  0  0  0  0  0  0  0  0  0
    4.9310   -0.8330    0.0000 C   0  0  0  0  0  0  0  0  0  0  0  0
    3.6320    1.4170    0.0000 O   0  0  0  0  0  0  0  0  0  0  0  0
    2.3330    2.1670    0.0000 C   0  0  0  0  0  0  0  0  0  0  0  0
    1.0340    1.4170    0.0000 C   0  0  0  0  0  0  0  0  0  0  0  0
    1.0340   -0.0830    0.0000 C   0  0  2  0  0  0  0  0  0  0  0  0
   -0.2650   -0.8330    0.0000 O   0  0  0  0  0  0  0  0  0  0  0  0
  2  1  1  1  0  0  0
  2  3  1  0  0  0  0
  2  8  1  0  0  0  0
  3  4  1  6  0  0  0
  3  5  1  0  0  0  0
  5  6  1  0  0  0  0
  6  7  1  0  0  0  0
  7  8  1  0  0  0  0
  8  9  1  1  0  0  0
M  END
>  <name>
[O;ester][C@@H]1[C@@H](C)O[C;ether][C;ether][C@@H]1O

>  <apo>
3

>  <freq>
1

>  <freq0>
0

>  <freq1>
1

>  <freqA>
0.99887151

>  <a_count>
21

$$$$

  MOE2015           2D

 12 13  0  0  0  0  0  0  0  0999 V2000
    0.5320    4.4530    0.0000 O   0  0  0  0  0  0  0  0  0  0  0  0
    0.0690    3.0270    0.0000 C   0  0  0  0  0  0  0  0  0  0  0  0
    0.9500    1.8130    0.0000 C   0  0  0  0  0  0  0  0  0  0  0  0
    2.4500    1.8130    0.0000 N   0  0  0  0  0  0  0  0  0  0  0  0
    3.2000    3.1120    0.0000 C   0  0  0  0  0  0  0  0  0  0  0  0
    4.7000    3.1120    0.0000 C   0  0  0  0  0  0  0  0  0  0  0  0
    5.4500    1.8130    0.0000 O   0  0  0  0  0  0  0  0  0  0  0  0
    4.7000    0.5140    0.0000 C   0  0  0  0  0  0  0  0  0  0  0  0
    3.2000    0.5140    0.0000 C   0  0  0  0  0  0  0  0  0  0  0  0
    0.0690    0.6000    0.0000 N   0  0  0  0  0  0  0  0  0  0  0  0
   -1.3580    1.0630    0.0000 S   0  0  0  0  0  0  0  0  0  0  0  0
   -1.3580    2.5630    0.0000 N   0  0  0  0  0  0  0  0  0  0  0  0
  1  2  1  0  0  0  0
  2  3  1  0  0  0  0
  2 12  2  0  0  0  0
  3  4  1  0  0  0  0
  3 10  2  0  0  0  0
  4  5  1  0  0  0  0
  4  9  1  0  0  0  0
  5  6  1  0  0  0  0
  6  7  1  0  0  0  0
  7  8  1  0  0  0  0
  8  9  1  0  0  0  0
 10 11  1  0  0  0  0
 11 12  1  0  0  0  0
M  END
>  <name>
[O;ether]c1c(N2CCOCC2)nsn1

>  <apo>
1

>  <freq>
1

>  <freq0>
0

>  <freq1>
1

>  <freqA>
0.99887151

>  <a_count>
21

$$$$

  MOE2015           2D

 10 10  0  0  0  0  0  0  0  0999 V2000
    0.0000    0.5200    0.0000 O   0  0  0  0  0  0  0  0  0  0  0  0
    1.5000    0.5200    0.0000 C   0  0  0  0  0  0  0  0  0  0  0  0
    2.2500   -0.7790    0.0000 C   0  0  0  0  0  0  0  0  0  0  0  0
    3.7500   -0.7790    0.0000 C   0  0  0  0  0  0  0  0  0  0  0  0
    4.5000    0.5200    0.0000 C   0  0  0  0  0  0  0  0  0  0  0  0
    6.0000    0.5200    0.0000 C   0  0  0  0  0  0  0  0  0  0  0  0
    6.7500   -0.7790    0.0000 C   0  0  0  0  0  0  0  0  0  0  0  0
    8.2500   -0.7790    0.0000 N   0  0  0  0  0  0  0  0  0  0  0  0
    3.7500    1.8190    0.0000 C   0  0  0  0  0  0  0  0  0  0  0  0
    2.2500    1.8190    0.0000 C   0  0  0  0  0  0  0  0  0  0  0  0
  1  2  1  0  0  0  0
  2  3  1  0  0  0  0
  2 10  2  0  0  0  0
  3  4  2  0  0  0  0
  4  5  1  0  0  0  0
  5  6  1  0  0  0  0
  5  9  2  0  0  0  0
  6  7  1  0  0  0  0
  7  8  1  0  0  0  0
  9 10  1  0  0  0  0
M  END
>  <name>
[O;ether]c1ccc(CC[N;amide])cc1

>  <apo>
2

>  <freq>
1

>  <freq0>
0

>  <freq1>
1

>  <freqA>
0.99887151

>  <a_count>
21

$$$$

  MOE2015           2D

  7  6  0  0  0  0  0  0  0  0999 V2000
   -0.1700   -0.6350    0.0000 S   0  3  0  0  0  0  0  0  0  0  0  0
    1.1290   -1.3850    0.0000 C   0  0  0  0  0  0  0  0  0  0  0  0
    2.4280   -0.6350    0.0000 C   0  0  0  0  0  0  0  0  0  0  0  0
    3.7270   -1.3850    0.0000 C   0  0  0  0  0  0  0  0  0  0  0  0
    5.0260   -0.6350    0.0000 N   0  0  0  0  0  0  0  0  0  0  0  0
   -1.4690   -1.3850    0.0000 C   0  0  0  0  0  0  0  0  0  0  0  0
   -0.1700    0.8650    0.0000 C   0  0  0  0  0  0  0  0  0  0  0  0
  1  2  1  0  0  0  0
  1  6  1  0  0  0  0
  1  7  1  0  0  0  0
  2  3  1  0  0  0  0
  3  4  1  0  0  0  0
  4  5  1  0  0  0  0
M  CHG  1   1   1
M  END
>  <name>
[S+](CCC[N;amide])(C)C

>  <apo>
1

>  <freq>
1

>  <freq0>
0

>  <freq1>
1

>  <freqA>
0.99887151

>  <a_count>
21

$$$$

  MOE2015           2D

 13 15  0  0  0  0  0  0  0  0999 V2000
    2.2300   -1.2110    0.0000 N   0  0  0  0  0  0  0  0  0  0  0  0
    3.1740   -0.0450    0.0000 C   0  0  0  0  0  0  0  0  0  0  0  0
    2.3570    1.2130    0.0000 C   0  0  0  0  0  0  0  0  0  0  0  0
    0.9080    0.8250    0.0000 C   0  0  0  0  0  0  0  0  0  0  0  0
    0.8290   -0.6730    0.0000 C   0  0  0  0  0  0  0  0  0  0  0  0
   -0.5070   -1.3540    0.0000 C   0  0  0  0  0  0  0  0  0  0  0  0
   -1.7650   -0.5370    0.0000 C   0  0  0  0  0  0  0  0  0  0  0  0
   -1.6870    0.9610    0.0000 C   0  0  0  0  0  0  0  0  0  0  0  0
   -0.3500    1.6420    0.0000 C   0  0  0  0  0  0  0  0  0  0  0  0
    3.0380    2.5500    0.0000 C   0  0  0  0  0  0  0  0  0  0  0  0
    4.5360    2.6280    0.0000 N   0  0  0  0  0  0  0  0  0  0  0  0
    5.3530    1.3700    0.0000 C   0  0  0  0  0  0  0  0  0  0  0  0
    4.6720    0.0340    0.0000 C   0  0  0  0  0  0  0  0  0  0  0  0
  1  2  1  0  0  0  0
  1  5  1  0  0  0  0
  2  3  1  0  0  0  0
  2 13  2  0  0  0  0
  3  4  1  0  0  0  0
  3 10  2  0  0  0  0
  4  5  1  0  0  0  0
  4  9  2  0  0  0  0
  5  6  2  0  0  0  0
  6  7  1  0  0  0  0
  7  8  2  0  0  0  0
  8  9  1  0  0  0  0
 10 11  1  0  0  0  0
 11 12  2  0  0  0  0
 12 13  1  0  0  0  0
M  END
>  <name>
[nH]1c2c(c3c1c[c;biphenyl]cc3)cncc2

>  <apo>
1

>  <freq>
1

>  <freq0>
0

>  <freq1>
1

>  <freqA>
0.99887151

>  <a_count>
21

$$$$

  MOE2015           2D

  6  5  0  0  0  0  0  0  0  0999 V2000
    0.0000    0.0000    0.0000 C   0  0  0  0  0  0  0  0  0  0  0  0
    1.5000    0.0000    0.0000 C   0  0  0  0  0  0  0  0  0  0  0  0
    2.2500   -1.2990    0.0000 C   0  0  0  0  0  0  0  0  0  0  0  0
    2.2500    1.2990    0.0000 C   0  0  0  0  0  0  0  0  0  0  0  0
   -0.7500    1.2990    0.0000 C   0  0  0  0  0  0  0  0  0  0  0  0
   -0.7500   -1.2990    0.0000 C   0  0  0  0  0  0  0  0  0  0  0  0
  1  2  1  0  0  0  0
  1  5  1  0  0  0  0
  1  6  1  0  0  0  0
  2  3  1  0  0  0  0
  2  4  1  0  0  0  0
M  END
>  <name>
C(C(C)C)([C;olefin])C

>  <apo>
1

>  <freq>
1

>  <freq0>
0

>  <freq1>
1

>  <freqA>
0.99887151

>  <a_count>
20

$$$$

  MOE2015           2D

  6  5  0  0  0  0  0  0  0  0999 V2000
    0.0000    0.0000    0.0000 C   0  0  0  0  0  0  0  0  0  0  0  0
    1.5000    0.0000    0.0000 C   0  0  0  0  0  0  0  0  0  0  0  0
    2.2500   -1.2990    0.0000 C   0  0  0  0  0  0  0  0  0  0  0  0
    2.2500    1.2990    0.0000 C   0  0  0  0  0  0  0  0  0  0  0  0
   -0.7500    1.2990    0.0000 C   0  0  0  0  0  0  0  0  0  0  0  0
   -0.7500   -1.2990    0.0000 C   0  0  0  0  0  0  0  0  0  0  0  0
  1  2  1  0  0  0  0
  1  5  1  0  0  0  0
  1  6  1  0  0  0  0
  2  3  1  0  0  0  0
  2  4  1  0  0  0  0
M  END
>  <name>
C(C(C)[C;olefin])(C)C

>  <apo>
1

>  <freq>
1

>  <freq0>
0

>  <freq1>
1

>  <freqA>
0.99887151

>  <a_count>
20

$$$$

  MOE2015           2D

  9  9  0  0  0  0  0  0  0  0999 V2000
    1.3760   -1.3760    0.0000 C   0  0  0  0  0  0  0  0  0  0  0  0
    1.3760   -2.8760    0.0000 C   0  0  0  0  0  0  0  0  0  0  0  0
    1.3760    0.1240    0.0000 C   0  0  0  0  0  0  0  0  0  0  0  0
    2.8760   -1.3760    0.0000 C   0  0  0  0  0  0  0  0  0  0  0  0
   -0.1240   -1.3760    0.0000 C   0  0  0  0  0  0  0  0  0  0  0  0
   -1.0060   -2.5890    0.0000 S   0  0  0  0  0  0  0  0  0  0  0  0
   -2.4330   -2.1260    0.0000 C   0  0  0  0  0  0  0  0  0  0  0  0
   -2.4330   -0.6260    0.0000 C   0  0  0  0  0  0  0  0  0  0  0  0
   -1.0060   -0.1620    0.0000 N   0  0  0  0  0  0  0  0  0  0  0  0
  1  2  1  0  0  0  0
  1  3  1  0  0  0  0
  1  4  1  0  0  0  0
  1  5  1  0  0  0  0
  5  6  1  0  0  0  0
  5  9  2  0  0  0  0
  6  7  1  0  0  0  0
  7  8  2  0  0  0  0
  8  9  1  0  0  0  0
M  END
>  <name>
C(C)(C)(C)c1s[c;biphenyl][c;biphenyl]n1

>  <apo>
2

>  <freq>
1

>  <freq0>
0

>  <freq1>
1

>  <freqA>
0.99887151

>  <a_count>
20

$$$$

  MOE2015           2D

  9  9  0  0  0  0  0  0  0  0999 V2000
   -2.7460    1.9160    0.0000 C   0  0  0  0  0  0  0  0  0  0  0  0
   -3.4750    0.6050    0.0000 C   0  0  0  0  0  0  0  0  0  0  0  0
   -3.5160    3.2030    0.0000 C   0  0  0  0  0  0  0  0  0  0  0  0
   -1.2460    1.9400    0.0000 C   0  0  0  0  0  0  0  0  0  0  0  0
   -0.3450    0.7400    0.0000 N   0  0  0  0  0  0  0  0  0  0  0  0
    1.0740    1.2260    0.0000 C   0  0  0  0  0  0  0  0  0  0  0  0
    2.3010    0.3640    0.0000 C   0  0  0  0  0  0  0  0  0  0  0  0
    1.0500    2.7260    0.0000 N   0  0  0  0  0  0  0  0  0  0  0  0
   -0.3840    3.1670    0.0000 N   0  0  0  0  0  0  0  0  0  0  0  0
  1  2  1  0  0  0  0
  1  3  1  0  0  0  0
  1  4  1  0  0  0  0
  4  5  1  0  0  0  0
  4  9  2  0  0  0  0
  5  6  1  0  0  0  0
  6  7  1  0  0  0  0
  6  8  2  0  0  0  0
  8  9  1  0  0  0  0
M  END
>  <name>
C(C)(C)c1[nH;NaroC]c(C)nn1

>  <apo>
1

>  <freq>
1

>  <freq0>
0

>  <freq1>
1

>  <freqA>
0.99887151

>  <a_count>
20

$$$$

  MOE2015           2D

  6  5  0  0  0  0  0  0  0  0999 V2000
    0.1000   -0.3750    0.0000 C   0  0  0  0  0  0  0  0  0  0  0  0
    1.4000    0.3750    0.0000 C   0  0  0  0  0  0  0  0  0  0  0  0
    2.6990   -0.3750    0.0000 C   0  0  0  0  0  0  0  0  0  0  0  0
    3.9980    0.3750    0.0000 C   0  0  0  0  0  0  0  0  0  0  0  0
   -1.1990    0.3750    0.0000 C   0  0  0  0  0  0  0  0  0  0  0  0
   -2.4980   -0.3750    0.0000 C   0  0  0  0  0  0  0  0  0  0  0  0
  1  2  1  0  0  0  0
  1  5  1  0  0  0  0
  2  3  1  0  0  0  0
  3  4  1  0  0  0  0
  5  6  1  0  0  0  0
M  END
>  <name>
C(CCC)C[C;olefin]

>  <apo>
1

>  <freq>
1

>  <freq0>
0

>  <freq1>
1

>  <freqA>
0.99887151

>  <a_count>
20

$$$$

  MOE2015           2D

  6  5  0  0  0  0  0  0  0  0999 V2000
    0.1000   -0.3750    0.0000 C   0  0  0  0  0  0  0  0  0  0  0  0
    1.4000    0.3750    0.0000 C   0  0  0  0  0  0  0  0  0  0  0  0
    2.6990   -0.3750    0.0000 C   0  0  0  0  0  0  0  0  0  0  0  0
    3.9980    0.3750    0.0000 C   0  0  0  0  0  0  0  0  0  0  0  0
   -1.1990    0.3750    0.0000 C   0  0  0  0  0  0  0  0  0  0  0  0
   -2.4980   -0.3750    0.0000 C   0  0  0  0  0  0  0  0  0  0  0  0
  1  2  1  0  0  0  0
  1  5  1  0  0  0  0
  2  3  1  0  0  0  0
  3  4  1  0  0  0  0
  5  6  1  0  0  0  0
M  END
>  <name>
C(CC[C;amine])C[C;amine]

>  <apo>
2

>  <freq>
1

>  <freq0>
0

>  <freq1>
1

>  <freqA>
0.99887151

>  <a_count>
20

$$$$

  MOE2015           2D

  6  5  0  0  0  0  0  0  0  0999 V2000
    0.1000   -0.3750    0.0000 C   0  0  0  0  0  0  0  0  0  0  0  0
    1.4000    0.3750    0.0000 C   0  0  0  0  0  0  0  0  0  0  0  0
    2.6990   -0.3750    0.0000 C   0  0  0  0  0  0  0  0  0  0  0  0
    3.9980    0.3750    0.0000 C   0  0  0  0  0  0  0  0  0  0  0  0
   -1.1990    0.3750    0.0000 C   0  0  0  0  0  0  0  0  0  0  0  0
   -2.4980   -0.3750    0.0000 C   0  0  0  0  0  0  0  0  0  0  0  0
  1  2  1  0  0  0  0
  1  5  1  0  0  0  0
  2  3  1  0  0  0  0
  3  4  1  0  0  0  0
  5  6  1  0  0  0  0
M  END
>  <name>
C(CC[C;ether])CC

>  <apo>
1

>  <freq>
1

>  <freq0>
0

>  <freq1>
1

>  <freqA>
0.99887151

>  <a_count>
20

$$$$

  MOE2015           2D

  6  5  0  0  0  0  0  0  0  0999 V2000
    0.1000   -0.3750    0.0000 C   0  0  0  0  0  0  0  0  0  0  0  0
    1.4000    0.3750    0.0000 C   0  0  0  0  0  0  0  0  0  0  0  0
    2.6990   -0.3750    0.0000 C   0  0  0  0  0  0  0  0  0  0  0  0
    3.9980    0.3750    0.0000 C   0  0  0  0  0  0  0  0  0  0  0  0
   -1.1990    0.3750    0.0000 C   0  0  0  0  0  0  0  0  0  0  0  0
   -2.4980   -0.3750    0.0000 C   0  0  0  0  0  0  0  0  0  0  0  0
  1  2  1  0  0  0  0
  1  5  1  0  0  0  0
  2  3  1  0  0  0  0
  3  4  1  0  0  0  0
  5  6  1  0  0  0  0
M  END
>  <name>
C(CC[C;ether])C[C;ether]

>  <apo>
2

>  <freq>
1

>  <freq0>
0

>  <freq1>
1

>  <freqA>
0.99887151

>  <a_count>
20

$$$$

  MOE2015           2D

  6  5  0  0  0  0  0  0  0  0999 V2000
    0.1000   -0.3750    0.0000 C   0  0  0  0  0  0  0  0  0  0  0  0
    1.4000    0.3750    0.0000 C   0  0  0  0  0  0  0  0  0  0  0  0
    2.6990   -0.3750    0.0000 C   0  0  0  0  0  0  0  0  0  0  0  0
    3.9980    0.3750    0.0000 C   0  0  0  0  0  0  0  0  0  0  0  0
   -1.1990    0.3750    0.0000 C   0  0  0  0  0  0  0  0  0  0  0  0
   -2.4980   -0.3750    0.0000 C   0  0  0  0  0  0  0  0  0  0  0  0
  1  2  1  0  0  0  0
  1  5  1  0  0  0  0
  2  3  1  0  0  0  0
  3  4  1  0  0  0  0
  5  6  1  0  0  0  0
M  END
>  <name>
C(CC[C;olefin])CC

>  <apo>
1

>  <freq>
1

>  <freq0>
0

>  <freq1>
1

>  <freqA>
0.99887151

>  <a_count>
20

$$$$

  MOE2015           2D

  6  5  0  0  0  0  0  0  0  0999 V2000
    0.1000   -0.3750    0.0000 C   0  0  0  0  0  0  0  0  0  0  0  0
    1.4000    0.3750    0.0000 C   0  0  0  0  0  0  0  0  0  0  0  0
    2.6990   -0.3750    0.0000 C   0  0  0  0  0  0  0  0  0  0  0  0
    3.9980    0.3750    0.0000 C   0  0  0  0  0  0  0  0  0  0  0  0
   -1.1990    0.3750    0.0000 C   0  0  0  0  0  0  0  0  0  0  0  0
   -2.4980   -0.3750    0.0000 C   0  0  0  0  0  0  0  0  0  0  0  0
  1  2  1  0  0  0  0
  1  5  1  0  0  0  0
  2  3  1  0  0  0  0
  3  4  1  0  0  0  0
  5  6  1  0  0  0  0
M  END
>  <name>
C(CC[C;quatN])C[C;quatN]

>  <apo>
2

>  <freq>
1

>  <freq0>
0

>  <freq1>
1

>  <freqA>
0.99887151

>  <a_count>
20

$$$$

  MOE2015           2D

  6  5  0  0  0  0  0  0  0  0999 V2000
   -0.0830   -0.3080    0.0000 C   0  0  0  0  0  0  0  0  0  0  0  0
    1.2170   -1.0580    0.0000 C   0  0  0  0  0  0  0  0  0  0  0  0
    2.5160   -0.3080    0.0000 C   0  0  0  0  0  0  0  0  0  0  0  0
    3.8150   -1.0580    0.0000 C   0  0  0  0  0  0  0  0  0  0  0  0
   -1.3820   -1.0580    0.0000 C   0  0  0  0  0  0  0  0  0  0  0  0
   -0.0830    1.1920    0.0000 C   0  0  0  0  0  0  0  0  0  0  0  0
  1  2  1  0  0  0  0
  1  5  1  0  0  0  0
  1  6  1  0  0  0  0
  2  3  1  0  0  0  0
  3  4  1  0  0  0  0
M  END
>  <name>
C(C[C;olefin]C)([C;olefin])C

>  <apo>
2

>  <freq>
1

>  <freq0>
0

>  <freq1>
1

>  <freqA>
0.99887151

>  <a_count>
20

$$$$

  MOE2015           2D

  7  7  0  0  0  0  0  0  0  0999 V2000
    5.1430    0.0000    0.0000 C   0  0  0  0  0  0  0  0  0  0  0  0
    3.6430    0.0000    0.0000 C   0  0  0  0  0  0  0  0  0  0  0  0
    2.8930    1.2990    0.0000 C   0  0  0  0  0  0  0  0  0  0  0  0
    1.3930    1.2990    0.0000 C   0  0  0  0  0  0  0  0  0  0  0  0
    0.6430    0.0000    0.0000 N   0  0  0  0  0  0  0  0  0  0  0  0
    1.3930   -1.2990    0.0000 C   0  0  0  0  0  0  0  0  0  0  0  0
    2.8930   -1.2990    0.0000 C   0  0  0  0  0  0  0  0  0  0  0  0
  1  2  1  0  0  0  0
  2  3  1  0  0  0  0
  2  7  1  0  0  0  0
  3  4  1  0  0  0  0
  4  5  1  0  0  0  0
  5  6  1  0  0  0  0
  6  7  1  0  0  0  0
M  END
>  <name>
CC1[C;amine]C[N;amide]CC1

>  <apo>
2

>  <freq>
1

>  <freq0>
0

>  <freq1>
1

>  <freqA>
0.99887151

>  <a_count>
20

$$$$

  MOE2015           2D

  8  8  0  0  0  0  0  0  0  0999 V2000
    0.4890   -1.1750    0.0000 C   0  0  0  0  0  0  0  0  0  0  0  0
    1.7880   -0.4250    0.0000 N   0  0  0  0  0  0  0  0  0  0  0  0
    1.7880    1.0750    0.0000 C   0  0  0  0  0  0  0  0  0  0  0  0
    0.4890    1.8250    0.0000 C   0  0  0  0  0  0  0  0  0  0  0  0
    3.0870    1.8250    0.0000 N   0  0  0  0  0  0  0  0  0  0  0  0
    4.3860    1.0750    0.0000 C   0  0  0  0  0  0  0  0  0  0  0  0
    4.3860   -0.4250    0.0000 C   0  0  0  0  0  0  0  0  0  0  0  0
    3.0870   -1.1750    0.0000 C   0  0  0  0  0  0  0  0  0  0  0  0
  1  2  1  0  0  0  0
  2  3  1  0  0  0  0
  2  8  1  0  0  0  0
  3  4  1  0  0  0  0
  3  5  2  0  0  0  0
  5  6  1  0  0  0  0
  6  7  1  0  0  0  0
  7  8  1  0  0  0  0
M  END
>  <name>
CN1C([C;olefin])=NCCC1

>  <apo>
1

>  <freq>
1

>  <freq0>
0

>  <freq1>
1

>  <freqA>
0.99887151

>  <a_count>
20

$$$$

  MOE2015           2D

  7  7  0  0  1  0  0  0  0  0999 V2000
    0.3090   -1.0420    0.0000 C   0  0  0  0  0  0  0  0  0  0  0  0
    1.5670   -0.2250    0.0000 N   0  0  0  0  0  0  0  0  0  0  0  0
    2.9670   -0.7630    0.0000 C   0  0  0  0  0  0  0  0  0  0  0  0
    3.9110    0.4030    0.0000 C   0  0  3  0  0  0  0  0  0  0  0  0
    5.4090    0.3250    0.0000 C   0  0  0  0  0  0  0  0  0  0  0  0
    3.0940    1.6610    0.0000 C   0  0  0  0  0  0  0  0  0  0  0  0
    1.6450    1.2730    0.0000 C   0  0  0  0  0  0  0  0  0  0  0  0
  1  2  1  0  0  0  0
  2  3  1  0  0  0  0
  2  7  1  0  0  0  0
  3  4  1  0  0  0  0
  4  5  1  0  0  0  0
  4  6  1  0  0  0  0
  6  7  1  0  0  0  0
M  END
>  <name>
CN1CC([C;amine])CC1

>  <apo>
1

>  <freq>
1

>  <freq0>
0

>  <freq1>
1

>  <freqA>
0.99887151

>  <a_count>
20

$$$$

  MOE2015           2D

  7  7  0  0  0  0  0  0  0  0999 V2000
    5.1430    0.0000    0.0000 C   0  0  0  0  0  0  0  0  0  0  0  0
    3.6430    0.0000    0.0000 N   0  0  0  0  0  0  0  0  0  0  0  0
    2.8930    1.2990    0.0000 C   0  0  0  0  0  0  0  0  0  0  0  0
    1.3930    1.2990    0.0000 C   0  0  0  0  0  0  0  0  0  0  0  0
    0.6430    0.0000    0.0000 C   0  0  0  0  0  0  0  0  0  0  0  0
    1.3930   -1.2990    0.0000 C   0  0  0  0  0  0  0  0  0  0  0  0
    2.8930   -1.2990    0.0000 C   0  0  0  0  0  0  0  0  0  0  0  0
  1  2  1  0  0  0  0
  2  3  1  0  0  0  0
  2  7  1  0  0  0  0
  3  4  1  0  0  0  0
  4  5  1  0  0  0  0
  5  6  1  0  0  0  0
  6  7  1  0  0  0  0
M  END
>  <name>
CN1CC[C;amine]CC1

>  <apo>
1

>  <freq>
1

>  <freq0>
0

>  <freq1>
1

>  <freqA>
0.99887151

>  <a_count>
20

$$$$

  MOE2015           2D

  7  7  0  0  0  0  0  0  0  0999 V2000
    5.1430    0.0000    0.0000 C   0  0  0  0  0  0  0  0  0  0  0  0
    3.6430    0.0000    0.0000 N   0  0  0  0  0  0  0  0  0  0  0  0
    2.8930    1.2990    0.0000 C   0  0  0  0  0  0  0  0  0  0  0  0
    1.3930    1.2990    0.0000 C   0  0  0  0  0  0  0  0  0  0  0  0
    0.6430    0.0000    0.0000 C   0  0  0  0  0  0  0  0  0  0  0  0
    1.3930   -1.2990    0.0000 C   0  0  0  0  0  0  0  0  0  0  0  0
    2.8930   -1.2990    0.0000 C   0  0  0  0  0  0  0  0  0  0  0  0
  1  2  1  0  0  0  0
  2  3  1  0  0  0  0
  2  7  1  0  0  0  0
  3  4  1  0  0  0  0
  4  5  1  0  0  0  0
  5  6  1  0  0  0  0
  6  7  1  0  0  0  0
M  END
>  <name>
CN1CC[C;ether]CC1

>  <apo>
1

>  <freq>
1

>  <freq0>
0

>  <freq1>
1

>  <freqA>
0.99887151

>  <a_count>
20

$$$$

  MOE2015           2D

  7  7  0  0  1  0  0  0  0  0999 V2000
    0.6530   -1.2550    0.0000 C   0  0  0  0  0  0  0  0  0  0  0  0
    1.8660   -0.3730    0.0000 N   0  0  0  0  0  0  0  0  0  0  0  0
    1.8660    1.1270    0.0000 C   0  0  1  0  0  0  0  0  0  0  0  0
    0.6530    2.0090    0.0000 C   0  0  0  0  0  0  0  0  0  0  0  0
    3.2930    1.5910    0.0000 C   0  0  0  0  0  0  0  0  0  0  0  0
    4.1740    0.3770    0.0000 C   0  0  0  0  0  0  0  0  0  0  0  0
    3.2930   -0.8360    0.0000 C   0  0  0  0  0  0  0  0  0  0  0  0
  1  2  1  0  0  0  0
  2  3  1  0  0  0  0
  2  7  1  0  0  0  0
  3  4  1  1  0  0  0
  3  5  1  0  0  0  0
  5  6  1  0  0  0  0
  6  7  1  0  0  0  0
M  END
>  <name>
CN1[C@@H]([C;ether])CCC1

>  <apo>
1

>  <freq>
1

>  <freq0>
0

>  <freq1>
1

>  <freqA>
0.99887151

>  <a_count>
20

$$$$

  MOE2015           2D

 12 13  0  0  1  0  0  0  0  0999 V2000
   -0.9830    0.8620    0.0000 Cl  0  0  0  0  0  0  0  0  0  0  0  0
   -1.1790    2.3490    0.0000 C   0  0  0  0  0  0  0  0  0  0  0  0
   -2.5640    1.7750    0.0000 Cl  0  0  0  0  0  0  0  0  0  0  0  0
    0.1200    3.0990    0.0000 C   0  0  3  0  0  0  0  0  0  0  0  0
    1.6200    3.0990    0.0000 C   0  0  0  0  0  0  0  0  0  0  0  0
    2.3700    1.8000    0.0000 C   0  0  0  0  0  0  0  0  0  0  0  0
    3.8700    1.8000    0.0000 C   0  0  0  0  0  0  0  0  0  0  0  0
    4.6200    3.0990    0.0000 C   0  0  0  0  0  0  0  0  0  0  0  0
    6.1200    3.0990    0.0000 O   0  0  0  0  0  0  0  0  0  0  0  0
    3.8700    4.3980    0.0000 C   0  0  0  0  0  0  0  0  0  0  0  0
    2.3700    4.3980    0.0000 C   0  0  0  0  0  0  0  0  0  0  0  0
   -1.1790    3.8490    0.0000 C   0  0  0  0  0  0  0  0  0  0  0  0
  1  2  1  0  0  0  0
  2  3  1  0  0  0  0
  2  4  1  0  0  0  0
  2 12  1  0  0  0  0
  4  5  1  0  0  0  0
  4 12  1  0  0  0  0
  5  6  1  0  0  0  0
  5 11  2  0  0  0  0
  6  7  2  0  0  0  0
  7  8  1  0  0  0  0
  8  9  1  0  0  0  0
  8 10  2  0  0  0  0
 10 11  1  0  0  0  0
M  END
>  <name>
ClC1(Cl)C(c2ccc([O;ether])cc2)C1

>  <apo>
1

>  <freq>
1

>  <freq0>
0

>  <freq1>
1

>  <freqA>
0.99887151

>  <a_count>
20

$$$$

  MOE2015           2D

 13 13  0  0  0  0  0  0  0  0999 V2000
    5.0190    2.0980    0.0000 Cl  0  0  0  0  0  0  0  0  0  0  0  0
    4.2690    0.7990    0.0000 C   0  0  0  0  0  0  0  0  0  0  0  0
    5.0190   -0.5000    0.0000 C   0  0  0  0  0  0  0  0  0  0  0  0
    6.5190   -0.5000    0.0000 C   0  0  0  0  0  0  0  0  0  0  0  0
    7.2690   -1.7990    0.0000 O   0  0  0  0  0  0  0  0  0  0  0  0
    4.2690   -1.7990    0.0000 C   0  0  0  0  0  0  0  0  0  0  0  0
    2.7690   -1.7990    0.0000 C   0  0  0  0  0  0  0  0  0  0  0  0
    2.0190   -0.5000    0.0000 C   0  0  0  0  0  0  0  0  0  0  0  0
    0.5190   -0.5000    0.0000 S   0  0  0  0  0  0  0  0  0  0  0  0
    0.5190    1.0000    0.0000 O   0  0  0  0  0  0  0  0  0  0  0  0
    0.5190   -2.0000    0.0000 O   0  0  0  0  0  0  0  0  0  0  0  0
   -0.9810   -0.5000    0.0000 C   0  0  0  0  0  0  0  0  0  0  0  0
    2.7690    0.7990    0.0000 C   0  0  0  0  0  0  0  0  0  0  0  0
  1  2  1  0  0  0  0
  2  3  1  0  0  0  0
  2 13  2  0  0  0  0
  3  4  1  0  0  0  0
  3  6  2  0  0  0  0
  4  5  2  0  0  0  0
  6  7  1  0  0  0  0
  7  8  2  0  0  0  0
  8  9  1  0  0  0  0
  8 13  1  0  0  0  0
  9 10  2  0  0  0  0
  9 11  2  0  0  0  0
  9 12  1  0  0  0  0
M  END
>  <name>
Clc1c([C;amide]=O)ccc(S(=O)(=O)C)c1

>  <apo>
1

>  <freq>
1

>  <freq0>
0

>  <freq1>
1

>  <freqA>
0.99887151

>  <a_count>
20

$$$$

  MOE2015           2D

 11 11  0  0  0  0  0  0  0  0999 V2000
   -0.1150    0.4310    0.0000 Cl  0  0  0  0  0  0  0  0  0  0  0  0
    1.1840    1.1810    0.0000 C   0  0  0  0  0  0  0  0  0  0  0  0
    2.4830    0.4310    0.0000 C   0  0  0  0  0  0  0  0  0  0  0  0
    3.7820    1.1810    0.0000 C   0  0  0  0  0  0  0  0  0  0  0  0
    5.0810    0.4310    0.0000 C   0  0  0  0  0  0  0  0  0  0  0  0
    5.0810   -1.0690    0.0000 O   0  0  0  0  0  0  0  0  0  0  0  0
    6.3800    1.1810    0.0000 C   0  0  0  0  0  0  0  0  0  0  0  0
    7.6790    0.4310    0.0000 C   0  0  0  0  0  0  0  0  0  0  0  0
    3.7820    2.6810    0.0000 C   0  0  0  0  0  0  0  0  0  0  0  0
    2.4830    3.4310    0.0000 C   0  0  0  0  0  0  0  0  0  0  0  0
    1.1840    2.6810    0.0000 C   0  0  0  0  0  0  0  0  0  0  0  0
  1  2  1  0  0  0  0
  2  3  1  0  0  0  0
  2 11  2  0  0  0  0
  3  4  2  0  0  0  0
  4  5  1  0  0  0  0
  4  9  1  0  0  0  0
  5  6  2  0  0  0  0
  5  7  1  0  0  0  0
  7  8  1  0  0  0  0
  9 10  2  0  0  0  0
 10 11  1  0  0  0  0
M  END
>  <name>
Clc1cc(C(=O)[C;amine]C)ccc1

>  <apo>
1

>  <freq>
1

>  <freq0>
0

>  <freq1>
1

>  <freqA>
0.99887151

>  <a_count>
20

$$$$

  MOE2015           2D

 12 13  0  0  0  0  0  0  0  0999 V2000
    0.1030   -0.3840    0.0000 Cl  0  0  0  0  0  0  0  0  0  0  0  0
    1.4020    0.3660    0.0000 C   0  0  0  0  0  0  0  0  0  0  0  0
    2.7010   -0.3840    0.0000 C   0  0  0  0  0  0  0  0  0  0  0  0
    4.0000    0.3660    0.0000 C   0  0  0  0  0  0  0  0  0  0  0  0
    5.2990   -0.3840    0.0000 N   0  0  0  0  0  0  0  0  0  0  0  0
    6.5980    0.3660    0.0000 C   0  0  0  0  0  0  0  0  0  0  0  0
    7.8970   -0.3840    0.0000 C   0  0  0  0  0  0  0  0  0  0  0  0
    6.5980    1.8660    0.0000 C   0  0  0  0  0  0  0  0  0  0  0  0
    5.2990    2.6160    0.0000 C   0  0  0  0  0  0  0  0  0  0  0  0
    4.0000    1.8660    0.0000 C   0  0  0  0  0  0  0  0  0  0  0  0
    2.7010    2.6160    0.0000 C   0  0  0  0  0  0  0  0  0  0  0  0
    1.4020    1.8660    0.0000 C   0  0  0  0  0  0  0  0  0  0  0  0
  1  2  1  0  0  0  0
  2  3  1  0  0  0  0
  2 12  2  0  0  0  0
  3  4  2  0  0  0  0
  4  5  1  0  0  0  0
  4 10  1  0  0  0  0
  5  6  2  0  0  0  0
  6  7  1  0  0  0  0
  6  8  1  0  0  0  0
  8  9  2  0  0  0  0
  9 10  1  0  0  0  0
 10 11  2  0  0  0  0
 11 12  1  0  0  0  0
M  END
>  <name>
Clc1cc2nc([C;olefin])ccc2cc1

>  <apo>
1

>  <freq>
1

>  <freq0>
0

>  <freq1>
1

>  <freqA>
0.99887151

>  <a_count>
20

$$$$

  MOE2015           2D

 12 12  0  0  0  0  0  0  0  0999 V2000
    0.6260   -4.1120    0.0000 F   0  0  0  0  0  0  0  0  0  0  0  0
   -0.1240   -2.8130    0.0000 C   0  0  0  0  0  0  0  0  0  0  0  0
   -1.4230   -3.5630    0.0000 F   0  0  0  0  0  0  0  0  0  0  0  0
   -0.8740   -1.5130    0.0000 F   0  0  0  0  0  0  0  0  0  0  0  0
    1.1750   -2.0630    0.0000 C   0  0  0  0  0  0  0  0  0  0  0  0
    1.1750   -0.5630    0.0000 C   0  0  0  0  0  0  0  0  0  0  0  0
   -0.1240    0.1880    0.0000 C   0  0  0  0  0  0  0  0  0  0  0  0
    2.4740    0.1870    0.0000 C   0  0  0  0  0  0  0  0  0  0  0  0
    3.7730   -0.5620    0.0000 C   0  0  0  0  0  0  0  0  0  0  0  0
    3.7730   -2.0630    0.0000 C   0  0  0  0  0  0  0  0  0  0  0  0
    5.0720   -2.8130    0.0000 N   0  0  0  0  0  0  0  0  0  0  0  0
    2.4740   -2.8130    0.0000 C   0  0  0  0  0  0  0  0  0  0  0  0
  1  2  1  0  0  0  0
  2  3  1  0  0  0  0
  2  4  1  0  0  0  0
  2  5  1  0  0  0  0
  5  6  1  0  0  0  0
  5 12  2  0  0  0  0
  6  7  1  0  0  0  0
  6  8  2  0  0  0  0
  8  9  1  0  0  0  0
  9 10  2  0  0  0  0
 10 11  1  0  0  0  0
 10 12  1  0  0  0  0
M  END
>  <name>
FC(F)(F)c1c(C)ccc([N;amide])c1

>  <apo>
1

>  <freq>
1

>  <freq0>
0

>  <freq1>
1

>  <freqA>
0.99887151

>  <a_count>
20

$$$$

  MOE2015           2D

 12 12  0  0  0  0  0  0  0  0999 V2000
    0.6260   -4.1120    0.0000 F   0  0  0  0  0  0  0  0  0  0  0  0
   -0.1240   -2.8130    0.0000 C   0  0  0  0  0  0  0  0  0  0  0  0
   -1.4230   -3.5630    0.0000 F   0  0  0  0  0  0  0  0  0  0  0  0
   -0.8740   -1.5130    0.0000 F   0  0  0  0  0  0  0  0  0  0  0  0
    1.1750   -2.0630    0.0000 C   0  0  0  0  0  0  0  0  0  0  0  0
    1.1750   -0.5630    0.0000 C   0  0  0  0  0  0  0  0  0  0  0  0
   -0.1240    0.1880    0.0000 C   0  0  0  0  0  0  0  0  0  0  0  0
    2.4740    0.1870    0.0000 C   0  0  0  0  0  0  0  0  0  0  0  0
    3.7730   -0.5620    0.0000 C   0  0  0  0  0  0  0  0  0  0  0  0
    3.7730   -2.0630    0.0000 C   0  0  0  0  0  0  0  0  0  0  0  0
    5.0720   -2.8130    0.0000 N   0  0  0  0  0  0  0  0  0  0  0  0
    2.4740   -2.8130    0.0000 C   0  0  0  0  0  0  0  0  0  0  0  0
  1  2  1  0  0  0  0
  2  3  1  0  0  0  0
  2  4  1  0  0  0  0
  2  5  1  0  0  0  0
  5  6  1  0  0  0  0
  5 12  2  0  0  0  0
  6  7  1  0  0  0  0
  6  8  2  0  0  0  0
  8  9  1  0  0  0  0
  9 10  2  0  0  0  0
 10 11  1  0  0  0  0
 10 12  1  0  0  0  0
M  END
>  <name>
FC(F)(F)c1c([C;amine])ccc([N;amide])c1

>  <apo>
2

>  <freq>
1

>  <freq0>
0

>  <freq1>
1

>  <freqA>
0.99887151

>  <a_count>
20

$$$$

  MOE2015           2D

 15 15  0  0  0  0  0  0  0  0999 V2000
   -1.2270   -4.5730    0.0000 F   0  0  0  0  0  0  0  0  0  0  0  0
   -1.2270   -3.0730    0.0000 C   0  0  0  0  0  0  0  0  0  0  0  0
   -2.7270   -3.0730    0.0000 F   0  0  0  0  0  0  0  0  0  0  0  0
   -1.2270   -1.5730    0.0000 F   0  0  0  0  0  0  0  0  0  0  0  0
    0.2730   -3.0730    0.0000 C   0  0  0  0  0  0  0  0  0  0  0  0
    1.0230   -1.7740    0.0000 C   0  0  0  0  0  0  0  0  0  0  0  0
    0.2730   -0.4750    0.0000 N   0  0  0  0  0  0  0  0  0  0  0  0
    2.5230   -1.7740    0.0000 C   0  0  0  0  0  0  0  0  0  0  0  0
    3.2730   -3.0730    0.0000 C   0  0  0  0  0  0  0  0  0  0  0  0
    4.7730   -3.0730    0.0000 C   0  0  0  0  0  0  0  0  0  0  0  0
    6.2730   -3.0730    0.0000 F   0  0  0  0  0  0  0  0  0  0  0  0
    4.7730   -1.5730    0.0000 F   0  0  0  0  0  0  0  0  0  0  0  0
    4.7730   -4.5730    0.0000 F   0  0  0  0  0  0  0  0  0  0  0  0
    2.5230   -4.3720    0.0000 C   0  0  0  0  0  0  0  0  0  0  0  0
    1.0230   -4.3720    0.0000 C   0  0  0  0  0  0  0  0  0  0  0  0
  1  2  1  0  0  0  0
  2  3  1  0  0  0  0
  2  4  1  0  0  0  0
  2  5  1  0  0  0  0
  5  6  1  0  0  0  0
  5 15  2  0  0  0  0
  6  7  1  0  0  0  0
  6  8  2  0  0  0  0
  8  9  1  0  0  0  0
  9 10  1  0  0  0  0
  9 14  2  0  0  0  0
 10 11  1  0  0  0  0
 10 12  1  0  0  0  0
 10 13  1  0  0  0  0
 14 15  1  0  0  0  0
M  END
>  <name>
FC(F)(F)c1c([N;amide])cc(C(F)(F)F)cc1

>  <apo>
1

>  <freq>
1

>  <freq0>
0

>  <freq1>
1

>  <freqA>
0.99887151

>  <a_count>
20

$$$$

  MOE2015           2D

 13 14  0  0  0  0  0  0  0  0999 V2000
    5.5080   -1.6860    0.0000 F   0  0  0  0  0  0  0  0  0  0  0  0
    4.5180   -2.8130    0.0000 C   0  0  0  0  0  0  0  0  0  0  0  0
    5.6450   -3.8030    0.0000 F   0  0  0  0  0  0  0  0  0  0  0  0
    3.5290   -3.9400    0.0000 F   0  0  0  0  0  0  0  0  0  0  0  0
    3.3910   -1.8240    0.0000 C   0  0  0  0  0  0  0  0  0  0  0  0
    1.9280   -2.1540    0.0000 N   0  0  0  0  0  0  0  0  0  0  0  0
    1.1620   -0.8640    0.0000 C   0  0  0  0  0  0  0  0  0  0  0  0
    2.1510    0.2630    0.0000 N   0  0  0  0  0  0  0  0  0  0  0  0
    3.5290   -0.3300    0.0000 N   0  0  0  0  0  0  0  0  0  0  0  0
   -0.3380   -0.8830    0.0000 C   0  0  0  0  0  0  0  0  0  0  0  0
   -1.0720   -2.1910    0.0000 N   0  0  0  0  0  0  0  0  0  0  0  0
   -0.3060   -3.4810    0.0000 C   0  0  0  0  0  0  0  0  0  0  0  0
    1.1940   -3.4620    0.0000 C   0  0  0  0  0  0  0  0  0  0  0  0
  1  2  1  0  0  0  0
  2  3  1  0  0  0  0
  2  4  1  0  0  0  0
  2  5  1  0  0  0  0
  5  6  1  0  0  0  0
  5  9  2  0  0  0  0
  6  7  1  0  0  0  0
  6 13  1  0  0  0  0
  7  8  2  0  0  0  0
  7 10  1  0  0  0  0
  8  9  1  0  0  0  0
 10 11  1  0  0  0  0
 11 12  1  0  0  0  0
 12 13  1  0  0  0  0
M  END
>  <name>
FC(F)(F)c1n2c(nn1)C[N;amide]CC2

>  <apo>
1

>  <freq>
1

>  <freq0>
0

>  <freq1>
1

>  <freqA>
0.99887151

>  <a_count>
20

$$$$

  MOE2015           2D

 10 10  0  0  0  0  0  0  0  0999 V2000
   -0.0800    0.3000    0.0000 F   0  0  0  0  0  0  0  0  0  0  0  0
    1.2190    1.0500    0.0000 C   0  0  0  0  0  0  0  0  0  0  0  0
   -0.0800    1.8000    0.0000 F   0  0  0  0  0  0  0  0  0  0  0  0
    1.9690   -0.2490    0.0000 C   0  0  0  0  0  0  0  0  0  0  0  0
    3.4690   -0.2490    0.0000 C   0  0  0  0  0  0  0  0  0  0  0  0
    4.2190    1.0500    0.0000 C   0  0  0  0  0  0  0  0  0  0  0  0
    5.7190    1.0500    0.0000 C   0  0  0  0  0  0  0  0  0  0  0  0
    6.4690   -0.2490    0.0000 O   0  0  0  0  0  0  0  0  0  0  0  0
    3.4690    2.3490    0.0000 C   0  0  0  0  0  0  0  0  0  0  0  0
    1.9690    2.3490    0.0000 C   0  0  0  0  0  0  0  0  0  0  0  0
  1  2  1  0  0  0  0
  2  3  1  0  0  0  0
  2  4  1  0  0  0  0
  2 10  1  0  0  0  0
  4  5  1  0  0  0  0
  5  6  1  0  0  0  0
  6  7  1  0  0  0  0
  6  9  1  0  0  0  0
  7  8  2  0  0  0  0
  9 10  1  0  0  0  0
M  END
>  <name>
FC1(F)CCC([C;amide]=O)CC1

>  <apo>
1

>  <freq>
1

>  <freq0>
0

>  <freq1>
1

>  <freqA>
0.99887151

>  <a_count>
20

$$$$

  MOE2015           2D

 11 11  0  0  0  0  0  0  0  0999 V2000
    7.0910    0.0000    0.0000 F   0  0  0  0  0  0  0  0  0  0  0  0
    5.5910    0.0000    0.0000 C   0  0  0  0  0  0  0  0  0  0  0  0
    4.8410    1.2990    0.0000 C   0  0  0  0  0  0  0  0  0  0  0  0
    3.3410    1.2990    0.0000 C   0  0  0  0  0  0  0  0  0  0  0  0
    2.5910    2.5980    0.0000 C   0  0  0  0  0  0  0  0  0  0  0  0
    3.3410    3.8970    0.0000 C   0  0  0  0  0  0  0  0  0  0  0  0
    2.5910    0.0000    0.0000 C   0  0  0  0  0  0  0  0  0  0  0  0
    1.0910    0.0000    0.0000 C   0  0  0  0  0  0  0  0  0  0  0  0
    0.3410   -1.2990    0.0000 O   0  0  0  0  0  0  0  0  0  0  0  0
    3.3410   -1.2990    0.0000 C   0  0  0  0  0  0  0  0  0  0  0  0
    4.8410   -1.2990    0.0000 C   0  0  0  0  0  0  0  0  0  0  0  0
  1  2  1  0  0  0  0
  2  3  1  0  0  0  0
  2 11  2  0  0  0  0
  3  4  2  0  0  0  0
  4  5  1  0  0  0  0
  4  7  1  0  0  0  0
  5  6  1  0  0  0  0
  7  8  1  0  0  0  0
  7 10  2  0  0  0  0
  8  9  2  0  0  0  0
 10 11  1  0  0  0  0
M  END
>  <name>
Fc1cc([C;ether]C)c([C;amide]=O)cc1

>  <apo>
2

>  <freq>
1

>  <freq0>
0

>  <freq1>
1

>  <freqA>
0.99887151

>  <a_count>
20

$$$$

  MOE2015           2D

 10 10  0  0  0  0  0  0  0  0999 V2000
   -0.3750    3.2480    0.0000 N   0  0  0  0  0  0  0  0  0  0  0  0
    0.3750    1.9490    0.0000 C   0  0  0  0  0  0  0  0  0  0  0  0
   -0.3750    0.6500    0.0000 N   0  0  0  0  0  0  0  0  0  0  0  0
    1.8750    1.9490    0.0000 C   0  0  0  0  0  0  0  0  0  0  0  0
    2.6250    0.6500    0.0000 C   0  0  0  0  0  0  0  0  0  0  0  0
    4.1250    0.6500    0.0000 C   0  0  0  0  0  0  0  0  0  0  0  0
    4.8750    1.9490    0.0000 C   0  0  0  0  0  0  0  0  0  0  0  0
    6.3750    1.9490    0.0000 C   0  0  0  0  0  0  0  0  0  0  0  0
    4.1250    3.2480    0.0000 C   0  0  0  0  0  0  0  0  0  0  0  0
    2.6250    3.2480    0.0000 C   0  0  0  0  0  0  0  0  0  0  0  0
  1  2  2  0  0  0  0
  2  3  1  0  0  0  0
  2  4  1  0  0  0  0
  4  5  1  0  0  0  0
  4 10  2  0  0  0  0
  5  6  2  0  0  0  0
  6  7  1  0  0  0  0
  7  8  1  0  0  0  0
  7  9  2  0  0  0  0
  9 10  1  0  0  0  0
M  END
>  <name>
N=C(N)c1ccc([C;olefin])cc1

>  <apo>
1

>  <freq>
1

>  <freq0>
0

>  <freq1>
1

>  <freqA>
0.99887151

>  <a_count>
20

$$$$

  MOE2015           2D

  9  9  0  0  0  0  0  0  0  0999 V2000
    0.0000    0.0000    0.0000 N   0  0  0  0  0  0  0  0  0  0  0  0
    1.5000    0.0000    0.0000 C   0  0  0  0  0  0  0  0  0  0  0  0
    2.2500    1.2990    0.0000 C   0  0  0  0  0  0  0  0  0  0  0  0
    3.7500    1.2990    0.0000 C   0  0  0  0  0  0  0  0  0  0  0  0
    4.5000    0.0000    0.0000 C   0  0  0  0  0  0  0  0  0  0  0  0
    6.0000    0.0000    0.0000 C   0  0  0  0  0  0  0  0  0  0  0  0
    6.7500   -1.2990    0.0000 C   0  0  0  0  0  0  0  0  0  0  0  0
    3.7500   -1.2990    0.0000 C   0  0  0  0  0  0  0  0  0  0  0  0
    2.2500   -1.2990    0.0000 C   0  0  0  0  0  0  0  0  0  0  0  0
  1  2  1  0  0  0  0
  2  3  1  0  0  0  0
  2  9  2  0  0  0  0
  3  4  2  0  0  0  0
  4  5  1  0  0  0  0
  5  6  1  0  0  0  0
  5  8  2  0  0  0  0
  6  7  1  0  0  0  0
  8  9  1  0  0  0  0
M  END
>  <name>
Nc1ccc(C[C;amine])cc1

>  <apo>
1

>  <freq>
1

>  <freq0>
0

>  <freq1>
1

>  <freqA>
0.99887151

>  <a_count>
20

$$$$

  MOE2015           2D

 10 10  0  0  0  0  0  0  0  0999 V2000
    0.3120   -1.6850    0.0000 N   0  0  0  0  0  0  0  0  0  0  0  0
    1.6110   -0.9350    0.0000 C   0  0  0  0  0  0  0  0  0  0  0  0
    1.6110    0.5650    0.0000 N   0  0  0  0  0  0  0  0  0  0  0  0
    2.9100    1.3150    0.0000 C   0  0  0  0  0  0  0  0  0  0  0  0
    2.9100    2.8150    0.0000 N   0  0  0  0  0  0  0  0  0  0  0  0
    4.2090    0.5650    0.0000 C   0  0  0  0  0  0  0  0  0  0  0  0
    4.2090   -0.9350    0.0000 C   0  0  0  0  0  0  0  0  0  0  0  0
    5.5080   -1.6850    0.0000 C   0  0  0  0  0  0  0  0  0  0  0  0
    6.8070   -0.9350    0.0000 C   0  0  0  0  0  0  0  0  0  0  0  0
    2.9100   -1.6850    0.0000 N   0  0  0  0  0  0  0  0  0  0  0  0
  1  2  1  0  0  0  0
  2  3  1  0  0  0  0
  2 10  2  0  0  0  0
  3  4  2  0  0  0  0
  4  5  1  0  0  0  0
  4  6  1  0  0  0  0
  6  7  2  0  0  0  0
  7  8  1  0  0  0  0
  7 10  1  0  0  0  0
  8  9  1  0  0  0  0
M  END
>  <name>
Nc1nc(N)[c;biphenyl]c(CC)n1

>  <apo>
1

>  <freq>
1

>  <freq0>
0

>  <freq1>
1

>  <freqA>
0.99887151

>  <a_count>
20

$$$$

  MOE2015           2D

 13 14  0  0  0  0  0  0  0  0999 V2000
    0.2410   -2.1000    0.0000 N   0  0  0  0  0  0  0  0  0  0  0  0
    1.5400   -1.3500    0.0000 C   0  0  0  0  0  0  0  0  0  0  0  0
    1.5400    0.1500    0.0000 N   0  0  0  0  0  0  0  0  0  0  0  0
    2.8390    0.9000    0.0000 C   0  0  0  0  0  0  0  0  0  0  0  0
    2.8390    2.4000    0.0000 N   0  0  0  0  0  0  0  0  0  0  0  0
    4.1380    0.1500    0.0000 C   0  0  0  0  0  0  0  0  0  0  0  0
    5.4370    0.9000    0.0000 N   0  0  0  0  0  0  0  0  0  0  0  0
    6.7360    0.1500    0.0000 C   0  0  0  0  0  0  0  0  0  0  0  0
    6.7360   -1.3500    0.0000 C   0  0  0  0  0  0  0  0  0  0  0  0
    8.0360   -2.1000    0.0000 N   0  0  0  0  0  0  0  0  0  0  0  0
    5.4370   -2.1000    0.0000 N   0  0  0  0  0  0  0  0  0  0  0  0
    4.1380   -1.3500    0.0000 C   0  0  0  0  0  0  0  0  0  0  0  0
    2.8390   -2.1000    0.0000 N   0  0  0  0  0  0  0  0  0  0  0  0
  1  2  1  0  0  0  0
  2  3  1  0  0  0  0
  2 13  2  0  0  0  0
  3  4  2  0  0  0  0
  4  5  1  0  0  0  0
  4  6  1  0  0  0  0
  6  7  1  0  0  0  0
  6 12  2  0  0  0  0
  7  8  2  0  0  0  0
  8  9  1  0  0  0  0
  9 10  1  0  0  0  0
  9 11  2  0  0  0  0
 11 12  1  0  0  0  0
 12 13  1  0  0  0  0
M  END
>  <name>
Nc1nc(N)c2n[c;biphenyl]c(N)nc2n1

>  <apo>
1

>  <freq>
1

>  <freq0>
0

>  <freq1>
1

>  <freqA>
0.99887151

>  <a_count>
20

$$$$

  MOE2015           2D

 10 11  0  0  0  0  0  0  0  0999 V2000
    7.3810    0.0000    0.0000 N   0  0  0  0  0  0  0  0  0  0  0  0
    5.8810    0.0000    0.0000 C   0  0  0  0  0  0  0  0  0  0  0  0
    5.0000   -1.2140    0.0000 S   0  0  0  0  0  0  0  0  0  0  0  0
    3.5730   -0.7500    0.0000 C   0  0  0  0  0  0  0  0  0  0  0  0
    3.5730    0.7500    0.0000 C   0  0  0  0  0  0  0  0  0  0  0  0
    5.0000    1.2140    0.0000 N   0  0  0  0  0  0  0  0  0  0  0  0
    2.2740    1.5000    0.0000 C   0  0  0  0  0  0  0  0  0  0  0  0
    0.9750    0.7500    0.0000 C   0  0  0  0  0  0  0  0  0  0  0  0
    0.9750   -0.7500    0.0000 C   0  0  0  0  0  0  0  0  0  0  0  0
    2.2740   -1.5000    0.0000 C   0  0  0  0  0  0  0  0  0  0  0  0
  1  2  1  0  0  0  0
  2  3  1  0  0  0  0
  2  6  2  0  0  0  0
  3  4  1  0  0  0  0
  4  5  2  0  0  0  0
  4 10  1  0  0  0  0
  5  6  1  0  0  0  0
  5  7  1  0  0  0  0
  7  8  1  0  0  0  0
  8  9  1  0  0  0  0
  9 10  1  0  0  0  0
M  END
>  <name>
Nc1sc2c(n1)CC[C;amine]C2

>  <apo>
1

>  <freq>
1

>  <freq0>
0

>  <freq1>
1

>  <freqA>
0.99887151

>  <a_count>
20

$$$$

  MOE2015           2D

 10 10  0  0  1  0  0  0  0  0999 V2000
    1.0080    0.9130    0.0000 O   0  0  0  0  0  0  0  0  0  0  0  0
    2.3070    1.6630    0.0000 C   0  0  0  0  0  0  0  0  0  0  0  0
   -0.2910    1.6630    0.0000 C   0  0  0  0  0  0  0  0  0  0  0  0
   -1.5900    0.9130    0.0000 C   0  0  0  0  0  0  0  0  0  0  0  0
   -2.8890    1.6630    0.0000 C   0  0  0  0  0  0  0  0  0  0  0  0
   -4.1880    0.9130    0.0000 O   0  0  0  0  0  0  0  0  0  0  0  0
   -2.8890    3.1630    0.0000 O   0  0  0  0  0  0  0  0  0  0  0  0
   -1.5900    3.9130    0.0000 C   0  0  3  0  0  0  0  0  0  0  0  0
   -1.5900    5.4130    0.0000 C   0  0  0  0  0  0  0  0  0  0  0  0
   -0.2910    3.1630    0.0000 C   0  0  0  0  0  0  0  0  0  0  0  0
  1  2  1  0  0  0  0
  1  3  1  0  0  0  0
  3  4  2  0  0  0  0
  3 10  1  0  0  0  0
  4  5  1  0  0  0  0
  5  6  2  0  0  0  0
  5  7  1  0  0  0  0
  7  8  1  0  0  0  0
  8  9  1  0  0  0  0
  8 10  1  0  0  0  0
M  END
>  <name>
O(C)C1=CC(=O)OC([C;olefin])C1

>  <apo>
1

>  <freq>
1

>  <freq0>
0

>  <freq1>
1

>  <freqA>
0.99887151

>  <a_count>
20

$$$$

  MOE2015           2D

 10 10  0  0  0  0  0  0  0  0999 V2000
   -3.1280    1.0280    0.0000 O   0  0  0  0  0  0  0  0  0  0  0  0
   -3.1280   -0.4720    0.0000 C   0  0  0  0  0  0  0  0  0  0  0  0
   -1.8290    1.7780    0.0000 C   0  0  0  0  0  0  0  0  0  0  0  0
   -1.8290    3.2780    0.0000 C   0  0  0  0  0  0  0  0  0  0  0  0
   -3.1280    4.0280    0.0000 O   0  0  0  0  0  0  0  0  0  0  0  0
   -0.5300    4.0280    0.0000 C   0  0  0  0  0  0  0  0  0  0  0  0
    0.7690    3.2780    0.0000 C   0  0  0  0  0  0  0  0  0  0  0  0
    0.7690    1.7780    0.0000 C   0  0  0  0  0  0  0  0  0  0  0  0
    2.0680    1.0280    0.0000 C   0  0  0  0  0  0  0  0  0  0  0  0
   -0.5300    1.0280    0.0000 C   0  0  0  0  0  0  0  0  0  0  0  0
  1  2  1  0  0  0  0
  1  3  1  0  0  0  0
  3  4  1  0  0  0  0
  3 10  2  0  0  0  0
  4  5  1  0  0  0  0
  4  6  2  0  0  0  0
  6  7  1  0  0  0  0
  7  8  2  0  0  0  0
  8  9  1  0  0  0  0
  8 10  1  0  0  0  0
M  END
>  <name>
O(C)c1c(O)ccc([C;ether])c1

>  <apo>
1

>  <freq>
1

>  <freq0>
0

>  <freq1>
1

>  <freqA>
0.99887151

>  <a_count>
20

$$$$

  MOE2015           2D

 11 11  0  0  0  0  0  0  0  0999 V2000
   -2.4550    0.0000    0.0000 O   0  0  0  0  0  0  0  0  0  0  0  0
   -3.9550    0.0000    0.0000 C   0  0  0  0  0  0  0  0  0  0  0  0
   -1.7050    1.2990    0.0000 C   0  0  0  0  0  0  0  0  0  0  0  0
   -0.2050    1.2990    0.0000 C   0  0  0  0  0  0  0  0  0  0  0  0
    0.5450    0.0000    0.0000 O   0  0  0  0  0  0  0  0  0  0  0  0
    2.0450    0.0000    0.0000 C   0  0  0  0  0  0  0  0  0  0  0  0
    0.5450    2.5980    0.0000 N   0  0  0  0  0  0  0  0  0  0  0  0
   -0.2050    3.8970    0.0000 C   0  0  0  0  0  0  0  0  0  0  0  0
   -1.7050    3.8970    0.0000 N   0  0  0  0  0  0  0  0  0  0  0  0
   -2.4550    2.5980    0.0000 C   0  0  0  0  0  0  0  0  0  0  0  0
   -3.9550    2.5980    0.0000 N   0  0  0  0  0  0  0  0  0  0  0  0
  1  2  1  0  0  0  0
  1  3  1  0  0  0  0
  3  4  1  0  0  0  0
  3 10  2  0  0  0  0
  4  5  1  0  0  0  0
  4  7  2  0  0  0  0
  5  6  1  0  0  0  0
  7  8  1  0  0  0  0
  8  9  2  0  0  0  0
  9 10  1  0  0  0  0
 10 11  1  0  0  0  0
M  END
>  <name>
O(C)c1c(OC)ncnc1[N;so2amide]

>  <apo>
1

>  <freq>
1

>  <freq0>
0

>  <freq1>
1

>  <freqA>
0.99887151

>  <a_count>
20

$$$$

  MOE2015           2D

 11 11  0  0  0  0  0  0  0  0999 V2000
    1.0300    1.1160    0.0000 O   0  0  0  0  0  0  0  0  0  0  0  0
    2.3290    1.8660    0.0000 C   0  0  0  0  0  0  0  0  0  0  0  0
   -0.2690    1.8660    0.0000 C   0  0  0  0  0  0  0  0  0  0  0  0
   -1.5680    1.1160    0.0000 N   0  0  0  0  0  0  0  0  0  0  0  0
   -2.8670    1.8660    0.0000 C   0  0  0  0  0  0  0  0  0  0  0  0
   -4.1660    1.1160    0.0000 O   0  0  0  0  0  0  0  0  0  0  0  0
   -5.4650    1.8660    0.0000 C   0  0  0  0  0  0  0  0  0  0  0  0
   -2.8670    3.3660    0.0000 C   0  0  0  0  0  0  0  0  0  0  0  0
   -1.5680    4.1160    0.0000 C   0  0  0  0  0  0  0  0  0  0  0  0
   -1.5680    5.6160    0.0000 N   0  0  0  0  0  0  0  0  0  0  0  0
   -0.2690    3.3660    0.0000 N   0  0  0  0  0  0  0  0  0  0  0  0
  1  2  1  0  0  0  0
  1  3  1  0  0  0  0
  3  4  1  0  0  0  0
  3 11  2  0  0  0  0
  4  5  2  0  0  0  0
  5  6  1  0  0  0  0
  5  8  1  0  0  0  0
  6  7  1  0  0  0  0
  8  9  2  0  0  0  0
  9 10  1  0  0  0  0
  9 11  1  0  0  0  0
M  END
>  <name>
O(C)c1nc(OC)cc([N;so2amide])n1

>  <apo>
1

>  <freq>
1

>  <freq0>
0

>  <freq1>
1

>  <freqA>
0.99887151

>  <a_count>
20

$$$$

  MOE2015           2D

 12 12  0  0  1  0  0  0  0  0999 V2000
    3.1880   -0.3250    0.0000 O   0  0  0  0  0  0  0  0  0  0  0  0
    2.4380    0.9740    0.0000 C   0  0  1  0  0  0  0  0  0  0  0  0
    3.1870    2.2730    0.0000 C   0  0  0  0  0  0  0  0  0  0  0  0
    4.6880    2.2730    0.0000 O   0  0  0  0  0  0  0  0  0  0  0  0
    0.9380    0.9740    0.0000 C   0  0  0  0  0  0  0  0  0  0  0  0
    0.1880    2.2730    0.0000 C   0  0  0  0  0  0  0  0  0  0  0  0
   -1.3120    2.2730    0.0000 C   0  0  0  0  0  0  0  0  0  0  0  0
   -2.0630    0.9740    0.0000 C   0  0  0  0  0  0  0  0  0  0  0  0
   -1.3130   -0.3250    0.0000 C   0  0  0  0  0  0  0  0  0  0  0  0
    0.1870   -0.3250    0.0000 C   0  0  0  0  0  0  0  0  0  0  0  0
    4.6880   -0.3250    0.0000 C   0  0  0  0  0  0  0  0  0  0  0  0
    5.4380   -1.6240    0.0000 O   0  0  0  0  0  0  0  0  0  0  0  0
  2  1  1  6  0  0  0
  1 11  1  0  0  0  0
  2  3  1  0  0  0  0
  2  5  1  0  0  0  0
  3  4  2  0  0  0  0
  5  6  1  0  0  0  0
  5 10  2  0  0  0  0
  6  7  2  0  0  0  0
  7  8  1  0  0  0  0
  8  9  2  0  0  0  0
  9 10  1  0  0  0  0
 11 12  2  0  0  0  0
M  END
>  <name>
O([C@@H]([C;amide]=O)c1ccccc1)C=O

>  <apo>
1

>  <freq>
1

>  <freq0>
0

>  <freq1>
1

>  <freqA>
0.99887151

>  <a_count>
20

$$$$

  MOE2015           2D

 11 11  0  0  0  0  0  0  0  0999 V2000
    0.7510   -0.7510    0.0000 O   0  0  0  0  0  0  0  0  0  0  0  0
    0.7510    0.7490    0.0000 C   0  0  0  0  0  0  0  0  0  0  0  0
   -0.5480    1.4990    0.0000 C   0  0  0  0  0  0  0  0  0  0  0  0
    2.0500    1.4990    0.0000 C   0  0  0  0  0  0  0  0  0  0  0  0
    2.0500    2.9990    0.0000 C   0  0  0  0  0  0  0  0  0  0  0  0
    0.7510    3.7490    0.0000 O   0  0  0  0  0  0  0  0  0  0  0  0
    3.3490    3.7490    0.0000 C   0  0  0  0  0  0  0  0  0  0  0  0
    4.6480    2.9990    0.0000 C   0  0  0  0  0  0  0  0  0  0  0  0
    4.6480    1.4990    0.0000 C   0  0  0  0  0  0  0  0  0  0  0  0
    5.9470    0.7490    0.0000 N   0  0  0  0  0  0  0  0  0  0  0  0
    3.3490    0.7490    0.0000 C   0  0  0  0  0  0  0  0  0  0  0  0
  1  2  2  0  0  0  0
  2  3  1  0  0  0  0
  2  4  1  0  0  0  0
  4  5  1  0  0  0  0
  4 11  2  0  0  0  0
  5  6  1  0  0  0  0
  5  7  2  0  0  0  0
  7  8  1  0  0  0  0
  8  9  2  0  0  0  0
  9 10  1  0  0  0  0
  9 11  1  0  0  0  0
M  END
>  <name>
O=C(C)c1c([O;ether])ccc([N;amide])c1

>  <apo>
2

>  <freq>
1

>  <freq0>
0

>  <freq1>
1

>  <freqA>
0.99887151

>  <a_count>
20

$$$$

  MOE2015           2D

 11 11  0  0  0  0  0  0  0  0999 V2000
    0.7510   -0.7510    0.0000 O   0  0  0  0  0  0  0  0  0  0  0  0
    0.7510    0.7490    0.0000 C   0  0  0  0  0  0  0  0  0  0  0  0
   -0.5480    1.4990    0.0000 C   0  0  0  0  0  0  0  0  0  0  0  0
    2.0500    1.4990    0.0000 C   0  0  0  0  0  0  0  0  0  0  0  0
    2.0500    2.9990    0.0000 C   0  0  0  0  0  0  0  0  0  0  0  0
    0.7510    3.7490    0.0000 O   0  0  0  0  0  0  0  0  0  0  0  0
    3.3490    3.7490    0.0000 C   0  0  0  0  0  0  0  0  0  0  0  0
    4.6480    2.9990    0.0000 C   0  0  0  0  0  0  0  0  0  0  0  0
    4.6480    1.4990    0.0000 C   0  0  0  0  0  0  0  0  0  0  0  0
    5.9470    0.7490    0.0000 N   0  0  0  0  0  0  0  0  0  0  0  0
    3.3490    0.7490    0.0000 C   0  0  0  0  0  0  0  0  0  0  0  0
  1  2  2  0  0  0  0
  2  3  1  0  0  0  0
  2  4  1  0  0  0  0
  4  5  1  0  0  0  0
  4 11  2  0  0  0  0
  5  6  1  0  0  0  0
  5  7  2  0  0  0  0
  7  8  1  0  0  0  0
  8  9  2  0  0  0  0
  9 10  1  0  0  0  0
  9 11  1  0  0  0  0
M  END
>  <name>
O=C(C)c1c([O;ether])ccc([N;urea])c1

>  <apo>
2

>  <freq>
1

>  <freq0>
0

>  <freq1>
1

>  <freqA>
0.99887151

>  <a_count>
20

$$$$

  MOE2015           2D

  8  7  0  0  0  0  0  0  0  0999 V2000
    0.8320    0.8320    0.0000 O   0  0  0  0  0  0  0  0  0  0  0  0
    0.8320   -0.6680    0.0000 C   0  0  0  0  0  0  0  0  0  0  0  0
   -0.4670   -1.4180    0.0000 N   0  0  0  0  0  0  0  0  0  0  0  0
    2.1310   -1.4180    0.0000 C   0  0  0  0  0  0  0  0  0  0  0  0
    3.4300   -2.1680    0.0000 C   0  0  0  0  0  0  0  0  0  0  0  0
    4.7290   -1.4180    0.0000 N   0  0  0  0  0  0  0  0  0  0  0  0
    1.3810   -2.7170    0.0000 C   0  0  0  0  0  0  0  0  0  0  0  0
    2.8810   -0.1190    0.0000 C   0  0  0  0  0  0  0  0  0  0  0  0
  1  2  2  0  0  0  0
  2  3  1  0  0  0  0
  2  4  1  0  0  0  0
  4  5  1  0  0  0  0
  4  7  1  0  0  0  0
  4  8  1  0  0  0  0
  5  6  1  0  0  0  0
M  END
>  <name>
O=C(N)C(C[N;amide])(C)C

>  <apo>
1

>  <freq>
1

>  <freq0>
0

>  <freq1>
1

>  <freqA>
0.99887151

>  <a_count>
20

$$$$

  MOE2015           2D

 10  9  0  0  1  0  0  0  0  0999 V2000
   -0.7430    4.1930    0.0000 O   0  0  0  0  0  0  0  0  0  0  0  0
   -0.7430    2.6930    0.0000 C   0  0  0  0  0  0  0  0  0  0  0  0
   -2.0420    1.9430    0.0000 N   0  0  0  0  0  0  0  0  0  0  0  0
    0.5560    1.9430    0.0000 C   0  0  0  0  0  0  0  0  0  0  0  0
    1.8550    2.6930    0.0000 C   0  0  1  0  0  0  0  0  0  0  0  0
    1.8550    4.1930    0.0000 O   0  0  0  0  0  0  0  0  0  0  0  0
    3.1540    1.9430    0.0000 C   0  0  2  0  0  0  0  0  0  0  0  0
    3.1540    0.4430    0.0000 N   0  0  0  0  0  0  0  0  0  0  0  0
    4.4530    2.6930    0.0000 C   0  0  0  0  0  0  0  0  0  0  0  0
    5.7520    1.9430    0.0000 O   0  0  0  0  0  0  0  0  0  0  0  0
  1  2  2  0  0  0  0
  2  3  1  0  0  0  0
  2  4  1  0  0  0  0
  4  5  1  0  0  0  0
  5  6  1  1  0  0  0
  5  7  1  0  0  0  0
  7  8  1  1  0  0  0
  7  9  1  0  0  0  0
  9 10  2  0  0  0  0
M  END
>  <name>
O=C(N)C[C@@H](O)[C@H]([N;amide])[C;amide]=O

>  <apo>
2

>  <freq>
1

>  <freq0>
0

>  <freq1>
1

>  <freqA>
0.99887151

>  <a_count>
20

$$$$

  MOE2015           2D

 11 11  0  0  0  0  0  0  0  0999 V2000
    2.7950    0.5900    0.0000 O   0  0  0  0  0  0  0  0  0  0  0  0
    3.5450    1.8900    0.0000 C   0  0  0  0  0  0  0  0  0  0  0  0
    5.0450    1.8900    0.0000 N   0  0  0  0  0  0  0  0  0  0  0  0
    2.7950    3.1890    0.0000 C   0  0  0  0  0  0  0  0  0  0  0  0
    1.2950    3.1890    0.0000 C   0  0  0  0  0  0  0  0  0  0  0  0
    0.5450    1.8900    0.0000 C   0  0  0  0  0  0  0  0  0  0  0  0
   -0.9550    1.8900    0.0000 C   0  0  0  0  0  0  0  0  0  0  0  0
   -1.7050    3.1890    0.0000 C   0  0  0  0  0  0  0  0  0  0  0  0
   -3.2050    3.1890    0.0000 O   0  0  0  0  0  0  0  0  0  0  0  0
   -0.9550    4.4880    0.0000 C   0  0  0  0  0  0  0  0  0  0  0  0
    0.5450    4.4880    0.0000 C   0  0  0  0  0  0  0  0  0  0  0  0
  1  2  2  0  0  0  0
  2  3  1  0  0  0  0
  2  4  1  0  0  0  0
  4  5  1  0  0  0  0
  5  6  1  0  0  0  0
  5 11  2  0  0  0  0
  6  7  2  0  0  0  0
  7  8  1  0  0  0  0
  8  9  1  0  0  0  0
  8 10  2  0  0  0  0
 10 11  1  0  0  0  0
M  END
>  <name>
O=C(N)Cc1ccc([O;ether])cc1

>  <apo>
1

>  <freq>
1

>  <freq0>
0

>  <freq1>
1

>  <freqA>
0.99887151

>  <a_count>
20

$$$$

  MOE2015           2D

  8  7  0  0  1  0  0  0  0  0999 V2000
   -0.0670   -1.3740    0.0000 O   0  0  0  0  0  0  0  0  0  0  0  0
    1.2320   -0.6240    0.0000 C   0  0  0  0  0  0  0  0  0  0  0  0
    1.2320    0.8760    0.0000 N   0  0  0  0  0  0  0  0  0  0  0  0
    2.5310   -1.3740    0.0000 C   0  0  1  0  0  0  0  0  0  0  0  0
    2.5310   -2.8740    0.0000 N   0  0  0  0  0  0  0  0  0  0  0  0
    3.8300   -0.6240    0.0000 C   0  0  0  0  0  0  0  0  0  0  0  0
    5.1290   -1.3740    0.0000 C   0  0  0  0  0  0  0  0  0  0  0  0
    3.8300    0.8760    0.0000 C   0  0  0  0  0  0  0  0  0  0  0  0
  1  2  2  0  0  0  0
  2  3  1  0  0  0  0
  2  4  1  0  0  0  0
  4  5  1  6  0  0  0
  4  6  1  0  0  0  0
  6  7  1  0  0  0  0
  6  8  1  0  0  0  0
M  END
>  <name>
O=C(N)[C@@H]([N;amide])C(C)C

>  <apo>
1

>  <freq>
1

>  <freq0>
0

>  <freq1>
1

>  <freqA>
0.99887151

>  <a_count>
20

$$$$

  MOE2015           2D

  8  7  0  0  0  0  0  0  0  0999 V2000
   -0.1970    0.7370    0.0000 O   0  0  0  0  0  0  0  0  0  0  0  0
    1.1020    1.4870    0.0000 C   0  0  0  0  0  0  0  0  0  0  0  0
    2.4010    0.7370    0.0000 N   0  0  0  0  0  0  0  0  0  0  0  0
    3.7000    1.4870    0.0000 C   0  0  0  0  0  0  0  0  0  0  0  0
    4.9990    0.7370    0.0000 C   0  0  0  0  0  0  0  0  0  0  0  0
    6.2980    1.4870    0.0000 C   0  0  0  0  0  0  0  0  0  0  0  0
    7.5970    0.7370    0.0000 C   0  0  0  0  0  0  0  0  0  0  0  0
    1.1020    2.9870    0.0000 N   0  0  0  0  0  0  0  0  0  0  0  0
  1  2  2  0  0  0  0
  2  3  1  0  0  0  0
  2  8  1  0  0  0  0
  3  4  1  0  0  0  0
  4  5  1  0  0  0  0
  5  6  1  0  0  0  0
  6  7  1  0  0  0  0
M  END
>  <name>
O=C(NCCCC)[N;so2amide]

>  <apo>
1

>  <freq>
1

>  <freq0>
0

>  <freq1>
1

>  <freqA>
0.99887151

>  <a_count>
20

$$$$

  MOE2015           2D

 12 12  0  0  1  0  0  0  0  0999 V2000
    0.0000    2.1650    0.0000 O   0  0  0  0  0  0  0  0  0  0  0  0
    1.5000    2.1650    0.0000 C   0  0  0  0  0  0  0  0  0  0  0  0
    2.2500    3.4640    0.0000 O   0  0  0  0  0  0  0  0  0  0  0  0
    2.2500    0.8660    0.0000 C   0  0  3  0  0  0  0  0  0  0  0  0
    1.5000   -0.4330    0.0000 C   0  0  0  0  0  0  0  0  0  0  0  0
    0.0000   -0.4330    0.0000 O   0  0  0  0  0  0  0  0  0  0  0  0
    3.7500    0.8660    0.0000 C   0  0  0  0  0  0  0  0  0  0  0  0
    4.5000   -0.4330    0.0000 C   0  0  0  0  0  0  0  0  0  0  0  0
    6.0000   -0.4330    0.0000 C   0  0  0  0  0  0  0  0  0  0  0  0
    6.7500    0.8660    0.0000 C   0  0  0  0  0  0  0  0  0  0  0  0
    6.0000    2.1650    0.0000 C   0  0  0  0  0  0  0  0  0  0  0  0
    4.5000    2.1650    0.0000 C   0  0  0  0  0  0  0  0  0  0  0  0
  1  2  2  0  0  0  0
  2  3  1  0  0  0  0
  2  4  1  0  0  0  0
  4  5  1  0  0  0  0
  4  7  1  0  0  0  0
  5  6  2  0  0  0  0
  7  8  1  0  0  0  0
  7 12  2  0  0  0  0
  8  9  2  0  0  0  0
  9 10  1  0  0  0  0
 10 11  2  0  0  0  0
 11 12  1  0  0  0  0
M  END
>  <name>
O=C(O)C([C;amide]=O)c1ccccc1

>  <apo>
1

>  <freq>
1

>  <freq0>
0

>  <freq1>
1

>  <freqA>
0.99887151

>  <a_count>
20

$$$$

  MOE2015           2D

  8  7  0  0  0  0  0  0  0  0999 V2000
   -0.1970   -1.8620    0.0000 O   0  0  0  0  0  0  0  0  0  0  0  0
    1.1020   -1.1120    0.0000 C   0  0  0  0  0  0  0  0  0  0  0  0
    1.1020    0.3880    0.0000 O   0  0  0  0  0  0  0  0  0  0  0  0
    2.4010   -1.8620    0.0000 C   0  0  0  0  0  0  0  0  0  0  0  0
    3.7000   -1.1120    0.0000 C   0  0  0  0  0  0  0  0  0  0  0  0
    4.9990   -1.8620    0.0000 C   0  0  0  0  0  0  0  0  0  0  0  0
    6.2980   -1.1120    0.0000 C   0  0  0  0  0  0  0  0  0  0  0  0
    7.5970   -1.8620    0.0000 C   0  0  0  0  0  0  0  0  0  0  0  0
  1  2  2  0  0  0  0
  2  3  1  0  0  0  0
  2  4  1  0  0  0  0
  4  5  1  0  0  0  0
  5  6  1  0  0  0  0
  6  7  1  0  0  0  0
  7  8  1  0  0  0  0
M  END
>  <name>
O=C(O)CCCC[C;olefin]

>  <apo>
1

>  <freq>
1

>  <freq0>
0

>  <freq1>
1

>  <freqA>
0.99887151

>  <a_count>
20

$$$$

  MOE2015           2D

  9  9  0  0  1  0  0  0  0  0999 V2000
    5.0000    0.2890    0.0000 O   0  0  0  0  0  0  0  0  0  0  0  0
    4.2500    1.5880    0.0000 C   0  0  0  0  0  0  0  0  0  0  0  0
    5.0000    2.8870    0.0000 O   0  0  0  0  0  0  0  0  0  0  0  0
    2.7500    1.5880    0.0000 C   0  0  1  0  0  0  0  0  0  0  0  0
    2.0000    2.8870    0.0000 C   0  0  0  0  0  0  0  0  0  0  0  0
    0.5000    2.8870    0.0000 N   0  0  0  0  0  0  0  0  0  0  0  0
   -0.2500    1.5880    0.0000 C   0  0  0  0  0  0  0  0  0  0  0  0
    0.5000    0.2890    0.0000 C   0  0  0  0  0  0  0  0  0  0  0  0
    2.0000    0.2890    0.0000 C   0  0  0  0  0  0  0  0  0  0  0  0
  1  2  2  0  0  0  0
  2  3  1  0  0  0  0
  4  2  1  6  0  0  0
  4  5  1  0  0  0  0
  4  9  1  0  0  0  0
  5  6  1  0  0  0  0
  6  7  1  0  0  0  0
  7  8  1  0  0  0  0
  8  9  1  0  0  0  0
M  END
>  <name>
O=C(O)[C@H]1C[N;amine]CCC1

>  <apo>
1

>  <freq>
1

>  <freq0>
0

>  <freq1>
1

>  <freqA>
0.99887151

>  <a_count>
20

$$$$

  MOE2015           2D

 11 11  0  0  0  0  0  0  0  0999 V2000
    3.4940    3.5400    0.0000 O   0  0  0  0  0  0  0  0  0  0  0  0
    3.5140    2.0400    0.0000 C   0  0  0  0  0  0  0  0  0  0  0  0
    4.8220    1.3080    0.0000 O   0  0  0  0  0  0  0  0  0  0  0  0
    6.1110    2.0750    0.0000 C   0  0  0  0  0  0  0  0  0  0  0  0
    2.2250    1.2730    0.0000 C   0  0  0  0  0  0  0  0  0  0  0  0
    0.8460    1.8650    0.0000 C   0  0  0  0  0  0  0  0  0  0  0  0
    0.5150    3.3280    0.0000 N   0  0  0  0  0  0  0  0  0  0  0  0
   -0.1430    0.7370    0.0000 C   0  0  0  0  0  0  0  0  0  0  0  0
   -1.6360    0.8740    0.0000 C   0  0  0  0  0  0  0  0  0  0  0  0
    0.6250   -0.5520    0.0000 C   0  0  0  0  0  0  0  0  0  0  0  0
    2.0880   -0.2200    0.0000 S   0  0  0  0  0  0  0  0  0  0  0  0
  1  2  2  0  0  0  0
  2  3  1  0  0  0  0
  2  5  1  0  0  0  0
  3  4  1  0  0  0  0
  5  6  2  0  0  0  0
  5 11  1  0  0  0  0
  6  7  1  0  0  0  0
  6  8  1  0  0  0  0
  8  9  1  0  0  0  0
  8 10  2  0  0  0  0
 10 11  1  0  0  0  0
M  END
>  <name>
O=C(OC)c1c([N;amide])c(C)cs1

>  <apo>
1

>  <freq>
1

>  <freq0>
0

>  <freq1>
1

>  <freqA>
0.99887151

>  <a_count>
20

$$$$

  MOE2015           2D

 10 10  0  0  0  0  0  0  0  0999 V2000
    4.5000    2.5980    0.0000 O   0  0  0  0  0  0  0  0  0  0  0  0
    3.7500    1.2990    0.0000 C   0  0  0  0  0  0  0  0  0  0  0  0
    4.5000    0.0000    0.0000 C   0  0  0  0  0  0  0  0  0  0  0  0
    6.0000    0.0000    0.0000 C   0  0  0  0  0  0  0  0  0  0  0  0
    2.2500    1.2990    0.0000 C   0  0  0  0  0  0  0  0  0  0  0  0
    1.5000    0.0000    0.0000 C   0  0  0  0  0  0  0  0  0  0  0  0
    0.0000    0.0000    0.0000 C   0  0  0  0  0  0  0  0  0  0  0  0
   -0.7500    1.2990    0.0000 C   0  0  0  0  0  0  0  0  0  0  0  0
    0.0000    2.5980    0.0000 C   0  0  0  0  0  0  0  0  0  0  0  0
    1.5000    2.5980    0.0000 C   0  0  0  0  0  0  0  0  0  0  0  0
  1  2  2  0  0  0  0
  2  3  1  0  0  0  0
  2  5  1  0  0  0  0
  3  4  1  0  0  0  0
  5  6  1  0  0  0  0
  5 10  2  0  0  0  0
  6  7  2  0  0  0  0
  7  8  1  0  0  0  0
  8  9  2  0  0  0  0
  9 10  1  0  0  0  0
M  END
>  <name>
O=C([C;amine]C)c1ccccc1

>  <apo>
1

>  <freq>
1

>  <freq0>
0

>  <freq1>
1

>  <freqA>
0.99887151

>  <a_count>
20

$$$$

  MOE2015           2D

  9  8  0  0  1  0  0  0  0  0999 V2000
    0.6790   -2.9880    0.0000 O   0  0  0  0  0  0  0  0  0  0  0  0
    0.6790   -1.4880    0.0000 C   0  0  0  0  0  0  0  0  0  0  0  0
    1.9780   -0.7380    0.0000 C   0  0  1  0  0  0  0  0  0  0  0  0
    1.9780    0.7620    0.0000 N   0  0  0  0  0  0  0  0  0  0  0  0
    3.2770   -1.4880    0.0000 C   0  0  0  0  0  0  0  0  0  0  0  0
    4.5760   -0.7380    0.0000 C   0  0  0  0  0  0  0  0  0  0  0  0
    5.8750   -1.4880    0.0000 C   0  0  0  0  0  0  0  0  0  0  0  0
   -0.6200   -0.7380    0.0000 C   0  0  0  0  0  0  0  0  0  0  0  0
   -1.9190   -1.4880    0.0000 O   0  0  0  0  0  0  0  0  0  0  0  0
  1  2  2  0  0  0  0
  2  3  1  0  0  0  0
  2  8  1  0  0  0  0
  3  4  1  1  0  0  0
  3  5  1  0  0  0  0
  5  6  1  0  0  0  0
  6  7  1  0  0  0  0
  8  9  2  0  0  0  0
M  END
>  <name>
O=C([C@@H]([N;amide])CCC)[C;amide]=O

>  <apo>
2

>  <freq>
1

>  <freq0>
0

>  <freq1>
1

>  <freqA>
0.99887151

>  <a_count>
20

$$$$

  MOE2015           2D

  9  9  0  0  0  0  0  0  0  0999 V2000
    4.5080    2.0790    0.0000 O   0  0  0  0  0  0  0  0  0  0  0  0
    3.0410    1.7670    0.0000 C   0  0  0  0  0  0  0  0  0  0  0  0
    2.4310    0.3970    0.0000 C   0  0  0  0  0  0  0  0  0  0  0  0
    3.1810   -0.9020    0.0000 C   0  0  0  0  0  0  0  0  0  0  0  0
    4.6810   -0.9020    0.0000 C   0  0  0  0  0  0  0  0  0  0  0  0
    0.9390    0.5540    0.0000 C   0  0  0  0  0  0  0  0  0  0  0  0
   -0.0640   -0.5610    0.0000 C   0  0  0  0  0  0  0  0  0  0  0  0
    0.6270    2.0210    0.0000 C   0  0  0  0  0  0  0  0  0  0  0  0
    1.9260    2.7710    0.0000 N   0  0  0  0  0  0  0  0  0  0  0  0
  1  2  2  0  0  0  0
  2  3  1  0  0  0  0
  2  9  1  0  0  0  0
  3  4  1  0  0  0  0
  3  6  2  0  0  0  0
  4  5  1  0  0  0  0
  6  7  1  0  0  0  0
  6  8  1  0  0  0  0
  8  9  1  0  0  0  0
M  END
>  <name>
O=C1C(CC)=C(C)C[N;urea]1

>  <apo>
1

>  <freq>
1

>  <freq0>
0

>  <freq1>
1

>  <freqA>
0.99887151

>  <a_count>
20

$$$$

  MOE2015           2D

 10 10  0  0  0  0  0  0  0  0999 V2000
    1.7460    2.2760    0.0000 O   0  0  0  0  0  0  0  0  0  0  0  0
    2.1340    0.8270    0.0000 C   0  0  0  0  0  0  0  0  0  0  0  0
    1.1900   -0.3390    0.0000 N   0  0  0  0  0  0  0  0  0  0  0  0
   -0.3070   -0.2600    0.0000 C   0  0  0  0  0  0  0  0  0  0  0  0
   -1.1240   -1.5180    0.0000 C   0  0  0  0  0  0  0  0  0  0  0  0
    2.0070   -1.5970    0.0000 N   0  0  0  0  0  0  0  0  0  0  0  0
    3.4560   -1.2090    0.0000 N   0  0  0  0  0  0  0  0  0  0  0  0
    3.5350    0.2890    0.0000 N   0  0  0  0  0  0  0  0  0  0  0  0
    4.7930    1.1060    0.0000 C   0  0  0  0  0  0  0  0  0  0  0  0
    6.1290    0.4250    0.0000 C   0  0  0  0  0  0  0  0  0  0  0  0
  1  2  2  0  0  0  0
  2  3  1  0  0  0  0
  2  8  1  0  0  0  0
  3  4  1  0  0  0  0
  3  6  1  0  0  0  0
  4  5  1  0  0  0  0
  6  7  2  0  0  0  0
  7  8  1  0  0  0  0
  8  9  1  0  0  0  0
  9 10  1  0  0  0  0
M  END
>  <name>
O=C1N(C[C;amine])N=NN1CC

>  <apo>
1

>  <freq>
1

>  <freq0>
0

>  <freq1>
1

>  <freqA>
0.99887151

>  <a_count>
20

$$$$

  MOE2015           2D

 13 14  0  0  0  0  0  0  0  0999 V2000
    1.5700    3.9680    0.0000 O   0  0  0  0  0  0  0  0  0  0  0  0
    1.5700    2.4680    0.0000 C   0  0  0  0  0  0  0  0  0  0  0  0
    0.2710    1.7180    0.0000 N   0  0  0  0  0  0  0  0  0  0  0  0
    0.2710    0.2180    0.0000 C   0  0  0  0  0  0  0  0  0  0  0  0
   -1.0280   -0.5320    0.0000 N   0  0  0  0  0  0  0  0  0  0  0  0
    1.5700   -0.5320    0.0000 N   0  0  0  0  0  0  0  0  0  0  0  0
    2.8690    0.2180    0.0000 C   0  0  0  0  0  0  0  0  0  0  0  0
    4.1680   -0.5320    0.0000 N   0  0  0  0  0  0  0  0  0  0  0  0
    5.4670    0.2180    0.0000 C   0  0  0  0  0  0  0  0  0  0  0  0
    5.4670    1.7180    0.0000 C   0  0  0  0  0  0  0  0  0  0  0  0
    6.7660    2.4680    0.0000 C   0  0  0  0  0  0  0  0  0  0  0  0
    4.1680    2.4680    0.0000 N   0  0  0  0  0  0  0  0  0  0  0  0
    2.8690    1.7180    0.0000 C   0  0  0  0  0  0  0  0  0  0  0  0
  1  2  2  0  0  0  0
  2  3  1  0  0  0  0
  2 13  1  0  0  0  0
  3  4  2  0  0  0  0
  4  5  1  0  0  0  0
  4  6  1  0  0  0  0
  6  7  1  0  0  0  0
  7  8  1  0  0  0  0
  7 13  2  0  0  0  0
  8  9  2  0  0  0  0
  9 10  1  0  0  0  0
 10 11  1  0  0  0  0
 10 12  2  0  0  0  0
 12 13  1  0  0  0  0
M  END
>  <name>
O=C1N=C(N)Nc2ncc([C;amine])nc12

>  <apo>
1

>  <freq>
1

>  <freq0>
0

>  <freq1>
1

>  <freqA>
0.99887151

>  <a_count>
20

$$$$

  MOE2015           2D

 13 14  0  0  0  0  0  0  0  0999 V2000
    1.5700    3.9680    0.0000 O   0  0  0  0  0  0  0  0  0  0  0  0
    1.5700    2.4680    0.0000 C   0  0  0  0  0  0  0  0  0  0  0  0
    0.2710    1.7180    0.0000 N   0  0  0  0  0  0  0  0  0  0  0  0
    0.2710    0.2180    0.0000 C   0  0  0  0  0  0  0  0  0  0  0  0
   -1.0280   -0.5320    0.0000 N   0  0  0  0  0  0  0  0  0  0  0  0
    1.5700   -0.5320    0.0000 N   0  0  0  0  0  0  0  0  0  0  0  0
    2.8690    0.2180    0.0000 C   0  0  0  0  0  0  0  0  0  0  0  0
    4.1680   -0.5320    0.0000 N   0  0  0  0  0  0  0  0  0  0  0  0
    5.4670    0.2180    0.0000 C   0  0  0  0  0  0  0  0  0  0  0  0
    5.4670    1.7180    0.0000 C   0  0  0  0  0  0  0  0  0  0  0  0
    6.7660    2.4680    0.0000 C   0  0  0  0  0  0  0  0  0  0  0  0
    4.1680    2.4680    0.0000 N   0  0  0  0  0  0  0  0  0  0  0  0
    2.8690    1.7180    0.0000 C   0  0  0  0  0  0  0  0  0  0  0  0
  1  2  2  0  0  0  0
  2  3  1  0  0  0  0
  2 13  1  0  0  0  0
  3  4  1  0  0  0  0
  4  5  1  0  0  0  0
  4  6  2  0  0  0  0
  6  7  1  0  0  0  0
  7  8  1  0  0  0  0
  7 13  2  0  0  0  0
  8  9  2  0  0  0  0
  9 10  1  0  0  0  0
 10 11  1  0  0  0  0
 10 12  2  0  0  0  0
 12 13  1  0  0  0  0
M  END
>  <name>
O=C1NC(N)=Nc2ncc([C;amine])nc12

>  <apo>
1

>  <freq>
1

>  <freq0>
0

>  <freq1>
1

>  <freqA>
0.99887151

>  <a_count>
20

$$$$

  MOE2015           2D

  9  8  0  0  1  0  0  0  0  0999 V2000
    7.3360   -0.6320    0.0000 O   0  0  0  0  0  0  0  0  0  0  0  0
    6.0370   -1.3820    0.0000 C   0  0  0  0  0  0  0  0  0  0  0  0
    4.7380   -0.6320    0.0000 N   0  0  0  0  0  0  0  0  0  0  0  0
    3.4390   -1.3820    0.0000 C   0  0  2  0  0  0  0  0  0  0  0  0
    3.4390   -2.8820    0.0000 C   0  0  0  0  0  0  0  0  0  0  0  0
    2.1400   -3.6320    0.0000 O   0  0  0  0  0  0  0  0  0  0  0  0
    2.1400   -0.6320    0.0000 C   0  0  0  0  0  0  0  0  0  0  0  0
    2.1400    0.8680    0.0000 C   0  0  0  0  0  0  0  0  0  0  0  0
    0.8410   -1.3820    0.0000 C   0  0  0  0  0  0  0  0  0  0  0  0
  1  2  2  0  0  0  0
  2  3  1  0  0  0  0
  4  3  1  6  0  0  0
  4  5  1  0  0  0  0
  4  7  1  0  0  0  0
  5  6  2  0  0  0  0
  7  8  1  0  0  0  0
  7  9  1  0  0  0  0
M  END
>  <name>
O=CN[C@H]([C;amide]=O)C(C)C

>  <apo>
1

>  <freq>
1

>  <freq0>
0

>  <freq1>
1

>  <freqA>
0.99887151

>  <a_count>
20

$$$$

  MOE2015           2D

  8  8  0  0  0  0  0  0  0  0999 V2000
    5.3440   -0.8120    0.0000 O   0  0  0  0  0  0  0  0  0  0  0  0
    4.5940   -2.1110    0.0000 C   0  0  0  0  0  0  0  0  0  0  0  0
    3.0940   -2.1110    0.0000 C   0  0  0  0  0  0  0  0  0  0  0  0
    2.3440   -3.4100    0.0000 C   0  0  0  0  0  0  0  0  0  0  0  0
    0.8440   -3.4100    0.0000 C   0  0  0  0  0  0  0  0  0  0  0  0
    0.0940   -2.1110    0.0000 C   0  0  0  0  0  0  0  0  0  0  0  0
    0.8440   -0.8120    0.0000 C   0  0  0  0  0  0  0  0  0  0  0  0
    2.3440   -0.8120    0.0000 C   0  0  0  0  0  0  0  0  0  0  0  0
  1  2  2  0  0  0  0
  2  3  1  0  0  0  0
  3  4  1  0  0  0  0
  3  8  1  0  0  0  0
  4  5  1  0  0  0  0
  5  6  1  0  0  0  0
  6  7  1  0  0  0  0
  7  8  1  0  0  0  0
M  END
>  <name>
O=[C;amide]C1CCCCC1

>  <apo>
1

>  <freq>
1

>  <freq0>
0

>  <freq1>
1

>  <freqA>
0.99887151

>  <a_count>
20

$$$$

  MOE2015           2D

 12 13  0  0  1  0  0  0  0  0999 V2000
    8.0010    2.1440    0.0000 O   0  0  0  0  0  0  0  0  0  0  0  0
    6.7020    1.3940    0.0000 C   0  0  0  0  0  0  0  0  0  0  0  0
    5.4030    2.1440    0.0000 C   0  0  3  0  0  0  0  0  0  0  0  0
    4.1040    1.3940    0.0000 O   0  0  0  0  0  0  0  0  0  0  0  0
    2.8050    2.1440    0.0000 C   0  0  0  0  0  0  0  0  0  0  0  0
    2.8050    3.6440    0.0000 C   0  0  0  0  0  0  0  0  0  0  0  0
    4.1040    4.3940    0.0000 O   0  0  0  0  0  0  0  0  0  0  0  0
    5.4030    3.6440    0.0000 C   0  0  0  0  0  0  0  0  0  0  0  0
    1.5060    4.3940    0.0000 C   0  0  0  0  0  0  0  0  0  0  0  0
    0.2070    3.6440    0.0000 C   0  0  0  0  0  0  0  0  0  0  0  0
    0.2070    2.1440    0.0000 C   0  0  0  0  0  0  0  0  0  0  0  0
    1.5060    1.3940    0.0000 C   0  0  0  0  0  0  0  0  0  0  0  0
  1  2  2  0  0  0  0
  2  3  1  0  0  0  0
  3  4  1  0  0  0  0
  3  8  1  0  0  0  0
  4  5  1  0  0  0  0
  5  6  1  0  0  0  0
  5 12  2  0  0  0  0
  6  7  1  0  0  0  0
  6  9  2  0  0  0  0
  7  8  1  0  0  0  0
  9 10  1  0  0  0  0
 10 11  2  0  0  0  0
 11 12  1  0  0  0  0
M  END
>  <name>
O=[C;amide]C1Oc2c(OC1)cccc2

>  <apo>
1

>  <freq>
1

>  <freq0>
0

>  <freq1>
1

>  <freqA>
0.99887151

>  <a_count>
20

$$$$

  MOE2015           2D

 13 14  0  0  0  0  0  0  0  0999 V2000
    8.0310    2.8440    0.0000 O   0  0  0  0  0  0  0  0  0  0  0  0
    6.7320    3.5940    0.0000 C   0  0  0  0  0  0  0  0  0  0  0  0
    5.4330    2.8440    0.0000 C   0  0  0  0  0  0  0  0  0  0  0  0
    4.1340    3.5940    0.0000 C   0  0  0  0  0  0  0  0  0  0  0  0
    4.1340    5.0940    0.0000 O   0  0  0  0  0  0  0  0  0  0  0  0
    2.8350    2.8440    0.0000 C   0  0  0  0  0  0  0  0  0  0  0  0
    2.8350    1.3440    0.0000 C   0  0  0  0  0  0  0  0  0  0  0  0
    4.1340    0.5940    0.0000 N   0  0  0  0  0  0  0  0  0  0  0  0
    5.4330    1.3440    0.0000 C   0  0  0  0  0  0  0  0  0  0  0  0
    1.5360    0.5940    0.0000 C   0  0  0  0  0  0  0  0  0  0  0  0
    0.2370    1.3440    0.0000 C   0  0  0  0  0  0  0  0  0  0  0  0
    0.2370    2.8440    0.0000 C   0  0  0  0  0  0  0  0  0  0  0  0
    1.5360    3.5940    0.0000 C   0  0  0  0  0  0  0  0  0  0  0  0
  1  2  2  0  0  0  0
  2  3  1  0  0  0  0
  3  4  1  0  0  0  0
  3  9  2  0  0  0  0
  4  5  2  0  0  0  0
  4  6  1  0  0  0  0
  6  7  1  0  0  0  0
  6 13  2  0  0  0  0
  7  8  1  0  0  0  0
  7 10  2  0  0  0  0
  8  9  1  0  0  0  0
 10 11  1  0  0  0  0
 11 12  2  0  0  0  0
 12 13  1  0  0  0  0
M  END
>  <name>
O=[C;amide]C=1C(=O)c2c(NC=1)cccc2

>  <apo>
1

>  <freq>
1

>  <freq0>
0

>  <freq1>
1

>  <freqA>
0.99887151

>  <a_count>
20

$$$$

  MOE2015           2D

  8  7  0  0  1  0  0  0  0  0999 V2000
   -0.4530   -1.6920    0.0000 O   0  0  0  0  0  0  0  0  0  0  0  0
    0.8460   -2.4420    0.0000 C   0  0  0  0  0  0  0  0  0  0  0  0
    2.1450   -1.6920    0.0000 C   0  0  2  0  0  0  0  0  0  0  0  0
    2.1450   -0.1920    0.0000 N   0  0  0  0  0  0  0  0  0  0  0  0
    3.4440   -2.4420    0.0000 C   0  0  0  0  0  0  0  0  0  0  0  0
    4.7430   -1.6920    0.0000 C   0  0  0  0  0  0  0  0  0  0  0  0
    6.0420   -2.4420    0.0000 C   0  0  0  0  0  0  0  0  0  0  0  0
    7.3410   -1.6920    0.0000 N   0  0  0  0  0  0  0  0  0  0  0  0
  1  2  2  0  0  0  0
  2  3  1  0  0  0  0
  3  4  1  6  0  0  0
  3  5  1  0  0  0  0
  5  6  1  0  0  0  0
  6  7  1  0  0  0  0
  7  8  1  0  0  0  0
M  END
>  <name>
O=[C;amide][C@H]([N;amide])CCCN

>  <apo>
2

>  <freq>
1

>  <freq0>
0

>  <freq1>
1

>  <freqA>
0.99887151

>  <a_count>
20

$$$$

  MOE2015           2D

  8  7  0  0  1  0  0  0  0  0999 V2000
   -0.4530   -1.6920    0.0000 O   0  0  0  0  0  0  0  0  0  0  0  0
    0.8460   -2.4420    0.0000 C   0  0  0  0  0  0  0  0  0  0  0  0
    2.1450   -1.6920    0.0000 C   0  0  2  0  0  0  0  0  0  0  0  0
    2.1450   -0.1920    0.0000 N   0  0  0  0  0  0  0  0  0  0  0  0
    3.4440   -2.4420    0.0000 C   0  0  0  0  0  0  0  0  0  0  0  0
    4.7430   -1.6920    0.0000 C   0  0  0  0  0  0  0  0  0  0  0  0
    6.0420   -2.4420    0.0000 C   0  0  0  0  0  0  0  0  0  0  0  0
    7.3410   -1.6920    0.0000 N   0  0  0  0  0  0  0  0  0  0  0  0
  1  2  2  0  0  0  0
  2  3  1  0  0  0  0
  3  4  1  6  0  0  0
  3  5  1  0  0  0  0
  5  6  1  0  0  0  0
  6  7  1  0  0  0  0
  7  8  1  0  0  0  0
M  END
>  <name>
O=[C;amide][C@H]([N;amide])CCC[N;urea]

>  <apo>
3

>  <freq>
1

>  <freq0>
0

>  <freq1>
1

>  <freqA>
0.99887151

>  <a_count>
20

$$$$

  MOE2015           2D

 11 11  0  0  1  0  0  0  0  0999 V2000
    8.1820   -2.3620    0.0000 O   0  0  0  0  0  0  0  0  0  0  0  0
    6.6820   -2.3620    0.0000 C   0  0  0  0  0  0  0  0  0  0  0  0
    5.9320   -1.0630    0.0000 C   0  0  2  0  0  0  0  0  0  0  0  0
    6.6820    0.2360    0.0000 N   0  0  0  0  0  0  0  0  0  0  0  0
    4.4320   -1.0630    0.0000 C   0  0  0  0  0  0  0  0  0  0  0  0
    3.6820   -2.3620    0.0000 C   0  0  0  0  0  0  0  0  0  0  0  0
    2.1820   -2.3620    0.0000 C   0  0  0  0  0  0  0  0  0  0  0  0
    1.4320   -1.0630    0.0000 C   0  0  0  0  0  0  0  0  0  0  0  0
   -0.0680   -1.0630    0.0000 O   0  0  0  0  0  0  0  0  0  0  0  0
    2.1820    0.2360    0.0000 C   0  0  0  0  0  0  0  0  0  0  0  0
    3.6820    0.2360    0.0000 C   0  0  0  0  0  0  0  0  0  0  0  0
  1  2  2  0  0  0  0
  2  3  1  0  0  0  0
  3  4  1  1  0  0  0
  3  5  1  0  0  0  0
  5  6  1  0  0  0  0
  5 11  2  0  0  0  0
  6  7  2  0  0  0  0
  7  8  1  0  0  0  0
  8  9  1  0  0  0  0
  8 10  2  0  0  0  0
 10 11  1  0  0  0  0
M  END
>  <name>
O=[C;amide][C@H]([N;urea])c1ccc(O)cc1

>  <apo>
2

>  <freq>
1

>  <freq0>
0

>  <freq1>
1

>  <freqA>
0.99887151

>  <a_count>
20

$$$$

  MOE2015           2D

 12 13  0  0  1  0  0  0  0  0999 V2000
    7.5720   -1.1990    0.0000 O   0  0  0  0  0  0  0  0  0  0  0  0
    6.1460   -0.7360    0.0000 C   0  0  0  0  0  0  0  0  0  0  0  0
    5.0310   -1.7390    0.0000 C   0  0  1  0  0  0  0  0  0  0  0  0
    3.5640   -1.4280    0.0000 N   0  0  0  0  0  0  0  0  0  0  0  0
    2.8140   -0.1290    0.0000 C   0  0  0  0  0  0  0  0  0  0  0  0
    3.5640    1.1700    0.0000 O   0  0  0  0  0  0  0  0  0  0  0  0
    1.3140   -0.1290    0.0000 C   0  0  0  0  0  0  0  0  0  0  0  0
    0.5640   -1.4280    0.0000 C   0  0  0  0  0  0  0  0  0  0  0  0
    1.3140   -2.7270    0.0000 N   0  0  0  0  0  0  0  0  0  0  0  0
    2.8140   -2.7270    0.0000 C   0  0  0  0  0  0  0  0  0  0  0  0
    3.8170   -3.8410    0.0000 C   0  0  0  0  0  0  0  0  0  0  0  0
    5.1880   -3.2310    0.0000 C   0  0  0  0  0  0  0  0  0  0  0  0
  1  2  2  0  0  0  0
  3  2  1  6  0  0  0
  3  4  1  0  0  0  0
  3 12  1  0  0  0  0
  4  5  1  0  0  0  0
  4 10  1  0  0  0  0
  5  6  2  0  0  0  0
  5  7  1  0  0  0  0
  7  8  2  0  0  0  0
  8  9  1  0  0  0  0
  9 10  2  0  0  0  0
 10 11  1  0  0  0  0
 11 12  1  0  0  0  0
M  END
>  <name>
O=[C;amide][C@H]1N2C(=O)C=CN=C2CC1

>  <apo>
1

>  <freq>
1

>  <freq0>
0

>  <freq1>
1

>  <freqA>
0.99887151

>  <a_count>
20

$$$$

  MOE2015           2D

 12 13  0  0  0  0  0  0  0  0999 V2000
    7.7470   -1.8410    0.0000 O   0  0  0  0  0  0  0  0  0  0  0  0
    6.9970   -3.1400    0.0000 C   0  0  0  0  0  0  0  0  0  0  0  0
    5.4970   -3.1400    0.0000 C   0  0  0  0  0  0  0  0  0  0  0  0
    4.6160   -1.9270    0.0000 N   0  0  0  0  0  0  0  0  0  0  0  0
    3.1890   -2.3900    0.0000 C   0  0  0  0  0  0  0  0  0  0  0  0
    3.1890   -3.8900    0.0000 C   0  0  0  0  0  0  0  0  0  0  0  0
    4.6160   -4.3540    0.0000 C   0  0  0  0  0  0  0  0  0  0  0  0
    1.8900   -4.6400    0.0000 C   0  0  0  0  0  0  0  0  0  0  0  0
    0.5910   -3.8900    0.0000 C   0  0  0  0  0  0  0  0  0  0  0  0
   -0.7080   -4.6400    0.0000 N   0  0  0  0  0  0  0  0  0  0  0  0
    0.5910   -2.3900    0.0000 C   0  0  0  0  0  0  0  0  0  0  0  0
    1.8900   -1.6400    0.0000 C   0  0  0  0  0  0  0  0  0  0  0  0
  1  2  2  0  0  0  0
  2  3  1  0  0  0  0
  3  4  1  0  0  0  0
  3  7  2  0  0  0  0
  4  5  1  0  0  0  0
  5  6  1  0  0  0  0
  5 12  2  0  0  0  0
  6  7  1  0  0  0  0
  6  8  2  0  0  0  0
  8  9  1  0  0  0  0
  9 10  1  0  0  0  0
  9 11  2  0  0  0  0
 11 12  1  0  0  0  0
M  END
>  <name>
O=[C;amide]c1[nH]c2c(c1)cc([N;so2amide])cc2

>  <apo>
2

>  <freq>
1

>  <freq0>
0

>  <freq1>
1

>  <freqA>
0.99887151

>  <a_count>
20

$$$$

  MOE2015           2D

 11 11  0  0  0  0  0  0  0  0999 V2000
    0.0430   -5.0030    0.0000 O   0  0  0  0  0  0  0  0  0  0  0  0
    0.0430   -3.5030    0.0000 C   0  0  0  0  0  0  0  0  0  0  0  0
    1.3420   -2.7530    0.0000 C   0  0  0  0  0  0  0  0  0  0  0  0
    1.3420   -1.2530    0.0000 C   0  0  0  0  0  0  0  0  0  0  0  0
    0.0430   -0.5030    0.0000 N   0  0  0  0  0  0  0  0  0  0  0  0
    2.6410   -0.5030    0.0000 C   0  0  0  0  0  0  0  0  0  0  0  0
    3.9400   -1.2530    0.0000 C   0  0  0  0  0  0  0  0  0  0  0  0
    3.9400   -2.7530    0.0000 C   0  0  0  0  0  0  0  0  0  0  0  0
    5.2390   -3.5030    0.0000 O   0  0  0  0  0  0  0  0  0  0  0  0
    6.5380   -2.7530    0.0000 C   0  0  0  0  0  0  0  0  0  0  0  0
    2.6410   -3.5030    0.0000 C   0  0  0  0  0  0  0  0  0  0  0  0
  1  2  2  0  0  0  0
  2  3  1  0  0  0  0
  3  4  1  0  0  0  0
  3 11  2  0  0  0  0
  4  5  1  0  0  0  0
  4  6  2  0  0  0  0
  6  7  1  0  0  0  0
  7  8  2  0  0  0  0
  8  9  1  0  0  0  0
  8 11  1  0  0  0  0
  9 10  1  0  0  0  0
M  END
>  <name>
O=[C;amide]c1c([N;amide])ccc(OC)c1

>  <apo>
2

>  <freq>
1

>  <freq0>
0

>  <freq1>
1

>  <freqA>
0.99887151

>  <a_count>
20

$$$$

  MOE2015           2D

 13 14  0  0  0  0  0  0  0  0999 V2000
    1.4050    5.2450    0.0000 O   0  0  0  0  0  0  0  0  0  0  0  0
    2.7040    4.4950    0.0000 C   0  0  0  0  0  0  0  0  0  0  0  0
    2.7040    2.9950    0.0000 C   0  0  0  0  0  0  0  0  0  0  0  0
    4.0030    2.2450    0.0000 C   0  0  0  0  0  0  0  0  0  0  0  0
    4.0030    0.7450    0.0000 C   0  0  0  0  0  0  0  0  0  0  0  0
    2.7040   -0.0050    0.0000 N   0  0  0  0  0  0  0  0  0  0  0  0
    1.4050    0.7450    0.0000 C   0  0  0  0  0  0  0  0  0  0  0  0
    0.1060   -0.0050    0.0000 O   0  0  0  0  0  0  0  0  0  0  0  0
    1.4050    2.2450    0.0000 C   0  0  0  0  0  0  0  0  0  0  0  0
    5.3020   -0.0050    0.0000 C   0  0  0  0  0  0  0  0  0  0  0  0
    6.6010    0.7450    0.0000 C   0  0  0  0  0  0  0  0  0  0  0  0
    6.6010    2.2450    0.0000 C   0  0  0  0  0  0  0  0  0  0  0  0
    5.3020    2.9950    0.0000 C   0  0  0  0  0  0  0  0  0  0  0  0
  1  2  2  0  0  0  0
  2  3  1  0  0  0  0
  3  4  1  0  0  0  0
  3  9  2  0  0  0  0
  4  5  1  0  0  0  0
  4 13  2  0  0  0  0
  5  6  1  0  0  0  0
  5 10  2  0  0  0  0
  6  7  2  0  0  0  0
  7  8  1  0  0  0  0
  7  9  1  0  0  0  0
 10 11  1  0  0  0  0
 11 12  2  0  0  0  0
 12 13  1  0  0  0  0
M  END
>  <name>
O=[C;amide]c1c2c(nc([O;ether])c1)cccc2

>  <apo>
2

>  <freq>
1

>  <freq0>
0

>  <freq1>
1

>  <freqA>
0.99887151

>  <a_count>
20

$$$$

  MOE2015           2D

 12 13  0  0  0  0  0  0  0  0999 V2000
    7.4150   -2.8790    0.0000 O   0  0  0  0  0  0  0  0  0  0  0  0
    5.9880   -3.3430    0.0000 C   0  0  0  0  0  0  0  0  0  0  0  0
    4.8730   -2.3390    0.0000 C   0  0  0  0  0  0  0  0  0  0  0  0
    5.0300   -0.8470    0.0000 N   0  0  0  0  0  0  0  0  0  0  0  0
    3.6600   -0.2370    0.0000 N   0  0  0  0  0  0  0  0  0  0  0  0
    3.3480    1.2300    0.0000 C   0  0  0  0  0  0  0  0  0  0  0  0
    2.6560   -1.3520    0.0000 C   0  0  0  0  0  0  0  0  0  0  0  0
    3.4060   -2.6510    0.0000 C   0  0  0  0  0  0  0  0  0  0  0  0
    2.6560   -3.9500    0.0000 C   0  0  0  0  0  0  0  0  0  0  0  0
    1.1560   -3.9500    0.0000 C   0  0  0  0  0  0  0  0  0  0  0  0
    0.4060   -2.6510    0.0000 C   0  0  0  0  0  0  0  0  0  0  0  0
    1.1560   -1.3520    0.0000 C   0  0  0  0  0  0  0  0  0  0  0  0
  1  2  2  0  0  0  0
  2  3  1  0  0  0  0
  3  4  2  0  0  0  0
  3  8  1  0  0  0  0
  4  5  1  0  0  0  0
  5  6  1  0  0  0  0
  5  7  1  0  0  0  0
  7  8  1  0  0  0  0
  7 12  2  0  0  0  0
  8  9  2  0  0  0  0
  9 10  1  0  0  0  0
 10 11  2  0  0  0  0
 11 12  1  0  0  0  0
M  END
>  <name>
O=[C;amide]c1nn(C)c2c1cccc2

>  <apo>
1

>  <freq>
1

>  <freq0>
0

>  <freq1>
1

>  <freqA>
0.99887151

>  <a_count>
20

$$$$

  MOE2015           2D

  8  8  0  0  1  0  0  0  0  0999 V2000
    5.6880    1.5660    0.0000 O   0  0  0  0  0  0  0  0  0  0  0  0
    4.3990    0.7980    0.0000 C   0  0  0  0  0  0  0  0  0  0  0  0
    3.0900    1.5300    0.0000 C   0  0  3  0  0  0  0  0  0  0  0  0
    1.5900    1.5100    0.0000 C   0  0  0  0  0  0  0  0  0  0  0  0
    0.1000    1.6850    0.0000 C   0  0  0  0  0  0  0  0  0  0  0  0
    1.0350    0.1160    0.0000 C   0  0  0  0  0  0  0  0  0  0  0  0
    2.3220    2.8190    0.0000 C   0  0  3  0  0  0  0  0  0  0  0  0
    2.3020    4.3190    0.0000 C   0  0  0  0  0  0  0  0  0  0  0  0
  1  2  2  0  0  0  0
  2  3  1  0  0  0  0
  3  4  1  0  0  0  0
  3  7  1  0  0  0  0
  4  5  1  0  0  0  0
  4  6  1  0  0  0  0
  4  7  1  0  0  0  0
  7  8  1  0  0  0  0
M  END
>  <name>
O=[C;ester]C1C(C)(C)C1[C;olefin]

>  <apo>
2

>  <freq>
1

>  <freq0>
0

>  <freq1>
1

>  <freqA>
0.99887151

>  <a_count>
20

$$$$

  MOE2015           2D

 10 10  0  0  0  0  0  0  0  0999 V2000
    8.5770   -2.8980    0.0000 O   0  0  0  0  0  0  0  0  0  0  0  0
    7.2770   -3.6480    0.0000 C   0  0  0  0  0  0  0  0  0  0  0  0
    5.9780   -2.8980    0.0000 C   0  0  0  0  0  0  0  0  0  0  0  0
    4.6790   -3.6480    0.0000 C   0  0  0  0  0  0  0  0  0  0  0  0
    3.3800   -2.8980    0.0000 C   0  0  0  0  0  0  0  0  0  0  0  0
    2.0810   -3.6480    0.0000 C   0  0  0  0  0  0  0  0  0  0  0  0
    0.7820   -2.8980    0.0000 C   0  0  0  0  0  0  0  0  0  0  0  0
    0.7820   -1.3980    0.0000 C   0  0  0  0  0  0  0  0  0  0  0  0
    2.0810   -0.6480    0.0000 C   0  0  0  0  0  0  0  0  0  0  0  0
    3.3800   -1.3980    0.0000 C   0  0  0  0  0  0  0  0  0  0  0  0
  1  2  2  0  0  0  0
  2  3  1  0  0  0  0
  3  4  1  0  0  0  0
  4  5  1  0  0  0  0
  5  6  1  0  0  0  0
  5 10  2  0  0  0  0
  6  7  2  0  0  0  0
  7  8  1  0  0  0  0
  8  9  2  0  0  0  0
  9 10  1  0  0  0  0
M  END
>  <name>
O=[C;ester]CCc1ccccc1

>  <apo>
1

>  <freq>
1

>  <freq0>
0

>  <freq1>
1

>  <freqA>
0.99887151

>  <a_count>
20

$$$$

  MOE2015           2D

 10 10  0  0  0  0  0  0  0  0999 V2000
   -0.3750   -3.5070    0.0000 O   0  0  0  0  0  0  0  0  0  0  0  0
    0.3750   -2.2080    0.0000 C   0  0  0  0  0  0  0  0  0  0  0  0
    1.8750   -2.2080    0.0000 C   0  0  0  0  0  0  0  0  0  0  0  0
    2.6250   -0.9090    0.0000 C   0  0  0  0  0  0  0  0  0  0  0  0
    1.8750    0.3900    0.0000 C   0  0  0  0  0  0  0  0  0  0  0  0
    4.1250   -0.9090    0.0000 C   0  0  0  0  0  0  0  0  0  0  0  0
    4.8750   -2.2080    0.0000 C   0  0  0  0  0  0  0  0  0  0  0  0
    6.3750   -2.2080    0.0000 C   0  0  0  0  0  0  0  0  0  0  0  0
    4.1250   -3.5070    0.0000 C   0  0  0  0  0  0  0  0  0  0  0  0
    2.6250   -3.5070    0.0000 C   0  0  0  0  0  0  0  0  0  0  0  0
  1  2  2  0  0  0  0
  2  3  1  0  0  0  0
  3  4  1  0  0  0  0
  3 10  2  0  0  0  0
  4  5  1  0  0  0  0
  4  6  2  0  0  0  0
  6  7  1  0  0  0  0
  7  8  1  0  0  0  0
  7  9  2  0  0  0  0
  9 10  1  0  0  0  0
M  END
>  <name>
O=[C;ester]c1c(C)cc(C)cc1

>  <apo>
1

>  <freq>
1

>  <freq0>
0

>  <freq1>
1

>  <freqA>
0.99887151

>  <a_count>
20

$$$$

  MOE2015           2D

 10 10  0  0  1  0  0  0  0  0999 V2000
    5.6250    3.2480    0.0000 O   0  0  0  0  0  0  0  0  0  0  0  0
    4.8750    1.9490    0.0000 C   0  0  3  0  0  0  0  0  0  0  0  0
    5.6250    0.6500    0.0000 C   0  0  0  0  0  0  0  0  0  0  0  0
    3.3750    1.9490    0.0000 C   0  0  0  0  0  0  0  0  0  0  0  0
    2.6250    0.6500    0.0000 C   0  0  0  0  0  0  0  0  0  0  0  0
    1.1250    0.6500    0.0000 C   0  0  0  0  0  0  0  0  0  0  0  0
    0.3750   -0.6500    0.0000 O   0  0  0  0  0  0  0  0  0  0  0  0
    0.3750    1.9490    0.0000 C   0  0  0  0  0  0  0  0  0  0  0  0
    1.1250    3.2480    0.0000 C   0  0  0  0  0  0  0  0  0  0  0  0
    2.6250    3.2480    0.0000 C   0  0  0  0  0  0  0  0  0  0  0  0
  1  2  1  0  0  0  0
  2  3  1  0  0  0  0
  2  4  1  0  0  0  0
  4  5  1  0  0  0  0
  4 10  2  0  0  0  0
  5  6  2  0  0  0  0
  6  7  1  0  0  0  0
  6  8  1  0  0  0  0
  8  9  2  0  0  0  0
  9 10  1  0  0  0  0
M  END
>  <name>
OC([C;amine])c1cc(O)ccc1

>  <apo>
1

>  <freq>
1

>  <freq0>
0

>  <freq1>
1

>  <freqA>
0.99887151

>  <a_count>
20

$$$$

  MOE2015           2D

  8  8  0  0  1  0  0  0  0  0999 V2000
    0.4890   -1.1750    0.0000 O   0  0  0  0  0  0  0  0  0  0  0  0
    1.7880   -0.4250    0.0000 C   0  0  2  0  0  0  0  0  0  0  0  0
    1.7880    1.0750    0.0000 C   0  0  1  0  0  0  0  0  0  0  0  0
    0.4890    1.8250    0.0000 C   0  0  0  0  0  0  0  0  0  0  0  0
    3.0870    1.8250    0.0000 O   0  0  0  0  0  0  0  0  0  0  0  0
    4.3860    1.0750    0.0000 C   0  0  0  0  0  0  0  0  0  0  0  0
    4.3860   -0.4250    0.0000 C   0  0  0  0  0  0  0  0  0  0  0  0
    3.0870   -1.1750    0.0000 C   0  0  0  0  0  0  0  0  0  0  0  0
  2  1  1  6  0  0  0
  2  3  1  0  0  0  0
  2  8  1  0  0  0  0
  3  4  1  1  0  0  0
  3  5  1  0  0  0  0
  5  6  1  0  0  0  0
  6  7  1  0  0  0  0
  7  8  1  0  0  0  0
M  END
>  <name>
O[C@@H]1[C@@H](C)O[C;ether]C[C;ether]1

>  <apo>
2

>  <freq>
1

>  <freq0>
0

>  <freq1>
1

>  <freqA>
0.99887151

>  <a_count>
20

$$$$

  MOE2015           2D

 10 10  0  0  1  0  0  0  0  0999 V2000
    5.6250    3.2480    0.0000 O   0  0  0  0  0  0  0  0  0  0  0  0
    4.8750    1.9490    0.0000 C   0  0  2  0  0  0  0  0  0  0  0  0
    5.6250    0.6500    0.0000 C   0  0  0  0  0  0  0  0  0  0  0  0
    3.3750    1.9490    0.0000 C   0  0  0  0  0  0  0  0  0  0  0  0
    2.6250    0.6500    0.0000 C   0  0  0  0  0  0  0  0  0  0  0  0
    1.1250    0.6500    0.0000 C   0  0  0  0  0  0  0  0  0  0  0  0
    0.3750   -0.6500    0.0000 O   0  0  0  0  0  0  0  0  0  0  0  0
    0.3750    1.9490    0.0000 C   0  0  0  0  0  0  0  0  0  0  0  0
    1.1250    3.2480    0.0000 C   0  0  0  0  0  0  0  0  0  0  0  0
    2.6250    3.2480    0.0000 C   0  0  0  0  0  0  0  0  0  0  0  0
  2  1  1  6  0  0  0
  2  3  1  0  0  0  0
  2  4  1  0  0  0  0
  4  5  2  0  0  0  0
  4 10  1  0  0  0  0
  5  6  1  0  0  0  0
  6  7  1  0  0  0  0
  6  8  2  0  0  0  0
  8  9  1  0  0  0  0
  9 10  2  0  0  0  0
M  END
>  <name>
O[C@H]([C;amine])c1cc(O)ccc1

>  <apo>
1

>  <freq>
1

>  <freq0>
0

>  <freq1>
1

>  <freqA>
0.99887151

>  <a_count>
20

$$$$

  MOE2015           2D

  8  8  0  0  1  0  0  0  0  0999 V2000
    5.4110   -0.8000    0.0000 O   0  0  0  0  0  0  0  0  0  0  0  0
    4.1120   -0.0500    0.0000 C   0  0  1  0  0  0  0  0  0  0  0  0
    2.8120   -0.8000    0.0000 C   0  0  0  0  0  0  0  0  0  0  0  0
    1.5130   -0.0500    0.0000 C   0  0  2  0  0  0  0  0  0  0  0  0
    0.2140   -0.8000    0.0000 O   0  0  0  0  0  0  0  0  0  0  0  0
    1.5130    1.4500    0.0000 C   0  0  0  0  0  0  0  0  0  0  0  0
    2.8120    2.2000    0.0000 C   0  0  0  0  0  0  0  0  0  0  0  0
    4.1120    1.4500    0.0000 C   0  0  0  0  0  0  0  0  0  0  0  0
  2  1  1  1  0  0  0
  2  3  1  0  0  0  0
  2  8  1  0  0  0  0
  3  4  1  0  0  0  0
  4  5  1  6  0  0  0
  4  6  1  0  0  0  0
  6  7  1  0  0  0  0
  7  8  1  0  0  0  0
M  END
>  <name>
O[C@H]1C[C@H](O)C[C;olefin]C1

>  <apo>
1

>  <freq>
1

>  <freq0>
0

>  <freq1>
1

>  <freqA>
0.99887151

>  <a_count>
20

$$$$

  MOE2015           2D

  8  8  0  0  1  0  0  0  0  0999 V2000
    0.0000    0.0000    0.0000 O   0  0  0  0  0  0  0  0  0  0  0  0
    1.5000    0.0000    0.0000 C   0  0  1  0  0  0  0  0  0  0  0  0
    2.2500   -1.2990    0.0000 C   0  0  0  0  0  0  0  0  0  0  0  0
    3.7500   -1.2990    0.0000 O   0  0  0  0  0  0  0  0  0  0  0  0
    4.5000    0.0000    0.0000 C   0  0  2  0  0  0  0  0  0  0  0  0
    6.0000    0.0000    0.0000 C   0  0  0  0  0  0  0  0  0  0  0  0
    3.7500    1.2990    0.0000 C   0  0  0  0  0  0  0  0  0  0  0  0
    2.2500    1.2990    0.0000 C   0  0  0  0  0  0  0  0  0  0  0  0
  2  1  1  6  0  0  0
  2  3  1  0  0  0  0
  2  8  1  0  0  0  0
  3  4  1  0  0  0  0
  4  5  1  0  0  0  0
  5  6  1  1  0  0  0
  5  7  1  0  0  0  0
  7  8  1  0  0  0  0
M  END
>  <name>
O[C@H]1[C;ether]O[C@H](C)[C;ether][C;amine]1

>  <apo>
3

>  <freq>
1

>  <freq0>
0

>  <freq1>
1

>  <freqA>
0.99887151

>  <a_count>
20

$$$$

  MOE2015           2D

 11 12  0  0  0  0  0  0  0  0999 V2000
    7.0470    1.8880    0.0000 O   0  0  0  0  0  0  0  0  0  0  0  0
    5.7480    1.1380    0.0000 C   0  0  0  0  0  0  0  0  0  0  0  0
    4.4490    1.8880    0.0000 C   0  0  0  0  0  0  0  0  0  0  0  0
    3.1500    1.1380    0.0000 C   0  0  0  0  0  0  0  0  0  0  0  0
    1.7230    1.6020    0.0000 C   0  0  0  0  0  0  0  0  0  0  0  0
    1.2600    3.0280    0.0000 C   0  0  0  0  0  0  0  0  0  0  0  0
    0.8410    0.3880    0.0000 C   0  0  0  0  0  0  0  0  0  0  0  0
    1.7230   -0.8250    0.0000 N   0  0  0  0  0  0  0  0  0  0  0  0
    3.1500   -0.3620    0.0000 C   0  0  0  0  0  0  0  0  0  0  0  0
    4.4490   -1.1120    0.0000 C   0  0  0  0  0  0  0  0  0  0  0  0
    5.7480   -0.3620    0.0000 C   0  0  0  0  0  0  0  0  0  0  0  0
  1  2  1  0  0  0  0
  2  3  1  0  0  0  0
  2 11  2  0  0  0  0
  3  4  2  0  0  0  0
  4  5  1  0  0  0  0
  4  9  1  0  0  0  0
  5  6  1  0  0  0  0
  5  7  2  0  0  0  0
  7  8  1  0  0  0  0
  8  9  1  0  0  0  0
  9 10  2  0  0  0  0
 10 11  1  0  0  0  0
M  END
>  <name>
Oc1cc2c(C)[c;biphenyl][nH;NaroC]c2cc1

>  <apo>
2

>  <freq>
1

>  <freq0>
0

>  <freq1>
1

>  <freqA>
0.99887151

>  <a_count>
20

$$$$

  MOE2015           2D

 12 12  0  0  0  0  0  0  0  0999 V2000
    2.4670   -2.4670    0.0000 As  0  0  0  0  0  0  0  0  0  0  0  0
    2.4670   -0.9670    0.0000 O   0  0  0  0  0  0  0  0  0  0  0  0
    2.4670   -3.9670    0.0000 O   0  0  0  0  0  0  0  0  0  0  0  0
    3.9670   -2.4670    0.0000 O   0  0  0  0  0  0  0  0  0  0  0  0
    0.9670   -2.4670    0.0000 C   0  0  0  0  0  0  0  0  0  0  0  0
    0.2170   -1.1670    0.0000 C   0  0  0  0  0  0  0  0  0  0  0  0
   -1.2830   -1.1670    0.0000 C   0  0  0  0  0  0  0  0  0  0  0  0
   -2.0330    0.1320    0.0000 N   0  0  0  0  0  0  0  0  0  0  0  0
   -2.0330   -2.4670    0.0000 C   0  0  0  0  0  0  0  0  0  0  0  0
   -3.5330   -2.4670    0.0000 O   0  0  0  0  0  0  0  0  0  0  0  0
   -1.2830   -3.7660    0.0000 C   0  0  0  0  0  0  0  0  0  0  0  0
    0.2170   -3.7660    0.0000 C   0  0  0  0  0  0  0  0  0  0  0  0
  1  2  2  0  0  0  0
  1  3  1  0  0  0  0
  1  4  1  0  0  0  0
  1  5  1  0  0  0  0
  5  6  1  0  0  0  0
  5 12  2  0  0  0  0
  6  7  2  0  0  0  0
  7  8  1  0  0  0  0
  7  9  1  0  0  0  0
  9 10  1  0  0  0  0
  9 11  2  0  0  0  0
 11 12  1  0  0  0  0
M  END
>  <name>
[As](=O)(O)(O)c1cc([N;amide])c(O)cc1

>  <apo>
1

>  <freq>
1

>  <freq0>
0

>  <freq1>
1

>  <freqA>
0.99887151

>  <a_count>
20

$$$$

  MOE2015           2D

  9  9  0  0  0  0  0  0  0  0999 V2000
    0.0000    0.0000    0.0000 N   0  0  0  0  0  0  0  0  0  0  0  0
    1.5000    0.0000    0.0000 C   0  0  0  0  0  0  0  0  0  0  0  0
    2.2500    1.2990    0.0000 C   0  0  0  0  0  0  0  0  0  0  0  0
    3.7500    1.2990    0.0000 C   0  0  0  0  0  0  0  0  0  0  0  0
    4.5000    0.0000    0.0000 C   0  0  0  0  0  0  0  0  0  0  0  0
    6.0000    0.0000    0.0000 C   0  0  0  0  0  0  0  0  0  0  0  0
    6.7500   -1.2990    0.0000 C   0  0  0  0  0  0  0  0  0  0  0  0
    3.7500   -1.2990    0.0000 C   0  0  0  0  0  0  0  0  0  0  0  0
    2.2500   -1.2990    0.0000 C   0  0  0  0  0  0  0  0  0  0  0  0
  1  2  1  0  0  0  0
  2  3  1  0  0  0  0
  2  9  2  0  0  0  0
  3  4  2  0  0  0  0
  4  5  1  0  0  0  0
  5  6  1  0  0  0  0
  5  8  2  0  0  0  0
  6  7  1  0  0  0  0
  8  9  1  0  0  0  0
M  END
>  <name>
[N;amide]c1ccc(C[C;amine])cc1

>  <apo>
2

>  <freq>
1

>  <freq0>
0

>  <freq1>
1

>  <freqA>
0.99887151

>  <a_count>
20

$$$$

  MOE2015           2D

  7  7  0  0  0  0  0  0  0  0999 V2000
    0.0000    2.7020    0.0000 N   0  0  0  0  0  0  0  0  0  0  0  0
    0.6520    1.3510    0.0000 C   0  0  0  0  0  0  0  0  0  0  0  0
    0.0000    0.0000    0.0000 C   0  0  0  0  0  0  0  0  0  0  0  0
   -1.4620   -0.3330    0.0000 C   0  0  0  0  0  0  0  0  0  0  0  0
   -2.6350    0.6010    0.0000 C   0  0  0  0  0  0  0  0  0  0  0  0
   -2.6350    2.1010    0.0000 C   0  0  0  0  0  0  0  0  0  0  0  0
   -1.4620    3.0360    0.0000 C   0  0  0  0  0  0  0  0  0  0  0  0
  1  2  1  0  0  0  0
  1  7  1  0  0  0  0
  2  3  1  0  0  0  0
  3  4  1  0  0  0  0
  4  5  1  0  0  0  0
  5  6  1  0  0  0  0
  6  7  1  0  0  0  0
M  END
>  <name>
[N;amine]1CCCCCC1

>  <apo>
1

>  <freq>
1

>  <freq0>
0

>  <freq1>
1

>  <freqA>
0.99887151

>  <a_count>
20

$$$$

  MOE2015           2D

 11 12  0  0  0  0  0  0  0  0999 V2000
    7.2930   -0.7730    0.0000 N   0  0  0  0  0  0  0  0  0  0  0  0
    5.9940   -0.0230    0.0000 C   0  0  0  0  0  0  0  0  0  0  0  0
    4.6950   -0.7730    0.0000 C   0  0  0  0  0  0  0  0  0  0  0  0
    3.3960   -0.0230    0.0000 C   0  0  0  0  0  0  0  0  0  0  0  0
    3.3960    1.4770    0.0000 C   0  0  0  0  0  0  0  0  0  0  0  0
    4.6950    2.2270    0.0000 C   0  0  0  0  0  0  0  0  0  0  0  0
    5.9940    1.4770    0.0000 C   0  0  0  0  0  0  0  0  0  0  0  0
    2.0970    2.2270    0.0000 C   0  0  0  0  0  0  0  0  0  0  0  0
    0.7980    1.4770    0.0000 C   0  0  0  0  0  0  0  0  0  0  0  0
    0.7980   -0.0230    0.0000 C   0  0  0  0  0  0  0  0  0  0  0  0
    2.0970   -0.7730    0.0000 C   0  0  0  0  0  0  0  0  0  0  0  0
  1  2  1  0  0  0  0
  2  3  1  0  0  0  0
  2  7  2  0  0  0  0
  3  4  2  0  0  0  0
  4  5  1  0  0  0  0
  4 11  1  0  0  0  0
  5  6  2  0  0  0  0
  5  8  1  0  0  0  0
  6  7  1  0  0  0  0
  8  9  2  0  0  0  0
  9 10  1  0  0  0  0
 10 11  2  0  0  0  0
M  END
>  <name>
[N;so2amide]c1cc2c(cc1)c[c;biphenyl]cc2

>  <apo>
2

>  <freq>
1

>  <freq0>
0

>  <freq1>
1

>  <freqA>
0.99887151

>  <a_count>
20

$$$$

  MOE2015           2D

  9  9  0  0  0  0  0  0  0  0999 V2000
    0.0000    0.0000    0.0000 N   0  0  0  0  0  0  0  0  0  0  0  0
    1.5000    0.0000    0.0000 C   0  0  0  0  0  0  0  0  0  0  0  0
    2.2500    1.2990    0.0000 C   0  0  0  0  0  0  0  0  0  0  0  0
    3.7500    1.2990    0.0000 C   0  0  0  0  0  0  0  0  0  0  0  0
    4.5000    0.0000    0.0000 C   0  0  0  0  0  0  0  0  0  0  0  0
    6.0000    0.0000    0.0000 C   0  0  0  0  0  0  0  0  0  0  0  0
    6.7500   -1.2990    0.0000 C   0  0  0  0  0  0  0  0  0  0  0  0
    3.7500   -1.2990    0.0000 C   0  0  0  0  0  0  0  0  0  0  0  0
    2.2500   -1.2990    0.0000 C   0  0  0  0  0  0  0  0  0  0  0  0
  1  2  1  0  0  0  0
  2  3  1  0  0  0  0
  2  9  2  0  0  0  0
  3  4  2  0  0  0  0
  4  5  1  0  0  0  0
  5  6  1  0  0  0  0
  5  8  2  0  0  0  0
  6  7  1  0  0  0  0
  8  9  1  0  0  0  0
M  END
>  <name>
[N;so2amide]c1ccc(C[C;amine])cc1

>  <apo>
2

>  <freq>
1

>  <freq0>
0

>  <freq1>
1

>  <freqA>
0.99887151

>  <a_count>
20

$$$$

  MOE2015           2D

  7  6  0  0  0  0  0  0  0  0999 V2000
    0.1300   -0.4860    0.0000 O   0  5  0  0  0  0  0  0  0  0  0  0
    1.4290    0.2640    0.0000 N   0  3  0  0  0  0  0  0  0  0  0  0
    2.7280    1.0140    0.0000 C   0  0  0  0  0  0  0  0  0  0  0  0
    4.0270    0.2640    0.0000 C   0  0  0  0  0  0  0  0  0  0  0  0
    5.3260    1.0140    0.0000 C   0  0  0  0  0  0  0  0  0  0  0  0
    2.1790   -1.0350    0.0000 C   0  0  0  0  0  0  0  0  0  0  0  0
    0.6790    1.5630    0.0000 C   0  0  0  0  0  0  0  0  0  0  0  0
  1  2  1  0  0  0  0
  2  3  1  0  0  0  0
  2  6  1  0  0  0  0
  2  7  1  0  0  0  0
  3  4  1  0  0  0  0
  4  5  1  0  0  0  0
M  CHG  1   1  -1
M  CHG  1   2   1
M  END
>  <name>
[O-][N+](CC[C;olefin])(C)C

>  <apo>
1

>  <freq>
1

>  <freq0>
0

>  <freq1>
1

>  <freqA>
0.99887151

>  <a_count>
20

$$$$

  MOE2015           2D

  8  8  0  0  1  0  0  0  0  0999 V2000
    0.4890   -1.1750    0.0000 O   0  0  0  0  0  0  0  0  0  0  0  0
    1.7880   -0.4250    0.0000 C   0  0  2  0  0  0  0  0  0  0  0  0
    1.7880    1.0750    0.0000 C   0  0  2  0  0  0  0  0  0  0  0  0
    0.4890    1.8250    0.0000 C   0  0  0  0  0  0  0  0  0  0  0  0
    3.0870    1.8250    0.0000 O   0  0  0  0  0  0  0  0  0  0  0  0
    4.3860    1.0750    0.0000 C   0  0  0  0  0  0  0  0  0  0  0  0
    4.3860   -0.4250    0.0000 C   0  0  0  0  0  0  0  0  0  0  0  0
    3.0870   -1.1750    0.0000 C   0  0  0  0  0  0  0  0  0  0  0  0
  2  1  1  6  0  0  0
  2  3  1  0  0  0  0
  2  8  1  0  0  0  0
  3  4  1  6  0  0  0
  3  5  1  0  0  0  0
  5  6  1  0  0  0  0
  6  7  1  0  0  0  0
  7  8  1  0  0  0  0
M  END
>  <name>
[O;ester][C@@H]1[C@H](C)O[C;ether]C[C;ether]1

>  <apo>
3

>  <freq>
1

>  <freq0>
0

>  <freq1>
1

>  <freqA>
0.99887151

>  <a_count>
20

$$$$

  MOE2015           2D

  8  8  0  0  1  0  0  0  0  0999 V2000
    0.0000    0.0000    0.0000 O   0  0  0  0  0  0  0  0  0  0  0  0
    1.5000    0.0000    0.0000 C   0  0  1  0  0  0  0  0  0  0  0  0
    2.2500   -1.2990    0.0000 C   0  0  0  0  0  0  0  0  0  0  0  0
    3.7500   -1.2990    0.0000 O   0  0  0  0  0  0  0  0  0  0  0  0
    4.5000    0.0000    0.0000 C   0  0  2  0  0  0  0  0  0  0  0  0
    6.0000    0.0000    0.0000 C   0  0  0  0  0  0  0  0  0  0  0  0
    3.7500    1.2990    0.0000 C   0  0  0  0  0  0  0  0  0  0  0  0
    2.2500    1.2990    0.0000 C   0  0  0  0  0  0  0  0  0  0  0  0
  2  1  1  6  0  0  0
  2  3  1  0  0  0  0
  2  8  1  0  0  0  0
  3  4  1  0  0  0  0
  4  5  1  0  0  0  0
  5  6  1  1  0  0  0
  5  7  1  0  0  0  0
  7  8  1  0  0  0  0
M  END
>  <name>
[O;ester][C@H]1[C;ether]O[C@H](C)C[C;amine]1

>  <apo>
3

>  <freq>
1

>  <freq0>
0

>  <freq1>
1

>  <freqA>
0.99887151

>  <a_count>
20

$$$$

  MOE2015           2D

 10 11  0  0  0  0  0  0  0  0999 V2000
    6.7290   -1.8030    0.0000 O   0  0  0  0  0  0  0  0  0  0  0  0
    5.4300   -1.0530    0.0000 C   0  0  0  0  0  0  0  0  0  0  0  0
    4.1310   -1.8030    0.0000 C   0  0  0  0  0  0  0  0  0  0  0  0
    2.8320   -1.0530    0.0000 C   0  0  0  0  0  0  0  0  0  0  0  0
    2.8320    0.4470    0.0000 C   0  0  0  0  0  0  0  0  0  0  0  0
    4.1310    1.1970    0.0000 C   0  0  0  0  0  0  0  0  0  0  0  0
    5.4300    0.4470    0.0000 C   0  0  0  0  0  0  0  0  0  0  0  0
    1.4050    0.9110    0.0000 C   0  0  0  0  0  0  0  0  0  0  0  0
    0.5230   -0.3030    0.0000 C   0  0  0  0  0  0  0  0  0  0  0  0
    1.4050   -1.5160    0.0000 C   0  0  0  0  0  0  0  0  0  0  0  0
  1  2  1  0  0  0  0
  2  3  1  0  0  0  0
  2  7  2  0  0  0  0
  3  4  2  0  0  0  0
  4  5  1  0  0  0  0
  4 10  1  0  0  0  0
  5  6  2  0  0  0  0
  5  8  1  0  0  0  0
  6  7  1  0  0  0  0
  8  9  1  0  0  0  0
  9 10  1  0  0  0  0
M  END
>  <name>
[O;ester]c1cc2c(cc1)CCC2

>  <apo>
1

>  <freq>
1

>  <freq0>
0

>  <freq1>
1

>  <freqA>
0.99887151

>  <a_count>
20

$$$$

  MOE2015           2D

 10 10  0  0  0  0  0  0  0  0999 V2000
   -3.3750    1.9490    0.0000 S   0  0  0  0  0  0  0  0  0  0  0  0
   -4.1250    3.2480    0.0000 O   0  0  0  0  0  0  0  0  0  0  0  0
   -4.1250    0.6500    0.0000 C   0  0  0  0  0  0  0  0  0  0  0  0
   -1.8750    1.9490    0.0000 C   0  0  0  0  0  0  0  0  0  0  0  0
   -1.1250    0.6500    0.0000 C   0  0  0  0  0  0  0  0  0  0  0  0
    0.3750    0.6500    0.0000 C   0  0  0  0  0  0  0  0  0  0  0  0
    1.1250    1.9490    0.0000 C   0  0  0  0  0  0  0  0  0  0  0  0
    2.6250    1.9490    0.0000 C   0  0  0  0  0  0  0  0  0  0  0  0
    0.3750    3.2480    0.0000 C   0  0  0  0  0  0  0  0  0  0  0  0
   -1.1250    3.2480    0.0000 C   0  0  0  0  0  0  0  0  0  0  0  0
  1  2  2  0  0  0  0
  1  3  1  0  0  0  0
  1  4  1  0  0  0  0
  4  5  1  0  0  0  0
  4 10  2  0  0  0  0
  5  6  2  0  0  0  0
  6  7  1  0  0  0  0
  7  8  1  0  0  0  0
  7  9  2  0  0  0  0
  9 10  1  0  0  0  0
M  END
>  <name>
[SH0](=O)(C)c1ccc([C;olefin])cc1

>  <apo>
1

>  <freq>
1

>  <freq0>
0

>  <freq1>
1

>  <freqA>
0.99887151

>  <a_count>
20

$$$$

  MOE2015           2D

 13 14  0  0  0  0  0  0  0  0999 V2000
    0.0000    0.0000    0.0000 S   0  0  0  0  0  0  0  0  0  0  0  0
    1.5000    0.0000    0.0000 O   0  0  0  0  0  0  0  0  0  0  0  0
   -0.7500   -1.2990    0.0000 O   0  0  0  0  0  0  0  0  0  0  0  0
   -0.7500    1.2990    0.0000 C   0  0  0  0  0  0  0  0  0  0  0  0
   -2.2500    1.2990    0.0000 C   0  0  0  0  0  0  0  0  0  0  0  0
   -3.0000    0.0000    0.0000 N   0  0  0  0  0  0  0  0  0  0  0  0
   -4.5000    0.0000    0.0000 C   0  0  0  0  0  0  0  0  0  0  0  0
   -5.2500    1.2990    0.0000 C   0  0  0  0  0  0  0  0  0  0  0  0
   -4.5000    2.5980    0.0000 C   0  0  0  0  0  0  0  0  0  0  0  0
   -3.0000    2.5980    0.0000 C   0  0  0  0  0  0  0  0  0  0  0  0
   -2.2500    3.8970    0.0000 C   0  0  0  0  0  0  0  0  0  0  0  0
   -0.7500    3.8970    0.0000 C   0  0  0  0  0  0  0  0  0  0  0  0
    0.0000    2.5980    0.0000 C   0  0  0  0  0  0  0  0  0  0  0  0
  1  2  2  0  0  0  0
  1  3  2  0  0  0  0
  1  4  1  0  0  0  0
  4  5  1  0  0  0  0
  4 13  2  0  0  0  0
  5  6  1  0  0  0  0
  5 10  2  0  0  0  0
  6  7  2  0  0  0  0
  7  8  1  0  0  0  0
  8  9  2  0  0  0  0
  9 10  1  0  0  0  0
 10 11  1  0  0  0  0
 11 12  2  0  0  0  0
 12 13  1  0  0  0  0
M  END
>  <name>
[SH;so2amide](=O)(=O)c1c2ncccc2ccc1

>  <apo>
1

>  <freq>
1

>  <freq0>
0

>  <freq1>
1

>  <freqA>
0.99887151

>  <a_count>
20

$$$$

  MOE2015           2D

 12 12  0  0  0  0  0  0  0  0999 V2000
   -4.5000    2.5980    0.0000 S   0  0  0  0  0  0  0  0  0  0  0  0
   -5.2500    3.8970    0.0000 O   0  0  0  0  0  0  0  0  0  0  0  0
   -5.2500    1.2990    0.0000 O   0  0  0  0  0  0  0  0  0  0  0  0
   -3.0000    2.5980    0.0000 C   0  0  0  0  0  0  0  0  0  0  0  0
   -2.2500    1.2990    0.0000 C   0  0  0  0  0  0  0  0  0  0  0  0
   -0.7500    1.2990    0.0000 C   0  0  0  0  0  0  0  0  0  0  0  0
    0.0000    2.5980    0.0000 C   0  0  0  0  0  0  0  0  0  0  0  0
    1.5000    2.5980    0.0000 C   0  0  0  0  0  0  0  0  0  0  0  0
    2.2500    1.2990    0.0000 O   0  0  0  0  0  0  0  0  0  0  0  0
    2.2500    3.8970    0.0000 C   0  0  0  0  0  0  0  0  0  0  0  0
   -0.7500    3.8970    0.0000 C   0  0  0  0  0  0  0  0  0  0  0  0
   -2.2500    3.8970    0.0000 C   0  0  0  0  0  0  0  0  0  0  0  0
  1  2  2  0  0  0  0
  1  3  2  0  0  0  0
  1  4  1  0  0  0  0
  4  5  1  0  0  0  0
  4 12  2  0  0  0  0
  5  6  2  0  0  0  0
  6  7  1  0  0  0  0
  7  8  1  0  0  0  0
  7 11  2  0  0  0  0
  8  9  2  0  0  0  0
  8 10  1  0  0  0  0
 11 12  1  0  0  0  0
M  END
>  <name>
[SH;so2amide](=O)(=O)c1ccc(C(=O)C)cc1

>  <apo>
1

>  <freq>
1

>  <freq0>
0

>  <freq1>
1

>  <freqA>
0.99887151

>  <a_count>
20

$$$$

  MOE2015           2D

  7  6  0  0  0  0  0  0  0  0999 V2000
    0.8570    0.0000    0.0000 C   0  0  0  0  0  0  0  0  0  0  0  0
    2.3570    0.0000    0.0000 C   0  0  0  0  0  0  0  0  0  0  0  0
    3.8570    0.0000    0.0000 C   0  0  0  0  0  0  0  0  0  0  0  0
   -0.6430    0.0000    0.0000 C   0  0  0  0  0  0  0  0  0  0  0  0
   -2.1430    0.0000    0.0000 C   0  0  0  0  0  0  0  0  0  0  0  0
   -0.6430    1.5000    0.0000 C   0  0  0  0  0  0  0  0  0  0  0  0
   -0.6430   -1.5000    0.0000 C   0  0  0  0  0  0  0  0  0  0  0  0
  1  2  3  0  0  0  0
  1  4  1  0  0  0  0
  2  3  1  0  0  0  0
  4  5  1  0  0  0  0
  4  6  1  0  0  0  0
  4  7  1  0  0  0  0
M  END
>  <name>
C(#C[C;olefin])C(C)(C)C

>  <apo>
1

>  <freq>
1

>  <freq0>
0

>  <freq1>
1

>  <freqA>
0.99887151

>  <a_count>
19

$$$$

  MOE2015           2D

  9  9  0  0  0  0  0  0  0  0999 V2000
    0.1430    0.5340    0.0000 C   0  0  0  0  0  0  0  0  0  0  0  0
    1.4420   -0.2160    0.0000 C   0  0  0  0  0  0  0  0  0  0  0  0
    2.7410    0.5340    0.0000 C   0  0  0  0  0  0  0  0  0  0  0  0
   -1.1560   -0.2160    0.0000 C   0  0  0  0  0  0  0  0  0  0  0  0
   -2.4550    0.5340    0.0000 C   0  0  0  0  0  0  0  0  0  0  0  0
   -2.6120    2.0260    0.0000 N   0  0  0  0  0  0  0  0  0  0  0  0
   -4.0790    2.3380    0.0000 N   0  0  0  0  0  0  0  0  0  0  0  0
   -4.8290    1.0390    0.0000 N   0  0  0  0  0  0  0  0  0  0  0  0
   -3.8250   -0.0760    0.0000 N   0  0  0  0  0  0  0  0  0  0  0  0
  1  2  1  0  0  0  0
  1  4  1  0  0  0  0
  2  3  1  0  0  0  0
  4  5  1  0  0  0  0
  5  6  1  0  0  0  0
  5  9  2  0  0  0  0
  6  7  1  0  0  0  0
  7  8  2  0  0  0  0
  8  9  1  0  0  0  0
M  END
>  <name>
C(C[C;ether])Cc1[nH;NaroC]nnn1

>  <apo>
2

>  <freq>
1

>  <freq0>
0

>  <freq1>
1

>  <freqA>
0.99887151

>  <a_count>
19

$$$$

  MOE2015           2D

  7  7  0  0  0  0  0  0  0  0999 V2000
    5.1430    0.0000    0.0000 C   0  0  0  0  0  0  0  0  0  0  0  0
    3.6430    0.0000    0.0000 N   0  0  0  0  0  0  0  0  0  0  0  0
    2.8930    1.2990    0.0000 C   0  0  0  0  0  0  0  0  0  0  0  0
    1.3930    1.2990    0.0000 C   0  0  0  0  0  0  0  0  0  0  0  0
    0.6430    0.0000    0.0000 N   0  0  0  0  0  0  0  0  0  0  0  0
    1.3930   -1.2990    0.0000 C   0  0  0  0  0  0  0  0  0  0  0  0
    2.8930   -1.2990    0.0000 C   0  0  0  0  0  0  0  0  0  0  0  0
  1  2  1  0  0  0  0
  2  3  1  0  0  0  0
  2  7  1  0  0  0  0
  3  4  1  0  0  0  0
  4  5  1  0  0  0  0
  5  6  1  0  0  0  0
  6  7  1  0  0  0  0
M  END
>  <name>
CN1CC[N;so2amide]CC1

>  <apo>
1

>  <freq>
1

>  <freq0>
0

>  <freq1>
1

>  <freqA>
0.99887151

>  <a_count>
19

$$$$

  MOE2015           2D

  7  7  0  0  0  0  0  0  0  0999 V2000
    5.1430    0.0000    0.0000 C   0  0  0  0  0  0  0  0  0  0  0  0
    3.6430    0.0000    0.0000 N   0  0  0  0  0  0  0  0  0  0  0  0
    2.8930    1.2990    0.0000 C   0  0  0  0  0  0  0  0  0  0  0  0
    1.3930    1.2990    0.0000 C   0  0  0  0  0  0  0  0  0  0  0  0
    0.6430    0.0000    0.0000 N   0  0  0  0  0  0  0  0  0  0  0  0
    1.3930   -1.2990    0.0000 C   0  0  0  0  0  0  0  0  0  0  0  0
    2.8930   -1.2990    0.0000 C   0  0  0  0  0  0  0  0  0  0  0  0
  1  2  1  0  0  0  0
  2  3  1  0  0  0  0
  2  7  1  0  0  0  0
  3  4  1  0  0  0  0
  4  5  1  0  0  0  0
  5  6  1  0  0  0  0
  6  7  1  0  0  0  0
M  END
>  <name>
CN1CC[N;urea]CC1

>  <apo>
1

>  <freq>
1

>  <freq0>
0

>  <freq1>
1

>  <freqA>
0.99887151

>  <a_count>
19

$$$$

  MOE2015           2D

 10 10  0  0  0  0  0  0  0  0999 V2000
    1.6500    2.8580    0.0000 Cl  0  0  0  0  0  0  0  0  0  0  0  0
    2.4000    1.5590    0.0000 C   0  0  0  0  0  0  0  0  0  0  0  0
    1.6500    0.2600    0.0000 C   0  0  0  0  0  0  0  0  0  0  0  0
    0.1500    0.2600    0.0000 O   0  0  0  0  0  0  0  0  0  0  0  0
   -0.6000   -1.0390    0.0000 C   0  0  0  0  0  0  0  0  0  0  0  0
    2.4000   -1.0390    0.0000 C   0  0  0  0  0  0  0  0  0  0  0  0
    3.9000   -1.0390    0.0000 C   0  0  0  0  0  0  0  0  0  0  0  0
    4.6500    0.2600    0.0000 C   0  0  0  0  0  0  0  0  0  0  0  0
    6.1500    0.2600    0.0000 C   0  0  0  0  0  0  0  0  0  0  0  0
    3.9000    1.5590    0.0000 C   0  0  0  0  0  0  0  0  0  0  0  0
  1  2  1  0  0  0  0
  2  3  1  0  0  0  0
  2 10  2  0  0  0  0
  3  4  1  0  0  0  0
  3  6  2  0  0  0  0
  4  5  1  0  0  0  0
  6  7  1  0  0  0  0
  7  8  2  0  0  0  0
  8  9  1  0  0  0  0
  8 10  1  0  0  0  0
M  END
>  <name>
Clc1c(OC)ccc([C;amine])c1

>  <apo>
1

>  <freq>
1

>  <freq0>
0

>  <freq1>
1

>  <freqA>
0.99887151

>  <a_count>
19

$$$$

  MOE2015           2D

 12 12  0  0  0  0  0  0  0  0999 V2000
    0.1610   -1.9000    0.0000 Cl  0  0  0  0  0  0  0  0  0  0  0  0
    1.4600   -1.1500    0.0000 C   0  0  0  0  0  0  0  0  0  0  0  0
    1.4600    0.3500    0.0000 C   0  0  0  0  0  0  0  0  0  0  0  0
    0.1610    1.1000    0.0000 O   0  0  0  0  0  0  0  0  0  0  0  0
    2.7590    1.1000    0.0000 C   0  0  0  0  0  0  0  0  0  0  0  0
    4.0580    0.3500    0.0000 C   0  0  0  0  0  0  0  0  0  0  0  0
    4.0580   -1.1500    0.0000 C   0  0  0  0  0  0  0  0  0  0  0  0
    5.3570   -1.9000    0.0000 C   0  0  0  0  0  0  0  0  0  0  0  0
    6.6560   -1.1500    0.0000 C   0  0  0  0  0  0  0  0  0  0  0  0
    6.6560    0.3500    0.0000 O   0  0  0  0  0  0  0  0  0  0  0  0
    7.9550   -1.9000    0.0000 O   0  0  0  0  0  0  0  0  0  0  0  0
    2.7590   -1.9000    0.0000 C   0  0  0  0  0  0  0  0  0  0  0  0
  1  2  1  0  0  0  0
  2  3  1  0  0  0  0
  2 12  2  0  0  0  0
  3  4  1  0  0  0  0
  3  5  2  0  0  0  0
  5  6  1  0  0  0  0
  6  7  2  0  0  0  0
  7  8  1  0  0  0  0
  7 12  1  0  0  0  0
  8  9  1  0  0  0  0
  9 10  2  0  0  0  0
  9 11  1  0  0  0  0
M  END
>  <name>
Clc1c([O;ether])ccc(CC(=O)O)c1

>  <apo>
1

>  <freq>
1

>  <freq0>
0

>  <freq1>
1

>  <freqA>
0.99887151

>  <a_count>
19

$$$$

  MOE2015           2D

 14 14  0  0  0  0  0  0  0  0999 V2000
   -1.0130    1.7810    0.0000 F   0  0  0  0  0  0  0  0  0  0  0  0
   -0.2630    0.4820    0.0000 C   0  0  0  0  0  0  0  0  0  0  0  0
    0.4870   -0.8170    0.0000 F   0  0  0  0  0  0  0  0  0  0  0  0
   -1.5620   -0.2680    0.0000 F   0  0  0  0  0  0  0  0  0  0  0  0
    1.0360    1.2320    0.0000 C   0  0  0  0  0  0  0  0  0  0  0  0
    1.0360    2.7320    0.0000 C   0  0  0  0  0  0  0  0  0  0  0  0
   -0.2630    3.4820    0.0000 N   0  3  0  0  0  0  0  0  0  0  0  0
   -0.2630    4.9820    0.0000 O   0  0  0  0  0  0  0  0  0  0  0  0
   -1.5620    2.7320    0.0000 O   0  5  0  0  0  0  0  0  0  0  0  0
    2.3350    3.4820    0.0000 C   0  0  0  0  0  0  0  0  0  0  0  0
    3.6340    2.7320    0.0000 C   0  0  0  0  0  0  0  0  0  0  0  0
    3.6340    1.2320    0.0000 C   0  0  0  0  0  0  0  0  0  0  0  0
    4.9330    0.4820    0.0000 N   0  0  0  0  0  0  0  0  0  0  0  0
    2.3350    0.4820    0.0000 C   0  0  0  0  0  0  0  0  0  0  0  0
  1  2  1  0  0  0  0
  2  3  1  0  0  0  0
  2  4  1  0  0  0  0
  2  5  1  0  0  0  0
  5  6  1  0  0  0  0
  5 14  2  0  0  0  0
  6  7  1  0  0  0  0
  6 10  2  0  0  0  0
  7  8  2  0  0  0  0
  7  9  1  0  0  0  0
 10 11  1  0  0  0  0
 11 12  2  0  0  0  0
 12 13  1  0  0  0  0
 12 14  1  0  0  0  0
M  CHG  1   7   1
M  CHG  1   9  -1
M  END
>  <name>
FC(F)(F)c1c([N+](=O)[O-])ccc([N;amide])c1

>  <apo>
1

>  <freq>
1

>  <freq0>
0

>  <freq1>
1

>  <freqA>
0.99887151

>  <a_count>
19

$$$$

  MOE2015           2D

 14 14  0  0  0  0  0  0  0  0999 V2000
    4.5780   -4.5780    0.0000 F   0  0  0  0  0  0  0  0  0  0  0  0
    4.5780   -3.0780    0.0000 C   0  0  0  0  0  0  0  0  0  0  0  0
    6.0780   -3.0780    0.0000 F   0  0  0  0  0  0  0  0  0  0  0  0
    4.5780   -1.5780    0.0000 F   0  0  0  0  0  0  0  0  0  0  0  0
    3.0780   -3.0780    0.0000 C   0  0  0  0  0  0  0  0  0  0  0  0
    2.3280   -1.7790    0.0000 C   0  0  0  0  0  0  0  0  0  0  0  0
    0.8280   -1.7790    0.0000 C   0  0  0  0  0  0  0  0  0  0  0  0
    0.0780   -0.4800    0.0000 O   0  0  0  0  0  0  0  0  0  0  0  0
    0.0780   -3.0780    0.0000 C   0  0  0  0  0  0  0  0  0  0  0  0
   -1.4220   -3.0780    0.0000 C   0  0  0  0  0  0  0  0  0  0  0  0
   -2.1720   -4.3770    0.0000 O   0  0  0  0  0  0  0  0  0  0  0  0
   -2.1720   -1.7790    0.0000 O   0  0  0  0  0  0  0  0  0  0  0  0
    0.8280   -4.3770    0.0000 C   0  0  0  0  0  0  0  0  0  0  0  0
    2.3280   -4.3770    0.0000 C   0  0  0  0  0  0  0  0  0  0  0  0
  1  2  1  0  0  0  0
  2  3  1  0  0  0  0
  2  4  1  0  0  0  0
  2  5  1  0  0  0  0
  5  6  1  0  0  0  0
  5 14  2  0  0  0  0
  6  7  2  0  0  0  0
  7  8  1  0  0  0  0
  7  9  1  0  0  0  0
  9 10  1  0  0  0  0
  9 13  2  0  0  0  0
 10 11  2  0  0  0  0
 10 12  1  0  0  0  0
 13 14  1  0  0  0  0
M  END
>  <name>
FC(F)(F)c1cc([O;ester])c(C(=O)O)cc1

>  <apo>
1

>  <freq>
1

>  <freq0>
0

>  <freq1>
1

>  <freqA>
0.99887151

>  <a_count>
19

$$$$

  MOE2015           2D

 11 12  0  0  0  0  0  0  0  0999 V2000
    0.9730    1.6850    0.0000 F   0  0  0  0  0  0  0  0  0  0  0  0
    1.7230    0.3860    0.0000 C   0  0  0  0  0  0  0  0  0  0  0  0
    0.9730   -0.9130    0.0000 C   0  0  0  0  0  0  0  0  0  0  0  0
   -0.5270   -0.9130    0.0000 F   0  0  0  0  0  0  0  0  0  0  0  0
    1.7230   -2.2120    0.0000 C   0  0  0  0  0  0  0  0  0  0  0  0
    3.2230   -2.2120    0.0000 C   0  0  0  0  0  0  0  0  0  0  0  0
    3.9730   -0.9130    0.0000 C   0  0  0  0  0  0  0  0  0  0  0  0
    5.4730   -0.9130    0.0000 C   0  0  0  0  0  0  0  0  0  0  0  0
    6.7720   -0.1630    0.0000 C   0  0  0  0  0  0  0  0  0  0  0  0
    6.7720   -1.6630    0.0000 C   0  0  0  0  0  0  0  0  0  0  0  0
    3.2230    0.3860    0.0000 C   0  0  0  0  0  0  0  0  0  0  0  0
  1  2  1  0  0  0  0
  2  3  1  0  0  0  0
  2 11  2  0  0  0  0
  3  4  1  0  0  0  0
  3  5  2  0  0  0  0
  5  6  1  0  0  0  0
  6  7  2  0  0  0  0
  7  8  1  0  0  0  0
  7 11  1  0  0  0  0
  8  9  1  0  0  0  0
  8 10  1  0  0  0  0
  9 10  1  0  0  0  0
M  END
>  <name>
Fc1c(F)ccc(C2[C;amine]C2)c1

>  <apo>
1

>  <freq>
1

>  <freq0>
0

>  <freq1>
1

>  <freqA>
0.99887151

>  <a_count>
19

$$$$

  MOE2015           2D

 11 11  0  0  0  0  0  0  0  0999 V2000
    1.0230    2.7160    0.0000 F   0  0  0  0  0  0  0  0  0  0  0  0
    1.7730    1.4170    0.0000 C   0  0  0  0  0  0  0  0  0  0  0  0
    3.2730    1.4170    0.0000 C   0  0  0  0  0  0  0  0  0  0  0  0
    4.0230    2.7160    0.0000 C   0  0  0  0  0  0  0  0  0  0  0  0
    4.0230    0.1180    0.0000 C   0  0  0  0  0  0  0  0  0  0  0  0
    5.5230    0.1180    0.0000 O   0  0  0  0  0  0  0  0  0  0  0  0
    6.2730   -1.1810    0.0000 C   0  0  0  0  0  0  0  0  0  0  0  0
    3.2730   -1.1810    0.0000 C   0  0  0  0  0  0  0  0  0  0  0  0
    1.7730   -1.1810    0.0000 C   0  0  0  0  0  0  0  0  0  0  0  0
    1.0230    0.1180    0.0000 C   0  0  0  0  0  0  0  0  0  0  0  0
   -0.4770    0.1180    0.0000 F   0  0  0  0  0  0  0  0  0  0  0  0
  1  2  1  0  0  0  0
  2  3  1  0  0  0  0
  2 10  2  0  0  0  0
  3  4  1  0  0  0  0
  3  5  2  0  0  0  0
  5  6  1  0  0  0  0
  5  8  1  0  0  0  0
  6  7  1  0  0  0  0
  8  9  2  0  0  0  0
  9 10  1  0  0  0  0
 10 11  1  0  0  0  0
M  END
>  <name>
Fc1c([C;ether])c(OC)ccc1F

>  <apo>
1

>  <freq>
1

>  <freq0>
0

>  <freq1>
1

>  <freqA>
0.99887151

>  <a_count>
19

$$$$

  MOE2015           2D

 14 14  0  0  0  0  0  0  0  0999 V2000
    0.0000    0.0000    0.0000 I   0  0  0  0  0  0  0  0  0  0  0  0
    1.5000    0.0000    0.0000 C   0  0  0  0  0  0  0  0  0  0  0  0
    2.2500    1.2990    0.0000 C   0  0  0  0  0  0  0  0  0  0  0  0
    1.5000    2.5980    0.0000 N   0  0  0  0  0  0  0  0  0  0  0  0
    3.7500    1.2990    0.0000 C   0  0  0  0  0  0  0  0  0  0  0  0
    4.5000    2.5980    0.0000 I   0  0  0  0  0  0  0  0  0  0  0  0
    4.5000    0.0000    0.0000 C   0  0  0  0  0  0  0  0  0  0  0  0
    6.0000    0.0000    0.0000 C   0  0  0  0  0  0  0  0  0  0  0  0
    6.7500   -1.2990    0.0000 O   0  0  0  0  0  0  0  0  0  0  0  0
    6.7500    1.2990    0.0000 O   0  0  0  0  0  0  0  0  0  0  0  0
    3.7500   -1.2990    0.0000 C   0  0  0  0  0  0  0  0  0  0  0  0
    4.5000   -2.5980    0.0000 I   0  0  0  0  0  0  0  0  0  0  0  0
    2.2500   -1.2990    0.0000 C   0  0  0  0  0  0  0  0  0  0  0  0
    1.5000   -2.5980    0.0000 N   0  0  0  0  0  0  0  0  0  0  0  0
  1  2  1  0  0  0  0
  2  3  1  0  0  0  0
  2 13  2  0  0  0  0
  3  4  1  0  0  0  0
  3  5  2  0  0  0  0
  5  6  1  0  0  0  0
  5  7  1  0  0  0  0
  7  8  1  0  0  0  0
  7 11  2  0  0  0  0
  8  9  2  0  0  0  0
  8 10  1  0  0  0  0
 11 12  1  0  0  0  0
 11 13  1  0  0  0  0
 13 14  1  0  0  0  0
M  END
>  <name>
Ic1c([N;amide])c(I)c(C(=O)O)c(I)c1[N;amide]

>  <apo>
2

>  <freq>
1

>  <freq0>
0

>  <freq1>
1

>  <freqA>
0.99887151

>  <a_count>
19

$$$$

  MOE2015           2D

  9  8  0  0  0  0  0  0  0  0999 V2000
    0.0000   -2.0210    0.0000 N   0  0  0  0  0  0  0  0  0  0  0  0
    1.5000   -2.0210    0.0000 C   0  0  0  0  0  0  0  0  0  0  0  0
    3.0000   -2.0210    0.0000 N   0  0  0  0  0  0  0  0  0  0  0  0
    3.7500   -0.7220    0.0000 C   0  0  0  0  0  0  0  0  0  0  0  0
    5.2500   -0.7220    0.0000 N   0  0  0  0  0  0  0  0  0  0  0  0
    6.0000   -2.0210    0.0000 C   0  0  0  0  0  0  0  0  0  0  0  0
    7.5000   -2.0210    0.0000 C   0  0  0  0  0  0  0  0  0  0  0  0
    3.0000    0.5770    0.0000 N   0  0  0  0  0  0  0  0  0  0  0  0
    3.7500    1.8760    0.0000 C   0  0  0  0  0  0  0  0  0  0  0  0
  1  2  3  0  0  0  0
  2  3  1  0  0  0  0
  3  4  2  0  0  0  0
  4  5  1  0  0  0  0
  4  8  1  0  0  0  0
  5  6  1  0  0  0  0
  6  7  1  0  0  0  0
  8  9  1  0  0  0  0
M  END
>  <name>
N#C/N=C(/NC[C;thioether])\NC

>  <apo>
1

>  <freq>
1

>  <freq0>
0

>  <freq1>
1

>  <freqA>
0.99887151

>  <a_count>
19

$$$$

  MOE2015           2D

  9  9  0  0  0  0  0  0  0  0999 V2000
    0.9170    1.5880    0.0000 N   0  0  0  0  0  0  0  0  0  0  0  0
    1.6670    0.2890    0.0000 C   0  0  0  0  0  0  0  0  0  0  0  0
   -0.5830    1.5880    0.0000 C   0  0  0  0  0  0  0  0  0  0  0  0
   -1.3330    2.8870    0.0000 C   0  0  0  0  0  0  0  0  0  0  0  0
   -0.5830    4.1860    0.0000 C   0  0  0  0  0  0  0  0  0  0  0  0
   -2.8330    2.8870    0.0000 C   0  0  0  0  0  0  0  0  0  0  0  0
   -3.5830    1.5880    0.0000 C   0  0  0  0  0  0  0  0  0  0  0  0
   -2.8330    0.2890    0.0000 C   0  0  0  0  0  0  0  0  0  0  0  0
   -1.3330    0.2890    0.0000 N   0  0  0  0  0  0  0  0  0  0  0  0
  1  2  1  0  0  0  0
  1  3  1  0  0  0  0
  3  4  1  0  0  0  0
  3  9  2  0  0  0  0
  4  5  1  0  0  0  0
  4  6  2  0  0  0  0
  6  7  1  0  0  0  0
  7  8  2  0  0  0  0
  8  9  1  0  0  0  0
M  END
>  <name>
N(C)c1c(C)c[c;biphenyl]cn1

>  <apo>
1

>  <freq>
1

>  <freq0>
0

>  <freq1>
1

>  <freqA>
0.99887151

>  <a_count>
19

$$$$

  MOE2015           2D

 10 10  0  0  0  0  0  0  0  0999 V2000
   -0.3750    3.2480    0.0000 N   0  0  0  0  0  0  0  0  0  0  0  0
    0.3750    1.9490    0.0000 C   0  0  0  0  0  0  0  0  0  0  0  0
   -0.3750    0.6500    0.0000 N   0  0  0  0  0  0  0  0  0  0  0  0
    1.8750    1.9490    0.0000 C   0  0  0  0  0  0  0  0  0  0  0  0
    2.6250    0.6500    0.0000 C   0  0  0  0  0  0  0  0  0  0  0  0
    4.1250    0.6500    0.0000 C   0  0  0  0  0  0  0  0  0  0  0  0
    4.8750    1.9490    0.0000 C   0  0  0  0  0  0  0  0  0  0  0  0
    6.3750    1.9490    0.0000 N   0  0  0  0  0  0  0  0  0  0  0  0
    4.1250    3.2480    0.0000 C   0  0  0  0  0  0  0  0  0  0  0  0
    2.6250    3.2480    0.0000 C   0  0  0  0  0  0  0  0  0  0  0  0
  1  2  2  0  0  0  0
  2  3  1  0  0  0  0
  2  4  1  0  0  0  0
  4  5  1  0  0  0  0
  4 10  2  0  0  0  0
  5  6  2  0  0  0  0
  6  7  1  0  0  0  0
  7  8  1  0  0  0  0
  7  9  2  0  0  0  0
  9 10  1  0  0  0  0
M  END
>  <name>
N=C(N)c1ccc([N;amine])cc1

>  <apo>
1

>  <freq>
1

>  <freq0>
0

>  <freq1>
1

>  <freqA>
0.99887151

>  <a_count>
19

$$$$

  MOE2015           2D

  8  8  0  0  1  0  0  0  0  0999 V2000
    0.0000    0.0000    0.0000 N   0  0  0  0  0  0  0  0  0  0  0  0
    1.5000    0.0000    0.0000 C   0  0  1  0  0  0  0  0  0  0  0  0
    2.2500   -1.2990    0.0000 C   0  0  0  0  0  0  0  0  0  0  0  0
    3.7500   -1.2990    0.0000 O   0  0  0  0  0  0  0  0  0  0  0  0
    4.5000    0.0000    0.0000 C   0  0  0  0  0  0  0  0  0  0  0  0
    6.0000    0.0000    0.0000 C   0  0  0  0  0  0  0  0  0  0  0  0
    3.7500    1.2990    0.0000 C   0  0  0  0  0  0  0  0  0  0  0  0
    2.2500    1.2990    0.0000 C   0  0  0  0  0  0  0  0  0  0  0  0
  2  1  1  6  0  0  0
  2  3  1  0  0  0  0
  2  8  1  0  0  0  0
  3  4  1  0  0  0  0
  4  5  1  0  0  0  0
  5  6  1  0  0  0  0
  5  7  2  0  0  0  0
  7  8  1  0  0  0  0
M  END
>  <name>
N[C@H]1[C;ether]OC([C;amine])=CC1

>  <apo>
2

>  <freq>
1

>  <freq0>
0

>  <freq1>
1

>  <freqA>
0.99887151

>  <a_count>
19

$$$$

  MOE2015           2D

 12 13  0  0  0  0  0  0  0  0999 V2000
   -3.3070    0.0000    0.0000 O   0  0  0  0  0  0  0  0  0  0  0  0
   -4.8070    0.0000    0.0000 C   0  0  0  0  0  0  0  0  0  0  0  0
   -2.5570    1.2990    0.0000 C   0  0  0  0  0  0  0  0  0  0  0  0
   -3.3070    2.5980    0.0000 N   0  0  0  0  0  0  0  0  0  0  0  0
   -2.5570    3.8970    0.0000 C   0  0  0  0  0  0  0  0  0  0  0  0
   -3.3070    5.1960    0.0000 N   0  0  0  0  0  0  0  0  0  0  0  0
   -1.0570    3.8970    0.0000 N   0  0  0  0  0  0  0  0  0  0  0  0
   -0.3070    2.5980    0.0000 C   0  0  0  0  0  0  0  0  0  0  0  0
    1.1600    2.2860    0.0000 N   0  0  0  0  0  0  0  0  0  0  0  0
    1.3170    0.7940    0.0000 C   0  0  0  0  0  0  0  0  0  0  0  0
   -0.0540    0.1840    0.0000 N   0  0  0  0  0  0  0  0  0  0  0  0
   -1.0570    1.2990    0.0000 C   0  0  0  0  0  0  0  0  0  0  0  0
  1  2  1  0  0  0  0
  1  3  1  0  0  0  0
  3  4  1  0  0  0  0
  3 12  2  0  0  0  0
  4  5  2  0  0  0  0
  5  6  1  0  0  0  0
  5  7  1  0  0  0  0
  7  8  2  0  0  0  0
  8  9  1  0  0  0  0
  8 12  1  0  0  0  0
  9 10  1  0  0  0  0
 10 11  2  0  0  0  0
 11 12  1  0  0  0  0
M  END
>  <name>
O(C)c1nc(N)nc2[nH;NaroC]cnc12

>  <apo>
1

>  <freq>
1

>  <freq0>
0

>  <freq1>
1

>  <freqA>
0.99887151

>  <a_count>
19

$$$$

  MOE2015           2D

  9  8  0  0  1  0  0  0  0  0999 V2000
   -0.2970   -1.1100    0.0000 O   0  0  0  0  0  0  0  0  0  0  0  0
    1.0020   -1.8600    0.0000 C   0  0  0  0  0  0  0  0  0  0  0  0
    1.0020   -3.3600    0.0000 N   0  0  0  0  0  0  0  0  0  0  0  0
    2.3010   -1.1100    0.0000 C   0  0  2  0  0  0  0  0  0  0  0  0
    2.3010    0.3900    0.0000 N   0  0  0  0  0  0  0  0  0  0  0  0
    3.6000   -1.8600    0.0000 C   0  0  0  0  0  0  0  0  0  0  0  0
    4.8990   -1.1100    0.0000 C   0  0  0  0  0  0  0  0  0  0  0  0
    6.1980   -1.8600    0.0000 C   0  0  0  0  0  0  0  0  0  0  0  0
    7.4970   -1.1100    0.0000 O   0  0  0  0  0  0  0  0  0  0  0  0
  1  2  2  0  0  0  0
  2  3  1  0  0  0  0
  2  4  1  0  0  0  0
  4  5  1  6  0  0  0
  4  6  1  0  0  0  0
  6  7  1  0  0  0  0
  7  8  1  0  0  0  0
  8  9  2  0  0  0  0
M  END
>  <name>
O=C(N)[C@H]([N;amide])CC[C;amide]=O

>  <apo>
2

>  <freq>
1

>  <freq0>
0

>  <freq1>
1

>  <freqA>
0.99887151

>  <a_count>
19

$$$$

  MOE2015           2D

  9  8  0  0  1  0  0  0  0  0999 V2000
    1.7890    1.7890    0.0000 O   0  0  0  0  0  0  0  0  0  0  0  0
    1.7890    0.2890    0.0000 C   0  0  0  0  0  0  0  0  0  0  0  0
    0.4900   -0.4610    0.0000 O   0  0  0  0  0  0  0  0  0  0  0  0
   -0.8090    0.2890    0.0000 C   0  0  3  0  0  0  0  0  0  0  0  0
   -2.1080   -0.4610    0.0000 O   0  0  0  0  0  0  0  0  0  0  0  0
   -0.8090    1.7890    0.0000 C   0  0  0  0  0  0  0  0  0  0  0  0
    3.0880   -0.4610    0.0000 O   0  0  0  0  0  0  0  0  0  0  0  0
    4.3870    0.2890    0.0000 C   0  0  0  0  0  0  0  0  0  0  0  0
    5.6860   -0.4610    0.0000 C   0  0  0  0  0  0  0  0  0  0  0  0
  1  2  2  0  0  0  0
  2  3  1  0  0  0  0
  2  7  1  0  0  0  0
  3  4  1  0  0  0  0
  4  5  1  0  0  0  0
  4  6  1  0  0  0  0
  7  8  1  0  0  0  0
  8  9  1  0  0  0  0
M  END
>  <name>
O=C(OC([O;ester])C)OCC

>  <apo>
1

>  <freq>
1

>  <freq0>
0

>  <freq1>
1

>  <freqA>
0.99887151

>  <a_count>
19

$$$$

  MOE2015           2D

  8  7  0  0  0  0  0  0  0  0999 V2000
    2.2180    0.5940    0.0000 O   0  0  0  0  0  0  0  0  0  0  0  0
    2.2180   -0.9060    0.0000 C   0  0  0  0  0  0  0  0  0  0  0  0
    3.5170   -1.6560    0.0000 O   0  0  0  0  0  0  0  0  0  0  0  0
    4.8160   -0.9060    0.0000 C   0  0  0  0  0  0  0  0  0  0  0  0
    0.9190   -1.6560    0.0000 N   0  0  0  0  0  0  0  0  0  0  0  0
   -0.3800   -0.9060    0.0000 C   0  0  0  0  0  0  0  0  0  0  0  0
   -1.6790   -1.6560    0.0000 C   0  0  0  0  0  0  0  0  0  0  0  0
   -0.3800    0.5940    0.0000 C   0  0  0  0  0  0  0  0  0  0  0  0
  1  2  2  0  0  0  0
  2  3  1  0  0  0  0
  2  5  1  0  0  0  0
  3  4  1  0  0  0  0
  5  6  1  0  0  0  0
  6  7  1  0  0  0  0
  6  8  1  0  0  0  0
M  END
>  <name>
O=C(OC)NC(C)[C;amine]

>  <apo>
1

>  <freq>
1

>  <freq0>
0

>  <freq1>
1

>  <freqA>
0.99887151

>  <a_count>
19

$$$$

  MOE2015           2D

 10 10  0  0  0  0  0  0  0  0999 V2000
    7.3870   -0.4210    0.0000 O   0  0  0  0  0  0  0  0  0  0  0  0
    6.0880    0.3290    0.0000 C   0  0  0  0  0  0  0  0  0  0  0  0
    6.0880    1.8290    0.0000 N   0  0  0  0  0  0  0  0  0  0  0  0
    4.7890   -0.4210    0.0000 C   0  0  0  0  0  0  0  0  0  0  0  0
    3.4900    0.3290    0.0000 C   0  0  0  0  0  0  0  0  0  0  0  0
    2.1910   -0.4210    0.0000 C   0  0  0  0  0  0  0  0  0  0  0  0
    0.8920    0.3290    0.0000 C   0  0  0  0  0  0  0  0  0  0  0  0
    0.8920    1.8290    0.0000 C   0  0  0  0  0  0  0  0  0  0  0  0
    2.1910    2.5790    0.0000 C   0  0  0  0  0  0  0  0  0  0  0  0
    3.4900    1.8290    0.0000 C   0  0  0  0  0  0  0  0  0  0  0  0
  1  2  2  0  0  0  0
  2  3  1  0  0  0  0
  2  4  1  0  0  0  0
  4  5  1  0  0  0  0
  5  6  1  0  0  0  0
  5 10  2  0  0  0  0
  6  7  2  0  0  0  0
  7  8  1  0  0  0  0
  8  9  2  0  0  0  0
  9 10  1  0  0  0  0
M  END
>  <name>
O=C([N;urea])Cc1ccccc1

>  <apo>
1

>  <freq>
1

>  <freq0>
0

>  <freq1>
1

>  <freqA>
0.99887151

>  <a_count>
19

$$$$

  MOE2015           2D

 15 15  0  0  0  0  0  0  0  0999 V2000
   -1.6500    2.5690    0.0000 O   0  0  0  0  0  0  0  0  0  0  0  0
   -1.0170    1.2090    0.0000 C   0  0  0  0  0  0  0  0  0  0  0  0
   -1.8790   -0.0190    0.0000 O   0  5  0  0  0  0  0  0  0  0  0  0
    0.4770    1.0770    0.0000 C   0  0  0  0  0  0  0  0  0  0  0  0
    1.3390    2.3050    0.0000 C   0  0  0  0  0  0  0  0  0  0  0  0
    0.8520    3.7230    0.0000 C   0  0  0  0  0  0  0  0  0  0  0  0
   -0.5820    4.1640    0.0000 C   0  0  0  0  0  0  0  0  0  0  0  0
   -2.0160    4.6040    0.0000 N   0  0  0  0  0  0  0  0  0  0  0  0
    2.0510    4.6250    0.0000 C   0  0  0  0  0  0  0  0  0  0  0  0
    2.0260    6.1250    0.0000 N   0  0  0  0  0  0  0  0  0  0  0  0
    3.2790    3.7630    0.0000 S   0  0  0  0  0  0  0  0  0  0  0  0
    2.8390    2.3290    0.0000 C   0  0  0  0  0  0  0  0  0  0  0  0
    3.7400    1.1300    0.0000 C   0  0  0  0  0  0  0  0  0  0  0  0
    3.1520   -0.2500    0.0000 O   0  0  0  0  0  0  0  0  0  0  0  0
    5.2290    1.3110    0.0000 O   0  5  0  0  0  0  0  0  0  0  0  0
  1  2  2  0  0  0  0
  2  3  1  0  0  0  0
  2  4  1  0  0  0  0
  4  5  1  0  0  0  0
  5  6  1  0  0  0  0
  5 12  2  0  0  0  0
  6  7  1  0  0  0  0
  6  9  2  0  0  0  0
  7  8  3  0  0  0  0
  9 10  1  0  0  0  0
  9 11  1  0  0  0  0
 11 12  1  0  0  0  0
 12 13  1  0  0  0  0
 13 14  2  0  0  0  0
 13 15  1  0  0  0  0
M  CHG  1   3  -1
M  CHG  1  15  -1
M  END
>  <name>
O=C([O-])Cc1c(C#N)c([N;amine])sc1C(=O)[O-]

>  <apo>
1

>  <freq>
1

>  <freq0>
0

>  <freq1>
1

>  <freqA>
0.99887151

>  <a_count>
19

$$$$

  MOE2015           2D

 10 10  0  0  0  0  0  0  0  0999 V2000
    1.6500    2.8580    0.0000 O   0  0  0  0  0  0  0  0  0  0  0  0
    2.4000    1.5590    0.0000 C   0  0  0  0  0  0  0  0  0  0  0  0
    1.6500    0.2600    0.0000 N   0  0  0  0  0  0  0  0  0  0  0  0
    0.1500    0.2600    0.0000 C   0  0  0  0  0  0  0  0  0  0  0  0
   -0.6000   -1.0390    0.0000 C   0  0  0  0  0  0  0  0  0  0  0  0
    2.4000   -1.0390    0.0000 C   0  0  0  0  0  0  0  0  0  0  0  0
    3.9000   -1.0390    0.0000 C   0  0  0  0  0  0  0  0  0  0  0  0
    4.6500    0.2600    0.0000 C   0  0  0  0  0  0  0  0  0  0  0  0
    6.1500    0.2600    0.0000 N   0  0  0  0  0  0  0  0  0  0  0  0
    3.9000    1.5590    0.0000 N   0  0  0  0  0  0  0  0  0  0  0  0
  1  2  2  0  0  0  0
  2  3  1  0  0  0  0
  2 10  1  0  0  0  0
  3  4  1  0  0  0  0
  3  6  1  0  0  0  0
  4  5  1  0  0  0  0
  6  7  2  0  0  0  0
  7  8  1  0  0  0  0
  8  9  1  0  0  0  0
  8 10  2  0  0  0  0
M  END
>  <name>
O=C1N(CC)C=CC([N;so2amide])=N1

>  <apo>
1

>  <freq>
1

>  <freq0>
0

>  <freq1>
1

>  <freqA>
0.99887151

>  <a_count>
19

$$$$

  MOE2015           2D

 10 10  0  0  0  0  0  0  0  0999 V2000
    2.9290    3.4450    0.0000 O   0  0  0  0  0  0  0  0  0  0  0  0
    1.8150    2.4410    0.0000 C   0  0  0  0  0  0  0  0  0  0  0  0
    1.9710    0.9490    0.0000 N   0  0  0  0  0  0  0  0  0  0  0  0
    3.2700    0.1990    0.0000 C   0  0  0  0  0  0  0  0  0  0  0  0
    4.5690    0.9490    0.0000 C   0  0  0  0  0  0  0  0  0  0  0  0
    5.8680    0.1990    0.0000 O   0  0  0  0  0  0  0  0  0  0  0  0
    0.6010    0.3390    0.0000 C   0  0  0  0  0  0  0  0  0  0  0  0
    0.2890   -1.1280    0.0000 O   0  0  0  0  0  0  0  0  0  0  0  0
   -0.4030    1.4540    0.0000 C   0  0  0  0  0  0  0  0  0  0  0  0
    0.3470    2.7530    0.0000 C   0  0  0  0  0  0  0  0  0  0  0  0
  1  2  2  0  0  0  0
  2  3  1  0  0  0  0
  2 10  1  0  0  0  0
  3  4  1  0  0  0  0
  3  7  1  0  0  0  0
  4  5  1  0  0  0  0
  5  6  1  0  0  0  0
  7  8  2  0  0  0  0
  7  9  1  0  0  0  0
  9 10  1  0  0  0  0
M  END
>  <name>
O=C1N(CC[O;ester])C(=O)CC1

>  <apo>
1

>  <freq>
1

>  <freq0>
0

>  <freq1>
1

>  <freqA>
0.99887151

>  <a_count>
19

$$$$

  MOE2015           2D

 12 13  0  0  0  0  0  0  0  0999 V2000
    0.1030   -0.3840    0.0000 O   0  0  0  0  0  0  0  0  0  0  0  0
    1.4020    0.3660    0.0000 C   0  0  0  0  0  0  0  0  0  0  0  0
    2.7010   -0.3840    0.0000 N   0  0  0  0  0  0  0  0  0  0  0  0
    4.0000    0.3660    0.0000 C   0  0  0  0  0  0  0  0  0  0  0  0
    4.0000    1.8660    0.0000 C   0  0  0  0  0  0  0  0  0  0  0  0
    5.2990    2.6160    0.0000 C   0  0  0  0  0  0  0  0  0  0  0  0
    6.5980    1.8660    0.0000 C   0  0  0  0  0  0  0  0  0  0  0  0
    6.5980    0.3660    0.0000 C   0  0  0  0  0  0  0  0  0  0  0  0
    7.8970   -0.3840    0.0000 O   0  0  0  0  0  0  0  0  0  0  0  0
    5.2990   -0.3840    0.0000 C   0  0  0  0  0  0  0  0  0  0  0  0
    2.7010    2.6160    0.0000 C   0  0  0  0  0  0  0  0  0  0  0  0
    1.4020    1.8660    0.0000 C   0  0  0  0  0  0  0  0  0  0  0  0
  1  2  2  0  0  0  0
  2  3  1  0  0  0  0
  2 12  1  0  0  0  0
  3  4  1  0  0  0  0
  4  5  1  0  0  0  0
  4 10  2  0  0  0  0
  5  6  2  0  0  0  0
  5 11  1  0  0  0  0
  6  7  1  0  0  0  0
  7  8  2  0  0  0  0
  8  9  1  0  0  0  0
  8 10  1  0  0  0  0
 11 12  2  0  0  0  0
M  END
>  <name>
O=C1Nc2c(ccc([O;ether])c2)C=C1

>  <apo>
1

>  <freq>
1

>  <freq0>
0

>  <freq1>
1

>  <freqA>
0.99887151

>  <a_count>
19

$$$$

  MOE2015           2D

 13 14  0  0  0  0  0  0  0  0999 V2000
    8.5240   -0.4850    0.0000 O   0  0  0  0  0  0  0  0  0  0  0  0
    7.2250    0.2650    0.0000 C   0  0  0  0  0  0  0  0  0  0  0  0
    5.9260   -0.4850    0.0000 O   0  0  0  0  0  0  0  0  0  0  0  0
    4.6270    0.2650    0.0000 C   0  0  0  0  0  0  0  0  0  0  0  0
    4.6270    1.7650    0.0000 C   0  0  0  0  0  0  0  0  0  0  0  0
    3.3280    2.5150    0.0000 C   0  0  0  0  0  0  0  0  0  0  0  0
    2.0290    1.7650    0.0000 C   0  0  0  0  0  0  0  0  0  0  0  0
    0.7300    2.5150    0.0000 O   0  0  0  0  0  0  0  0  0  0  0  0
    2.0290    0.2650    0.0000 C   0  0  0  0  0  0  0  0  0  0  0  0
    0.7300   -0.4850    0.0000 O   0  0  0  0  0  0  0  0  0  0  0  0
    3.3280   -0.4850    0.0000 C   0  0  0  0  0  0  0  0  0  0  0  0
    5.9260    2.5150    0.0000 C   0  0  0  0  0  0  0  0  0  0  0  0
    7.2250    1.7650    0.0000 C   0  0  0  0  0  0  0  0  0  0  0  0
  1  2  2  0  0  0  0
  2  3  1  0  0  0  0
  2 13  1  0  0  0  0
  3  4  1  0  0  0  0
  4  5  1  0  0  0  0
  4 11  2  0  0  0  0
  5  6  2  0  0  0  0
  5 12  1  0  0  0  0
  6  7  1  0  0  0  0
  7  8  1  0  0  0  0
  7  9  2  0  0  0  0
  9 10  1  0  0  0  0
  9 11  1  0  0  0  0
 12 13  2  0  0  0  0
M  END
>  <name>
O=C1Oc2c(cc([O;ether])c(O)c2)C=C1

>  <apo>
1

>  <freq>
1

>  <freq0>
0

>  <freq1>
1

>  <freqA>
0.99887151

>  <a_count>
19

$$$$

  MOE2015           2D

  8  8  0  0  0  0  0  0  0  0999 V2000
    5.6490    0.0000    0.0000 O   0  0  0  0  0  0  0  0  0  0  0  0
    4.1490    0.0000    0.0000 C   0  0  0  0  0  0  0  0  0  0  0  0
    3.4990    1.3520    0.0000 N   0  0  0  0  0  0  0  0  0  0  0  0
    2.0360    1.6840    0.0000 C   0  0  0  0  0  0  0  0  0  0  0  0
    0.8640    0.7480    0.0000 C   0  0  0  0  0  0  0  0  0  0  0  0
    0.8640   -0.7520    0.0000 C   0  0  0  0  0  0  0  0  0  0  0  0
    2.0370   -1.6860    0.0000 C   0  0  0  0  0  0  0  0  0  0  0  0
    3.4990   -1.3520    0.0000 C   0  0  0  0  0  0  0  0  0  0  0  0
  1  2  2  0  0  0  0
  2  3  1  0  0  0  0
  2  8  1  0  0  0  0
  3  4  1  0  0  0  0
  4  5  1  0  0  0  0
  5  6  1  0  0  0  0
  6  7  1  0  0  0  0
  7  8  1  0  0  0  0
M  END
>  <name>
O=C1[N;lactam]CCCCC1

>  <apo>
1

>  <freq>
1

>  <freq0>
0

>  <freq1>
1

>  <freqA>
0.99887151

>  <a_count>
19

$$$$

  MOE2015           2D

 11 12  0  0  0  0  0  0  0  0999 V2000
    6.3170    2.4250    0.0000 O   0  0  0  0  0  0  0  0  0  0  0  0
    5.2030    1.4210    0.0000 C   0  0  0  0  0  0  0  0  0  0  0  0
    5.3600   -0.0700    0.0000 N   0  0  0  0  0  0  0  0  0  0  0  0
    3.9890   -0.6810    0.0000 C   0  0  0  0  0  0  0  0  0  0  0  0
    2.9860    0.4340    0.0000 C   0  0  0  0  0  0  0  0  0  0  0  0
    1.4860    0.4340    0.0000 C   0  0  0  0  0  0  0  0  0  0  0  0
    0.7360   -0.8650    0.0000 N   0  0  0  0  0  0  0  0  0  0  0  0
    0.7360    1.7330    0.0000 C   0  0  0  0  0  0  0  0  0  0  0  0
    1.4860    3.0320    0.0000 C   0  0  0  0  0  0  0  0  0  0  0  0
    2.9860    3.0320    0.0000 C   0  0  0  0  0  0  0  0  0  0  0  0
    3.7360    1.7330    0.0000 C   0  0  0  0  0  0  0  0  0  0  0  0
  1  2  2  0  0  0  0
  2  3  1  0  0  0  0
  2 11  1  0  0  0  0
  3  4  1  0  0  0  0
  4  5  1  0  0  0  0
  5  6  1  0  0  0  0
  5 11  2  0  0  0  0
  6  7  1  0  0  0  0
  6  8  2  0  0  0  0
  8  9  1  0  0  0  0
  9 10  2  0  0  0  0
 10 11  1  0  0  0  0
M  END
>  <name>
O=C1[N;lactam]Cc2c(N)cccc12

>  <apo>
1

>  <freq>
1

>  <freq0>
0

>  <freq1>
1

>  <freqA>
0.99887151

>  <a_count>
19

$$$$

  MOE2015           2D

  9  8  0  0  1  0  0  0  0  0999 V2000
   -0.3360    1.2540    0.0000 O   0  0  0  0  0  0  0  0  0  0  0  0
    0.9630    2.0040    0.0000 C   0  0  0  0  0  0  0  0  0  0  0  0
    2.2620    1.2540    0.0000 C   0  0  2  0  0  0  0  0  0  0  0  0
    2.2620   -0.2460    0.0000 O   0  0  0  0  0  0  0  0  0  0  0  0
    3.5610    2.0040    0.0000 C   0  0  2  0  0  0  0  0  0  0  0  0
    3.5610    3.5040    0.0000 O   0  0  0  0  0  0  0  0  0  0  0  0
    4.8600    1.2540    0.0000 C   0  0  0  0  0  0  0  0  0  0  0  0
    6.1590    2.0040    0.0000 C   0  0  0  0  0  0  0  0  0  0  0  0
    7.4580    1.2540    0.0000 O   0  0  0  0  0  0  0  0  0  0  0  0
  1  2  2  0  0  0  0
  2  3  1  0  0  0  0
  3  4  1  1  0  0  0
  3  5  1  0  0  0  0
  5  6  1  6  0  0  0
  5  7  1  0  0  0  0
  7  8  1  0  0  0  0
  8  9  1  0  0  0  0
M  END
>  <name>
O=C[C@H](O)[C@H](O)[C;ether]CO

>  <apo>
1

>  <freq>
1

>  <freq0>
0

>  <freq1>
1

>  <freqA>
0.99887151

>  <a_count>
19

$$$$

  MOE2015           2D

  9  9  0  0  1  0  0  0  0  0999 V2000
    5.0360    1.3690    0.0000 O   0  0  0  0  0  0  0  0  0  0  0  0
    3.7420    0.6100    0.0000 C   0  0  0  0  0  0  0  0  0  0  0  0
    2.4380    1.3500    0.0000 C   0  0  2  0  0  0  0  0  0  0  0  0
    2.3960   -0.1490    0.0000 O   0  0  0  0  0  0  0  0  0  0  0  0
    0.9540    1.5740    0.0000 C   0  0  2  0  0  0  0  0  0  0  0  0
   -0.0980    0.5050    0.0000 C   0  0  0  0  0  0  0  0  0  0  0  0
    0.7090    3.0530    0.0000 O   0  0  0  0  0  0  0  0  0  0  0  0
    2.0400    3.7440    0.0000 C   0  0  0  0  0  0  0  0  0  0  0  0
    3.1090    2.6920    0.0000 C   0  0  0  0  0  0  0  0  0  0  0  0
  1  2  2  0  0  0  0
  3  2  1  6  0  0  0
  3  4  1  1  0  0  0
  3  5  1  0  0  0  0
  3  9  1  0  0  0  0
  5  6  1  6  0  0  0
  5  7  1  0  0  0  0
  7  8  1  0  0  0  0
  8  9  1  0  0  0  0
M  END
>  <name>
O=C[C@]1(O)[C@H](C)O[C;ether][C;ether]1

>  <apo>
2

>  <freq>
1

>  <freq0>
0

>  <freq1>
1

>  <freqA>
0.99887151

>  <a_count>
19

$$$$

  MOE2015           2D

 11 11  0  0  0  0  0  0  0  0999 V2000
    6.6820   -2.5980    0.0000 O   0  0  0  0  0  0  0  0  0  0  0  0
    5.1820   -2.5980    0.0000 C   0  0  0  0  0  0  0  0  0  0  0  0
    4.4320   -1.2990    0.0000 C   0  0  0  0  0  0  0  0  0  0  0  0
    5.1820    0.0000    0.0000 C   0  0  0  0  0  0  0  0  0  0  0  0
    6.6820    0.0000    0.0000 O   0  0  0  0  0  0  0  0  0  0  0  0
    2.9320   -1.2990    0.0000 C   0  0  0  0  0  0  0  0  0  0  0  0
    2.1820   -2.5980    0.0000 C   0  0  0  0  0  0  0  0  0  0  0  0
    0.6820   -2.5980    0.0000 C   0  0  0  0  0  0  0  0  0  0  0  0
   -0.0680   -1.2990    0.0000 C   0  0  0  0  0  0  0  0  0  0  0  0
    0.6820    0.0000    0.0000 C   0  0  0  0  0  0  0  0  0  0  0  0
    2.1820    0.0000    0.0000 C   0  0  0  0  0  0  0  0  0  0  0  0
  1  2  2  0  0  0  0
  2  3  1  0  0  0  0
  3  4  1  0  0  0  0
  3  6  1  0  0  0  0
  4  5  2  0  0  0  0
  6  7  1  0  0  0  0
  6 11  2  0  0  0  0
  7  8  2  0  0  0  0
  8  9  1  0  0  0  0
  9 10  2  0  0  0  0
 10 11  1  0  0  0  0
M  END
>  <name>
O=[C;amide]C([C;ester]=O)c1ccccc1

>  <apo>
2

>  <freq>
1

>  <freq0>
0

>  <freq1>
1

>  <freqA>
0.99887151

>  <a_count>
19

$$$$

  MOE2015           2D

 10 10  0  0  1  0  0  0  0  0999 V2000
    7.6590   -2.6900    0.0000 O   0  0  0  0  0  0  0  0  0  0  0  0
    6.3600   -3.4400    0.0000 C   0  0  0  0  0  0  0  0  0  0  0  0
    5.0610   -2.6900    0.0000 C   0  0  3  0  0  0  0  0  0  0  0  0
    5.0610   -1.1900    0.0000 N   0  0  0  0  0  0  0  0  0  0  0  0
    3.7620   -3.4400    0.0000 C   0  0  0  0  0  0  0  0  0  0  0  0
    2.4630   -2.6900    0.0000 C   0  0  0  0  0  0  0  0  0  0  0  0
    1.0920   -3.3000    0.0000 N   0  0  0  0  0  0  0  0  0  0  0  0
    0.0890   -2.1860    0.0000 C   0  0  0  0  0  0  0  0  0  0  0  0
    0.8390   -0.8870    0.0000 N   0  0  0  0  0  0  0  0  0  0  0  0
    2.3060   -1.1980    0.0000 C   0  0  0  0  0  0  0  0  0  0  0  0
  1  2  2  0  0  0  0
  2  3  1  0  0  0  0
  3  4  1  0  0  0  0
  3  5  1  0  0  0  0
  5  6  1  0  0  0  0
  6  7  1  0  0  0  0
  6 10  2  0  0  0  0
  7  8  1  0  0  0  0
  8  9  2  0  0  0  0
  9 10  1  0  0  0  0
M  END
>  <name>
O=[C;amide]C([N;amide])Cc1[nH]cnc1

>  <apo>
2

>  <freq>
1

>  <freq0>
0

>  <freq1>
1

>  <freqA>
0.99887151

>  <a_count>
19

$$$$

  MOE2015           2D

  8  8  0  0  1  0  0  0  0  0999 V2000
    5.3440   -0.8120    0.0000 O   0  0  0  0  0  0  0  0  0  0  0  0
    4.5940   -2.1110    0.0000 C   0  0  0  0  0  0  0  0  0  0  0  0
    3.0940   -2.1110    0.0000 C   0  0  3  0  0  0  0  0  0  0  0  0
    2.3440   -3.4100    0.0000 N   0  0  0  0  0  0  0  0  0  0  0  0
    0.8440   -3.4100    0.0000 C   0  0  0  0  0  0  0  0  0  0  0  0
    0.0940   -2.1110    0.0000 C   0  0  0  0  0  0  0  0  0  0  0  0
    0.8440   -0.8120    0.0000 C   0  0  0  0  0  0  0  0  0  0  0  0
    2.3440   -0.8120    0.0000 C   0  0  0  0  0  0  0  0  0  0  0  0
  1  2  2  0  0  0  0
  2  3  1  0  0  0  0
  3  4  1  0  0  0  0
  3  8  1  0  0  0  0
  4  5  1  0  0  0  0
  5  6  1  0  0  0  0
  6  7  1  0  0  0  0
  7  8  1  0  0  0  0
M  END
>  <name>
O=[C;amide]C1[N;amine]CCCC1

>  <apo>
2

>  <freq>
1

>  <freq0>
0

>  <freq1>
1

>  <freqA>
0.99887151

>  <a_count>
19

$$$$

  MOE2015           2D

 10 10  0  0  1  0  0  0  0  0999 V2000
    7.6590   -2.6900    0.0000 O   0  0  0  0  0  0  0  0  0  0  0  0
    6.3600   -3.4400    0.0000 C   0  0  0  0  0  0  0  0  0  0  0  0
    5.0610   -2.6900    0.0000 C   0  0  1  0  0  0  0  0  0  0  0  0
    5.0610   -1.1900    0.0000 N   0  0  0  0  0  0  0  0  0  0  0  0
    3.7620   -3.4400    0.0000 C   0  0  0  0  0  0  0  0  0  0  0  0
    2.4630   -2.6900    0.0000 C   0  0  0  0  0  0  0  0  0  0  0  0
    1.0920   -3.3000    0.0000 N   0  0  0  0  0  0  0  0  0  0  0  0
    0.0890   -2.1860    0.0000 C   0  0  0  0  0  0  0  0  0  0  0  0
    0.8390   -0.8870    0.0000 N   0  0  0  0  0  0  0  0  0  0  0  0
    2.3060   -1.1980    0.0000 C   0  0  0  0  0  0  0  0  0  0  0  0
  1  2  2  0  0  0  0
  2  3  1  0  0  0  0
  3  4  1  6  0  0  0
  3  5  1  0  0  0  0
  5  6  1  0  0  0  0
  6  7  1  0  0  0  0
  6 10  2  0  0  0  0
  7  8  1  0  0  0  0
  8  9  2  0  0  0  0
  9 10  1  0  0  0  0
M  END
>  <name>
O=[C;amide][C@@H](N)Cc1[nH]cnc1

>  <apo>
1

>  <freq>
1

>  <freq0>
0

>  <freq1>
1

>  <freqA>
0.99887151

>  <a_count>
19

$$$$

  MOE2015           2D

 10 10  0  0  1  0  0  0  0  0999 V2000
    7.6590   -2.6900    0.0000 O   0  0  0  0  0  0  0  0  0  0  0  0
    6.3600   -3.4400    0.0000 C   0  0  0  0  0  0  0  0  0  0  0  0
    5.0610   -2.6900    0.0000 C   0  0  1  0  0  0  0  0  0  0  0  0
    5.0610   -1.1900    0.0000 N   0  0  0  0  0  0  0  0  0  0  0  0
    3.7620   -3.4400    0.0000 C   0  0  0  0  0  0  0  0  0  0  0  0
    2.4630   -2.6900    0.0000 C   0  0  0  0  0  0  0  0  0  0  0  0
    1.0920   -3.3000    0.0000 S   0  0  0  0  0  0  0  0  0  0  0  0
    0.0890   -2.1860    0.0000 C   0  0  0  0  0  0  0  0  0  0  0  0
    0.8390   -0.8870    0.0000 C   0  0  0  0  0  0  0  0  0  0  0  0
    2.3060   -1.1980    0.0000 C   0  0  0  0  0  0  0  0  0  0  0  0
  1  2  2  0  0  0  0
  2  3  1  0  0  0  0
  3  4  1  6  0  0  0
  3  5  1  0  0  0  0
  5  6  1  0  0  0  0
  6  7  1  0  0  0  0
  6 10  2  0  0  0  0
  7  8  1  0  0  0  0
  8  9  2  0  0  0  0
  9 10  1  0  0  0  0
M  END
>  <name>
O=[C;amide][C@@H]([N;amide])Cc1sccc1

>  <apo>
2

>  <freq>
1

>  <freq0>
0

>  <freq1>
1

>  <freqA>
0.99887151

>  <a_count>
19

$$$$

  MOE2015           2D

 10 10  0  0  1  0  0  0  0  0999 V2000
    7.6590   -2.6900    0.0000 O   0  0  0  0  0  0  0  0  0  0  0  0
    6.3600   -3.4400    0.0000 C   0  0  0  0  0  0  0  0  0  0  0  0
    5.0610   -2.6900    0.0000 C   0  0  1  0  0  0  0  0  0  0  0  0
    5.0610   -1.1900    0.0000 N   0  0  0  0  0  0  0  0  0  0  0  0
    3.7620   -3.4400    0.0000 C   0  0  0  0  0  0  0  0  0  0  0  0
    2.4630   -2.6900    0.0000 C   0  0  0  0  0  0  0  0  0  0  0  0
    1.0920   -3.3000    0.0000 N   0  0  0  0  0  0  0  0  0  0  0  0
    0.0890   -2.1860    0.0000 C   0  0  0  0  0  0  0  0  0  0  0  0
    0.8390   -0.8870    0.0000 N   0  0  0  0  0  0  0  0  0  0  0  0
    2.3060   -1.1980    0.0000 C   0  0  0  0  0  0  0  0  0  0  0  0
  1  2  2  0  0  0  0
  2  3  1  0  0  0  0
  3  4  1  6  0  0  0
  3  5  1  0  0  0  0
  5  6  1  0  0  0  0
  6  7  1  0  0  0  0
  6 10  2  0  0  0  0
  7  8  2  0  0  0  0
  8  9  1  0  0  0  0
  9 10  1  0  0  0  0
M  END
>  <name>
O=[C;amide][C@@H]([N;amide])[C;ether]c1nc[nH]c1

>  <apo>
3

>  <freq>
1

>  <freq0>
0

>  <freq1>
1

>  <freqA>
0.99887151

>  <a_count>
19

$$$$

  MOE2015           2D

 10 10  0  0  1  0  0  0  0  0999 V2000
    7.3500   -2.3380    0.0000 O   0  0  0  0  0  0  0  0  0  0  0  0
    5.8500   -2.3380    0.0000 C   0  0  0  0  0  0  0  0  0  0  0  0
    5.1000   -1.0390    0.0000 C   0  0  1  0  0  0  0  0  0  0  0  0
    5.8500    0.2600    0.0000 N   0  0  0  0  0  0  0  0  0  0  0  0
    3.6000   -1.0390    0.0000 C   0  0  0  0  0  0  0  0  0  0  0  0
    2.8500   -2.3380    0.0000 C   0  0  0  0  0  0  0  0  0  0  0  0
    1.3500   -2.3380    0.0000 C   0  0  0  0  0  0  0  0  0  0  0  0
    0.6000   -1.0390    0.0000 C   0  0  0  0  0  0  0  0  0  0  0  0
    1.3500    0.2600    0.0000 C   0  0  0  0  0  0  0  0  0  0  0  0
    2.8500    0.2600    0.0000 C   0  0  0  0  0  0  0  0  0  0  0  0
  1  2  2  0  0  0  0
  2  3  1  0  0  0  0
  3  4  1  6  0  0  0
  3  5  1  0  0  0  0
  5  6  1  0  0  0  0
  5 10  2  0  0  0  0
  6  7  2  0  0  0  0
  7  8  1  0  0  0  0
  8  9  2  0  0  0  0
  9 10  1  0  0  0  0
M  END
>  <name>
O=[C;amide][C@@H]([N;amide])c1ccccc1

>  <apo>
2

>  <freq>
1

>  <freq0>
0

>  <freq1>
1

>  <freqA>
0.99887151

>  <a_count>
19

$$$$

  MOE2015           2D

 10 10  0  0  1  0  0  0  0  0999 V2000
    7.6590   -2.6900    0.0000 O   0  0  0  0  0  0  0  0  0  0  0  0
    6.3600   -3.4400    0.0000 C   0  0  0  0  0  0  0  0  0  0  0  0
    5.0610   -2.6900    0.0000 C   0  0  2  0  0  0  0  0  0  0  0  0
    5.0610   -1.1900    0.0000 N   0  0  0  0  0  0  0  0  0  0  0  0
    3.7620   -3.4400    0.0000 C   0  0  0  0  0  0  0  0  0  0  0  0
    2.4630   -2.6900    0.0000 C   0  0  0  0  0  0  0  0  0  0  0  0
    1.0920   -3.3000    0.0000 N   0  0  0  0  0  0  0  0  0  0  0  0
    0.0890   -2.1860    0.0000 C   0  0  0  0  0  0  0  0  0  0  0  0
    0.8390   -0.8870    0.0000 N   0  0  0  0  0  0  0  0  0  0  0  0
    2.3060   -1.1980    0.0000 C   0  0  0  0  0  0  0  0  0  0  0  0
  1  2  2  0  0  0  0
  2  3  1  0  0  0  0
  3  4  1  1  0  0  0
  3  5  1  0  0  0  0
  5  6  1  0  0  0  0
  6  7  1  0  0  0  0
  6 10  2  0  0  0  0
  7  8  2  0  0  0  0
  8  9  1  0  0  0  0
  9 10  1  0  0  0  0
M  END
>  <name>
O=[C;amide][C@H]([N;amide])Cc1nc[nH;NaroC]c1

>  <apo>
3

>  <freq>
1

>  <freq0>
0

>  <freq1>
1

>  <freqA>
0.99887151

>  <a_count>
19

$$$$

  MOE2015           2D

  9  9  0  0  1  0  0  0  0  0999 V2000
   -0.1350   -2.5720    0.0000 O   0  0  0  0  0  0  0  0  0  0  0  0
    1.3570   -2.7290    0.0000 C   0  0  0  0  0  0  0  0  0  0  0  0
    2.2390   -1.5150    0.0000 C   0  0  1  0  0  0  0  0  0  0  0  0
    3.7390   -1.5150    0.0000 C   0  0  2  0  0  0  0  0  0  0  0  0
    4.6200   -2.7290    0.0000 C   0  0  0  0  0  0  0  0  0  0  0  0
    6.1120   -2.5720    0.0000 O   0  0  0  0  0  0  0  0  0  0  0  0
    4.2020   -0.0880    0.0000 C   0  0  0  0  0  0  0  0  0  0  0  0
    2.9890    0.7930    0.0000 C   0  0  0  0  0  0  0  0  0  0  0  0
    1.7750   -0.0880    0.0000 C   0  0  0  0  0  0  0  0  0  0  0  0
  1  2  2  0  0  0  0
  3  2  1  6  0  0  0
  3  4  1  0  0  0  0
  3  9  1  0  0  0  0
  4  5  1  1  0  0  0
  4  7  1  0  0  0  0
  5  6  2  0  0  0  0
  7  8  1  0  0  0  0
  8  9  1  0  0  0  0
M  END
>  <name>
O=[C;amide][C@H]1[C@H]([C;amide]=O)C[C;ether]C1

>  <apo>
3

>  <freq>
1

>  <freq0>
0

>  <freq1>
1

>  <freqA>
0.99887151

>  <a_count>
19

$$$$

  MOE2015           2D

 10 10  0  0  0  0  0  0  0  0999 V2000
    6.5070    1.7440    0.0000 O   0  0  0  0  0  0  0  0  0  0  0  0
    5.2080    0.9940    0.0000 C   0  0  0  0  0  0  0  0  0  0  0  0
    3.9090    1.7440    0.0000 C   0  0  0  0  0  0  0  0  0  0  0  0
    2.6100    0.9940    0.0000 C   0  0  0  0  0  0  0  0  0  0  0  0
    2.6100   -0.5060    0.0000 C   0  0  0  0  0  0  0  0  0  0  0  0
    1.3110    1.7440    0.0000 C   0  0  0  0  0  0  0  0  0  0  0  0
    0.0120    0.9940    0.0000 N   0  0  0  0  0  0  0  0  0  0  0  0
    1.3110    3.2440    0.0000 C   0  0  0  0  0  0  0  0  0  0  0  0
    2.6100    3.9940    0.0000 C   0  0  0  0  0  0  0  0  0  0  0  0
    3.9090    3.2440    0.0000 C   0  0  0  0  0  0  0  0  0  0  0  0
  1  2  2  0  0  0  0
  2  3  1  0  0  0  0
  3  4  1  0  0  0  0
  3 10  2  0  0  0  0
  4  5  1  0  0  0  0
  4  6  2  0  0  0  0
  6  7  1  0  0  0  0
  6  8  1  0  0  0  0
  8  9  2  0  0  0  0
  9 10  1  0  0  0  0
M  END
>  <name>
O=[C;amide]c1c(C)c([N;amine])c[c;biphenyl]c1

>  <apo>
3

>  <freq>
1

>  <freq0>
0

>  <freq1>
1

>  <freqA>
0.99887151

>  <a_count>
19

$$$$

  MOE2015           2D

 10 10  0  0  0  0  0  0  0  0999 V2000
   -0.3750   -3.5070    0.0000 O   0  0  0  0  0  0  0  0  0  0  0  0
    0.3750   -2.2080    0.0000 C   0  0  0  0  0  0  0  0  0  0  0  0
    1.8750   -2.2080    0.0000 C   0  0  0  0  0  0  0  0  0  0  0  0
    2.6250   -0.9090    0.0000 C   0  0  0  0  0  0  0  0  0  0  0  0
    1.8750    0.3900    0.0000 C   0  0  0  0  0  0  0  0  0  0  0  0
    4.1250   -0.9090    0.0000 C   0  0  0  0  0  0  0  0  0  0  0  0
    4.8750   -2.2080    0.0000 C   0  0  0  0  0  0  0  0  0  0  0  0
    6.3750   -2.2080    0.0000 N   0  0  0  0  0  0  0  0  0  0  0  0
    4.1250   -3.5070    0.0000 C   0  0  0  0  0  0  0  0  0  0  0  0
    2.6250   -3.5070    0.0000 C   0  0  0  0  0  0  0  0  0  0  0  0
  1  2  2  0  0  0  0
  2  3  1  0  0  0  0
  3  4  1  0  0  0  0
  3 10  2  0  0  0  0
  4  5  1  0  0  0  0
  4  6  2  0  0  0  0
  6  7  1  0  0  0  0
  7  8  1  0  0  0  0
  7  9  2  0  0  0  0
  9 10  1  0  0  0  0
M  END
>  <name>
O=[C;amide]c1c(C)cc([N;amide])cc1

>  <apo>
2

>  <freq>
1

>  <freq0>
0

>  <freq1>
1

>  <freqA>
0.99887151

>  <a_count>
19

$$$$

  MOE2015           2D

 10 10  0  0  0  0  0  0  0  0999 V2000
   -0.7500   -1.2990    0.0000 O   0  0  0  0  0  0  0  0  0  0  0  0
    0.0000   -2.5980    0.0000 C   0  0  0  0  0  0  0  0  0  0  0  0
    1.5000   -2.5980    0.0000 C   0  0  0  0  0  0  0  0  0  0  0  0
    2.2500   -3.8970    0.0000 C   0  0  0  0  0  0  0  0  0  0  0  0
    3.7500   -3.8970    0.0000 C   0  0  0  0  0  0  0  0  0  0  0  0
    4.5000   -2.5980    0.0000 C   0  0  0  0  0  0  0  0  0  0  0  0
    6.0000   -2.5980    0.0000 N   0  0  0  0  0  0  0  0  0  0  0  0
    6.7500   -3.8970    0.0000 C   0  0  0  0  0  0  0  0  0  0  0  0
    3.7500   -1.2990    0.0000 C   0  0  0  0  0  0  0  0  0  0  0  0
    2.2500   -1.2990    0.0000 C   0  0  0  0  0  0  0  0  0  0  0  0
  1  2  2  0  0  0  0
  2  3  1  0  0  0  0
  3  4  1  0  0  0  0
  3 10  2  0  0  0  0
  4  5  2  0  0  0  0
  5  6  1  0  0  0  0
  6  7  1  0  0  0  0
  6  9  2  0  0  0  0
  7  8  1  0  0  0  0
  9 10  1  0  0  0  0
M  END
>  <name>
O=[C;amide]c1ccc([N;amine]C)cc1

>  <apo>
2

>  <freq>
1

>  <freq0>
0

>  <freq1>
1

>  <freqA>
0.99887151

>  <a_count>
19

$$$$

  MOE2015           2D

 12 13  0  0  0  0  0  0  0  0999 V2000
    8.0010    2.1440    0.0000 O   0  0  0  0  0  0  0  0  0  0  0  0
    6.7020    1.3940    0.0000 C   0  0  0  0  0  0  0  0  0  0  0  0
    5.4030    2.1440    0.0000 C   0  0  0  0  0  0  0  0  0  0  0  0
    4.1040    1.3940    0.0000 N   0  0  0  0  0  0  0  0  0  0  0  0
    2.8050    2.1440    0.0000 C   0  0  0  0  0  0  0  0  0  0  0  0
    2.8050    3.6440    0.0000 C   0  0  0  0  0  0  0  0  0  0  0  0
    4.1040    4.3940    0.0000 C   0  0  0  0  0  0  0  0  0  0  0  0
    5.4030    3.6440    0.0000 C   0  0  0  0  0  0  0  0  0  0  0  0
    1.5060    4.3940    0.0000 C   0  0  0  0  0  0  0  0  0  0  0  0
    0.2070    3.6440    0.0000 C   0  0  0  0  0  0  0  0  0  0  0  0
    0.2070    2.1440    0.0000 C   0  0  0  0  0  0  0  0  0  0  0  0
    1.5060    1.3940    0.0000 C   0  0  0  0  0  0  0  0  0  0  0  0
  1  2  2  0  0  0  0
  2  3  1  0  0  0  0
  3  4  1  0  0  0  0
  3  8  2  0  0  0  0
  4  5  2  0  0  0  0
  5  6  1  0  0  0  0
  5 12  1  0  0  0  0
  6  7  2  0  0  0  0
  6  9  1  0  0  0  0
  7  8  1  0  0  0  0
  9 10  2  0  0  0  0
 10 11  1  0  0  0  0
 11 12  2  0  0  0  0
M  END
>  <name>
O=[C;amide]c1nc2c(cc1)cccc2

>  <apo>
1

>  <freq>
1

>  <freq0>
0

>  <freq1>
1

>  <freqA>
0.99887151

>  <a_count>
19

$$$$

  MOE2015           2D

  7  6  0  0  0  0  0  0  0  0999 V2000
    4.8480    1.2990    0.0000 O   0  0  0  0  0  0  0  0  0  0  0  0
    3.5490    2.0490    0.0000 C   0  0  0  0  0  0  0  0  0  0  0  0
    2.2500    1.2990    0.0000 C   0  0  0  0  0  0  0  0  0  0  0  0
    0.9510    0.5490    0.0000 C   0  0  0  0  0  0  0  0  0  0  0  0
   -0.3480    1.2990    0.0000 C   0  0  0  0  0  0  0  0  0  0  0  0
    1.5000    2.5980    0.0000 C   0  0  0  0  0  0  0  0  0  0  0  0
    3.0000    0.0000    0.0000 C   0  0  0  0  0  0  0  0  0  0  0  0
  1  2  2  0  0  0  0
  2  3  1  0  0  0  0
  3  4  1  0  0  0  0
  3  6  1  0  0  0  0
  3  7  1  0  0  0  0
  4  5  1  0  0  0  0
M  END
>  <name>
O=[C;ester]C(CC)(C)C

>  <apo>
1

>  <freq>
1

>  <freq0>
0

>  <freq1>
1

>  <freqA>
0.99887151

>  <a_count>
19

$$$$

  MOE2015           2D

  7  6  0  0  0  0  0  0  0  0999 V2000
    5.8620   -0.2850    0.0000 O   0  0  0  0  0  0  0  0  0  0  0  0
    4.5630   -1.0350    0.0000 C   0  0  0  0  0  0  0  0  0  0  0  0
    3.2640   -0.2850    0.0000 C   0  0  0  0  0  0  0  0  0  0  0  0
    1.9650   -1.0350    0.0000 C   0  0  0  0  0  0  0  0  0  0  0  0
    0.6660   -1.7850    0.0000 C   0  0  0  0  0  0  0  0  0  0  0  0
    1.2150    0.2640    0.0000 C   0  0  0  0  0  0  0  0  0  0  0  0
    2.7150   -2.3340    0.0000 C   0  0  0  0  0  0  0  0  0  0  0  0
  1  2  2  0  0  0  0
  2  3  1  0  0  0  0
  3  4  1  0  0  0  0
  4  5  1  0  0  0  0
  4  6  1  0  0  0  0
  4  7  1  0  0  0  0
M  END
>  <name>
O=[C;ester]CC(C)(C)C

>  <apo>
1

>  <freq>
1

>  <freq0>
0

>  <freq1>
1

>  <freqA>
0.99887151

>  <a_count>
19

$$$$

  MOE2015           2D

  7  6  0  0  0  0  0  0  0  0999 V2000
   -0.3610   -1.9920    0.0000 O   0  0  0  0  0  0  0  0  0  0  0  0
    0.9380   -1.2420    0.0000 C   0  0  0  0  0  0  0  0  0  0  0  0
    2.2370   -1.9920    0.0000 C   0  0  0  0  0  0  0  0  0  0  0  0
    3.5360   -1.2420    0.0000 C   0  0  0  0  0  0  0  0  0  0  0  0
    4.8350   -1.9920    0.0000 C   0  0  0  0  0  0  0  0  0  0  0  0
    6.1340   -1.2420    0.0000 C   0  0  0  0  0  0  0  0  0  0  0  0
    7.4330   -1.9920    0.0000 C   0  0  0  0  0  0  0  0  0  0  0  0
  1  2  2  0  0  0  0
  2  3  1  0  0  0  0
  3  4  1  0  0  0  0
  4  5  1  0  0  0  0
  5  6  1  0  0  0  0
  6  7  1  0  0  0  0
M  END
>  <name>
O=[C;ester]CCCC[C;olefin]

>  <apo>
2

>  <freq>
1

>  <freq0>
0

>  <freq1>
1

>  <freqA>
0.99887151

>  <a_count>
19

$$$$

  MOE2015           2D

 10 10  0  0  1  0  0  0  0  0999 V2000
    7.3500   -2.3380    0.0000 O   0  0  0  0  0  0  0  0  0  0  0  0
    5.8500   -2.3380    0.0000 C   0  0  0  0  0  0  0  0  0  0  0  0
    5.1000   -1.0390    0.0000 C   0  0  1  0  0  0  0  0  0  0  0  0
    5.8500    0.2600    0.0000 N   0  0  0  0  0  0  0  0  0  0  0  0
    3.6000   -1.0390    0.0000 C   0  0  0  0  0  0  0  0  0  0  0  0
    2.8500   -2.3380    0.0000 C   0  0  0  0  0  0  0  0  0  0  0  0
    1.3500   -2.3380    0.0000 C   0  0  0  0  0  0  0  0  0  0  0  0
    0.6000   -1.0390    0.0000 C   0  0  0  0  0  0  0  0  0  0  0  0
    1.3500    0.2600    0.0000 C   0  0  0  0  0  0  0  0  0  0  0  0
    2.8500    0.2600    0.0000 C   0  0  0  0  0  0  0  0  0  0  0  0
  1  2  2  0  0  0  0
  2  3  1  0  0  0  0
  3  4  1  6  0  0  0
  3  5  1  0  0  0  0
  5  6  1  0  0  0  0
  5 10  2  0  0  0  0
  6  7  2  0  0  0  0
  7  8  1  0  0  0  0
  8  9  2  0  0  0  0
  9 10  1  0  0  0  0
M  END
>  <name>
O=[C;ester][C@@H]([N;amide])c1ccccc1

>  <apo>
2

>  <freq>
1

>  <freq0>
0

>  <freq1>
1

>  <freqA>
0.99887151

>  <a_count>
19

$$$$

  MOE2015           2D

 12 12  0  0  0  0  0  0  0  0999 V2000
    5.8120   -3.3560    0.0000 O   0  0  0  0  0  0  0  0  0  0  0  0
    5.0630   -2.0570    0.0000 N   0  3  0  0  0  0  0  0  0  0  0  0
    5.8130   -0.7580    0.0000 O   0  5  0  0  0  0  0  0  0  0  0  0
    3.5630   -2.0570    0.0000 C   0  0  0  0  0  0  0  0  0  0  0  0
    2.8130   -0.7580    0.0000 C   0  0  0  0  0  0  0  0  0  0  0  0
    3.5630    0.5410    0.0000 O   0  0  0  0  0  0  0  0  0  0  0  0
    1.3120   -0.7580    0.0000 C   0  0  0  0  0  0  0  0  0  0  0  0
    0.5620    0.5410    0.0000 O   0  0  0  0  0  0  0  0  0  0  0  0
    0.5620   -2.0570    0.0000 C   0  0  0  0  0  0  0  0  0  0  0  0
    1.3120   -3.3560    0.0000 C   0  0  0  0  0  0  0  0  0  0  0  0
    0.5630   -4.6550    0.0000 C   0  0  0  0  0  0  0  0  0  0  0  0
    2.8130   -3.3560    0.0000 C   0  0  0  0  0  0  0  0  0  0  0  0
  1  2  2  0  0  0  0
  2  3  1  0  0  0  0
  2  4  1  0  0  0  0
  4  5  1  0  0  0  0
  4 12  2  0  0  0  0
  5  6  1  0  0  0  0
  5  7  2  0  0  0  0
  7  8  1  0  0  0  0
  7  9  1  0  0  0  0
  9 10  2  0  0  0  0
 10 11  1  0  0  0  0
 10 12  1  0  0  0  0
M  CHG  1   2   1
M  CHG  1   3  -1
M  END
>  <name>
O=[N+]([O-])c1c(O)c(O)cc([C;olefin])c1

>  <apo>
1

>  <freq>
1

>  <freq0>
0

>  <freq1>
1

>  <freqA>
0.99887151

>  <a_count>
19

$$$$

  MOE2015           2D

 12 13  0  0  0  0  0  0  0  0999 V2000
    6.6760   -3.8540    0.0000 O   0  0  0  0  0  0  0  0  0  0  0  0
    5.9260   -2.5550    0.0000 N   0  3  0  0  0  0  0  0  0  0  0  0
    6.6760   -1.2560    0.0000 O   0  5  0  0  0  0  0  0  0  0  0  0
    4.4260   -2.5550    0.0000 C   0  0  0  0  0  0  0  0  0  0  0  0
    3.5440   -3.7690    0.0000 N   0  0  0  0  0  0  0  0  0  0  0  0
    2.1180   -3.3050    0.0000 C   0  0  0  0  0  0  0  0  0  0  0  0
    0.8190   -4.0550    0.0000 O   0  0  0  0  0  0  0  0  0  0  0  0
   -0.4800   -3.3050    0.0000 C   0  0  0  0  0  0  0  0  0  0  0  0
   -0.4800   -1.8050    0.0000 C   0  0  0  0  0  0  0  0  0  0  0  0
    0.8190   -1.0550    0.0000 C   0  0  0  0  0  0  0  0  0  0  0  0
    2.1180   -1.8050    0.0000 N   0  0  0  0  0  0  0  0  0  0  0  0
    3.5440   -1.3420    0.0000 C   0  0  0  0  0  0  0  0  0  0  0  0
  1  2  2  0  0  0  0
  2  3  1  0  0  0  0
  2  4  1  0  0  0  0
  4  5  1  0  0  0  0
  4 12  2  0  0  0  0
  5  6  2  0  0  0  0
  6  7  1  0  0  0  0
  6 11  1  0  0  0  0
  7  8  1  0  0  0  0
  8  9  1  0  0  0  0
  9 10  1  0  0  0  0
 10 11  1  0  0  0  0
 11 12  1  0  0  0  0
M  CHG  1   2   1
M  CHG  1   3  -1
M  END
>  <name>
O=[N+]([O-])c1nc2OC[C;ether]Cn2c1

>  <apo>
1

>  <freq>
1

>  <freq0>
0

>  <freq1>
1

>  <freqA>
0.99887151

>  <a_count>
19

$$$$

  MOE2015           2D

 12 13  0  0  1  0  0  0  0  0999 V2000
   -0.7740   -1.3410    0.0000 O   0  0  0  0  0  0  0  0  0  0  0  0
   -0.0240   -2.6400    0.0000 N   0  3  0  0  0  0  0  0  0  0  0  0
   -0.7740   -3.9390    0.0000 O   0  5  0  0  0  0  0  0  0  0  0  0
    1.4760   -2.6400    0.0000 C   0  0  0  0  0  0  0  0  0  0  0  0
    2.3570   -1.4270    0.0000 N   0  0  0  0  0  0  0  0  0  0  0  0
    3.7840   -1.8900    0.0000 C   0  0  0  0  0  0  0  0  0  0  0  0
    5.2110   -1.4270    0.0000 O   0  0  0  0  0  0  0  0  0  0  0  0
    6.0920   -2.6400    0.0000 C   0  0  2  0  0  0  0  0  0  0  0  0
    7.5920   -2.6400    0.0000 C   0  0  0  0  0  0  0  0  0  0  0  0
    5.2110   -3.8540    0.0000 C   0  0  0  0  0  0  0  0  0  0  0  0
    3.7840   -3.3900    0.0000 N   0  0  0  0  0  0  0  0  0  0  0  0
    2.3570   -3.8540    0.0000 C   0  0  0  0  0  0  0  0  0  0  0  0
  1  2  2  0  0  0  0
  2  3  1  0  0  0  0
  2  4  1  0  0  0  0
  4  5  1  0  0  0  0
  4 12  2  0  0  0  0
  5  6  2  0  0  0  0
  6  7  1  0  0  0  0
  6 11  1  0  0  0  0
  7  8  1  0  0  0  0
  8  9  1  6  0  0  0
  8 10  1  0  0  0  0
 10 11  1  0  0  0  0
 11 12  1  0  0  0  0
M  CHG  1   2   1
M  CHG  1   3  -1
M  END
>  <name>
O=[N+]([O-])c1nc2O[C@H;ether](C)Cn2c1

>  <apo>
1

>  <freq>
1

>  <freq0>
0

>  <freq1>
1

>  <freqA>
0.99887151

>  <a_count>
19

$$$$

  MOE2015           2D

  7  7  0  0  0  0  0  0  0  0999 V2000
    5.1430    0.0000    0.0000 O   0  0  0  0  0  0  0  0  0  0  0  0
    3.6430    0.0000    0.0000 C   0  0  0  0  0  0  0  0  0  0  0  0
    2.8930    1.2990    0.0000 C   0  0  0  0  0  0  0  0  0  0  0  0
    1.3930    1.2990    0.0000 C   0  0  0  0  0  0  0  0  0  0  0  0
    0.6430    0.0000    0.0000 C   0  0  0  0  0  0  0  0  0  0  0  0
    1.3930   -1.2990    0.0000 C   0  0  0  0  0  0  0  0  0  0  0  0
    2.8930   -1.2990    0.0000 C   0  0  0  0  0  0  0  0  0  0  0  0
  1  2  1  0  0  0  0
  2  3  1  0  0  0  0
  2  7  1  0  0  0  0
  3  4  1  0  0  0  0
  4  5  1  0  0  0  0
  5  6  1  0  0  0  0
  6  7  1  0  0  0  0
M  END
>  <name>
OC1CC[C;amine]CC1

>  <apo>
1

>  <freq>
1

>  <freq0>
0

>  <freq1>
1

>  <freqA>
0.99887151

>  <a_count>
19

$$$$

  MOE2015           2D

  7  6  0  0  0  0  0  0  0  0999 V2000
    0.9510   -3.5490    0.0000 O   0  0  0  0  0  0  0  0  0  0  0  0
    2.2500   -2.7990    0.0000 C   0  0  0  0  0  0  0  0  0  0  0  0
    2.2500   -1.2990    0.0000 C   0  0  0  0  0  0  0  0  0  0  0  0
    3.5490   -0.5490    0.0000 C   0  0  0  0  0  0  0  0  0  0  0  0
    4.8480   -1.2990    0.0000 O   0  0  0  0  0  0  0  0  0  0  0  0
    0.9510   -0.5490    0.0000 C   0  0  0  0  0  0  0  0  0  0  0  0
    0.9510    0.9510    0.0000 C   0  0  0  0  0  0  0  0  0  0  0  0
  1  2  1  0  0  0  0
  2  3  1  0  0  0  0
  3  4  1  0  0  0  0
  3  6  1  0  0  0  0
  4  5  1  0  0  0  0
  6  7  1  0  0  0  0
M  END
>  <name>
OCC(CO)C[C;NaroC]

>  <apo>
1

>  <freq>
1

>  <freq0>
0

>  <freq1>
1

>  <freqA>
0.99887151

>  <a_count>
19

$$$$

  MOE2015           2D

  9  9  0  0  1  0  0  0  0  0999 V2000
    6.2940   -1.6200    0.0000 O   0  0  0  0  0  0  0  0  0  0  0  0
    4.9810   -0.8960    0.0000 C   0  0  0  0  0  0  0  0  0  0  0  0
    3.6970   -1.6710    0.0000 C   0  0  2  0  0  0  0  0  0  0  0  0
    2.3150   -1.0890    0.0000 C   0  0  1  0  0  0  0  0  0  0  0  0
    1.9740    0.3720    0.0000 O   0  0  0  0  0  0  0  0  0  0  0  0
    1.3330   -2.2230    0.0000 C   0  0  2  0  0  0  0  0  0  0  0  0
   -0.1610   -2.0960    0.0000 O   0  0  0  0  0  0  0  0  0  0  0  0
    2.1090   -3.5070    0.0000 C   0  0  0  0  0  0  0  0  0  0  0  0
    3.5690   -3.1660    0.0000 O   0  0  0  0  0  0  0  0  0  0  0  0
  1  2  1  0  0  0  0
  3  2  1  1  0  0  0
  3  4  1  0  0  0  0
  3  9  1  0  0  0  0
  4  5  1  6  0  0  0
  4  6  1  0  0  0  0
  6  7  1  1  0  0  0
  6  8  1  0  0  0  0
  8  9  1  0  0  0  0
M  END
>  <name>
OC[C@@H]1[C@@H](O)[C@H](O)[C;ether]O1

>  <apo>
1

>  <freq>
1

>  <freq0>
0

>  <freq1>
1

>  <freqA>
0.99887151

>  <a_count>
19

$$$$

  MOE2015           2D

  9  9  0  0  1  0  0  0  0  0999 V2000
    6.2940   -1.6200    0.0000 O   0  0  0  0  0  0  0  0  0  0  0  0
    4.9810   -0.8960    0.0000 C   0  0  0  0  0  0  0  0  0  0  0  0
    3.6970   -1.6710    0.0000 C   0  0  1  0  0  0  0  0  0  0  0  0
    2.3150   -1.0890    0.0000 C   0  0  2  0  0  0  0  0  0  0  0  0
    1.9740    0.3720    0.0000 O   0  0  0  0  0  0  0  0  0  0  0  0
    1.3330   -2.2230    0.0000 C   0  0  1  0  0  0  0  0  0  0  0  0
   -0.1610   -2.0960    0.0000 O   0  0  0  0  0  0  0  0  0  0  0  0
    2.1090   -3.5070    0.0000 C   0  0  0  0  0  0  0  0  0  0  0  0
    3.5690   -3.1660    0.0000 O   0  0  0  0  0  0  0  0  0  0  0  0
  1  2  1  0  0  0  0
  3  2  1  6  0  0  0
  3  4  1  0  0  0  0
  3  9  1  0  0  0  0
  4  5  1  1  0  0  0
  4  6  1  0  0  0  0
  6  7  1  6  0  0  0
  6  8  1  0  0  0  0
  8  9  1  0  0  0  0
M  END
>  <name>
OC[C@H]1[C@H](O)[C@@H](O)[C;NaroC]O1

>  <apo>
1

>  <freq>
1

>  <freq0>
0

>  <freq1>
1

>  <freqA>
0.99887151

>  <a_count>
19

$$$$

  MOE2015           2D

  9  9  0  0  1  0  0  0  0  0999 V2000
    5.0000    0.2890    0.0000 O   0  0  0  0  0  0  0  0  0  0  0  0
    4.2500    1.5880    0.0000 C   0  0  2  0  0  0  0  0  0  0  0  0
    5.0000    2.8870    0.0000 C   0  0  0  0  0  0  0  0  0  0  0  0
    2.7500    1.5880    0.0000 C   0  0  0  0  0  0  0  0  0  0  0  0
    2.0000    2.8870    0.0000 C   0  0  0  0  0  0  0  0  0  0  0  0
    0.5000    2.8870    0.0000 C   0  0  0  0  0  0  0  0  0  0  0  0
   -0.2500    1.5880    0.0000 C   0  0  0  0  0  0  0  0  0  0  0  0
    0.5000    0.2890    0.0000 C   0  0  0  0  0  0  0  0  0  0  0  0
    2.0000    0.2890    0.0000 C   0  0  0  0  0  0  0  0  0  0  0  0
  2  1  1  1  0  0  0
  2  3  1  0  0  0  0
  2  4  1  0  0  0  0
  4  5  1  0  0  0  0
  4  9  2  0  0  0  0
  5  6  2  0  0  0  0
  6  7  1  0  0  0  0
  7  8  2  0  0  0  0
  8  9  1  0  0  0  0
M  END
>  <name>
O[C@H]([C;amine])c1ccccc1

>  <apo>
1

>  <freq>
1

>  <freq0>
0

>  <freq1>
1

>  <freqA>
0.99887151

>  <a_count>
19

$$$$

  MOE2015           2D

 11 12  0  0  1  0  0  0  0  0999 V2000
    1.7840    3.5810    0.0000 O   0  0  0  0  0  0  0  0  0  0  0  0
    1.8290    2.0820    0.0000 C   0  0  1  0  0  0  0  0  0  0  0  0
    3.1990    1.4710    0.0000 C   0  0  0  0  0  0  0  0  0  0  0  0
    4.4630    2.2780    0.0000 N   0  0  0  0  0  0  0  0  0  0  0  0
    5.6210    1.3250    0.0000 C   0  0  0  0  0  0  0  0  0  0  0  0
    5.0730   -0.0710    0.0000 N   0  0  0  0  0  0  0  0  0  0  0  0
    3.5760    0.0190    0.0000 C   0  0  0  0  0  0  0  0  0  0  0  0
    2.6770   -1.1820    0.0000 N   0  0  0  0  0  0  0  0  0  0  0  0
    1.1770   -1.2250    0.0000 C   0  0  0  0  0  0  0  0  0  0  0  0
    0.2080   -0.0820    0.0000 N   0  0  0  0  0  0  0  0  0  0  0  0
    0.4980    1.3900    0.0000 C   0  0  0  0  0  0  0  0  0  0  0  0
  2  1  1  1  0  0  0
  2  3  1  0  0  0  0
  2 11  1  0  0  0  0
  3  4  1  0  0  0  0
  3  7  2  0  0  0  0
  4  5  2  0  0  0  0
  5  6  1  0  0  0  0
  6  7  1  0  0  0  0
  7  8  1  0  0  0  0
  8  9  2  0  0  0  0
  9 10  1  0  0  0  0
 10 11  1  0  0  0  0
M  END
>  <name>
O[C@H]1c2nc[nH;NaroC]c2N=CNC1

>  <apo>
1

>  <freq>
1

>  <freq0>
0

>  <freq1>
1

>  <freqA>
0.99887151

>  <a_count>
19

$$$$

  MOE2015           2D

  9  9  0  0  0  0  0  0  0  0999 V2000
    0.0000    0.0000    0.0000 O   0  0  0  0  0  0  0  0  0  0  0  0
    1.5000    0.0000    0.0000 C   0  0  0  0  0  0  0  0  0  0  0  0
    2.2500    1.2990    0.0000 C   0  0  0  0  0  0  0  0  0  0  0  0
    3.7500    1.2990    0.0000 C   0  0  0  0  0  0  0  0  0  0  0  0
    4.5000    0.0000    0.0000 C   0  0  0  0  0  0  0  0  0  0  0  0
    6.0000    0.0000    0.0000 C   0  0  0  0  0  0  0  0  0  0  0  0
    6.7500   -1.2990    0.0000 C   0  0  0  0  0  0  0  0  0  0  0  0
    3.7500   -1.2990    0.0000 C   0  0  0  0  0  0  0  0  0  0  0  0
    2.2500   -1.2990    0.0000 C   0  0  0  0  0  0  0  0  0  0  0  0
  1  2  1  0  0  0  0
  2  3  1  0  0  0  0
  2  9  2  0  0  0  0
  3  4  2  0  0  0  0
  4  5  1  0  0  0  0
  5  6  1  0  0  0  0
  5  8  2  0  0  0  0
  6  7  1  0  0  0  0
  8  9  1  0  0  0  0
M  END
>  <name>
Oc1ccc(C[C;amine])cc1

>  <apo>
1

>  <freq>
1

>  <freq0>
0

>  <freq1>
1

>  <freqA>
0.99887151

>  <a_count>
19

$$$$

  MOE2015           2D

  8  7  0  0  1  0  0  0  0  0999 V2000
   -0.8120   -1.2190    0.0000 P   0  0  3  0  0  0  0  0  0  0  0  0
   -0.0620    0.0800    0.0000 O   0  0  0  0  0  0  0  0  0  0  0  0
    0.4870   -1.9690    0.0000 O   0  0  0  0  0  0  0  0  0  0  0  0
    1.7860   -1.2190    0.0000 C   0  0  0  0  0  0  0  0  0  0  0  0
    3.0850   -1.9690    0.0000 C   0  0  0  0  0  0  0  0  0  0  0  0
    4.3840   -1.2190    0.0000 C   0  0  0  0  0  0  0  0  0  0  0  0
   -1.5620   -2.5180    0.0000 O   0  0  0  0  0  0  0  0  0  0  0  0
   -2.1110   -0.4690    0.0000 C   0  0  0  0  0  0  0  0  0  0  0  0
  1  2  2  0  0  0  0
  1  3  1  0  0  0  0
  1  7  1  0  0  0  0
  1  8  1  0  0  0  0
  3  4  1  0  0  0  0
  4  5  1  0  0  0  0
  5  6  1  0  0  0  0
M  END
>  <name>
P(=O)(OCC[C;ether])(O)[C;ether]

>  <apo>
2

>  <freq>
1

>  <freq0>
0

>  <freq1>
1

>  <freqA>
0.99887151

>  <a_count>
19

$$$$

  MOE2015           2D

 13 14  0  0  0  0  0  0  0  0999 V2000
    2.2170    2.9130    0.0000 S   0  0  0  0  0  0  0  0  0  0  0  0
    2.2170    4.4130    0.0000 O   0  0  0  0  0  0  0  0  0  0  0  0
    2.2170    1.4130    0.0000 O   0  0  0  0  0  0  0  0  0  0  0  0
    3.7170    2.9130    0.0000 O   0  0  0  0  0  0  0  0  0  0  0  0
    0.7170    2.9130    0.0000 C   0  0  0  0  0  0  0  0  0  0  0  0
   -0.0330    1.6140    0.0000 C   0  0  0  0  0  0  0  0  0  0  0  0
   -1.5330    1.6140    0.0000 C   0  0  0  0  0  0  0  0  0  0  0  0
   -2.5370    0.5000    0.0000 N   0  0  0  0  0  0  0  0  0  0  0  0
   -3.9070    1.1100    0.0000 C   0  0  0  0  0  0  0  0  0  0  0  0
   -3.7510    2.6020    0.0000 N   0  0  0  0  0  0  0  0  0  0  0  0
   -2.2830    2.9130    0.0000 C   0  0  0  0  0  0  0  0  0  0  0  0
   -1.5330    4.2120    0.0000 C   0  0  0  0  0  0  0  0  0  0  0  0
   -0.0330    4.2120    0.0000 C   0  0  0  0  0  0  0  0  0  0  0  0
  1  2  2  0  0  0  0
  1  3  2  0  0  0  0
  1  4  1  0  0  0  0
  1  5  1  0  0  0  0
  5  6  1  0  0  0  0
  5 13  2  0  0  0  0
  6  7  2  0  0  0  0
  7  8  1  0  0  0  0
  7 11  1  0  0  0  0
  8  9  1  0  0  0  0
  9 10  2  0  0  0  0
 10 11  1  0  0  0  0
 11 12  2  0  0  0  0
 12 13  1  0  0  0  0
M  END
>  <name>
S(=O)(=O)(O)c1cc2[nH][c;biphenyl]nc2cc1

>  <apo>
1

>  <freq>
1

>  <freq0>
0

>  <freq1>
1

>  <freqA>
0.99887151

>  <a_count>
19

$$$$

  MOE2015           2D

  7  7  0  0  0  0  0  0  0  0999 V2000
    5.1430    0.0000    0.0000 C   0  0  0  0  0  0  0  0  0  0  0  0
    3.6430    0.0000    0.0000 C   0  0  0  0  0  0  0  0  0  0  0  0
    2.8930    1.2990    0.0000 C   0  0  0  0  0  0  0  0  0  0  0  0
    1.3930    1.2990    0.0000 C   0  0  0  0  0  0  0  0  0  0  0  0
    0.6430    0.0000    0.0000 O   0  0  0  0  0  0  0  0  0  0  0  0
    1.3930   -1.2990    0.0000 C   0  0  0  0  0  0  0  0  0  0  0  0
    2.8930   -1.2990    0.0000 C   0  0  0  0  0  0  0  0  0  0  0  0
  1  2  1  0  0  0  0
  2  3  1  0  0  0  0
  2  7  1  0  0  0  0
  3  4  1  0  0  0  0
  4  5  1  0  0  0  0
  5  6  1  0  0  0  0
  6  7  1  0  0  0  0
M  END
>  <name>
[C;amine]C1CCOCC1

>  <apo>
1

>  <freq>
1

>  <freq0>
0

>  <freq1>
1

>  <freqA>
0.99887151

>  <a_count>
19

$$$$

  MOE2015           2D

 10 11  0  0  0  0  0  0  0  0999 V2000
    7.3810    0.0000    0.0000 C   0  0  0  0  0  0  0  0  0  0  0  0
    5.8810    0.0000    0.0000 C   0  0  0  0  0  0  0  0  0  0  0  0
    5.0000   -1.2140    0.0000 N   0  0  0  0  0  0  0  0  0  0  0  0
    3.5730   -0.7500    0.0000 C   0  0  0  0  0  0  0  0  0  0  0  0
    3.5730    0.7500    0.0000 C   0  0  0  0  0  0  0  0  0  0  0  0
    5.0000    1.2140    0.0000 C   0  0  0  0  0  0  0  0  0  0  0  0
    2.2740    1.5000    0.0000 C   0  0  0  0  0  0  0  0  0  0  0  0
    0.9750    0.7500    0.0000 C   0  0  0  0  0  0  0  0  0  0  0  0
    0.9750   -0.7500    0.0000 C   0  0  0  0  0  0  0  0  0  0  0  0
    2.2740   -1.5000    0.0000 C   0  0  0  0  0  0  0  0  0  0  0  0
  1  2  1  0  0  0  0
  2  3  1  0  0  0  0
  2  6  2  0  0  0  0
  3  4  1  0  0  0  0
  4  5  1  0  0  0  0
  4 10  2  0  0  0  0
  5  6  1  0  0  0  0
  5  7  2  0  0  0  0
  7  8  1  0  0  0  0
  8  9  2  0  0  0  0
  9 10  1  0  0  0  0
M  END
>  <name>
[C;olefin]c1[nH;NaroC]c2c([c;biphenyl]1)cccc2

>  <apo>
3

>  <freq>
1

>  <freq0>
0

>  <freq1>
1

>  <freqA>
0.99887151

>  <a_count>
19

$$$$

  MOE2015           2D

  7  7  0  0  0  0  0  0  0  0999 V2000
    5.1430    0.0000    0.0000 N   0  0  0  0  0  0  0  0  0  0  0  0
    3.6430    0.0000    0.0000 C   0  0  0  0  0  0  0  0  0  0  0  0
    2.8930    1.2990    0.0000 C   0  0  0  0  0  0  0  0  0  0  0  0
    1.3930    1.2990    0.0000 C   0  0  0  0  0  0  0  0  0  0  0  0
    0.6430    0.0000    0.0000 N   0  0  0  0  0  0  0  0  0  0  0  0
    1.3930   -1.2990    0.0000 C   0  0  0  0  0  0  0  0  0  0  0  0
    2.8930   -1.2990    0.0000 C   0  0  0  0  0  0  0  0  0  0  0  0
  1  2  1  0  0  0  0
  2  3  1  0  0  0  0
  2  7  1  0  0  0  0
  3  4  1  0  0  0  0
  4  5  1  0  0  0  0
  5  6  1  0  0  0  0
  6  7  1  0  0  0  0
M  END
>  <name>
[N;amide]C1CCNCC1

>  <apo>
1

>  <freq>
1

>  <freq0>
0

>  <freq1>
1

>  <freqA>
0.99887151

>  <a_count>
19

$$$$

  MOE2015           2D

  7  7  0  0  0  0  0  0  0  0999 V2000
    5.1430    0.0000    0.0000 N   0  0  0  0  0  0  0  0  0  0  0  0
    3.6430    0.0000    0.0000 C   0  0  0  0  0  0  0  0  0  0  0  0
    2.8930    1.2990    0.0000 C   0  0  0  0  0  0  0  0  0  0  0  0
    1.3930    1.2990    0.0000 C   0  0  0  0  0  0  0  0  0  0  0  0
    0.6430    0.0000    0.0000 N   0  0  0  0  0  0  0  0  0  0  0  0
    1.3930   -1.2990    0.0000 C   0  0  0  0  0  0  0  0  0  0  0  0
    2.8930   -1.2990    0.0000 C   0  0  0  0  0  0  0  0  0  0  0  0
  1  2  1  0  0  0  0
  2  3  1  0  0  0  0
  2  7  1  0  0  0  0
  3  4  1  0  0  0  0
  4  5  1  0  0  0  0
  5  6  1  0  0  0  0
  6  7  1  0  0  0  0
M  END
>  <name>
[N;amide]C1[C;ether]C[N;amine]CC1

>  <apo>
3

>  <freq>
1

>  <freq0>
0

>  <freq1>
1

>  <freqA>
0.99887151

>  <a_count>
19

$$$$

  MOE2015           2D

  7  7  0  0  1  0  0  0  0  0999 V2000
    4.9030   -0.6040    0.0000 N   0  0  0  0  0  0  0  0  0  0  0  0
    4.1530   -1.9030    0.0000 C   0  0  0  0  0  0  0  0  0  0  0  0
    2.6530   -1.9030    0.0000 C   0  0  1  0  0  0  0  0  0  0  0  0
    1.7710   -3.1160    0.0000 N   0  0  0  0  0  0  0  0  0  0  0  0
    0.3450   -2.6530    0.0000 C   0  0  0  0  0  0  0  0  0  0  0  0
    0.3450   -1.1530    0.0000 C   0  0  0  0  0  0  0  0  0  0  0  0
    1.7710   -0.6890    0.0000 C   0  0  0  0  0  0  0  0  0  0  0  0
  1  2  1  0  0  0  0
  3  2  1  1  0  0  0
  3  4  1  0  0  0  0
  3  7  1  0  0  0  0
  4  5  1  0  0  0  0
  5  6  1  0  0  0  0
  6  7  1  0  0  0  0
M  END
>  <name>
[N;amide]C[C@H]1[N;amine]CCC1

>  <apo>
2

>  <freq>
1

>  <freq0>
0

>  <freq1>
1

>  <freqA>
0.99887151

>  <a_count>
19

$$$$

  MOE2015           2D

 11 12  0  0  0  0  0  0  0  0999 V2000
    7.2930   -0.7730    0.0000 N   0  0  0  0  0  0  0  0  0  0  0  0
    5.9940   -0.0230    0.0000 C   0  0  0  0  0  0  0  0  0  0  0  0
    4.6950   -0.7730    0.0000 C   0  0  0  0  0  0  0  0  0  0  0  0
    3.3960   -0.0230    0.0000 C   0  0  0  0  0  0  0  0  0  0  0  0
    3.3960    1.4770    0.0000 C   0  0  0  0  0  0  0  0  0  0  0  0
    2.0970    2.2270    0.0000 C   0  0  0  0  0  0  0  0  0  0  0  0
    0.7980    1.4770    0.0000 N   0  0  0  0  0  0  0  0  0  0  0  0
    0.7980   -0.0230    0.0000 C   0  0  0  0  0  0  0  0  0  0  0  0
    2.0970   -0.7730    0.0000 C   0  0  0  0  0  0  0  0  0  0  0  0
    4.6950    2.2270    0.0000 C   0  0  0  0  0  0  0  0  0  0  0  0
    5.9940    1.4770    0.0000 C   0  0  0  0  0  0  0  0  0  0  0  0
  1  2  1  0  0  0  0
  2  3  2  0  0  0  0
  2 11  1  0  0  0  0
  3  4  1  0  0  0  0
  4  5  1  0  0  0  0
  4  9  2  0  0  0  0
  5  6  2  0  0  0  0
  5 10  1  0  0  0  0
  6  7  1  0  0  0  0
  7  8  2  0  0  0  0
  8  9  1  0  0  0  0
 10 11  2  0  0  0  0
M  END
>  <name>
[N;amide]c1cc2c(cncc2)cc1

>  <apo>
1

>  <freq>
1

>  <freq0>
0

>  <freq1>
1

>  <freqA>
0.99887151

>  <a_count>
19

$$$$

  MOE2015           2D

  7  6  0  0  0  0  0  0  0  0999 V2000
    0.9510   -3.5490    0.0000 O   0  0  0  0  0  0  0  0  0  0  0  0
    2.2500   -2.7990    0.0000 C   0  0  0  0  0  0  0  0  0  0  0  0
    2.2500   -1.2990    0.0000 C   0  0  0  0  0  0  0  0  0  0  0  0
    3.5490   -0.5490    0.0000 C   0  0  0  0  0  0  0  0  0  0  0  0
    4.8480   -1.2990    0.0000 O   0  0  0  0  0  0  0  0  0  0  0  0
    0.9510   -0.5490    0.0000 C   0  0  0  0  0  0  0  0  0  0  0  0
    0.9510    0.9510    0.0000 C   0  0  0  0  0  0  0  0  0  0  0  0
  1  2  1  0  0  0  0
  2  3  1  0  0  0  0
  3  4  1  0  0  0  0
  3  6  1  0  0  0  0
  4  5  1  0  0  0  0
  6  7  1  0  0  0  0
M  END
>  <name>
[O;ester]CC(C[O;ester])C[C;NaroC]

>  <apo>
3

>  <freq>
1

>  <freq0>
0

>  <freq1>
1

>  <freqA>
0.99887151

>  <a_count>
19

$$$$

  MOE2015           2D

  7  6  0  0  1  0  0  0  0  0999 V2000
    2.0070    2.0070    0.0000 O   0  0  0  0  0  0  0  0  0  0  0  0
    2.0070    0.5070    0.0000 C   0  0  2  0  0  0  0  0  0  0  0  0
    0.7080   -0.2430    0.0000 C   0  0  2  0  0  0  0  0  0  0  0  0
    0.7080   -1.7430    0.0000 O   0  0  0  0  0  0  0  0  0  0  0  0
   -0.5910    0.5070    0.0000 C   0  0  0  0  0  0  0  0  0  0  0  0
    3.3060   -0.2430    0.0000 C   0  0  0  0  0  0  0  0  0  0  0  0
    4.6050    0.5070    0.0000 C   0  0  0  0  0  0  0  0  0  0  0  0
  2  1  1  1  0  0  0
  2  3  1  0  0  0  0
  2  6  1  0  0  0  0
  3  4  1  0  0  0  0
  3  5  1  6  0  0  0
  6  7  1  0  0  0  0
M  END
>  <name>
[O;ester][C@H]([C@H](O)C)C[C;olefin]

>  <apo>
2

>  <freq>
1

>  <freq0>
0

>  <freq1>
1

>  <freqA>
0.99887151

>  <a_count>
19

$$$$

  MOE2015           2D

 10 11  0  0  0  0  0  0  0  0999 V2000
    7.3810    0.0000    0.0000 O   0  0  0  0  0  0  0  0  0  0  0  0
    5.8810    0.0000    0.0000 C   0  0  0  0  0  0  0  0  0  0  0  0
    5.0000   -1.2140    0.0000 S   0  0  0  0  0  0  0  0  0  0  0  0
    3.5730   -0.7500    0.0000 C   0  0  0  0  0  0  0  0  0  0  0  0
    3.5730    0.7500    0.0000 C   0  0  0  0  0  0  0  0  0  0  0  0
    5.0000    1.2140    0.0000 C   0  0  0  0  0  0  0  0  0  0  0  0
    2.2740    1.5000    0.0000 C   0  0  0  0  0  0  0  0  0  0  0  0
    0.9750    0.7500    0.0000 N   0  0  0  0  0  0  0  0  0  0  0  0
    0.9750   -0.7500    0.0000 C   0  0  0  0  0  0  0  0  0  0  0  0
    2.2740   -1.5000    0.0000 C   0  0  0  0  0  0  0  0  0  0  0  0
  1  2  1  0  0  0  0
  2  3  1  0  0  0  0
  2  6  2  0  0  0  0
  3  4  1  0  0  0  0
  4  5  2  0  0  0  0
  4 10  1  0  0  0  0
  5  6  1  0  0  0  0
  5  7  1  0  0  0  0
  7  8  1  0  0  0  0
  8  9  1  0  0  0  0
  9 10  1  0  0  0  0
M  END
>  <name>
[O;ester]c1sc2c(c1)C[N;amine]CC2

>  <apo>
2

>  <freq>
1

>  <freq0>
0

>  <freq1>
1

>  <freqA>
0.99887151

>  <a_count>
19

$$$$

  MOE2015           2D

  9  9  0  0  0  0  0  0  0  0999 V2000
    1.3330    2.3090    0.0000 O   0  0  0  0  0  0  0  0  0  0  0  0
    2.0830    1.0100    0.0000 C   0  0  0  0  0  0  0  0  0  0  0  0
    1.3330   -0.2890    0.0000 C   0  0  0  0  0  0  0  0  0  0  0  0
   -0.1670   -0.2890    0.0000 C   0  0  0  0  0  0  0  0  0  0  0  0
    2.0830   -1.5880    0.0000 C   0  0  0  0  0  0  0  0  0  0  0  0
    3.5830   -1.5880    0.0000 C   0  0  0  0  0  0  0  0  0  0  0  0
    4.3330   -0.2890    0.0000 C   0  0  0  0  0  0  0  0  0  0  0  0
    5.8330   -0.2890    0.0000 C   0  0  0  0  0  0  0  0  0  0  0  0
    3.5830    1.0100    0.0000 C   0  0  0  0  0  0  0  0  0  0  0  0
  1  2  1  0  0  0  0
  2  3  1  0  0  0  0
  2  9  2  0  0  0  0
  3  4  1  0  0  0  0
  3  5  2  0  0  0  0
  5  6  1  0  0  0  0
  6  7  2  0  0  0  0
  7  8  1  0  0  0  0
  7  9  1  0  0  0  0
M  END
>  <name>
[O;ether]c1c(C)ccc(C)c1

>  <apo>
1

>  <freq>
1

>  <freq0>
0

>  <freq1>
1

>  <freqA>
0.99887151

>  <a_count>
19

$$$$

  MOE2015           2D

  9  9  0  0  0  0  0  0  0  0999 V2000
    5.5980   -1.5000    0.0000 O   0  0  0  0  0  0  0  0  0  0  0  0
    4.2990   -0.7500    0.0000 C   0  0  0  0  0  0  0  0  0  0  0  0
    4.2990    0.7500    0.0000 C   0  0  0  0  0  0  0  0  0  0  0  0
    3.0000    1.5000    0.0000 C   0  0  0  0  0  0  0  0  0  0  0  0
    3.0000    3.0000    0.0000 C   0  0  0  0  0  0  0  0  0  0  0  0
    1.7010    0.7500    0.0000 C   0  0  0  0  0  0  0  0  0  0  0  0
    1.7010   -0.7500    0.0000 C   0  0  0  0  0  0  0  0  0  0  0  0
    0.4020   -1.5000    0.0000 C   0  0  0  0  0  0  0  0  0  0  0  0
    3.0000   -1.5000    0.0000 C   0  0  0  0  0  0  0  0  0  0  0  0
  1  2  1  0  0  0  0
  2  3  1  0  0  0  0
  2  9  2  0  0  0  0
  3  4  2  0  0  0  0
  4  5  1  0  0  0  0
  4  6  1  0  0  0  0
  6  7  2  0  0  0  0
  7  8  1  0  0  0  0
  7  9  1  0  0  0  0
M  END
>  <name>
[O;ether]c1cc(C)cc(C)c1

>  <apo>
1

>  <freq>
1

>  <freq0>
0

>  <freq1>
1

>  <freqA>
0.99887151

>  <a_count>
19

$$$$

  MOE2015           2D

  9  9  0  0  0  0  0  0  0  0999 V2000
    0.0000    0.0000    0.0000 O   0  0  0  0  0  0  0  0  0  0  0  0
    1.5000    0.0000    0.0000 C   0  0  0  0  0  0  0  0  0  0  0  0
    2.2500    1.2990    0.0000 C   0  0  0  0  0  0  0  0  0  0  0  0
    3.7500    1.2990    0.0000 C   0  0  0  0  0  0  0  0  0  0  0  0
    4.5000    0.0000    0.0000 C   0  0  0  0  0  0  0  0  0  0  0  0
    6.0000    0.0000    0.0000 C   0  0  0  0  0  0  0  0  0  0  0  0
    6.7500   -1.2990    0.0000 C   0  0  0  0  0  0  0  0  0  0  0  0
    3.7500   -1.2990    0.0000 C   0  0  0  0  0  0  0  0  0  0  0  0
    2.2500   -1.2990    0.0000 C   0  0  0  0  0  0  0  0  0  0  0  0
  1  2  1  0  0  0  0
  2  3  1  0  0  0  0
  2  9  2  0  0  0  0
  3  4  2  0  0  0  0
  4  5  1  0  0  0  0
  5  6  1  0  0  0  0
  5  8  2  0  0  0  0
  6  7  1  0  0  0  0
  8  9  1  0  0  0  0
M  END
>  <name>
[O;ether]c1ccc(C[C;amine])cc1

>  <apo>
2

>  <freq>
1

>  <freq0>
0

>  <freq1>
1

>  <freqA>
0.99887151

>  <a_count>
19

$$$$

  MOE2015           2D

 13 13  0  0  0  0  0  0  0  0999 V2000
    0.7790    2.9060    0.0000 S   0  0  0  0  0  0  0  0  0  0  0  0
    2.0780    2.1560    0.0000 O   0  0  0  0  0  0  0  0  0  0  0  0
    0.7790    4.4060    0.0000 O   0  0  0  0  0  0  0  0  0  0  0  0
   -0.5200    2.1560    0.0000 C   0  0  0  0  0  0  0  0  0  0  0  0
   -1.8190    2.9060    0.0000 C   0  0  0  0  0  0  0  0  0  0  0  0
   -3.1180    2.1560    0.0000 C   0  0  0  0  0  0  0  0  0  0  0  0
   -4.4170    2.9060    0.0000 N   0  3  0  0  0  0  0  0  0  0  0  0
   -4.4170    4.4060    0.0000 O   0  0  0  0  0  0  0  0  0  0  0  0
   -5.7160    2.1560    0.0000 O   0  5  0  0  0  0  0  0  0  0  0  0
   -3.1180    0.6560    0.0000 C   0  0  0  0  0  0  0  0  0  0  0  0
   -4.4170   -0.0940    0.0000 N   0  0  0  0  0  0  0  0  0  0  0  0
   -1.8190   -0.0940    0.0000 C   0  0  0  0  0  0  0  0  0  0  0  0
   -0.5200    0.6560    0.0000 C   0  0  0  0  0  0  0  0  0  0  0  0
  1  2  2  0  0  0  0
  1  3  2  0  0  0  0
  1  4  1  0  0  0  0
  4  5  1  0  0  0  0
  4 13  2  0  0  0  0
  5  6  2  0  0  0  0
  6  7  1  0  0  0  0
  6 10  1  0  0  0  0
  7  8  2  0  0  0  0
  7  9  1  0  0  0  0
 10 11  1  0  0  0  0
 10 12  2  0  0  0  0
 12 13  1  0  0  0  0
M  CHG  1   7   1
M  CHG  1   9  -1
M  END
>  <name>
[SH;so2amide](=O)(=O)c1cc([N+](=O)[O-])c([N;amine])cc1

>  <apo>
2

>  <freq>
1

>  <freq0>
0

>  <freq1>
1

>  <freqA>
0.99887151

>  <a_count>
19

$$$$

  MOE2015           2D

  9 10  0  0  0  0  0  0  0  0999 V2000
   -0.5110   -0.7960    0.0000 C   0  0  0  0  0  0  0  0  0  0  0  0
   -0.5110    0.7040    0.0000 C   0  0  0  0  0  0  0  0  0  0  0  0
   -1.8100    1.4540    0.0000 C   0  0  0  0  0  0  0  0  0  0  0  0
   -3.1090    0.7040    0.0000 C   0  0  0  0  0  0  0  0  0  0  0  0
   -3.1090   -0.7960    0.0000 C   0  0  0  0  0  0  0  0  0  0  0  0
   -1.8100   -1.5460    0.0000 C   0  0  0  0  0  0  0  0  0  0  0  0
    0.9150    1.1670    0.0000 C   0  0  0  0  0  0  0  0  0  0  0  0
    1.7970   -0.0460    0.0000 C   0  0  0  0  0  0  0  0  0  0  0  0
    0.9150   -1.2600    0.0000 C   0  0  0  0  0  0  0  0  0  0  0  0
  1  2  1  0  0  0  0
  1  6  2  0  0  0  0
  1  9  1  0  0  0  0
  2  3  2  0  0  0  0
  2  7  1  0  0  0  0
  3  4  1  0  0  0  0
  4  5  2  0  0  0  0
  5  6  1  0  0  0  0
  7  8  1  0  0  0  0
  8  9  1  0  0  0  0
M  END
>  <name>
c12c([c;biphenyl]ccc1)CC[C;amine]2

>  <apo>
2

>  <freq>
1

>  <freq0>
0

>  <freq1>
1

>  <freqA>
0.99887151

>  <a_count>
19

$$$$

  MOE2015           2D

  9 10  0  0  0  0  0  0  0  0999 V2000
   -0.5110   -0.7960    0.0000 C   0  0  0  0  0  0  0  0  0  0  0  0
   -0.5110    0.7040    0.0000 C   0  0  0  0  0  0  0  0  0  0  0  0
   -1.8100    1.4540    0.0000 C   0  0  0  0  0  0  0  0  0  0  0  0
   -3.1090    0.7040    0.0000 C   0  0  0  0  0  0  0  0  0  0  0  0
   -3.1090   -0.7960    0.0000 C   0  0  0  0  0  0  0  0  0  0  0  0
   -1.8100   -1.5460    0.0000 C   0  0  0  0  0  0  0  0  0  0  0  0
    0.9150    1.1670    0.0000 C   0  0  0  0  0  0  0  0  0  0  0  0
    1.7970   -0.0460    0.0000 C   0  0  0  0  0  0  0  0  0  0  0  0
    0.9150   -1.2600    0.0000 C   0  0  0  0  0  0  0  0  0  0  0  0
  1  2  1  0  0  0  0
  1  6  2  0  0  0  0
  1  9  1  0  0  0  0
  2  3  2  0  0  0  0
  2  7  1  0  0  0  0
  3  4  1  0  0  0  0
  4  5  2  0  0  0  0
  5  6  1  0  0  0  0
  7  8  1  0  0  0  0
  8  9  1  0  0  0  0
M  END
>  <name>
c12c(cccc1)CC[C;amine]2

>  <apo>
1

>  <freq>
1

>  <freq0>
0

>  <freq1>
1

>  <freqA>
0.99887151

>  <a_count>
19

$$$$

  MOE2015           2D

  8  8  0  0  0  0  0  0  0  0999 V2000
    4.0090   -0.3660    0.0000 C   0  0  0  0  0  0  0  0  0  0  0  0
    3.2590   -1.6650    0.0000 C   0  0  0  0  0  0  0  0  0  0  0  0
    1.7590   -1.6650    0.0000 C   0  0  0  0  0  0  0  0  0  0  0  0
    0.8770   -2.8780    0.0000 S   0  0  0  0  0  0  0  0  0  0  0  0
   -0.5500   -2.4150    0.0000 C   0  0  0  0  0  0  0  0  0  0  0  0
   -0.5500   -0.9150    0.0000 C   0  0  0  0  0  0  0  0  0  0  0  0
    0.8770   -0.4510    0.0000 C   0  0  0  0  0  0  0  0  0  0  0  0
    5.5090   -0.3660    0.0000 C   0  0  0  0  0  0  0  0  0  0  0  0
  1  2  1  0  0  0  0
  1  8  1  0  0  0  0
  2  3  1  0  0  0  0
  3  4  1  0  0  0  0
  3  7  2  0  0  0  0
  4  5  1  0  0  0  0
  5  6  2  0  0  0  0
  6  7  1  0  0  0  0
M  END
>  <name>
C([C;ether]c1sccc1)[C;amine]

>  <apo>
2

>  <freq>
1

>  <freq0>
0

>  <freq1>
1

>  <freqA>
0.99887151

>  <a_count>
18

$$$$

  MOE2015           2D

  6  6  0  0  0  0  0  0  0  0999 V2000
   -2.0490    2.0490    0.0000 C   0  0  0  0  0  0  0  0  0  0  0  0
   -2.0490    0.5490    0.0000 C   0  0  0  0  0  0  0  0  0  0  0  0
   -0.7500   -0.2010    0.0000 C   0  0  0  0  0  0  0  0  0  0  0  0
    0.5490    0.5490    0.0000 C   0  0  0  0  0  0  0  0  0  0  0  0
    0.5490    2.0490    0.0000 C   0  0  0  0  0  0  0  0  0  0  0  0
   -0.7500    2.7990    0.0000 C   0  0  0  0  0  0  0  0  0  0  0  0
  1  2  1  0  0  0  0
  1  6  1  0  0  0  0
  2  3  1  0  0  0  0
  3  4  1  0  0  0  0
  4  5  1  0  0  0  0
  5  6  1  0  0  0  0
M  END
>  <name>
C1CC[C;amine]CC1

>  <apo>
1

>  <freq>
1

>  <freq0>
0

>  <freq1>
1

>  <freqA>
0.99887151

>  <a_count>
18

$$$$

  MOE2015           2D

  7  7  0  0  0  0  0  0  0  0999 V2000
    5.1430    0.0000    0.0000 C   0  0  0  0  0  0  0  0  0  0  0  0
    3.6430    0.0000    0.0000 C   0  0  0  0  0  0  0  0  0  0  0  0
    2.8930    1.2990    0.0000 C   0  0  0  0  0  0  0  0  0  0  0  0
    1.3930    1.2990    0.0000 C   0  0  0  0  0  0  0  0  0  0  0  0
    0.6430    0.0000    0.0000 N   0  0  0  0  0  0  0  0  0  0  0  0
    1.3930   -1.2990    0.0000 C   0  0  0  0  0  0  0  0  0  0  0  0
    2.8930   -1.2990    0.0000 C   0  0  0  0  0  0  0  0  0  0  0  0
  1  2  2  0  0  0  0
  2  3  1  0  0  0  0
  2  7  1  0  0  0  0
  3  4  1  0  0  0  0
  4  5  1  0  0  0  0
  5  6  1  0  0  0  0
  6  7  1  0  0  0  0
M  END
>  <name>
C=C1CC[N;amine]CC1

>  <apo>
1

>  <freq>
1

>  <freq0>
0

>  <freq1>
1

>  <freqA>
0.99887151

>  <a_count>
18

$$$$

  MOE2015           2D

 11 11  0  0  0  0  0  0  0  0999 V2000
    0.2660    1.4630    0.0000 Cl  0  0  0  0  0  0  0  0  0  0  0  0
    1.5650    0.7130    0.0000 C   0  0  0  0  0  0  0  0  0  0  0  0
    2.8640    1.4630    0.0000 C   0  0  0  0  0  0  0  0  0  0  0  0
    2.8640    2.9630    0.0000 C   0  0  0  0  0  0  0  0  0  0  0  0
    4.1630    0.7130    0.0000 N   0  3  0  0  0  0  0  0  0  0  0  0
    5.4620    1.4630    0.0000 O   0  5  0  0  0  0  0  0  0  0  0  0
    4.1630   -0.7870    0.0000 C   0  0  0  0  0  0  0  0  0  0  0  0
    5.4620   -1.5370    0.0000 Cl  0  0  0  0  0  0  0  0  0  0  0  0
    2.8640   -1.5370    0.0000 C   0  0  0  0  0  0  0  0  0  0  0  0
    1.5650   -0.7870    0.0000 C   0  0  0  0  0  0  0  0  0  0  0  0
    0.2660   -1.5370    0.0000 C   0  0  0  0  0  0  0  0  0  0  0  0
  1  2  1  0  0  0  0
  2  3  1  0  0  0  0
  2 10  2  0  0  0  0
  3  4  1  0  0  0  0
  3  5  2  0  0  0  0
  5  6  1  0  0  0  0
  5  7  1  0  0  0  0
  7  8  1  0  0  0  0
  7  9  2  0  0  0  0
  9 10  1  0  0  0  0
 10 11  1  0  0  0  0
M  CHG  1   5   1
M  CHG  1   6  -1
M  END
>  <name>
Clc1c(C)[n+]([O-])c(Cl)[c;biphenyl]c1C

>  <apo>
1

>  <freq>
1

>  <freq0>
0

>  <freq1>
1

>  <freqA>
0.99887151

>  <a_count>
18

$$$$

  MOE2015           2D

 11 11  0  0  0  0  0  0  0  0999 V2000
    1.9320    3.1130    0.0000 Cl  0  0  0  0  0  0  0  0  0  0  0  0
    1.9320    1.6130    0.0000 C   0  0  0  0  0  0  0  0  0  0  0  0
    3.2310    0.8630    0.0000 C   0  0  0  0  0  0  0  0  0  0  0  0
    4.5300    1.6130    0.0000 C   0  0  0  0  0  0  0  0  0  0  0  0
    5.8290    0.8630    0.0000 C   0  0  0  0  0  0  0  0  0  0  0  0
    3.2310   -0.6370    0.0000 C   0  0  0  0  0  0  0  0  0  0  0  0
    4.5300   -1.3870    0.0000 Cl  0  0  0  0  0  0  0  0  0  0  0  0
    1.9320   -1.3870    0.0000 C   0  0  0  0  0  0  0  0  0  0  0  0
    0.6330   -0.6370    0.0000 C   0  0  0  0  0  0  0  0  0  0  0  0
    0.6330    0.8630    0.0000 C   0  0  0  0  0  0  0  0  0  0  0  0
   -0.6660    1.6130    0.0000 F   0  0  0  0  0  0  0  0  0  0  0  0
  1  2  1  0  0  0  0
  2  3  1  0  0  0  0
  2 10  2  0  0  0  0
  3  4  1  0  0  0  0
  3  6  2  0  0  0  0
  4  5  1  0  0  0  0
  6  7  1  0  0  0  0
  6  8  1  0  0  0  0
  8  9  2  0  0  0  0
  9 10  1  0  0  0  0
 10 11  1  0  0  0  0
M  END
>  <name>
Clc1c([C;ether]C)c(Cl)ccc1F

>  <apo>
1

>  <freq>
1

>  <freq0>
0

>  <freq1>
1

>  <freqA>
0.99887151

>  <a_count>
18

$$$$

  MOE2015           2D

 10 10  0  0  0  0  0  0  0  0999 V2000
    1.6500    2.8580    0.0000 Cl  0  0  0  0  0  0  0  0  0  0  0  0
    2.4000    1.5590    0.0000 C   0  0  0  0  0  0  0  0  0  0  0  0
    1.6500    0.2600    0.0000 C   0  0  0  0  0  0  0  0  0  0  0  0
    0.1500    0.2600    0.0000 C   0  0  0  0  0  0  0  0  0  0  0  0
   -0.6000   -1.0390    0.0000 C   0  0  0  0  0  0  0  0  0  0  0  0
    2.4000   -1.0390    0.0000 C   0  0  0  0  0  0  0  0  0  0  0  0
    3.9000   -1.0390    0.0000 C   0  0  0  0  0  0  0  0  0  0  0  0
    4.6500    0.2600    0.0000 C   0  0  0  0  0  0  0  0  0  0  0  0
    6.1500    0.2600    0.0000 Cl  0  0  0  0  0  0  0  0  0  0  0  0
    3.9000    1.5590    0.0000 C   0  0  0  0  0  0  0  0  0  0  0  0
  1  2  1  0  0  0  0
  2  3  1  0  0  0  0
  2 10  2  0  0  0  0
  3  4  1  0  0  0  0
  3  6  2  0  0  0  0
  4  5  1  0  0  0  0
  6  7  1  0  0  0  0
  7  8  2  0  0  0  0
  8  9  1  0  0  0  0
  8 10  1  0  0  0  0
M  END
>  <name>
Clc1c([C;thioether][C;NaroC])ccc(Cl)c1

>  <apo>
2

>  <freq>
1

>  <freq0>
0

>  <freq1>
1

>  <freqA>
0.99887151

>  <a_count>
18

$$$$

  MOE2015           2D

 11 12  0  0  0  0  0  0  0  0999 V2000
    0.5190   -0.9000    0.0000 Cl  0  0  0  0  0  0  0  0  0  0  0  0
    1.2690    0.3990    0.0000 C   0  0  0  0  0  0  0  0  0  0  0  0
    2.7690    0.3990    0.0000 C   0  0  0  0  0  0  0  0  0  0  0  0
    3.7730   -0.7150    0.0000 S   0  0  0  0  0  0  0  0  0  0  0  0
    5.1430   -0.1050    0.0000 C   0  0  0  0  0  0  0  0  0  0  0  0
    4.9870    1.3870    0.0000 C   0  0  0  0  0  0  0  0  0  0  0  0
    6.1010    2.3900    0.0000 C   0  0  0  0  0  0  0  0  0  0  0  0
    3.5190    1.6980    0.0000 C   0  0  0  0  0  0  0  0  0  0  0  0
    2.7690    2.9980    0.0000 C   0  0  0  0  0  0  0  0  0  0  0  0
    1.2690    2.9980    0.0000 C   0  0  0  0  0  0  0  0  0  0  0  0
    0.5190    1.6980    0.0000 C   0  0  0  0  0  0  0  0  0  0  0  0
  1  2  1  0  0  0  0
  2  3  1  0  0  0  0
  2 11  2  0  0  0  0
  3  4  1  0  0  0  0
  3  8  2  0  0  0  0
  4  5  1  0  0  0  0
  5  6  2  0  0  0  0
  6  7  1  0  0  0  0
  6  8  1  0  0  0  0
  8  9  1  0  0  0  0
  9 10  2  0  0  0  0
 10 11  1  0  0  0  0
M  END
>  <name>
Clc1c2scc([C;ether])c2ccc1

>  <apo>
1

>  <freq>
1

>  <freq0>
0

>  <freq1>
1

>  <freqA>
0.99887151

>  <a_count>
18

$$$$

  MOE2015           2D

 11 11  0  0  0  0  0  0  0  0999 V2000
    7.0910    0.0000    0.0000 Cl  0  0  0  0  0  0  0  0  0  0  0  0
    5.5910    0.0000    0.0000 C   0  0  0  0  0  0  0  0  0  0  0  0
    4.8410    1.2990    0.0000 C   0  0  0  0  0  0  0  0  0  0  0  0
    3.3410    1.2990    0.0000 C   0  0  0  0  0  0  0  0  0  0  0  0
    2.5910    2.5980    0.0000 C   0  0  0  0  0  0  0  0  0  0  0  0
    3.3410    3.8970    0.0000 O   0  0  0  0  0  0  0  0  0  0  0  0
    2.5910    0.0000    0.0000 C   0  0  0  0  0  0  0  0  0  0  0  0
    1.0910    0.0000    0.0000 O   0  0  0  0  0  0  0  0  0  0  0  0
    0.3410   -1.2990    0.0000 C   0  0  0  0  0  0  0  0  0  0  0  0
    3.3410   -1.2990    0.0000 C   0  0  0  0  0  0  0  0  0  0  0  0
    4.8410   -1.2990    0.0000 C   0  0  0  0  0  0  0  0  0  0  0  0
  1  2  1  0  0  0  0
  2  3  1  0  0  0  0
  2 11  2  0  0  0  0
  3  4  2  0  0  0  0
  4  5  1  0  0  0  0
  4  7  1  0  0  0  0
  5  6  2  0  0  0  0
  7  8  1  0  0  0  0
  7 10  2  0  0  0  0
  8  9  1  0  0  0  0
 10 11  1  0  0  0  0
M  END
>  <name>
Clc1cc([C;amide]=O)c(OC)cc1

>  <apo>
1

>  <freq>
1

>  <freq0>
0

>  <freq1>
1

>  <freqA>
0.99887151

>  <a_count>
18

$$$$

  MOE2015           2D

 10 11  0  0  0  0  0  0  0  0999 V2000
   -0.0220   -2.2100    0.0000 C   0  0  0  0  0  0  0  0  0  0  0  0
    1.0920   -1.2060    0.0000 N   0  0  0  0  0  0  0  0  0  0  0  0
    2.5600   -1.5180    0.0000 C   0  0  0  0  0  0  0  0  0  0  0  0
    3.3100   -0.2190    0.0000 C   0  0  0  0  0  0  0  0  0  0  0  0
    2.3060    0.8960    0.0000 N   0  0  0  0  0  0  0  0  0  0  0  0
    0.9360    0.2860    0.0000 C   0  0  0  0  0  0  0  0  0  0  0  0
    4.8100   -0.2190    0.0000 C   0  0  0  0  0  0  0  0  0  0  0  0
    5.5600   -1.5180    0.0000 C   0  0  0  0  0  0  0  0  0  0  0  0
    4.8100   -2.8170    0.0000 C   0  0  0  0  0  0  0  0  0  0  0  0
    3.3100   -2.8170    0.0000 C   0  0  0  0  0  0  0  0  0  0  0  0
  1  2  1  0  0  0  0
  2  3  1  0  0  0  0
  2  6  1  0  0  0  0
  3  4  1  0  0  0  0
  3 10  2  0  0  0  0
  4  5  1  0  0  0  0
  4  7  2  0  0  0  0
  5  6  2  0  0  0  0
  7  8  1  0  0  0  0
  8  9  2  0  0  0  0
  9 10  1  0  0  0  0
M  END
>  <name>
Cn1c2c(n[c;biphenyl]1)cccc2

>  <apo>
1

>  <freq>
1

>  <freq0>
0

>  <freq1>
1

>  <freqA>
0.99887151

>  <a_count>
18

$$$$

  MOE2015           2D

 13 13  0  0  0  0  0  0  0  0999 V2000
    1.1510    0.6640    0.0000 F   0  0  0  0  0  0  0  0  0  0  0  0
    0.4010   -0.6350    0.0000 C   0  0  0  0  0  0  0  0  0  0  0  0
   -0.8980    0.1150    0.0000 F   0  0  0  0  0  0  0  0  0  0  0  0
   -0.3490   -1.9340    0.0000 F   0  0  0  0  0  0  0  0  0  0  0  0
    1.7000   -1.3850    0.0000 C   0  0  0  0  0  0  0  0  0  0  0  0
    1.7000   -2.8850    0.0000 C   0  0  0  0  0  0  0  0  0  0  0  0
    0.4010   -3.6350    0.0000 C   0  0  0  0  0  0  0  0  0  0  0  0
   -0.8980   -4.3850    0.0000 N   0  0  0  0  0  0  0  0  0  0  0  0
    2.9990   -3.6350    0.0000 C   0  0  0  0  0  0  0  0  0  0  0  0
    4.2980   -2.8850    0.0000 C   0  0  0  0  0  0  0  0  0  0  0  0
    4.2980   -1.3850    0.0000 C   0  0  0  0  0  0  0  0  0  0  0  0
    5.5970   -0.6350    0.0000 N   0  0  0  0  0  0  0  0  0  0  0  0
    2.9990   -0.6350    0.0000 C   0  0  0  0  0  0  0  0  0  0  0  0
  1  2  1  0  0  0  0
  2  3  1  0  0  0  0
  2  4  1  0  0  0  0
  2  5  1  0  0  0  0
  5  6  1  0  0  0  0
  5 13  2  0  0  0  0
  6  7  1  0  0  0  0
  6  9  2  0  0  0  0
  7  8  3  0  0  0  0
  9 10  1  0  0  0  0
 10 11  2  0  0  0  0
 11 12  1  0  0  0  0
 11 13  1  0  0  0  0
M  END
>  <name>
FC(F)(F)c1c(C#N)ccc([N;amide])c1

>  <apo>
1

>  <freq>
1

>  <freq0>
0

>  <freq1>
1

>  <freqA>
0.99887151

>  <a_count>
18

$$$$

  MOE2015           2D

 14 14  0  0  0  0  0  0  0  0999 V2000
    5.6830   -1.7550    0.0000 F   0  0  0  0  0  0  0  0  0  0  0  0
    4.9330   -3.0540    0.0000 C   0  0  0  0  0  0  0  0  0  0  0  0
    4.1830   -4.3530    0.0000 F   0  0  0  0  0  0  0  0  0  0  0  0
    6.2320   -3.8040    0.0000 F   0  0  0  0  0  0  0  0  0  0  0  0
    3.6340   -2.3040    0.0000 C   0  0  0  0  0  0  0  0  0  0  0  0
    2.3350   -3.0540    0.0000 C   0  0  0  0  0  0  0  0  0  0  0  0
    1.0360   -2.3040    0.0000 C   0  0  0  0  0  0  0  0  0  0  0  0
   -0.2630   -3.0540    0.0000 C   0  0  0  0  0  0  0  0  0  0  0  0
   -1.0130   -1.7550    0.0000 F   0  0  0  0  0  0  0  0  0  0  0  0
   -1.5620   -3.8040    0.0000 F   0  0  0  0  0  0  0  0  0  0  0  0
    0.4870   -4.3530    0.0000 F   0  0  0  0  0  0  0  0  0  0  0  0
    1.0360   -0.8040    0.0000 C   0  0  0  0  0  0  0  0  0  0  0  0
    2.3350   -0.0540    0.0000 C   0  0  0  0  0  0  0  0  0  0  0  0
    3.6340   -0.8040    0.0000 C   0  0  0  0  0  0  0  0  0  0  0  0
  1  2  1  0  0  0  0
  2  3  1  0  0  0  0
  2  4  1  0  0  0  0
  2  5  1  0  0  0  0
  5  6  1  0  0  0  0
  5 14  2  0  0  0  0
  6  7  2  0  0  0  0
  7  8  1  0  0  0  0
  7 12  1  0  0  0  0
  8  9  1  0  0  0  0
  8 10  1  0  0  0  0
  8 11  1  0  0  0  0
 12 13  2  0  0  0  0
 13 14  1  0  0  0  0
M  END
>  <name>
FC(F)(F)c1cc(C(F)(F)F)c[c;biphenyl]c1

>  <apo>
1

>  <freq>
1

>  <freq0>
0

>  <freq1>
1

>  <freqA>
0.99887151

>  <a_count>
18

$$$$

  MOE2015           2D

  9  9  0  0  1  0  0  0  0  0999 V2000
   -0.0390    0.2590    0.0000 F   0  0  0  0  0  0  0  0  0  0  0  0
    1.4560    0.1310    0.0000 C   0  0  2  0  0  0  0  0  0  0  0  0
    2.4370    1.2660    0.0000 C   0  0  2  0  0  0  0  0  0  0  0  0
    2.0960    2.7260    0.0000 O   0  0  0  0  0  0  0  0  0  0  0  0
    3.8190    0.6830    0.0000 C   0  0  1  0  0  0  0  0  0  0  0  0
    5.1030    1.4580    0.0000 C   0  0  0  0  0  0  0  0  0  0  0  0
    6.4170    0.7340    0.0000 O   0  0  0  0  0  0  0  0  0  0  0  0
    3.6920   -0.8120    0.0000 O   0  0  0  0  0  0  0  0  0  0  0  0
    2.2310   -1.1530    0.0000 C   0  0  0  0  0  0  0  0  0  0  0  0
  2  1  1  6  0  0  0
  2  3  1  0  0  0  0
  2  9  1  0  0  0  0
  3  4  1  6  0  0  0
  3  5  1  0  0  0  0
  5  6  1  1  0  0  0
  5  8  1  0  0  0  0
  6  7  1  0  0  0  0
  8  9  1  0  0  0  0
M  END
>  <name>
F[C@@H]1[C@H](O)[C@@H](CO)O[C;NaroC]1

>  <apo>
1

>  <freq>
1

>  <freq0>
0

>  <freq1>
1

>  <freqA>
0.99887151

>  <a_count>
18

$$$$

  MOE2015           2D

 11 12  0  0  0  0  0  0  0  0999 V2000
    1.4390    4.0150    0.0000 F   0  0  0  0  0  0  0  0  0  0  0  0
    1.4390    2.5150    0.0000 C   0  0  0  0  0  0  0  0  0  0  0  0
    2.7390    1.7650    0.0000 C   0  0  0  0  0  0  0  0  0  0  0  0
    4.1650    2.2290    0.0000 N   0  0  0  0  0  0  0  0  0  0  0  0
    5.0470    1.0150    0.0000 C   0  0  0  0  0  0  0  0  0  0  0  0
    6.5470    1.0150    0.0000 C   0  0  0  0  0  0  0  0  0  0  0  0
    4.1650   -0.1980    0.0000 N   0  0  0  0  0  0  0  0  0  0  0  0
    2.7390    0.2650    0.0000 C   0  0  0  0  0  0  0  0  0  0  0  0
    1.4390   -0.4850    0.0000 C   0  0  0  0  0  0  0  0  0  0  0  0
    0.1400    0.2650    0.0000 C   0  0  0  0  0  0  0  0  0  0  0  0
    0.1400    1.7650    0.0000 C   0  0  0  0  0  0  0  0  0  0  0  0
  1  2  1  0  0  0  0
  2  3  1  0  0  0  0
  2 11  2  0  0  0  0
  3  4  1  0  0  0  0
  3  8  2  0  0  0  0
  4  5  2  0  0  0  0
  5  6  1  0  0  0  0
  5  7  1  0  0  0  0
  7  8  1  0  0  0  0
  8  9  1  0  0  0  0
  9 10  2  0  0  0  0
 10 11  1  0  0  0  0
M  END
>  <name>
Fc1c2nc(C)[nH;NaroC]c2c[c;biphenyl]c1

>  <apo>
2

>  <freq>
1

>  <freq0>
0

>  <freq1>
1

>  <freqA>
0.99887151

>  <a_count>
18

$$$$

  MOE2015           2D

 10 10  0  0  0  0  0  0  0  0999 V2000
    0.6980   -2.6750    0.0000 N   0  0  0  0  0  0  0  0  0  0  0  0
    2.0070   -1.9420    0.0000 C   0  0  0  0  0  0  0  0  0  0  0  0
    2.0270   -0.4420    0.0000 N   0  0  0  0  0  0  0  0  0  0  0  0
    3.2960   -2.7090    0.0000 N   0  0  0  0  0  0  0  0  0  0  0  0
   -0.5910   -1.9080    0.0000 C   0  0  0  0  0  0  0  0  0  0  0  0
   -0.7280   -0.4140    0.0000 S   0  0  0  0  0  0  0  0  0  0  0  0
   -2.1910   -0.0830    0.0000 C   0  0  0  0  0  0  0  0  0  0  0  0
   -2.9580   -1.3720    0.0000 C   0  0  0  0  0  0  0  0  0  0  0  0
   -4.4520   -1.5090    0.0000 C   0  0  0  0  0  0  0  0  0  0  0  0
   -1.9690   -2.5000    0.0000 N   0  0  0  0  0  0  0  0  0  0  0  0
  1  2  2  0  0  0  0
  1  5  1  0  0  0  0
  2  3  1  0  0  0  0
  2  4  1  0  0  0  0
  5  6  1  0  0  0  0
  5 10  2  0  0  0  0
  6  7  1  0  0  0  0
  7  8  2  0  0  0  0
  8  9  1  0  0  0  0
  8 10  1  0  0  0  0
M  END
>  <name>
N(=C(\N)/N)\c1scc([C;thioether])n1

>  <apo>
1

>  <freq>
1

>  <freq0>
0

>  <freq1>
1

>  <freqA>
0.99887151

>  <a_count>
18

$$$$

  MOE2015           2D

  9  9  0  0  0  0  0  0  0  0999 V2000
    1.4170    2.4540    0.0000 O   0  0  0  0  0  0  0  0  0  0  0  0
    2.1670    1.1550    0.0000 C   0  0  0  0  0  0  0  0  0  0  0  0
   -0.0830    2.4540    0.0000 C   0  0  0  0  0  0  0  0  0  0  0  0
   -0.8330    3.7530    0.0000 N   0  0  0  0  0  0  0  0  0  0  0  0
   -2.3330    3.7530    0.0000 C   0  0  0  0  0  0  0  0  0  0  0  0
   -3.0830    2.4540    0.0000 C   0  0  0  0  0  0  0  0  0  0  0  0
   -4.5830    2.4540    0.0000 C   0  0  0  0  0  0  0  0  0  0  0  0
   -2.3330    1.1550    0.0000 C   0  0  0  0  0  0  0  0  0  0  0  0
   -0.8330    1.1550    0.0000 C   0  0  0  0  0  0  0  0  0  0  0  0
  1  2  1  0  0  0  0
  1  3  1  0  0  0  0
  3  4  1  0  0  0  0
  3  9  2  0  0  0  0
  4  5  2  0  0  0  0
  5  6  1  0  0  0  0
  6  7  1  0  0  0  0
  6  8  2  0  0  0  0
  8  9  1  0  0  0  0
M  END
>  <name>
O(C)c1ncc([C;amine])cc1

>  <apo>
1

>  <freq>
1

>  <freq0>
0

>  <freq1>
1

>  <freqA>
0.99887151

>  <a_count>
18

$$$$

  MOE2015           2D

  8  7  0  0  1  0  0  0  0  0999 V2000
   -0.0670   -1.3740    0.0000 O   0  0  0  0  0  0  0  0  0  0  0  0
    1.2320   -0.6240    0.0000 C   0  0  0  0  0  0  0  0  0  0  0  0
    1.2320    0.8760    0.0000 N   0  0  0  0  0  0  0  0  0  0  0  0
    2.5310   -1.3740    0.0000 C   0  0  3  0  0  0  0  0  0  0  0  0
    2.5310   -2.8740    0.0000 N   0  0  0  0  0  0  0  0  0  0  0  0
    3.8300   -0.6240    0.0000 C   0  0  3  0  0  0  0  0  0  0  0  0
    5.1290   -1.3740    0.0000 O   0  0  0  0  0  0  0  0  0  0  0  0
    3.8300    0.8760    0.0000 C   0  0  0  0  0  0  0  0  0  0  0  0
  1  2  2  0  0  0  0
  2  3  1  0  0  0  0
  2  4  1  0  0  0  0
  4  5  1  0  0  0  0
  4  6  1  0  0  0  0
  6  7  1  0  0  0  0
  6  8  1  0  0  0  0
M  END
>  <name>
O=C(N)C([N;amide])C(O)C

>  <apo>
1

>  <freq>
1

>  <freq0>
0

>  <freq1>
1

>  <freqA>
0.99887151

>  <a_count>
18

$$$$

  MOE2015           2D

  8  8  0  0  1  0  0  0  0  0999 V2000
    4.5710   -2.6390    0.0000 O   0  0  0  0  0  0  0  0  0  0  0  0
    3.8210   -1.3400    0.0000 C   0  0  0  0  0  0  0  0  0  0  0  0
    4.5710   -0.0410    0.0000 N   0  0  0  0  0  0  0  0  0  0  0  0
    2.3210   -1.3400    0.0000 C   0  0  1  0  0  0  0  0  0  0  0  0
    1.4400   -0.1270    0.0000 N   0  0  0  0  0  0  0  0  0  0  0  0
    0.0130   -0.5900    0.0000 C   0  0  0  0  0  0  0  0  0  0  0  0
    0.0130   -2.0900    0.0000 C   0  0  0  0  0  0  0  0  0  0  0  0
    1.4400   -2.5540    0.0000 C   0  0  0  0  0  0  0  0  0  0  0  0
  1  2  2  0  0  0  0
  2  3  1  0  0  0  0
  4  2  1  6  0  0  0
  4  5  1  0  0  0  0
  4  8  1  0  0  0  0
  5  6  1  0  0  0  0
  6  7  1  0  0  0  0
  7  8  1  0  0  0  0
M  END
>  <name>
O=C(N)[C@H]1[N;amide]CCC1

>  <apo>
1

>  <freq>
1

>  <freq0>
0

>  <freq1>
1

>  <freqA>
0.99887151

>  <a_count>
18

$$$$

  MOE2015           2D

  8  8  0  0  1  0  0  0  0  0999 V2000
    4.5710   -2.6390    0.0000 O   0  0  0  0  0  0  0  0  0  0  0  0
    3.8210   -1.3400    0.0000 C   0  0  0  0  0  0  0  0  0  0  0  0
    4.5710   -0.0410    0.0000 N   0  0  0  0  0  0  0  0  0  0  0  0
    2.3210   -1.3400    0.0000 C   0  0  1  0  0  0  0  0  0  0  0  0
    1.4400   -0.1270    0.0000 N   0  0  0  0  0  0  0  0  0  0  0  0
    0.0130   -0.5900    0.0000 C   0  0  0  0  0  0  0  0  0  0  0  0
    0.0130   -2.0900    0.0000 C   0  0  0  0  0  0  0  0  0  0  0  0
    1.4400   -2.5540    0.0000 C   0  0  0  0  0  0  0  0  0  0  0  0
  1  2  2  0  0  0  0
  2  3  1  0  0  0  0
  4  2  1  6  0  0  0
  4  5  1  0  0  0  0
  4  8  1  0  0  0  0
  5  6  1  0  0  0  0
  6  7  1  0  0  0  0
  7  8  1  0  0  0  0
M  END
>  <name>
O=C(N)[C@H]1[N;urea]CCC1

>  <apo>
1

>  <freq>
1

>  <freq0>
0

>  <freq1>
1

>  <freqA>
0.99887151

>  <a_count>
18

$$$$

  MOE2015           2D

 13 13  0  0  0  0  0  0  0  0999 V2000
    0.4060    0.2340    0.0000 O   0  0  0  0  0  0  0  0  0  0  0  0
   -0.3440   -1.0650    0.0000 C   0  0  0  0  0  0  0  0  0  0  0  0
   -1.8440   -1.0650    0.0000 O   0  0  0  0  0  0  0  0  0  0  0  0
    0.4060   -2.3640    0.0000 C   0  0  0  0  0  0  0  0  0  0  0  0
   -0.3440   -3.6630    0.0000 C   0  0  0  0  0  0  0  0  0  0  0  0
    0.4060   -4.9620    0.0000 O   0  0  0  0  0  0  0  0  0  0  0  0
   -1.8440   -3.6630    0.0000 N   0  0  0  0  0  0  0  0  0  0  0  0
    1.9060   -2.3640    0.0000 C   0  0  0  0  0  0  0  0  0  0  0  0
    2.9660   -3.4250    0.0000 S   0  0  0  0  0  0  0  0  0  0  0  0
    4.0270   -2.3640    0.0000 C   0  0  0  0  0  0  0  0  0  0  0  0
    5.5270   -2.3640    0.0000 C   0  0  0  0  0  0  0  0  0  0  0  0
    6.2770   -1.0650    0.0000 O   0  0  0  0  0  0  0  0  0  0  0  0
    2.9660   -1.3030    0.0000 S   0  0  0  0  0  0  0  0  0  0  0  0
  1  2  2  0  0  0  0
  2  3  1  0  0  0  0
  2  4  1  0  0  0  0
  4  5  1  0  0  0  0
  4  8  2  0  0  0  0
  5  6  2  0  0  0  0
  5  7  1  0  0  0  0
  8  9  1  0  0  0  0
  8 13  1  0  0  0  0
  9 10  1  0  0  0  0
 10 11  1  0  0  0  0
 10 13  1  0  0  0  0
 11 12  2  0  0  0  0
M  END
>  <name>
O=C(O)/C(/C(=O)N)=C\1/SC([C;amide]=O)S/1

>  <apo>
1

>  <freq>
1

>  <freq0>
0

>  <freq1>
1

>  <freqA>
0.99887151

>  <a_count>
18

$$$$

  MOE2015           2D

  8  8  0  0  0  0  0  0  0  0999 V2000
    5.6480    1.3520    0.0000 O   0  0  0  0  0  0  0  0  0  0  0  0
    4.3100    0.6730    0.0000 C   0  0  0  0  0  0  0  0  0  0  0  0
    4.2300   -0.8250    0.0000 O   0  0  0  0  0  0  0  0  0  0  0  0
    3.0530    1.4910    0.0000 C   0  0  0  0  0  0  0  0  0  0  0  0
    1.7160    0.8120    0.0000 C   0  0  0  0  0  0  0  0  0  0  0  0
    1.4060    2.2800    0.0000 C   0  0  0  0  0  0  0  0  0  0  0  0
    0.4790   -0.0360    0.0000 C   0  0  0  0  0  0  0  0  0  0  0  0
    1.8320   -0.6830    0.0000 C   0  0  0  0  0  0  0  0  0  0  0  0
  1  2  2  0  0  0  0
  2  3  1  0  0  0  0
  2  4  1  0  0  0  0
  4  5  1  0  0  0  0
  5  6  1  0  0  0  0
  5  7  1  0  0  0  0
  5  8  1  0  0  0  0
  7  8  1  0  0  0  0
M  END
>  <name>
O=C(O)CC1([C;thioether])CC1

>  <apo>
1

>  <freq>
1

>  <freq0>
0

>  <freq1>
1

>  <freqA>
0.99887151

>  <a_count>
18

$$$$

  MOE2015           2D

  9  8  0  0  1  0  0  0  0  0999 V2000
   -0.3360   -1.2540    0.0000 O   0  0  0  0  0  0  0  0  0  0  0  0
    0.9630   -2.0040    0.0000 C   0  0  0  0  0  0  0  0  0  0  0  0
    0.9630   -3.5040    0.0000 O   0  0  0  0  0  0  0  0  0  0  0  0
    2.2620   -1.2540    0.0000 C   0  0  0  0  0  0  0  0  0  0  0  0
    3.5610   -2.0040    0.0000 C   0  0  0  0  0  0  0  0  0  0  0  0
    4.8600   -1.2540    0.0000 C   0  0  1  0  0  0  0  0  0  0  0  0
    4.8600    0.2460    0.0000 N   0  0  0  0  0  0  0  0  0  0  0  0
    6.1590   -2.0040    0.0000 C   0  0  0  0  0  0  0  0  0  0  0  0
    7.4580   -1.2540    0.0000 O   0  0  0  0  0  0  0  0  0  0  0  0
  1  2  2  0  0  0  0
  2  3  1  0  0  0  0
  2  4  1  0  0  0  0
  4  5  1  0  0  0  0
  5  6  1  0  0  0  0
  6  7  1  1  0  0  0
  6  8  1  0  0  0  0
  8  9  2  0  0  0  0
M  END
>  <name>
O=C(O)CC[C@@H]([N;amide])[C;amide]=O

>  <apo>
2

>  <freq>
1

>  <freq0>
0

>  <freq1>
1

>  <freqA>
0.99887151

>  <a_count>
18

$$$$

  MOE2015           2D

 10 10  0  0  0  0  0  0  0  0999 V2000
    7.0320   -4.0600    0.0000 O   0  0  0  0  0  0  0  0  0  0  0  0
    6.2820   -2.7610    0.0000 C   0  0  0  0  0  0  0  0  0  0  0  0
    7.0320   -1.4620    0.0000 O   0  0  0  0  0  0  0  0  0  0  0  0
    4.7820   -2.7610    0.0000 C   0  0  0  0  0  0  0  0  0  0  0  0
    4.0320   -1.4620    0.0000 C   0  0  0  0  0  0  0  0  0  0  0  0
    2.5320   -1.4620    0.0000 C   0  0  0  0  0  0  0  0  0  0  0  0
    1.6500   -0.2480    0.0000 S   0  0  0  0  0  0  0  0  0  0  0  0
    0.2240   -0.7120    0.0000 C   0  0  0  0  0  0  0  0  0  0  0  0
    0.2240   -2.2120    0.0000 C   0  0  0  0  0  0  0  0  0  0  0  0
    1.6500   -2.6750    0.0000 C   0  0  0  0  0  0  0  0  0  0  0  0
  1  2  2  0  0  0  0
  2  3  1  0  0  0  0
  2  4  1  0  0  0  0
  4  5  1  0  0  0  0
  5  6  1  0  0  0  0
  6  7  1  0  0  0  0
  6 10  2  0  0  0  0
  7  8  1  0  0  0  0
  8  9  2  0  0  0  0
  9 10  1  0  0  0  0
M  END
>  <name>
O=C(O)[C;olefin]Cc1sccc1

>  <apo>
1

>  <freq>
1

>  <freq0>
0

>  <freq1>
1

>  <freqA>
0.99887151

>  <a_count>
18

$$$$

  MOE2015           2D

  9  8  0  0  1  0  0  0  0  0999 V2000
   -0.2970   -1.1100    0.0000 O   0  0  0  0  0  0  0  0  0  0  0  0
    1.0020   -1.8600    0.0000 C   0  0  0  0  0  0  0  0  0  0  0  0
    1.0020   -3.3600    0.0000 O   0  0  0  0  0  0  0  0  0  0  0  0
    2.3010   -1.1100    0.0000 C   0  0  2  0  0  0  0  0  0  0  0  0
    2.3010    0.3900    0.0000 N   0  0  0  0  0  0  0  0  0  0  0  0
    3.6000   -1.8600    0.0000 C   0  0  0  0  0  0  0  0  0  0  0  0
    4.8990   -1.1100    0.0000 C   0  0  0  0  0  0  0  0  0  0  0  0
    6.1980   -1.8600    0.0000 C   0  0  0  0  0  0  0  0  0  0  0  0
    7.4970   -1.1100    0.0000 O   0  0  0  0  0  0  0  0  0  0  0  0
  1  2  2  0  0  0  0
  2  3  1  0  0  0  0
  2  4  1  0  0  0  0
  4  5  1  6  0  0  0
  4  6  1  0  0  0  0
  6  7  1  0  0  0  0
  7  8  1  0  0  0  0
  8  9  2  0  0  0  0
M  END
>  <name>
O=C(O)[C@H]([N;amide])CC[C;amide]=O

>  <apo>
2

>  <freq>
1

>  <freq0>
0

>  <freq1>
1

>  <freqA>
0.99887151

>  <a_count>
18

$$$$

  MOE2015           2D

 10 10  0  0  0  0  0  0  0  0999 V2000
   -0.3750    3.2480    0.0000 O   0  0  0  0  0  0  0  0  0  0  0  0
    0.3750    1.9490    0.0000 C   0  0  0  0  0  0  0  0  0  0  0  0
   -0.3750    0.6500    0.0000 O   0  0  0  0  0  0  0  0  0  0  0  0
    1.8750    1.9490    0.0000 C   0  0  0  0  0  0  0  0  0  0  0  0
    2.6250    0.6500    0.0000 C   0  0  0  0  0  0  0  0  0  0  0  0
    4.1250    0.6500    0.0000 C   0  0  0  0  0  0  0  0  0  0  0  0
    4.8750    1.9490    0.0000 C   0  0  0  0  0  0  0  0  0  0  0  0
    6.3750    1.9490    0.0000 C   0  0  0  0  0  0  0  0  0  0  0  0
    4.1250    3.2480    0.0000 C   0  0  0  0  0  0  0  0  0  0  0  0
    2.6250    3.2480    0.0000 C   0  0  0  0  0  0  0  0  0  0  0  0
  1  2  2  0  0  0  0
  2  3  1  0  0  0  0
  2  4  1  0  0  0  0
  4  5  1  0  0  0  0
  4 10  2  0  0  0  0
  5  6  2  0  0  0  0
  6  7  1  0  0  0  0
  7  8  1  0  0  0  0
  7  9  2  0  0  0  0
  9 10  1  0  0  0  0
M  END
>  <name>
O=C(O)c1ccc([C;NaroC])cc1

>  <apo>
1

>  <freq>
1

>  <freq0>
0

>  <freq1>
1

>  <freqA>
0.99887151

>  <a_count>
18

$$$$

  MOE2015           2D

 10 10  0  0  0  0  0  0  0  0999 V2000
   -0.3750    3.2480    0.0000 O   0  0  0  0  0  0  0  0  0  0  0  0
    0.3750    1.9490    0.0000 C   0  0  0  0  0  0  0  0  0  0  0  0
   -0.3750    0.6500    0.0000 O   0  0  0  0  0  0  0  0  0  0  0  0
    1.8750    1.9490    0.0000 C   0  0  0  0  0  0  0  0  0  0  0  0
    2.6250    0.6500    0.0000 C   0  0  0  0  0  0  0  0  0  0  0  0
    4.1250    0.6500    0.0000 C   0  0  0  0  0  0  0  0  0  0  0  0
    4.8750    1.9490    0.0000 C   0  0  0  0  0  0  0  0  0  0  0  0
    6.3750    1.9490    0.0000 C   0  0  0  0  0  0  0  0  0  0  0  0
    4.1250    3.2480    0.0000 C   0  0  0  0  0  0  0  0  0  0  0  0
    2.6250    3.2480    0.0000 C   0  0  0  0  0  0  0  0  0  0  0  0
  1  2  2  0  0  0  0
  2  3  1  0  0  0  0
  2  4  1  0  0  0  0
  4  5  1  0  0  0  0
  4 10  2  0  0  0  0
  5  6  2  0  0  0  0
  6  7  1  0  0  0  0
  7  8  1  0  0  0  0
  7  9  2  0  0  0  0
  9 10  1  0  0  0  0
M  END
>  <name>
O=C(O)c1ccc([C;olefin])cc1

>  <apo>
1

>  <freq>
1

>  <freq0>
0

>  <freq1>
1

>  <freqA>
0.99887151

>  <a_count>
18

$$$$

  MOE2015           2D

  8  8  0  0  1  0  0  0  0  0999 V2000
   -0.0270    0.0520    0.0000 O   0  0  0  0  0  0  0  0  0  0  0  0
    0.8210    1.2890    0.0000 C   0  0  0  0  0  0  0  0  0  0  0  0
    0.1730    2.6420    0.0000 N   0  0  0  0  0  0  0  0  0  0  0  0
    2.3160    1.1740    0.0000 C   0  0  2  0  0  0  0  0  0  0  0  0
    1.8170   -0.2410    0.0000 N   0  0  0  0  0  0  0  0  0  0  0  0
    3.8140    1.2540    0.0000 C   0  0  1  0  0  0  0  0  0  0  0  0
    5.1510    0.5750    0.0000 C   0  0  0  0  0  0  0  0  0  0  0  0
    2.9950    2.5110    0.0000 C   0  0  0  0  0  0  0  0  0  0  0  0
  1  2  2  0  0  0  0
  2  3  1  0  0  0  0
  4  2  1  1  0  0  0
  4  5  1  6  0  0  0
  4  6  1  0  0  0  0
  4  8  1  0  0  0  0
  6  7  1  6  0  0  0
  6  8  1  0  0  0  0
M  END
>  <name>
O=C([N;so2amide])[C@]1([N;amide])[C@@H]([C;olefin])C1

>  <apo>
3

>  <freq>
1

>  <freq0>
0

>  <freq1>
1

>  <freqA>
0.99887151

>  <a_count>
18

$$$$

  MOE2015           2D

  8  8  0  0  1  0  0  0  0  0999 V2000
   -0.0270    0.0520    0.0000 O   0  0  0  0  0  0  0  0  0  0  0  0
    0.8210    1.2890    0.0000 C   0  0  0  0  0  0  0  0  0  0  0  0
    0.1730    2.6420    0.0000 N   0  0  0  0  0  0  0  0  0  0  0  0
    2.3160    1.1740    0.0000 C   0  0  2  0  0  0  0  0  0  0  0  0
    1.8170   -0.2410    0.0000 N   0  0  0  0  0  0  0  0  0  0  0  0
    3.8140    1.2540    0.0000 C   0  0  2  0  0  0  0  0  0  0  0  0
    5.1510    0.5750    0.0000 C   0  0  0  0  0  0  0  0  0  0  0  0
    2.9950    2.5110    0.0000 C   0  0  0  0  0  0  0  0  0  0  0  0
  1  2  2  0  0  0  0
  2  3  1  0  0  0  0
  4  2  1  1  0  0  0
  4  5  1  6  0  0  0
  4  6  1  0  0  0  0
  4  8  1  0  0  0  0
  6  7  1  1  0  0  0
  6  8  1  0  0  0  0
M  END
>  <name>
O=C([N;so2amide])[C@]1([N;amide])[C@H]([C;olefin])C1

>  <apo>
3

>  <freq>
1

>  <freq0>
0

>  <freq1>
1

>  <freqA>
0.99887151

>  <a_count>
18

$$$$

  MOE2015           2D

  8  8  0  0  0  0  0  0  0  0999 V2000
    1.1210    2.9510    0.0000 O   0  0  0  0  0  0  0  0  0  0  0  0
    1.3990    1.4770    0.0000 C   0  0  0  0  0  0  0  0  0  0  0  0
    2.7550    0.8350    0.0000 N   0  0  0  0  0  0  0  0  0  0  0  0
    4.0710    1.5550    0.0000 C   0  0  0  0  0  0  0  0  0  0  0  0
    5.3520    0.7740    0.0000 C   0  0  0  0  0  0  0  0  0  0  0  0
    2.5630   -0.6530    0.0000 C   0  0  0  0  0  0  0  0  0  0  0  0
    1.0890   -0.9300    0.0000 C   0  0  0  0  0  0  0  0  0  0  0  0
    0.3700    0.3860    0.0000 N   0  0  0  0  0  0  0  0  0  0  0  0
  1  2  2  0  0  0  0
  2  3  1  0  0  0  0
  2  8  1  0  0  0  0
  3  4  1  0  0  0  0
  3  6  1  0  0  0  0
  4  5  1  0  0  0  0
  6  7  1  0  0  0  0
  7  8  1  0  0  0  0
M  END
>  <name>
O=C1N(C[C;amine])CCN1

>  <apo>
1

>  <freq>
1

>  <freq0>
0

>  <freq1>
1

>  <freqA>
0.99887151

>  <a_count>
18

$$$$

  MOE2015           2D

 12 13  0  0  0  0  0  0  0  0999 V2000
    8.4840   -2.7150    0.0000 O   0  0  0  0  0  0  0  0  0  0  0  0
    7.2630   -1.8440    0.0000 C   0  0  0  0  0  0  0  0  0  0  0  0
    7.2490   -0.3440    0.0000 O   0  0  0  0  0  0  0  0  0  0  0  0
    5.8190    0.1070    0.0000 N   0  0  0  0  0  0  0  0  0  0  0  0
    4.9480   -1.1150    0.0000 C   0  0  0  0  0  0  0  0  0  0  0  0
    3.4480   -1.1280    0.0000 C   0  0  0  0  0  0  0  0  0  0  0  0
    2.6870    0.1640    0.0000 C   0  0  0  0  0  0  0  0  0  0  0  0
    1.1870    0.1510    0.0000 C   0  0  0  0  0  0  0  0  0  0  0  0
    0.4480   -1.1550    0.0000 C   0  0  0  0  0  0  0  0  0  0  0  0
    1.2100   -2.4470    0.0000 C   0  0  0  0  0  0  0  0  0  0  0  0
    2.7100   -2.4340    0.0000 C   0  0  0  0  0  0  0  0  0  0  0  0
    5.8400   -2.3200    0.0000 N   0  0  0  0  0  0  0  0  0  0  0  0
  1  2  2  0  0  0  0
  2  3  1  0  0  0  0
  2 12  1  0  0  0  0
  3  4  1  0  0  0  0
  4  5  2  0  0  0  0
  5  6  1  0  0  0  0
  5 12  1  0  0  0  0
  6  7  1  0  0  0  0
  6 11  2  0  0  0  0
  7  8  2  0  0  0  0
  8  9  1  0  0  0  0
  9 10  2  0  0  0  0
 10 11  1  0  0  0  0
M  END
>  <name>
O=C1ON=C(c2cccc[c;biphenyl]2)N1

>  <apo>
1

>  <freq>
1

>  <freq0>
0

>  <freq1>
1

>  <freqA>
0.99887151

>  <a_count>
18

$$$$

  MOE2015           2D

 11 11  0  0  0  0  0  0  0  0999 V2000
    1.3010   -4.8570    0.0000 O   0  0  0  0  0  0  0  0  0  0  0  0
    2.6000   -4.1070    0.0000 C   0  0  0  0  0  0  0  0  0  0  0  0
    2.6000   -2.6070    0.0000 C   0  0  0  0  0  0  0  0  0  0  0  0
    1.3010   -1.8570    0.0000 N   0  0  0  0  0  0  0  0  0  0  0  0
    1.3010   -0.3570    0.0000 O   0  0  0  0  0  0  0  0  0  0  0  0
    0.0020    0.3930    0.0000 C   0  0  0  0  0  0  0  0  0  0  0  0
    3.8990   -1.8570    0.0000 C   0  0  0  0  0  0  0  0  0  0  0  0
    5.2700   -2.4670    0.0000 O   0  0  0  0  0  0  0  0  0  0  0  0
    6.2730   -1.3520    0.0000 C   0  0  0  0  0  0  0  0  0  0  0  0
    5.5230   -0.0530    0.0000 C   0  0  0  0  0  0  0  0  0  0  0  0
    4.0560   -0.3650    0.0000 C   0  0  0  0  0  0  0  0  0  0  0  0
  1  2  2  0  0  0  0
  2  3  1  0  0  0  0
  3  4  2  0  0  0  0
  3  7  1  0  0  0  0
  4  5  1  0  0  0  0
  5  6  1  0  0  0  0
  7  8  1  0  0  0  0
  7 11  2  0  0  0  0
  8  9  1  0  0  0  0
  9 10  2  0  0  0  0
 10 11  1  0  0  0  0
M  END
>  <name>
O=[C;amide]/C(=N/OC)/c1occc1

>  <apo>
1

>  <freq>
1

>  <freq0>
0

>  <freq1>
1

>  <freqA>
0.99887151

>  <a_count>
18

$$$$

  MOE2015           2D

  7  6  0  0  1  0  0  0  0  0999 V2000
    5.3550   -0.7920    0.0000 O   0  0  0  0  0  0  0  0  0  0  0  0
    4.0560   -1.5420    0.0000 C   0  0  0  0  0  0  0  0  0  0  0  0
    2.7570   -0.7920    0.0000 C   0  0  3  0  0  0  0  0  0  0  0  0
    2.7570    0.7080    0.0000 N   0  0  0  0  0  0  0  0  0  0  0  0
    1.4580   -1.5420    0.0000 C   0  0  0  0  0  0  0  0  0  0  0  0
    1.4580   -3.0420    0.0000 C   0  0  0  0  0  0  0  0  0  0  0  0
    0.1590   -0.7920    0.0000 C   0  0  0  0  0  0  0  0  0  0  0  0
  1  2  2  0  0  0  0
  2  3  1  0  0  0  0
  3  4  1  0  0  0  0
  3  5  1  0  0  0  0
  5  6  1  0  0  0  0
  5  7  1  0  0  0  0
M  END
>  <name>
O=[C;amide]C([N;amide])C(C)C

>  <apo>
2

>  <freq>
1

>  <freq0>
0

>  <freq1>
1

>  <freqA>
0.99887151

>  <a_count>
18

$$$$

  MOE2015           2D

  8  7  0  0  0  0  0  0  0  0999 V2000
   -0.4220    1.5740    0.0000 O   0  0  0  0  0  0  0  0  0  0  0  0
    0.8770    2.3240    0.0000 C   0  0  0  0  0  0  0  0  0  0  0  0
    2.1760    1.5740    0.0000 C   0  0  0  0  0  0  0  0  0  0  0  0
    3.4750    2.3240    0.0000 C   0  0  0  0  0  0  0  0  0  0  0  0
    4.7750    1.5740    0.0000 C   0  0  0  0  0  0  0  0  0  0  0  0
    6.0740    2.3240    0.0000 C   0  0  0  0  0  0  0  0  0  0  0  0
    7.3730    1.5740    0.0000 C   0  0  0  0  0  0  0  0  0  0  0  0
    8.6720    2.3240    0.0000 O   0  0  0  0  0  0  0  0  0  0  0  0
  1  2  2  0  0  0  0
  2  3  1  0  0  0  0
  3  4  1  0  0  0  0
  4  5  1  0  0  0  0
  5  6  1  0  0  0  0
  6  7  1  0  0  0  0
  7  8  2  0  0  0  0
M  END
>  <name>
O=[C;amide]CCCC[C;amide]=O

>  <apo>
2

>  <freq>
1

>  <freq0>
0

>  <freq1>
1

>  <freqA>
0.99887151

>  <a_count>
18

$$$$

  MOE2015           2D

  7  6  0  0  1  0  0  0  0  0999 V2000
    5.3550   -0.7920    0.0000 O   0  0  0  0  0  0  0  0  0  0  0  0
    4.0560   -1.5420    0.0000 C   0  0  0  0  0  0  0  0  0  0  0  0
    2.7570   -0.7920    0.0000 C   0  0  1  0  0  0  0  0  0  0  0  0
    2.7570    0.7080    0.0000 N   0  0  0  0  0  0  0  0  0  0  0  0
    1.4580   -1.5420    0.0000 C   0  0  0  0  0  0  0  0  0  0  0  0
    1.4580   -3.0420    0.0000 C   0  0  0  0  0  0  0  0  0  0  0  0
    0.1590   -0.7920    0.0000 C   0  0  0  0  0  0  0  0  0  0  0  0
  1  2  2  0  0  0  0
  2  3  1  0  0  0  0
  3  4  1  6  0  0  0
  3  5  1  0  0  0  0
  5  6  1  0  0  0  0
  5  7  1  0  0  0  0
M  END
>  <name>
O=[C;amide][C@@H]([N;urea])C(C)C

>  <apo>
2

>  <freq>
1

>  <freq0>
0

>  <freq1>
1

>  <freqA>
0.99887151

>  <a_count>
18

$$$$

  MOE2015           2D

  8  8  0  0  1  0  0  0  0  0999 V2000
    5.3440   -0.8120    0.0000 O   0  0  0  0  0  0  0  0  0  0  0  0
    4.5940   -2.1110    0.0000 C   0  0  0  0  0  0  0  0  0  0  0  0
    3.0940   -2.1110    0.0000 C   0  0  1  0  0  0  0  0  0  0  0  0
    2.3440   -3.4100    0.0000 N   0  0  0  0  0  0  0  0  0  0  0  0
    0.8440   -3.4100    0.0000 C   0  0  0  0  0  0  0  0  0  0  0  0
    0.0940   -2.1110    0.0000 C   0  0  0  0  0  0  0  0  0  0  0  0
    0.8440   -0.8120    0.0000 N   0  0  0  0  0  0  0  0  0  0  0  0
    2.3440   -0.8120    0.0000 C   0  0  0  0  0  0  0  0  0  0  0  0
  1  2  2  0  0  0  0
  3  2  1  1  0  0  0
  3  4  1  0  0  0  0
  3  8  1  0  0  0  0
  4  5  1  0  0  0  0
  5  6  1  0  0  0  0
  6  7  1  0  0  0  0
  7  8  1  0  0  0  0
M  END
>  <name>
O=[C;amide][C@H]1[N;amine]CC[N;amine]C1

>  <apo>
3

>  <freq>
1

>  <freq0>
0

>  <freq1>
1

>  <freqA>
0.99887151

>  <a_count>
18

$$$$

  MOE2015           2D

 10 10  0  0  0  0  0  0  0  0999 V2000
    6.5070    1.7440    0.0000 O   0  0  0  0  0  0  0  0  0  0  0  0
    5.2080    0.9940    0.0000 C   0  0  0  0  0  0  0  0  0  0  0  0
    3.9090    1.7440    0.0000 C   0  0  0  0  0  0  0  0  0  0  0  0
    2.6100    0.9940    0.0000 C   0  0  0  0  0  0  0  0  0  0  0  0
    2.6100   -0.5060    0.0000 C   0  0  0  0  0  0  0  0  0  0  0  0
    1.3110    1.7440    0.0000 C   0  0  0  0  0  0  0  0  0  0  0  0
    0.0120    0.9940    0.0000 O   0  0  0  0  0  0  0  0  0  0  0  0
    1.3110    3.2440    0.0000 C   0  0  0  0  0  0  0  0  0  0  0  0
    2.6100    3.9940    0.0000 C   0  0  0  0  0  0  0  0  0  0  0  0
    3.9090    3.2440    0.0000 C   0  0  0  0  0  0  0  0  0  0  0  0
  1  2  2  0  0  0  0
  2  3  1  0  0  0  0
  3  4  1  0  0  0  0
  3 10  2  0  0  0  0
  4  5  1  0  0  0  0
  4  6  2  0  0  0  0
  6  7  1  0  0  0  0
  6  8  1  0  0  0  0
  8  9  2  0  0  0  0
  9 10  1  0  0  0  0
M  END
>  <name>
O=[C;amide]c1c(C)c(O)ccc1

>  <apo>
1

>  <freq>
1

>  <freq0>
0

>  <freq1>
1

>  <freqA>
0.99887151

>  <a_count>
18

$$$$

  MOE2015           2D

 10 10  0  0  0  0  0  0  0  0999 V2000
   -0.7500   -1.2990    0.0000 O   0  0  0  0  0  0  0  0  0  0  0  0
    0.0000   -2.5980    0.0000 C   0  0  0  0  0  0  0  0  0  0  0  0
    1.5000   -2.5980    0.0000 C   0  0  0  0  0  0  0  0  0  0  0  0
    2.2500   -3.8970    0.0000 C   0  0  0  0  0  0  0  0  0  0  0  0
    3.7500   -3.8970    0.0000 C   0  0  0  0  0  0  0  0  0  0  0  0
    4.5000   -2.5980    0.0000 C   0  0  0  0  0  0  0  0  0  0  0  0
    6.0000   -2.5980    0.0000 O   0  0  0  0  0  0  0  0  0  0  0  0
    6.7500   -3.8970    0.0000 C   0  0  0  0  0  0  0  0  0  0  0  0
    3.7500   -1.2990    0.0000 C   0  0  0  0  0  0  0  0  0  0  0  0
    2.2500   -1.2990    0.0000 C   0  0  0  0  0  0  0  0  0  0  0  0
  1  2  2  0  0  0  0
  2  3  1  0  0  0  0
  3  4  1  0  0  0  0
  3 10  2  0  0  0  0
  4  5  2  0  0  0  0
  5  6  1  0  0  0  0
  6  7  1  0  0  0  0
  6  9  2  0  0  0  0
  7  8  1  0  0  0  0
  9 10  1  0  0  0  0
M  END
>  <name>
O=[C;amide]c1ccc(OC)cc1

>  <apo>
1

>  <freq>
1

>  <freq0>
0

>  <freq1>
1

>  <freqA>
0.99887151

>  <a_count>
18

$$$$

  MOE2015           2D

 10 10  0  0  1  0  0  0  0  0999 V2000
    7.4000    1.7430    0.0000 O   0  0  0  0  0  0  0  0  0  0  0  0
    6.0580    1.0730    0.0000 C   0  0  0  0  0  0  0  0  0  0  0  0
    4.8070    1.9010    0.0000 C   0  0  0  0  0  0  0  0  0  0  0  0
    4.7410    3.4000    0.0000 N   0  0  0  0  0  0  0  0  0  0  0  0
    3.2960    3.8010    0.0000 N   0  0  0  0  0  0  0  0  0  0  0  0
    2.4680    2.5500    0.0000 C   0  0  0  0  0  0  0  0  0  0  0  0
    0.9700    2.4840    0.0000 C   0  0  3  0  0  0  0  0  0  0  0  0
    0.1630    3.7490    0.0000 O   0  0  0  0  0  0  0  0  0  0  0  0
    0.2770    1.1530    0.0000 C   0  0  0  0  0  0  0  0  0  0  0  0
    3.4020    1.3760    0.0000 C   0  0  0  0  0  0  0  0  0  0  0  0
  1  2  2  0  0  0  0
  2  3  1  0  0  0  0
  3  4  2  0  0  0  0
  3 10  1  0  0  0  0
  4  5  1  0  0  0  0
  5  6  1  0  0  0  0
  6  7  1  0  0  0  0
  6 10  2  0  0  0  0
  7  8  1  0  0  0  0
  7  9  1  0  0  0  0
M  END
>  <name>
O=[C;amide]c1n[nH]c(C(O)C)c1

>  <apo>
1

>  <freq>
1

>  <freq0>
0

>  <freq1>
1

>  <freqA>
0.99887151

>  <a_count>
18

$$$$

  MOE2015           2D

  8  7  0  0  0  0  0  0  0  0999 V2000
    0.9510    0.9510    0.0000 O   0  0  0  0  0  0  0  0  0  0  0  0
    0.9510   -0.5490    0.0000 C   0  0  0  0  0  0  0  0  0  0  0  0
    2.2500   -1.2990    0.0000 C   0  0  0  0  0  0  0  0  0  0  0  0
    3.5490   -2.0490    0.0000 C   0  0  0  0  0  0  0  0  0  0  0  0
    4.8480   -1.2990    0.0000 O   0  0  0  0  0  0  0  0  0  0  0  0
    1.5000   -2.5980    0.0000 C   0  0  0  0  0  0  0  0  0  0  0  0
    0.0000   -2.5980    0.0000 O   0  0  0  0  0  0  0  0  0  0  0  0
    3.0000    0.0000    0.0000 C   0  0  0  0  0  0  0  0  0  0  0  0
  1  2  2  0  0  0  0
  2  3  1  0  0  0  0
  3  4  1  0  0  0  0
  3  6  1  0  0  0  0
  3  8  1  0  0  0  0
  4  5  1  0  0  0  0
  6  7  1  0  0  0  0
M  END
>  <name>
O=[C;ester]C(CO)(CO)C

>  <apo>
1

>  <freq>
1

>  <freq0>
0

>  <freq1>
1

>  <freqA>
0.99887151

>  <a_count>
18

$$$$

  MOE2015           2D

  7  6  0  0  1  0  0  0  0  0999 V2000
    5.3550   -0.7920    0.0000 O   0  0  0  0  0  0  0  0  0  0  0  0
    4.0560   -1.5420    0.0000 C   0  0  0  0  0  0  0  0  0  0  0  0
    2.7570   -0.7920    0.0000 C   0  0  1  0  0  0  0  0  0  0  0  0
    2.7570    0.7080    0.0000 N   0  0  0  0  0  0  0  0  0  0  0  0
    1.4580   -1.5420    0.0000 C   0  0  0  0  0  0  0  0  0  0  0  0
    1.4580   -3.0420    0.0000 C   0  0  0  0  0  0  0  0  0  0  0  0
    0.1590   -0.7920    0.0000 C   0  0  0  0  0  0  0  0  0  0  0  0
  1  2  2  0  0  0  0
  2  3  1  0  0  0  0
  3  4  1  6  0  0  0
  3  5  1  0  0  0  0
  5  6  1  0  0  0  0
  5  7  1  0  0  0  0
M  END
>  <name>
O=[C;ester][C@@H]([N;amide])C(C)C

>  <apo>
2

>  <freq>
1

>  <freq0>
0

>  <freq1>
1

>  <freqA>
0.99887151

>  <a_count>
18

$$$$

  MOE2015           2D

  9  8  0  0  0  0  0  0  0  0999 V2000
   -0.2690    1.0040    0.0000 O   0  0  0  0  0  0  0  0  0  0  0  0
    1.0300    1.7540    0.0000 N   0  3  0  0  0  0  0  0  0  0  0  0
    2.3290    1.0040    0.0000 O   0  0  0  0  0  0  0  0  0  0  0  0
    3.6280    1.7540    0.0000 C   0  0  0  0  0  0  0  0  0  0  0  0
    4.9270    1.0040    0.0000 C   0  0  0  0  0  0  0  0  0  0  0  0
    6.2260    1.7540    0.0000 C   0  0  0  0  0  0  0  0  0  0  0  0
    7.5250    1.0040    0.0000 C   0  0  0  0  0  0  0  0  0  0  0  0
    8.8240    1.7540    0.0000 O   0  0  0  0  0  0  0  0  0  0  0  0
    1.0300    3.2540    0.0000 O   0  5  0  0  0  0  0  0  0  0  0  0
  1  2  2  0  0  0  0
  2  3  1  0  0  0  0
  2  9  1  0  0  0  0
  3  4  1  0  0  0  0
  4  5  1  0  0  0  0
  5  6  1  0  0  0  0
  6  7  1  0  0  0  0
  7  8  1  0  0  0  0
M  CHG  1   2   1
M  CHG  1   9  -1
M  END
>  <name>
O=[N+](OCCCC[O;ester])[O-]

>  <apo>
1

>  <freq>
1

>  <freq0>
0

>  <freq1>
1

>  <freqA>
0.99887151

>  <a_count>
18

$$$$

  MOE2015           2D

  6  5  0  0  0  0  0  0  0  0999 V2000
    1.5000    1.5000    0.0000 O   0  0  0  0  0  0  0  0  0  0  0  0
    1.5000    0.0000    0.0000 C   0  0  0  0  0  0  0  0  0  0  0  0
    2.7990   -0.7500    0.0000 C   0  0  0  0  0  0  0  0  0  0  0  0
    4.0980    0.0000    0.0000 C   0  0  0  0  0  0  0  0  0  0  0  0
    0.2010   -0.7500    0.0000 C   0  0  0  0  0  0  0  0  0  0  0  0
   -1.0980    0.0000    0.0000 C   0  0  0  0  0  0  0  0  0  0  0  0
  1  2  1  0  0  0  0
  2  3  1  0  0  0  0
  2  5  1  0  0  0  0
  3  4  1  0  0  0  0
  5  6  1  0  0  0  0
M  END
>  <name>
OC(C[C;olefin])[C;olefin]C

>  <apo>
2

>  <freq>
1

>  <freq0>
0

>  <freq1>
1

>  <freqA>
0.99887151

>  <a_count>
18

$$$$

  MOE2015           2D

  7  7  0  0  0  0  0  0  0  0999 V2000
    5.1430    0.0000    0.0000 O   0  0  0  0  0  0  0  0  0  0  0  0
    3.6430    0.0000    0.0000 C   0  0  0  0  0  0  0  0  0  0  0  0
    2.8930    1.2990    0.0000 C   0  0  0  0  0  0  0  0  0  0  0  0
    1.3930    1.2990    0.0000 C   0  0  0  0  0  0  0  0  0  0  0  0
    0.6430    0.0000    0.0000 N   0  0  0  0  0  0  0  0  0  0  0  0
    1.3930   -1.2990    0.0000 C   0  0  0  0  0  0  0  0  0  0  0  0
    2.8930   -1.2990    0.0000 C   0  0  0  0  0  0  0  0  0  0  0  0
  1  2  1  0  0  0  0
  2  3  1  0  0  0  0
  2  7  1  0  0  0  0
  3  4  1  0  0  0  0
  4  5  1  0  0  0  0
  5  6  1  0  0  0  0
  6  7  1  0  0  0  0
M  END
>  <name>
OC1CC[N;amine]CC1

>  <apo>
1

>  <freq>
1

>  <freq0>
0

>  <freq1>
1

>  <freqA>
0.99887151

>  <a_count>
18

$$$$

  MOE2015           2D

  9  8  0  0  0  0  0  0  0  0999 V2000
    0.0000    0.0000    0.0000 P   0  0  0  0  0  0  0  0  0  0  0  0
    0.7500    1.2990    0.0000 O   0  0  0  0  0  0  0  0  0  0  0  0
    1.2990   -0.7500    0.0000 O   0  0  0  0  0  0  0  0  0  0  0  0
    2.5980    0.0000    0.0000 C   0  0  0  0  0  0  0  0  0  0  0  0
    3.8970   -0.7500    0.0000 O   0  0  0  0  0  0  0  0  0  0  0  0
   -1.2990    0.7500    0.0000 O   0  0  0  0  0  0  0  0  0  0  0  0
   -2.5980    0.0000    0.0000 C   0  0  0  0  0  0  0  0  0  0  0  0
   -3.8970    0.7500    0.0000 O   0  0  0  0  0  0  0  0  0  0  0  0
   -0.7500   -1.2990    0.0000 C   0  0  0  0  0  0  0  0  0  0  0  0
  1  2  2  0  0  0  0
  1  3  1  0  0  0  0
  1  6  1  0  0  0  0
  1  9  1  0  0  0  0
  3  4  1  0  0  0  0
  4  5  1  0  0  0  0
  6  7  1  0  0  0  0
  7  8  1  0  0  0  0
M  END
>  <name>
P(=O)(OC[O;ester])(OC[O;ester])[C;ether]

>  <apo>
3

>  <freq>
1

>  <freq0>
0

>  <freq1>
1

>  <freqA>
0.99887151

>  <a_count>
18

$$$$

  MOE2015           2D

 10 10  0  0  0  0  0  0  0  0999 V2000
    1.6500   -1.6500    0.0000 S   0  0  0  0  0  0  0  0  0  0  0  0
    1.6500   -0.1500    0.0000 O   0  0  0  0  0  0  0  0  0  0  0  0
    1.6500   -3.1500    0.0000 O   0  0  0  0  0  0  0  0  0  0  0  0
    3.1500   -1.6500    0.0000 C   0  0  0  0  0  0  0  0  0  0  0  0
    0.1500   -1.6500    0.0000 C   0  0  0  0  0  0  0  0  0  0  0  0
   -0.6000   -0.3510    0.0000 C   0  0  0  0  0  0  0  0  0  0  0  0
   -2.1000   -0.3510    0.0000 C   0  0  0  0  0  0  0  0  0  0  0  0
   -2.8500   -1.6500    0.0000 C   0  0  0  0  0  0  0  0  0  0  0  0
   -2.1000   -2.9490    0.0000 C   0  0  0  0  0  0  0  0  0  0  0  0
   -0.6000   -2.9490    0.0000 C   0  0  0  0  0  0  0  0  0  0  0  0
  1  2  2  0  0  0  0
  1  3  2  0  0  0  0
  1  4  1  0  0  0  0
  1  5  1  0  0  0  0
  5  6  1  0  0  0  0
  5 10  2  0  0  0  0
  6  7  2  0  0  0  0
  7  8  1  0  0  0  0
  8  9  2  0  0  0  0
  9 10  1  0  0  0  0
M  END
>  <name>
S(=O)(=O)(C)c1cc[c;biphenyl]cc1

>  <apo>
1

>  <freq>
1

>  <freq0>
0

>  <freq1>
1

>  <freqA>
0.99887151

>  <a_count>
18

$$$$

  MOE2015           2D

  9  8  0  0  0  0  0  0  0  0999 V2000
   -0.7220    1.2500    0.0000 S   0  0  0  0  0  0  0  0  0  0  0  0
    0.0280    2.5490    0.0000 O   0  0  0  0  0  0  0  0  0  0  0  0
   -1.4720   -0.0490    0.0000 O   0  0  0  0  0  0  0  0  0  0  0  0
    0.5770    0.5000    0.0000 N   0  0  0  0  0  0  0  0  0  0  0  0
    1.8760    1.2500    0.0000 C   0  0  0  0  0  0  0  0  0  0  0  0
    1.8760    2.7500    0.0000 N   0  0  0  0  0  0  0  0  0  0  0  0
    3.1750    0.5000    0.0000 C   0  0  0  0  0  0  0  0  0  0  0  0
    4.4740    1.2500    0.0000 C   0  0  0  0  0  0  0  0  0  0  0  0
   -2.0210    2.0000    0.0000 N   0  0  0  0  0  0  0  0  0  0  0  0
  1  2  2  0  0  0  0
  1  3  2  0  0  0  0
  1  4  1  0  0  0  0
  1  9  1  0  0  0  0
  4  5  2  0  0  0  0
  5  6  1  0  0  0  0
  5  7  1  0  0  0  0
  7  8  1  0  0  0  0
M  END
>  <name>
S(=O)(=O)(N=C(N)C[C;thioether])N

>  <apo>
1

>  <freq>
1

>  <freq0>
0

>  <freq1>
1

>  <freqA>
0.99887151

>  <a_count>
18

$$$$

  MOE2015           2D

 12 12  0  0  0  0  0  0  0  0999 V2000
   -1.7320   -3.0000    0.0000 S   0  0  0  0  0  0  0  0  0  0  0  0
   -0.9820   -4.2990    0.0000 O   0  0  0  0  0  0  0  0  0  0  0  0
   -2.4820   -1.7010    0.0000 O   0  0  0  0  0  0  0  0  0  0  0  0
   -3.0310   -3.7500    0.0000 O   0  0  0  0  0  0  0  0  0  0  0  0
   -0.4330   -2.2500    0.0000 C   0  0  0  0  0  0  0  0  0  0  0  0
    0.8660   -3.0000    0.0000 C   0  0  0  0  0  0  0  0  0  0  0  0
    2.1650   -2.2500    0.0000 C   0  0  0  0  0  0  0  0  0  0  0  0
    3.4640   -3.0000    0.0000 C   0  0  0  0  0  0  0  0  0  0  0  0
    4.7630   -2.2500    0.0000 O   0  0  0  0  0  0  0  0  0  0  0  0
    2.1650   -0.7500    0.0000 C   0  0  0  0  0  0  0  0  0  0  0  0
    0.8660    0.0000    0.0000 C   0  0  0  0  0  0  0  0  0  0  0  0
   -0.4330   -0.7500    0.0000 C   0  0  0  0  0  0  0  0  0  0  0  0
  1  2  2  0  0  0  0
  1  3  2  0  0  0  0
  1  4  1  0  0  0  0
  1  5  1  0  0  0  0
  5  6  1  0  0  0  0
  5 12  2  0  0  0  0
  6  7  2  0  0  0  0
  7  8  1  0  0  0  0
  7 10  1  0  0  0  0
  8  9  2  0  0  0  0
 10 11  2  0  0  0  0
 11 12  1  0  0  0  0
M  END
>  <name>
S(=O)(=O)(O)c1cc([C;ester]=O)ccc1

>  <apo>
1

>  <freq>
1

>  <freq0>
0

>  <freq1>
1

>  <freqA>
0.99887151

>  <a_count>
18

$$$$

  MOE2015           2D

 11 11  0  0  1  0  0  0  0  0999 V2000
    1.7260    1.7260    0.0000 S   0  0  0  0  0  0  0  0  0  0  0  0
    1.7260    3.2260    0.0000 O   0  0  0  0  0  0  0  0  0  0  0  0
    1.7260    0.2260    0.0000 O   0  0  0  0  0  0  0  0  0  0  0  0
    3.2260    1.7260    0.0000 O   0  5  0  0  0  0  0  0  0  0  0  0
    0.2260    1.7260    0.0000 N   0  0  0  0  0  0  0  0  0  0  0  0
   -0.8350    0.6650    0.0000 C   0  0  1  0  0  0  0  0  0  0  0  0
   -0.8350   -0.8350    0.0000 C   0  0  0  0  0  0  0  0  0  0  0  0
   -1.8950    1.7260    0.0000 C   0  0  2  0  0  0  0  0  0  0  0  0
   -3.3950    1.7260    0.0000 N   0  0  0  0  0  0  0  0  0  0  0  0
   -0.8350    2.7870    0.0000 C   0  0  0  0  0  0  0  0  0  0  0  0
   -0.8350    4.2870    0.0000 O   0  0  0  0  0  0  0  0  0  0  0  0
  1  2  2  0  0  0  0
  1  3  2  0  0  0  0
  1  4  1  0  0  0  0
  1  5  1  0  0  0  0
  5  6  1  0  0  0  0
  5 10  1  0  0  0  0
  6  7  1  1  0  0  0
  6  8  1  0  0  0  0
  8  9  1  6  0  0  0
  8 10  1  0  0  0  0
 10 11  2  0  0  0  0
M  CHG  1   4  -1
M  END
>  <name>
S(=O)(=O)([O-])N1[C@@H](C)[C@H]([N;amide])C1=O

>  <apo>
1

>  <freq>
1

>  <freq0>
0

>  <freq1>
1

>  <freqA>
0.99887151

>  <a_count>
18

$$$$

  MOE2015           2D

  8  8  0  0  0  0  0  0  0  0999 V2000
    1.2190    1.7860    0.0000 C   0  0  0  0  0  0  0  0  0  0  0  0
    1.9690    3.0850    0.0000 C   0  0  0  0  0  0  0  0  0  0  0  0
   -0.2810    1.7860    0.0000 C   0  0  0  0  0  0  0  0  0  0  0  0
   -1.0310    0.4870    0.0000 C   0  0  0  0  0  0  0  0  0  0  0  0
   -2.5310    0.4870    0.0000 C   0  0  0  0  0  0  0  0  0  0  0  0
   -3.2810    1.7860    0.0000 C   0  0  0  0  0  0  0  0  0  0  0  0
   -2.5310    3.0850    0.0000 C   0  0  0  0  0  0  0  0  0  0  0  0
   -1.0310    3.0850    0.0000 C   0  0  0  0  0  0  0  0  0  0  0  0
  1  2  1  0  0  0  0
  1  3  1  0  0  0  0
  3  4  1  0  0  0  0
  3  8  2  0  0  0  0
  4  5  2  0  0  0  0
  5  6  1  0  0  0  0
  6  7  2  0  0  0  0
  7  8  1  0  0  0  0
M  END
>  <name>
[C;NaroC](C)c1ccccc1

>  <apo>
1

>  <freq>
1

>  <freq0>
0

>  <freq1>
1

>  <freqA>
0.99887151

>  <a_count>
18

$$$$

  MOE2015           2D

  6  6  0  0  0  0  0  0  0  0999 V2000
   -2.0490    2.0490    0.0000 C   0  0  0  0  0  0  0  0  0  0  0  0
   -2.0490    0.5490    0.0000 C   0  0  0  0  0  0  0  0  0  0  0  0
   -0.7500   -0.2010    0.0000 C   0  0  0  0  0  0  0  0  0  0  0  0
    0.5490    0.5490    0.0000 C   0  0  0  0  0  0  0  0  0  0  0  0
    0.5490    2.0490    0.0000 C   0  0  0  0  0  0  0  0  0  0  0  0
   -0.7500    2.7990    0.0000 C   0  0  0  0  0  0  0  0  0  0  0  0
  1  2  1  0  0  0  0
  1  6  1  0  0  0  0
  2  3  1  0  0  0  0
  3  4  1  0  0  0  0
  4  5  1  0  0  0  0
  5  6  1  0  0  0  0
M  END
>  <name>
[C;NaroC]1CCCCC1

>  <apo>
1

>  <freq>
1

>  <freq0>
0

>  <freq1>
1

>  <freqA>
0.99887151

>  <a_count>
18

$$$$

  MOE2015           2D

  8  8  0  0  0  0  0  0  0  0999 V2000
    5.4110   -0.8000    0.0000 C   0  0  0  0  0  0  0  0  0  0  0  0
    4.1120   -0.0500    0.0000 C   0  0  0  0  0  0  0  0  0  0  0  0
    2.8120   -0.8000    0.0000 C   0  0  0  0  0  0  0  0  0  0  0  0
    1.5130   -0.0500    0.0000 C   0  0  0  0  0  0  0  0  0  0  0  0
    0.2140   -0.8000    0.0000 C   0  0  0  0  0  0  0  0  0  0  0  0
    1.5130    1.4500    0.0000 C   0  0  0  0  0  0  0  0  0  0  0  0
    2.8120    2.2000    0.0000 C   0  0  0  0  0  0  0  0  0  0  0  0
    4.1120    1.4500    0.0000 C   0  0  0  0  0  0  0  0  0  0  0  0
  1  2  1  0  0  0  0
  2  3  1  0  0  0  0
  2  8  2  0  0  0  0
  3  4  2  0  0  0  0
  4  5  1  0  0  0  0
  4  6  1  0  0  0  0
  6  7  2  0  0  0  0
  7  8  1  0  0  0  0
M  END
>  <name>
[C;amine]c1cc(C)ccc1

>  <apo>
1

>  <freq>
1

>  <freq0>
0

>  <freq1>
1

>  <freqA>
0.99887151

>  <a_count>
18

$$$$

  MOE2015           2D

  8  8  0  0  0  0  0  0  0  0999 V2000
    0.0000    0.0000    0.0000 C   0  0  0  0  0  0  0  0  0  0  0  0
    1.5000    0.0000    0.0000 C   0  0  0  0  0  0  0  0  0  0  0  0
    2.2500   -1.2990    0.0000 C   0  0  0  0  0  0  0  0  0  0  0  0
    3.7500   -1.2990    0.0000 C   0  0  0  0  0  0  0  0  0  0  0  0
    4.5000    0.0000    0.0000 C   0  0  0  0  0  0  0  0  0  0  0  0
    6.0000    0.0000    0.0000 C   0  0  0  0  0  0  0  0  0  0  0  0
    3.7500    1.2990    0.0000 C   0  0  0  0  0  0  0  0  0  0  0  0
    2.2500    1.2990    0.0000 C   0  0  0  0  0  0  0  0  0  0  0  0
  1  2  1  0  0  0  0
  2  3  1  0  0  0  0
  2  8  2  0  0  0  0
  3  4  2  0  0  0  0
  4  5  1  0  0  0  0
  5  6  1  0  0  0  0
  5  7  2  0  0  0  0
  7  8  1  0  0  0  0
M  END
>  <name>
[C;amine]c1ccc([C;amine])cc1

>  <apo>
2

>  <freq>
1

>  <freq0>
0

>  <freq1>
1

>  <freqA>
0.99887151

>  <a_count>
18

$$$$

  MOE2015           2D

  6  6  0  0  0  0  0  0  0  0999 V2000
   -2.0490    2.0490    0.0000 C   0  0  0  0  0  0  0  0  0  0  0  0
   -2.0490    0.5490    0.0000 C   0  0  0  0  0  0  0  0  0  0  0  0
   -0.7500   -0.2010    0.0000 C   0  0  0  0  0  0  0  0  0  0  0  0
    0.5490    0.5490    0.0000 C   0  0  0  0  0  0  0  0  0  0  0  0
    0.5490    2.0490    0.0000 C   0  0  0  0  0  0  0  0  0  0  0  0
   -0.7500    2.7990    0.0000 C   0  0  0  0  0  0  0  0  0  0  0  0
  1  2  1  0  0  0  0
  1  6  1  0  0  0  0
  2  3  1  0  0  0  0
  3  4  1  0  0  0  0
  4  5  1  0  0  0  0
  5  6  1  0  0  0  0
M  END
>  <name>
[C;ether]1CCCC[C;amine]1

>  <apo>
2

>  <freq>
1

>  <freq0>
0

>  <freq1>
1

>  <freqA>
0.99887151

>  <a_count>
18

$$$$

  MOE2015           2D

  8  8  0  0  0  0  0  0  0  0999 V2000
    0.0000    0.0000    0.0000 C   0  0  0  0  0  0  0  0  0  0  0  0
    1.5000    0.0000    0.0000 C   0  0  0  0  0  0  0  0  0  0  0  0
    2.2500   -1.2990    0.0000 C   0  0  0  0  0  0  0  0  0  0  0  0
    3.7500   -1.2990    0.0000 C   0  0  0  0  0  0  0  0  0  0  0  0
    4.5000    0.0000    0.0000 C   0  0  0  0  0  0  0  0  0  0  0  0
    6.0000    0.0000    0.0000 C   0  0  0  0  0  0  0  0  0  0  0  0
    3.7500    1.2990    0.0000 C   0  0  0  0  0  0  0  0  0  0  0  0
    2.2500    1.2990    0.0000 C   0  0  0  0  0  0  0  0  0  0  0  0
  1  2  1  0  0  0  0
  2  3  1  0  0  0  0
  2  8  2  0  0  0  0
  3  4  2  0  0  0  0
  4  5  1  0  0  0  0
  5  6  1  0  0  0  0
  5  7  2  0  0  0  0
  7  8  1  0  0  0  0
M  END
>  <name>
[C;ether]c1ccc([C;quatN])cc1

>  <apo>
2

>  <freq>
1

>  <freq0>
0

>  <freq1>
1

>  <freqA>
0.99887151

>  <a_count>
18

$$$$

  MOE2015           2D

 10 11  0  0  0  0  0  0  0  0999 V2000
    6.7290   -0.8970    0.0000 C   0  0  0  0  0  0  0  0  0  0  0  0
    5.4300   -0.1470    0.0000 C   0  0  0  0  0  0  0  0  0  0  0  0
    4.1310   -0.8970    0.0000 C   0  0  0  0  0  0  0  0  0  0  0  0
    2.8320   -0.1470    0.0000 C   0  0  0  0  0  0  0  0  0  0  0  0
    1.4050   -0.6110    0.0000 O   0  0  0  0  0  0  0  0  0  0  0  0
    0.5230    0.6030    0.0000 C   0  0  0  0  0  0  0  0  0  0  0  0
    1.4050    1.8160    0.0000 O   0  0  0  0  0  0  0  0  0  0  0  0
    2.8320    1.3530    0.0000 C   0  0  0  0  0  0  0  0  0  0  0  0
    4.1310    2.1030    0.0000 C   0  0  0  0  0  0  0  0  0  0  0  0
    5.4300    1.3530    0.0000 C   0  0  0  0  0  0  0  0  0  0  0  0
  1  2  1  0  0  0  0
  2  3  1  0  0  0  0
  2 10  2  0  0  0  0
  3  4  2  0  0  0  0
  4  5  1  0  0  0  0
  4  8  1  0  0  0  0
  5  6  1  0  0  0  0
  6  7  1  0  0  0  0
  7  8  1  0  0  0  0
  8  9  2  0  0  0  0
  9 10  1  0  0  0  0
M  END
>  <name>
[C;olefin]c1cc2OCOc2cc1

>  <apo>
1

>  <freq>
1

>  <freq0>
0

>  <freq1>
1

>  <freqA>
0.99887151

>  <a_count>
18

$$$$

  MOE2015           2D

  8  8  0  0  0  0  0  0  0  0999 V2000
    0.0000    0.0000    0.0000 C   0  0  0  0  0  0  0  0  0  0  0  0
    1.5000    0.0000    0.0000 C   0  0  0  0  0  0  0  0  0  0  0  0
    2.2500   -1.2990    0.0000 C   0  0  0  0  0  0  0  0  0  0  0  0
    3.7500   -1.2990    0.0000 C   0  0  0  0  0  0  0  0  0  0  0  0
    4.5000    0.0000    0.0000 C   0  0  0  0  0  0  0  0  0  0  0  0
    6.0000    0.0000    0.0000 C   0  0  0  0  0  0  0  0  0  0  0  0
    3.7500    1.2990    0.0000 C   0  0  0  0  0  0  0  0  0  0  0  0
    2.2500    1.2990    0.0000 C   0  0  0  0  0  0  0  0  0  0  0  0
  1  2  1  0  0  0  0
  2  3  1  0  0  0  0
  2  8  2  0  0  0  0
  3  4  2  0  0  0  0
  4  5  1  0  0  0  0
  5  6  1  0  0  0  0
  5  7  2  0  0  0  0
  7  8  1  0  0  0  0
M  END
>  <name>
[C;olefin]c1ccc(C)cc1

>  <apo>
1

>  <freq>
1

>  <freq0>
0

>  <freq1>
1

>  <freqA>
0.99887151

>  <a_count>
18

$$$$

  MOE2015           2D

  8  8  0  0  0  0  0  0  0  0999 V2000
    0.0000    0.0000    0.0000 C   0  0  0  0  0  0  0  0  0  0  0  0
    1.5000    0.0000    0.0000 C   0  0  0  0  0  0  0  0  0  0  0  0
    2.2500   -1.2990    0.0000 C   0  0  0  0  0  0  0  0  0  0  0  0
    3.7500   -1.2990    0.0000 C   0  0  0  0  0  0  0  0  0  0  0  0
    4.5000    0.0000    0.0000 C   0  0  0  0  0  0  0  0  0  0  0  0
    6.0000    0.0000    0.0000 C   0  0  0  0  0  0  0  0  0  0  0  0
    3.7500    1.2990    0.0000 C   0  0  0  0  0  0  0  0  0  0  0  0
    2.2500    1.2990    0.0000 C   0  0  0  0  0  0  0  0  0  0  0  0
  1  2  1  0  0  0  0
  2  3  1  0  0  0  0
  2  8  2  0  0  0  0
  3  4  2  0  0  0  0
  4  5  1  0  0  0  0
  5  6  1  0  0  0  0
  5  7  2  0  0  0  0
  7  8  1  0  0  0  0
M  END
>  <name>
[C;olefin]c1ccc([C;amine])cc1

>  <apo>
2

>  <freq>
1

>  <freq0>
0

>  <freq1>
1

>  <freqA>
0.99887151

>  <a_count>
18

$$$$

  MOE2015           2D

  8  8  0  0  0  0  0  0  0  0999 V2000
    0.0000    0.0000    0.0000 C   0  0  0  0  0  0  0  0  0  0  0  0
    1.5000    0.0000    0.0000 C   0  0  0  0  0  0  0  0  0  0  0  0
    2.2500   -1.2990    0.0000 C   0  0  0  0  0  0  0  0  0  0  0  0
    3.7500   -1.2990    0.0000 C   0  0  0  0  0  0  0  0  0  0  0  0
    4.5000    0.0000    0.0000 C   0  0  0  0  0  0  0  0  0  0  0  0
    6.0000    0.0000    0.0000 C   0  0  0  0  0  0  0  0  0  0  0  0
    3.7500    1.2990    0.0000 C   0  0  0  0  0  0  0  0  0  0  0  0
    2.2500    1.2990    0.0000 C   0  0  0  0  0  0  0  0  0  0  0  0
  1  2  1  0  0  0  0
  2  3  1  0  0  0  0
  2  8  2  0  0  0  0
  3  4  2  0  0  0  0
  4  5  1  0  0  0  0
  5  6  1  0  0  0  0
  5  7  2  0  0  0  0
  7  8  1  0  0  0  0
M  END
>  <name>
[C;olefin]c1ccc([C;olefin])cc1

>  <apo>
2

>  <freq>
1

>  <freq0>
0

>  <freq1>
1

>  <freqA>
0.99887151

>  <a_count>
18

$$$$

  MOE2015           2D

  6  6  0  0  0  0  0  0  0  0999 V2000
   -2.0490    2.0490    0.0000 N   0  3  0  0  0  0  0  0  0  0  0  0
   -2.0490    0.5490    0.0000 C   0  0  0  0  0  0  0  0  0  0  0  0
   -0.7500   -0.2010    0.0000 C   0  0  0  0  0  0  0  0  0  0  0  0
    0.5490    0.5490    0.0000 C   0  0  0  0  0  0  0  0  0  0  0  0
    0.5490    2.0490    0.0000 C   0  0  0  0  0  0  0  0  0  0  0  0
   -0.7500    2.7990    0.0000 C   0  0  0  0  0  0  0  0  0  0  0  0
  1  2  1  0  0  0  0
  1  6  1  0  0  0  0
  2  3  1  0  0  0  0
  3  4  1  0  0  0  0
  4  5  1  0  0  0  0
  5  6  1  0  0  0  0
M  CHG  1   1   1
M  END
>  <name>
[N+;quatN]1CCCCC1

>  <apo>
1

>  <freq>
1

>  <freq0>
0

>  <freq1>
1

>  <freqA>
0.99887151

>  <a_count>
18

$$$$

  MOE2015           2D

  9  9  0  0  0  0  0  0  0  0999 V2000
    2.8760    0.1240    0.0000 N   0  0  0  0  0  0  0  0  0  0  0  0
    2.8760   -1.3760    0.0000 C   0  0  0  0  0  0  0  0  0  0  0  0
    2.8760   -2.8760    0.0000 C   0  0  0  0  0  0  0  0  0  0  0  0
    4.3760   -1.3760    0.0000 C   0  0  0  0  0  0  0  0  0  0  0  0
    1.3760   -1.3760    0.0000 C   0  0  0  0  0  0  0  0  0  0  0  0
    0.4940   -2.5890    0.0000 O   0  0  0  0  0  0  0  0  0  0  0  0
   -0.9330   -2.1260    0.0000 N   0  0  0  0  0  0  0  0  0  0  0  0
   -0.9330   -0.6260    0.0000 C   0  0  0  0  0  0  0  0  0  0  0  0
    0.4940   -0.1620    0.0000 N   0  0  0  0  0  0  0  0  0  0  0  0
  1  2  1  0  0  0  0
  2  3  1  0  0  0  0
  2  4  1  0  0  0  0
  2  5  1  0  0  0  0
  5  6  1  0  0  0  0
  5  9  2  0  0  0  0
  6  7  1  0  0  0  0
  7  8  2  0  0  0  0
  8  9  1  0  0  0  0
M  END
>  <name>
[N;amide]C(C)(C)c1on[c;biphenyl]n1

>  <apo>
2

>  <freq>
1

>  <freq0>
0

>  <freq1>
1

>  <freqA>
0.99887151

>  <a_count>
18

$$$$

  MOE2015           2D

  9  9  0  0  0  0  0  0  0  0999 V2000
    5.5980   -1.5000    0.0000 N   0  0  0  0  0  0  0  0  0  0  0  0
    4.2990   -0.7500    0.0000 C   0  0  0  0  0  0  0  0  0  0  0  0
    4.2990    0.7500    0.0000 N   0  0  0  0  0  0  0  0  0  0  0  0
    3.0000    1.5000    0.0000 C   0  0  0  0  0  0  0  0  0  0  0  0
    3.0000    3.0000    0.0000 C   0  0  0  0  0  0  0  0  0  0  0  0
    1.7010    0.7500    0.0000 C   0  0  0  0  0  0  0  0  0  0  0  0
    1.7010   -0.7500    0.0000 C   0  0  0  0  0  0  0  0  0  0  0  0
    0.4020   -1.5000    0.0000 C   0  0  0  0  0  0  0  0  0  0  0  0
    3.0000   -1.5000    0.0000 N   0  0  0  0  0  0  0  0  0  0  0  0
  1  2  1  0  0  0  0
  2  3  1  0  0  0  0
  2  9  2  0  0  0  0
  3  4  2  0  0  0  0
  4  5  1  0  0  0  0
  4  6  1  0  0  0  0
  6  7  2  0  0  0  0
  7  8  1  0  0  0  0
  7  9  1  0  0  0  0
M  END
>  <name>
[N;so2amide]c1nc(C)cc(C)n1

>  <apo>
1

>  <freq>
1

>  <freq0>
0

>  <freq1>
1

>  <freqA>
0.99887151

>  <a_count>
18

$$$$

  MOE2015           2D

  6  5  0  0  0  0  0  0  0  0999 V2000
    6.2480   -0.9240    0.0000 N   0  0  0  0  0  0  0  0  0  0  0  0
    4.9490   -1.6740    0.0000 C   0  0  0  0  0  0  0  0  0  0  0  0
    3.6500   -0.9240    0.0000 C   0  0  0  0  0  0  0  0  0  0  0  0
    2.3500   -1.6740    0.0000 C   0  0  0  0  0  0  0  0  0  0  0  0
    1.0510   -0.9240    0.0000 C   0  0  0  0  0  0  0  0  0  0  0  0
   -0.2480   -1.6740    0.0000 N   0  0  0  0  0  0  0  0  0  0  0  0
  1  2  1  0  0  0  0
  2  3  1  0  0  0  0
  3  4  1  0  0  0  0
  4  5  1  0  0  0  0
  5  6  1  0  0  0  0
M  END
>  <name>
[N;urea]CCCC[N;urea]

>  <apo>
2

>  <freq>
1

>  <freq0>
0

>  <freq1>
1

>  <freqA>
0.99887151

>  <a_count>
18

$$$$

  MOE2015           2D

  6  5  0  0  0  0  0  0  0  0999 V2000
    1.6000    1.6740    0.0000 O   0  0  0  0  0  0  0  0  0  0  0  0
    0.8500    0.3750    0.0000 C   0  0  0  0  0  0  0  0  0  0  0  0
    2.1500   -0.3750    0.0000 C   0  0  0  0  0  0  0  0  0  0  0  0
    3.4490    0.3750    0.0000 C   0  0  0  0  0  0  0  0  0  0  0  0
    0.1000   -0.9240    0.0000 C   0  0  0  0  0  0  0  0  0  0  0  0
   -0.4490    1.1250    0.0000 C   0  0  0  0  0  0  0  0  0  0  0  0
  1  2  1  0  0  0  0
  2  3  1  0  0  0  0
  2  5  1  0  0  0  0
  2  6  1  0  0  0  0
  3  4  1  0  0  0  0
M  END
>  <name>
[O;ester]C(CC)([C;amine])C

>  <apo>
2

>  <freq>
1

>  <freq0>
0

>  <freq1>
1

>  <freqA>
0.99887151

>  <a_count>
18

$$$$

  MOE2015           2D

  6  5  0  0  0  0  0  0  0  0999 V2000
    5.5650   -1.4910    0.0000 O   0  0  0  0  0  0  0  0  0  0  0  0
    4.2660   -0.7410    0.0000 C   0  0  0  0  0  0  0  0  0  0  0  0
    2.9670   -1.4910    0.0000 C   0  0  0  0  0  0  0  0  0  0  0  0
    1.6670   -0.7410    0.0000 C   0  0  0  0  0  0  0  0  0  0  0  0
    0.3680   -1.4910    0.0000 C   0  0  0  0  0  0  0  0  0  0  0  0
    1.6670    0.7590    0.0000 C   0  0  0  0  0  0  0  0  0  0  0  0
  1  2  1  0  0  0  0
  2  3  1  0  0  0  0
  3  4  1  0  0  0  0
  4  5  1  0  0  0  0
  4  6  1  0  0  0  0
M  END
>  <name>
[O;ester]CCC(C)C

>  <apo>
1

>  <freq>
1

>  <freq0>
0

>  <freq1>
1

>  <freqA>
0.99887151

>  <a_count>
18

$$$$

  MOE2015           2D

  9  9  0  0  0  0  0  0  0  0999 V2000
    0.0000    0.0000    0.0000 O   0  0  0  0  0  0  0  0  0  0  0  0
    1.5000    0.0000    0.0000 C   0  0  0  0  0  0  0  0  0  0  0  0
    2.2500    1.2990    0.0000 C   0  0  0  0  0  0  0  0  0  0  0  0
    3.7500    1.2990    0.0000 C   0  0  0  0  0  0  0  0  0  0  0  0
    4.5000    0.0000    0.0000 C   0  0  0  0  0  0  0  0  0  0  0  0
    6.0000    0.0000    0.0000 N   0  0  0  0  0  0  0  0  0  0  0  0
    6.7500   -1.2990    0.0000 C   0  0  0  0  0  0  0  0  0  0  0  0
    3.7500   -1.2990    0.0000 C   0  0  0  0  0  0  0  0  0  0  0  0
    2.2500   -1.2990    0.0000 C   0  0  0  0  0  0  0  0  0  0  0  0
  1  2  1  0  0  0  0
  2  3  1  0  0  0  0
  2  9  2  0  0  0  0
  3  4  2  0  0  0  0
  4  5  1  0  0  0  0
  5  6  1  0  0  0  0
  5  8  2  0  0  0  0
  6  7  1  0  0  0  0
  8  9  1  0  0  0  0
M  END
>  <name>
[O;ester]c1ccc([N;amide]C)cc1

>  <apo>
2

>  <freq>
1

>  <freq0>
0

>  <freq1>
1

>  <freqA>
0.99887151

>  <a_count>
18

$$$$

  MOE2015           2D

  9  9  0  0  0  0  0  0  0  0999 V2000
    0.0000    0.0000    0.0000 O   0  0  0  0  0  0  0  0  0  0  0  0
    1.5000    0.0000    0.0000 C   0  0  0  0  0  0  0  0  0  0  0  0
    2.2500    1.2990    0.0000 C   0  0  0  0  0  0  0  0  0  0  0  0
    3.7500    1.2990    0.0000 C   0  0  0  0  0  0  0  0  0  0  0  0
    4.5000    0.0000    0.0000 C   0  0  0  0  0  0  0  0  0  0  0  0
    6.0000    0.0000    0.0000 C   0  0  0  0  0  0  0  0  0  0  0  0
    6.7500   -1.2990    0.0000 N   0  0  0  0  0  0  0  0  0  0  0  0
    3.7500   -1.2990    0.0000 C   0  0  0  0  0  0  0  0  0  0  0  0
    2.2500   -1.2990    0.0000 C   0  0  0  0  0  0  0  0  0  0  0  0
  1  2  1  0  0  0  0
  2  3  1  0  0  0  0
  2  9  2  0  0  0  0
  3  4  2  0  0  0  0
  4  5  1  0  0  0  0
  5  6  1  0  0  0  0
  5  8  2  0  0  0  0
  6  7  1  0  0  0  0
  8  9  1  0  0  0  0
M  END
>  <name>
[O;ether]c1ccc(C[N;amide])cc1

>  <apo>
2

>  <freq>
1

>  <freq0>
0

>  <freq1>
1

>  <freqA>
0.99887151

>  <a_count>
18

$$$$

  MOE2015           2D

  9  9  0  0  0  0  0  0  0  0999 V2000
    0.0000    0.0000    0.0000 O   0  0  0  0  0  0  0  0  0  0  0  0
    1.5000    0.0000    0.0000 C   0  0  0  0  0  0  0  0  0  0  0  0
    2.2500    1.2990    0.0000 C   0  0  0  0  0  0  0  0  0  0  0  0
    3.7500    1.2990    0.0000 C   0  0  0  0  0  0  0  0  0  0  0  0
    4.5000    0.0000    0.0000 C   0  0  0  0  0  0  0  0  0  0  0  0
    6.0000    0.0000    0.0000 C   0  0  0  0  0  0  0  0  0  0  0  0
    6.7500   -1.2990    0.0000 N   0  0  0  0  0  0  0  0  0  0  0  0
    3.7500   -1.2990    0.0000 C   0  0  0  0  0  0  0  0  0  0  0  0
    2.2500   -1.2990    0.0000 C   0  0  0  0  0  0  0  0  0  0  0  0
  1  2  1  0  0  0  0
  2  3  1  0  0  0  0
  2  9  2  0  0  0  0
  3  4  2  0  0  0  0
  4  5  1  0  0  0  0
  5  6  1  0  0  0  0
  5  8  2  0  0  0  0
  6  7  1  0  0  0  0
  8  9  1  0  0  0  0
M  END
>  <name>
[O;ether]c1ccc(C[N;urea])cc1

>  <apo>
2

>  <freq>
1

>  <freq0>
0

>  <freq1>
1

>  <freqA>
0.99887151

>  <a_count>
18

$$$$

  MOE2015           2D

 10 10  0  0  0  0  0  0  0  0999 V2000
    0.6750    1.1690    0.0000 S   0  0  0  0  0  0  0  0  0  0  0  0
    1.4250   -0.1300    0.0000 O   0  0  0  0  0  0  0  0  0  0  0  0
    1.4250    2.4680    0.0000 O   0  0  0  0  0  0  0  0  0  0  0  0
   -0.8250    1.1690    0.0000 C   0  0  0  0  0  0  0  0  0  0  0  0
   -1.5750    2.4680    0.0000 C   0  0  0  0  0  0  0  0  0  0  0  0
   -0.8250    3.7670    0.0000 C   0  0  0  0  0  0  0  0  0  0  0  0
   -3.0750    2.4680    0.0000 C   0  0  0  0  0  0  0  0  0  0  0  0
   -3.8250    1.1690    0.0000 C   0  0  0  0  0  0  0  0  0  0  0  0
   -3.0750   -0.1300    0.0000 C   0  0  0  0  0  0  0  0  0  0  0  0
   -1.5750   -0.1300    0.0000 C   0  0  0  0  0  0  0  0  0  0  0  0
  1  2  2  0  0  0  0
  1  3  2  0  0  0  0
  1  4  1  0  0  0  0
  4  5  1  0  0  0  0
  4 10  2  0  0  0  0
  5  6  1  0  0  0  0
  5  7  2  0  0  0  0
  7  8  1  0  0  0  0
  8  9  2  0  0  0  0
  9 10  1  0  0  0  0
M  END
>  <name>
[SH;so2amide](=O)(=O)c1c(C)cccc1

>  <apo>
1

>  <freq>
1

>  <freq0>
0

>  <freq1>
1

>  <freqA>
0.99887151

>  <a_count>
18

$$$$

  MOE2015           2D

 10 10  0  0  0  0  0  0  0  0999 V2000
   -2.8060    1.5600    0.0000 S   0  0  0  0  0  0  0  0  0  0  0  0
   -3.5980    2.8340    0.0000 O   0  0  0  0  0  0  0  0  0  0  0  0
   -3.5140    0.2370    0.0000 O   0  0  0  0  0  0  0  0  0  0  0  0
   -1.3070    1.6090    0.0000 C   0  0  0  0  0  0  0  0  0  0  0  0
   -0.4650    2.8500    0.0000 C   0  0  0  0  0  0  0  0  0  0  0  0
   -0.9750    4.2610    0.0000 C   0  0  0  0  0  0  0  0  0  0  0  0
    0.9750    2.4330    0.0000 N   0  0  0  0  0  0  0  0  0  0  0  0
    1.0240    0.9340    0.0000 N   0  0  0  0  0  0  0  0  0  0  0  0
    2.2660    0.0930    0.0000 C   0  0  0  0  0  0  0  0  0  0  0  0
   -0.3860    0.4250    0.0000 C   0  0  0  0  0  0  0  0  0  0  0  0
  1  2  2  0  0  0  0
  1  3  2  0  0  0  0
  1  4  1  0  0  0  0
  4  5  1  0  0  0  0
  4 10  2  0  0  0  0
  5  6  1  0  0  0  0
  5  7  2  0  0  0  0
  7  8  1  0  0  0  0
  8  9  1  0  0  0  0
  8 10  1  0  0  0  0
M  END
>  <name>
[SH;so2amide](=O)(=O)c1c(C)nn(C)c1

>  <apo>
1

>  <freq>
1

>  <freq0>
0

>  <freq1>
1

>  <freqA>
0.99887151

>  <a_count>
18

$$$$

  MOE2015           2D

 10 10  0  0  0  0  0  0  0  0999 V2000
    0.8250    1.9490    0.0000 S   0  0  0  0  0  0  0  0  0  0  0  0
    1.5750    3.2480    0.0000 O   0  0  0  0  0  0  0  0  0  0  0  0
    1.5750    0.6500    0.0000 O   0  0  0  0  0  0  0  0  0  0  0  0
   -0.6750    1.9490    0.0000 C   0  0  0  0  0  0  0  0  0  0  0  0
   -1.4250    0.6500    0.0000 C   0  0  0  0  0  0  0  0  0  0  0  0
   -2.9250    0.6500    0.0000 C   0  0  0  0  0  0  0  0  0  0  0  0
   -3.6750   -0.6500    0.0000 C   0  0  0  0  0  0  0  0  0  0  0  0
   -3.6750    1.9490    0.0000 C   0  0  0  0  0  0  0  0  0  0  0  0
   -2.9250    3.2480    0.0000 C   0  0  0  0  0  0  0  0  0  0  0  0
   -1.4250    3.2480    0.0000 C   0  0  0  0  0  0  0  0  0  0  0  0
  1  2  2  0  0  0  0
  1  3  2  0  0  0  0
  1  4  1  0  0  0  0
  4  5  1  0  0  0  0
  4 10  2  0  0  0  0
  5  6  2  0  0  0  0
  6  7  1  0  0  0  0
  6  8  1  0  0  0  0
  8  9  2  0  0  0  0
  9 10  1  0  0  0  0
M  END
>  <name>
[SH;so2amide](=O)(=O)c1cc([C;olefin])ccc1

>  <apo>
2

>  <freq>
1

>  <freq0>
0

>  <freq1>
1

>  <freqA>
0.99887151

>  <a_count>
18

$$$$

  MOE2015           2D

 12 12  0  0  0  0  0  0  0  0999 V2000
   -4.5000    2.5980    0.0000 S   0  0  0  0  0  0  0  0  0  0  0  0
   -5.2500    3.8970    0.0000 O   0  0  0  0  0  0  0  0  0  0  0  0
   -5.2500    1.2990    0.0000 O   0  0  0  0  0  0  0  0  0  0  0  0
   -3.0000    2.5980    0.0000 C   0  0  0  0  0  0  0  0  0  0  0  0
   -2.2500    1.2990    0.0000 C   0  0  0  0  0  0  0  0  0  0  0  0
   -0.7500    1.2990    0.0000 C   0  0  0  0  0  0  0  0  0  0  0  0
    0.0000    2.5980    0.0000 C   0  0  0  0  0  0  0  0  0  0  0  0
    1.5000    2.5980    0.0000 C   0  0  0  0  0  0  0  0  0  0  0  0
    2.2500    1.2990    0.0000 O   0  0  0  0  0  0  0  0  0  0  0  0
    2.2500    3.8970    0.0000 O   0  0  0  0  0  0  0  0  0  0  0  0
   -0.7500    3.8970    0.0000 C   0  0  0  0  0  0  0  0  0  0  0  0
   -2.2500    3.8970    0.0000 C   0  0  0  0  0  0  0  0  0  0  0  0
  1  2  2  0  0  0  0
  1  3  2  0  0  0  0
  1  4  1  0  0  0  0
  4  5  1  0  0  0  0
  4 12  2  0  0  0  0
  5  6  2  0  0  0  0
  6  7  1  0  0  0  0
  7  8  1  0  0  0  0
  7 11  2  0  0  0  0
  8  9  2  0  0  0  0
  8 10  1  0  0  0  0
 11 12  1  0  0  0  0
M  END
>  <name>
[SH;so2amide](=O)(=O)c1ccc(C(=O)O)cc1

>  <apo>
1

>  <freq>
1

>  <freq0>
0

>  <freq1>
1

>  <freqA>
0.99887151

>  <a_count>
18

$$$$

  MOE2015           2D

  8  8  0  0  0  0  0  0  0  0999 V2000
    0.7740    1.3400    0.0000 C   0  0  0  0  0  0  0  0  0  0  0  0
    1.5240    2.6390    0.0000 C   0  0  0  0  0  0  0  0  0  0  0  0
    1.5240    0.0410    0.0000 C   0  0  0  0  0  0  0  0  0  0  0  0
   -0.7260    1.3400    0.0000 C   0  0  0  0  0  0  0  0  0  0  0  0
   -1.6080    2.5540    0.0000 N   0  0  0  0  0  0  0  0  0  0  0  0
   -3.0350    2.0900    0.0000 C   0  0  0  0  0  0  0  0  0  0  0  0
   -3.0350    0.5900    0.0000 S   0  0  0  0  0  0  0  0  0  0  0  0
   -1.6080    0.1270    0.0000 C   0  0  0  0  0  0  0  0  0  0  0  0
  1  2  1  0  0  0  0
  1  3  1  0  0  0  0
  1  4  1  0  0  0  0
  4  5  1  0  0  0  0
  4  8  2  0  0  0  0
  5  6  2  0  0  0  0
  6  7  1  0  0  0  0
  7  8  1  0  0  0  0
M  END
>  <name>
C(C)(C)c1n[c;biphenyl]sc1

>  <apo>
1

>  <freq>
1

>  <freq0>
0

>  <freq1>
1

>  <freqA>
0.99887151

>  <a_count>
17

$$$$

  MOE2015           2D

  5  4  0  0  0  0  0  0  0  0999 V2000
    0.1500   -0.0400    0.0000 C   0  0  0  0  0  0  0  0  0  0  0  0
    1.4490    0.7100    0.0000 C   0  0  0  0  0  0  0  0  0  0  0  0
    2.7480   -0.0400    0.0000 C   0  0  0  0  0  0  0  0  0  0  0  0
   -1.1490    0.7100    0.0000 C   0  0  0  0  0  0  0  0  0  0  0  0
   -2.4480   -0.0400    0.0000 C   0  0  0  0  0  0  0  0  0  0  0  0
  1  2  1  0  0  0  0
  1  4  1  0  0  0  0
  2  3  1  0  0  0  0
  4  5  1  0  0  0  0
M  END
>  <name>
C(CC)C[C;amine]

>  <apo>
1

>  <freq>
1

>  <freq0>
0

>  <freq1>
1

>  <freqA>
0.99887151

>  <a_count>
17

$$$$

  MOE2015           2D

  5  4  0  0  0  0  0  0  0  0999 V2000
    0.1500   -0.0400    0.0000 C   0  0  0  0  0  0  0  0  0  0  0  0
    1.4490    0.7100    0.0000 C   0  0  0  0  0  0  0  0  0  0  0  0
    2.7480   -0.0400    0.0000 C   0  0  0  0  0  0  0  0  0  0  0  0
   -1.1490    0.7100    0.0000 C   0  0  0  0  0  0  0  0  0  0  0  0
   -2.4480   -0.0400    0.0000 C   0  0  0  0  0  0  0  0  0  0  0  0
  1  2  1  0  0  0  0
  1  4  1  0  0  0  0
  2  3  1  0  0  0  0
  4  5  1  0  0  0  0
M  END
>  <name>
C(C[C;amine])[C;amine]C

>  <apo>
2

>  <freq>
1

>  <freq0>
0

>  <freq1>
1

>  <freqA>
0.99887151

>  <a_count>
17

$$$$

  MOE2015           2D

  5  4  0  0  0  0  0  0  0  0999 V2000
    0.1500   -0.0400    0.0000 C   0  0  0  0  0  0  0  0  0  0  0  0
    1.4490    0.7100    0.0000 C   0  0  0  0  0  0  0  0  0  0  0  0
    2.7480   -0.0400    0.0000 C   0  0  0  0  0  0  0  0  0  0  0  0
   -1.1490    0.7100    0.0000 C   0  0  0  0  0  0  0  0  0  0  0  0
   -2.4480   -0.0400    0.0000 C   0  0  0  0  0  0  0  0  0  0  0  0
  1  2  1  0  0  0  0
  1  4  1  0  0  0  0
  2  3  1  0  0  0  0
  4  5  1  0  0  0  0
M  END
>  <name>
C(C[C;ether])C[C;ether]

>  <apo>
2

>  <freq>
1

>  <freq0>
0

>  <freq1>
1

>  <freqA>
0.99887151

>  <a_count>
17

$$$$

  MOE2015           2D

  5  4  0  0  0  0  0  0  0  0999 V2000
    0.1500   -0.0400    0.0000 C   0  0  0  0  0  0  0  0  0  0  0  0
    1.4490    0.7100    0.0000 C   0  0  0  0  0  0  0  0  0  0  0  0
    2.7480   -0.0400    0.0000 C   0  0  0  0  0  0  0  0  0  0  0  0
   -1.1490    0.7100    0.0000 C   0  0  0  0  0  0  0  0  0  0  0  0
   -2.4480   -0.0400    0.0000 C   0  0  0  0  0  0  0  0  0  0  0  0
  1  2  1  0  0  0  0
  1  4  1  0  0  0  0
  2  3  1  0  0  0  0
  4  5  1  0  0  0  0
M  END
>  <name>
C(C[C;quatN])C[C;quatN]

>  <apo>
2

>  <freq>
1

>  <freq0>
0

>  <freq1>
1

>  <freqA>
0.99887151

>  <a_count>
17

$$$$

  MOE2015           2D

  5  4  0  0  0  0  0  0  0  0999 V2000
    0.0000    0.0000    0.0000 C   0  0  0  0  0  0  0  0  0  0  0  0
   -1.5000    0.0000    0.0000 C   0  0  0  0  0  0  0  0  0  0  0  0
    1.5000    0.0000    0.0000 C   0  0  0  0  0  0  0  0  0  0  0  0
    0.0000   -1.5000    0.0000 C   0  0  0  0  0  0  0  0  0  0  0  0
    0.0000    1.5000    0.0000 C   0  0  0  0  0  0  0  0  0  0  0  0
  1  2  1  0  0  0  0
  1  3  1  0  0  0  0
  1  4  1  0  0  0  0
  1  5  1  0  0  0  0
M  END
>  <name>
C([C;amine])(C)(C)C

>  <apo>
1

>  <freq>
1

>  <freq0>
0

>  <freq1>
1

>  <freqA>
0.99887151

>  <a_count>
17

$$$$

  MOE2015           2D

  5  4  0  0  0  0  0  0  0  0999 V2000
    0.0000    0.0000    0.0000 C   0  0  0  0  0  0  0  0  0  0  0  0
   -1.5000    0.0000    0.0000 C   0  0  0  0  0  0  0  0  0  0  0  0
    1.5000    0.0000    0.0000 C   0  0  0  0  0  0  0  0  0  0  0  0
    0.0000   -1.5000    0.0000 C   0  0  0  0  0  0  0  0  0  0  0  0
    0.0000    1.5000    0.0000 C   0  0  0  0  0  0  0  0  0  0  0  0
  1  2  1  0  0  0  0
  1  3  1  0  0  0  0
  1  4  1  0  0  0  0
  1  5  1  0  0  0  0
M  END
>  <name>
C([C;amine])(C)(C)[C;amine]

>  <apo>
2

>  <freq>
1

>  <freq0>
0

>  <freq1>
1

>  <freqA>
0.99887151

>  <a_count>
17

$$$$

  MOE2015           2D

  8  8  0  0  0  0  0  0  0  0999 V2000
    1.2190    1.7860    0.0000 C   0  0  0  0  0  0  0  0  0  0  0  0
    1.9690    3.0850    0.0000 C   0  0  0  0  0  0  0  0  0  0  0  0
   -0.2810    1.7860    0.0000 C   0  0  0  0  0  0  0  0  0  0  0  0
   -1.0310    0.4870    0.0000 N   0  0  0  0  0  0  0  0  0  0  0  0
   -2.5310    0.4870    0.0000 C   0  0  0  0  0  0  0  0  0  0  0  0
   -3.2810    1.7860    0.0000 C   0  0  0  0  0  0  0  0  0  0  0  0
   -2.5310    3.0850    0.0000 C   0  0  0  0  0  0  0  0  0  0  0  0
   -1.0310    3.0850    0.0000 C   0  0  0  0  0  0  0  0  0  0  0  0
  1  2  1  0  0  0  0
  1  3  1  0  0  0  0
  3  4  1  0  0  0  0
  3  8  2  0  0  0  0
  4  5  2  0  0  0  0
  5  6  1  0  0  0  0
  6  7  2  0  0  0  0
  7  8  1  0  0  0  0
M  END
>  <name>
C([C;amine])c1ncccc1

>  <apo>
1

>  <freq>
1

>  <freq0>
0

>  <freq1>
1

>  <freqA>
0.99887151

>  <a_count>
17

$$$$

  MOE2015           2D

  5  4  0  0  0  0  0  0  0  0999 V2000
    0.1500   -0.0400    0.0000 C   0  0  0  0  0  0  0  0  0  0  0  0
    1.4490    0.7100    0.0000 C   0  0  0  0  0  0  0  0  0  0  0  0
    2.7480   -0.0400    0.0000 C   0  0  0  0  0  0  0  0  0  0  0  0
   -1.1490    0.7100    0.0000 C   0  0  0  0  0  0  0  0  0  0  0  0
   -2.4480   -0.0400    0.0000 C   0  0  0  0  0  0  0  0  0  0  0  0
  1  2  1  0  0  0  0
  1  4  1  0  0  0  0
  2  3  1  0  0  0  0
  4  5  1  0  0  0  0
M  END
>  <name>
C([C;amine]C)C[C;amine]

>  <apo>
2

>  <freq>
1

>  <freq0>
0

>  <freq1>
1

>  <freqA>
0.99887151

>  <a_count>
17

$$$$

  MOE2015           2D

  5  4  0  0  0  0  0  0  0  0999 V2000
    0.1500   -0.0400    0.0000 C   0  0  0  0  0  0  0  0  0  0  0  0
    1.4490    0.7100    0.0000 C   0  0  0  0  0  0  0  0  0  0  0  0
    2.7480   -0.0400    0.0000 C   0  0  0  0  0  0  0  0  0  0  0  0
   -1.1490    0.7100    0.0000 C   0  0  0  0  0  0  0  0  0  0  0  0
   -2.4480   -0.0400    0.0000 C   0  0  0  0  0  0  0  0  0  0  0  0
  1  2  1  0  0  0  0
  1  4  1  0  0  0  0
  2  3  1  0  0  0  0
  4  5  1  0  0  0  0
M  END
>  <name>
C([C;amine]C)C[C;olefin]

>  <apo>
2

>  <freq>
1

>  <freq0>
0

>  <freq1>
1

>  <freqA>
0.99887151

>  <a_count>
17

$$$$

  MOE2015           2D

  8  8  0  0  0  0  0  0  0  0999 V2000
    5.4110   -0.8000    0.0000 C   0  0  0  0  0  0  0  0  0  0  0  0
    4.1120   -0.0500    0.0000 C   0  0  0  0  0  0  0  0  0  0  0  0
    2.8120   -0.8000    0.0000 C   0  0  0  0  0  0  0  0  0  0  0  0
    1.5130   -0.0500    0.0000 C   0  0  0  0  0  0  0  0  0  0  0  0
    0.2140   -0.8000    0.0000 C   0  0  0  0  0  0  0  0  0  0  0  0
    1.5130    1.4500    0.0000 C   0  0  0  0  0  0  0  0  0  0  0  0
    2.8120    2.2000    0.0000 N   0  0  0  0  0  0  0  0  0  0  0  0
    4.1120    1.4500    0.0000 C   0  0  0  0  0  0  0  0  0  0  0  0
  1  2  1  0  0  0  0
  2  3  1  0  0  0  0
  2  8  2  0  0  0  0
  3  4  2  0  0  0  0
  4  5  1  0  0  0  0
  4  6  1  0  0  0  0
  6  7  2  0  0  0  0
  7  8  1  0  0  0  0
M  END
>  <name>
Cc1cc([C;amine])cnc1

>  <apo>
1

>  <freq>
1

>  <freq0>
0

>  <freq1>
1

>  <freqA>
0.99887151

>  <a_count>
17

$$$$

  MOE2015           2D

 11 11  0  0  0  0  0  0  0  0999 V2000
    3.4130   -0.9140    0.0000 Cl  0  0  0  0  0  0  0  0  0  0  0  0
    2.1140   -0.1640    0.0000 C   0  0  0  0  0  0  0  0  0  0  0  0
    2.1140    1.3360    0.0000 C   0  0  0  0  0  0  0  0  0  0  0  0
    3.4130    2.0860    0.0000 C   0  0  0  0  0  0  0  0  0  0  0  0
    4.7120    1.3360    0.0000 C   0  0  0  0  0  0  0  0  0  0  0  0
    6.0110    2.0860    0.0000 O   0  0  0  0  0  0  0  0  0  0  0  0
    0.8150    2.0860    0.0000 C   0  0  0  0  0  0  0  0  0  0  0  0
    0.8150    3.5860    0.0000 Cl  0  0  0  0  0  0  0  0  0  0  0  0
   -0.4840    1.3360    0.0000 C   0  0  0  0  0  0  0  0  0  0  0  0
   -0.4840   -0.1640    0.0000 C   0  0  0  0  0  0  0  0  0  0  0  0
    0.8150   -0.9140    0.0000 C   0  0  0  0  0  0  0  0  0  0  0  0
  1  2  1  0  0  0  0
  2  3  1  0  0  0  0
  2 11  2  0  0  0  0
  3  4  1  0  0  0  0
  3  7  2  0  0  0  0
  4  5  1  0  0  0  0
  5  6  2  0  0  0  0
  7  8  1  0  0  0  0
  7  9  1  0  0  0  0
  9 10  2  0  0  0  0
 10 11  1  0  0  0  0
M  END
>  <name>
Clc1c(C[C;amide]=O)c(Cl)ccc1

>  <apo>
1

>  <freq>
1

>  <freq0>
0

>  <freq1>
1

>  <freqA>
0.99887151

>  <a_count>
17

$$$$

  MOE2015           2D

 12 13  0  0  0  0  0  0  0  0999 V2000
    0.3020   -1.1260    0.0000 Cl  0  0  0  0  0  0  0  0  0  0  0  0
    1.6010   -0.3760    0.0000 C   0  0  0  0  0  0  0  0  0  0  0  0
    1.6010    1.1240    0.0000 C   0  0  0  0  0  0  0  0  0  0  0  0
    0.3020    1.8740    0.0000 Cl  0  0  0  0  0  0  0  0  0  0  0  0
    2.9000    1.8740    0.0000 C   0  0  0  0  0  0  0  0  0  0  0  0
    4.1990    1.1240    0.0000 C   0  0  0  0  0  0  0  0  0  0  0  0
    5.6250    1.5870    0.0000 N   0  0  0  0  0  0  0  0  0  0  0  0
    6.5070    0.3740    0.0000 C   0  0  0  0  0  0  0  0  0  0  0  0
    8.0070    0.3740    0.0000 N   0  0  0  0  0  0  0  0  0  0  0  0
    5.6250   -0.8400    0.0000 N   0  0  0  0  0  0  0  0  0  0  0  0
    4.1990   -0.3760    0.0000 C   0  0  0  0  0  0  0  0  0  0  0  0
    2.9000   -1.1260    0.0000 C   0  0  0  0  0  0  0  0  0  0  0  0
  1  2  1  0  0  0  0
  2  3  1  0  0  0  0
  2 12  2  0  0  0  0
  3  4  1  0  0  0  0
  3  5  2  0  0  0  0
  5  6  1  0  0  0  0
  6  7  1  0  0  0  0
  6 11  2  0  0  0  0
  7  8  2  0  0  0  0
  8  9  1  0  0  0  0
  8 10  1  0  0  0  0
 10 11  1  0  0  0  0
 11 12  1  0  0  0  0
M  END
>  <name>
Clc1c(Cl)cc2nc([N;amine])[nH;NaroC]c2c1

>  <apo>
2

>  <freq>
1

>  <freq0>
0

>  <freq1>
1

>  <freqA>
0.99887151

>  <a_count>
17

$$$$

  MOE2015           2D

 11 11  0  0  0  0  0  0  0  0999 V2000
    1.5680   -2.7160    0.0000 Cl  0  0  0  0  0  0  0  0  0  0  0  0
    2.3180   -1.4170    0.0000 C   0  0  0  0  0  0  0  0  0  0  0  0
    1.5680   -0.1180    0.0000 C   0  0  0  0  0  0  0  0  0  0  0  0
    0.0680   -0.1180    0.0000 C   0  0  0  0  0  0  0  0  0  0  0  0
    2.3180    1.1810    0.0000 C   0  0  0  0  0  0  0  0  0  0  0  0
    1.5680    2.4800    0.0000 Cl  0  0  0  0  0  0  0  0  0  0  0  0
    3.8180    1.1810    0.0000 C   0  0  0  0  0  0  0  0  0  0  0  0
    4.5680   -0.1180    0.0000 C   0  0  0  0  0  0  0  0  0  0  0  0
    6.0680   -0.1180    0.0000 C   0  0  0  0  0  0  0  0  0  0  0  0
    6.8180    1.1810    0.0000 O   0  0  0  0  0  0  0  0  0  0  0  0
    3.8180   -1.4170    0.0000 C   0  0  0  0  0  0  0  0  0  0  0  0
  1  2  1  0  0  0  0
  2  3  1  0  0  0  0
  2 11  2  0  0  0  0
  3  4  1  0  0  0  0
  3  5  2  0  0  0  0
  5  6  1  0  0  0  0
  5  7  1  0  0  0  0
  7  8  2  0  0  0  0
  8  9  1  0  0  0  0
  8 11  1  0  0  0  0
  9 10  2  0  0  0  0
M  END
>  <name>
Clc1c([C;olefin])c(Cl)cc([C;amide]=O)c1

>  <apo>
2

>  <freq>
1

>  <freq0>
0

>  <freq1>
1

>  <freqA>
0.99887151

>  <a_count>
17

$$$$

  MOE2015           2D

  9  9  0  0  0  0  0  0  0  0999 V2000
    0.0690   -0.2560    0.0000 Cl  0  0  0  0  0  0  0  0  0  0  0  0
    1.3680    0.4940    0.0000 C   0  0  0  0  0  0  0  0  0  0  0  0
    2.6670   -0.2560    0.0000 C   0  0  0  0  0  0  0  0  0  0  0  0
    2.6670   -1.7560    0.0000 N   0  0  0  0  0  0  0  0  0  0  0  0
    3.9660    0.4940    0.0000 C   0  0  0  0  0  0  0  0  0  0  0  0
    5.2650   -0.2560    0.0000 C   0  0  0  0  0  0  0  0  0  0  0  0
    3.9660    1.9940    0.0000 C   0  0  0  0  0  0  0  0  0  0  0  0
    2.6670    2.7440    0.0000 C   0  0  0  0  0  0  0  0  0  0  0  0
    1.3680    1.9940    0.0000 C   0  0  0  0  0  0  0  0  0  0  0  0
  1  2  1  0  0  0  0
  2  3  1  0  0  0  0
  2  9  2  0  0  0  0
  3  4  1  0  0  0  0
  3  5  2  0  0  0  0
  5  6  1  0  0  0  0
  5  7  1  0  0  0  0
  7  8  2  0  0  0  0
  8  9  1  0  0  0  0
M  END
>  <name>
Clc1c([N;amide])c(C)ccc1

>  <apo>
1

>  <freq>
1

>  <freq0>
0

>  <freq1>
1

>  <freqA>
0.99887151

>  <a_count>
17

$$$$

  MOE2015           2D

 11 11  0  0  0  0  0  0  0  0999 V2000
    0.0000    0.0000    0.0000 Cl  0  0  0  0  0  0  0  0  0  0  0  0
    1.5000    0.0000    0.0000 C   0  0  0  0  0  0  0  0  0  0  0  0
    2.2500    1.2990    0.0000 C   0  0  0  0  0  0  0  0  0  0  0  0
    1.5000    2.5980    0.0000 N   0  0  0  0  0  0  0  0  0  0  0  0
    3.7500    1.2990    0.0000 C   0  0  0  0  0  0  0  0  0  0  0  0
    4.5000    0.0000    0.0000 C   0  0  0  0  0  0  0  0  0  0  0  0
    6.0000    0.0000    0.0000 C   0  0  0  0  0  0  0  0  0  0  0  0
    7.5000    0.0000    0.0000 N   0  0  0  0  0  0  0  0  0  0  0  0
    3.7500   -1.2990    0.0000 C   0  0  0  0  0  0  0  0  0  0  0  0
    2.2500   -1.2990    0.0000 C   0  0  0  0  0  0  0  0  0  0  0  0
    1.5000   -2.5980    0.0000 N   0  0  0  0  0  0  0  0  0  0  0  0
  1  2  1  0  0  0  0
  2  3  1  0  0  0  0
  2 10  2  0  0  0  0
  3  4  1  0  0  0  0
  3  5  2  0  0  0  0
  5  6  1  0  0  0  0
  6  7  1  0  0  0  0
  6  9  2  0  0  0  0
  7  8  3  0  0  0  0
  9 10  1  0  0  0  0
 10 11  1  0  0  0  0
M  END
>  <name>
Clc1c([N;amide])cc(C#N)cc1[N;amide]

>  <apo>
2

>  <freq>
1

>  <freq0>
0

>  <freq1>
1

>  <freqA>
0.99887151

>  <a_count>
17

$$$$

  MOE2015           2D

  8  7  0  0  0  0  0  0  0  0999 V2000
    0.7500   -0.7500    0.0000 F   0  0  0  0  0  0  0  0  0  0  0  0
    0.7500    0.7500    0.0000 C   0  0  0  0  0  0  0  0  0  0  0  0
    0.7500    2.2500    0.0000 F   0  0  0  0  0  0  0  0  0  0  0  0
   -0.7500    0.7500    0.0000 F   0  0  0  0  0  0  0  0  0  0  0  0
    2.2500    0.7500    0.0000 C   0  0  0  0  0  0  0  0  0  0  0  0
    2.2500   -0.7500    0.0000 C   0  0  0  0  0  0  0  0  0  0  0  0
    2.2500    2.2500    0.0000 C   0  0  0  0  0  0  0  0  0  0  0  0
    3.7500    0.7500    0.0000 C   0  0  0  0  0  0  0  0  0  0  0  0
  1  2  1  0  0  0  0
  2  3  1  0  0  0  0
  2  4  1  0  0  0  0
  2  5  1  0  0  0  0
  5  6  1  0  0  0  0
  5  7  1  0  0  0  0
  5  8  1  0  0  0  0
M  END
>  <name>
FC(F)(F)C([C;ether])(C)C

>  <apo>
1

>  <freq>
1

>  <freq0>
0

>  <freq1>
1

>  <freqA>
0.99887151

>  <a_count>
17

$$$$

  MOE2015           2D

 11 11  0  0  0  0  0  0  0  0999 V2000
   -0.5450   -3.5450    0.0000 F   0  0  0  0  0  0  0  0  0  0  0  0
   -0.5450   -2.0450    0.0000 C   0  0  0  0  0  0  0  0  0  0  0  0
   -2.0450   -2.0450    0.0000 F   0  0  0  0  0  0  0  0  0  0  0  0
   -0.5450   -0.5450    0.0000 F   0  0  0  0  0  0  0  0  0  0  0  0
    0.9550   -2.0450    0.0000 C   0  0  0  0  0  0  0  0  0  0  0  0
    1.7050   -0.7460    0.0000 N   0  0  0  0  0  0  0  0  0  0  0  0
    3.2050   -0.7460    0.0000 C   0  0  0  0  0  0  0  0  0  0  0  0
    3.9550   -2.0450    0.0000 C   0  0  0  0  0  0  0  0  0  0  0  0
    5.4550   -2.0450    0.0000 C   0  0  0  0  0  0  0  0  0  0  0  0
    3.2050   -3.3440    0.0000 C   0  0  0  0  0  0  0  0  0  0  0  0
    1.7050   -3.3440    0.0000 C   0  0  0  0  0  0  0  0  0  0  0  0
  1  2  1  0  0  0  0
  2  3  1  0  0  0  0
  2  4  1  0  0  0  0
  2  5  1  0  0  0  0
  5  6  1  0  0  0  0
  5 11  2  0  0  0  0
  6  7  2  0  0  0  0
  7  8  1  0  0  0  0
  8  9  1  0  0  0  0
  8 10  2  0  0  0  0
 10 11  1  0  0  0  0
M  END
>  <name>
FC(F)(F)c1ncc([C;amine])cc1

>  <apo>
1

>  <freq>
1

>  <freq0>
0

>  <freq1>
1

>  <freqA>
0.99887151

>  <a_count>
17

$$$$

  MOE2015           2D

 11 11  0  0  0  0  0  0  0  0999 V2000
    1.7050   -2.0080    0.0000 F   0  0  0  0  0  0  0  0  0  0  0  0
    2.4550   -0.7090    0.0000 C   0  0  0  0  0  0  0  0  0  0  0  0
    1.7050    0.5900    0.0000 C   0  0  0  0  0  0  0  0  0  0  0  0
    0.2050    0.5900    0.0000 C   0  0  0  0  0  0  0  0  0  0  0  0
   -0.5450   -0.7090    0.0000 N   0  0  0  0  0  0  0  0  0  0  0  0
    2.4550    1.8900    0.0000 C   0  0  0  0  0  0  0  0  0  0  0  0
    1.7050    3.1890    0.0000 F   0  0  0  0  0  0  0  0  0  0  0  0
    3.9550    1.8900    0.0000 C   0  0  0  0  0  0  0  0  0  0  0  0
    4.7050    0.5900    0.0000 C   0  0  0  0  0  0  0  0  0  0  0  0
    6.2050    0.5900    0.0000 F   0  0  0  0  0  0  0  0  0  0  0  0
    3.9550   -0.7090    0.0000 C   0  0  0  0  0  0  0  0  0  0  0  0
  1  2  1  0  0  0  0
  2  3  1  0  0  0  0
  2 11  2  0  0  0  0
  3  4  1  0  0  0  0
  3  6  2  0  0  0  0
  4  5  1  0  0  0  0
  6  7  1  0  0  0  0
  6  8  1  0  0  0  0
  8  9  2  0  0  0  0
  9 10  1  0  0  0  0
  9 11  1  0  0  0  0
M  END
>  <name>
Fc1c(C[N;amide])c(F)cc(F)c1

>  <apo>
1

>  <freq>
1

>  <freq0>
0

>  <freq1>
1

>  <freqA>
0.99887151

>  <a_count>
17

$$$$

  MOE2015           2D

  9  9  0  0  0  0  0  0  0  0999 V2000
    3.0000    3.1750    0.0000 F   0  0  0  0  0  0  0  0  0  0  0  0
    2.2500    1.8760    0.0000 C   0  0  0  0  0  0  0  0  0  0  0  0
    3.0000    0.5770    0.0000 C   0  0  0  0  0  0  0  0  0  0  0  0
    4.5000    0.5770    0.0000 N   0  0  0  0  0  0  0  0  0  0  0  0
    5.2500   -0.7220    0.0000 C   0  0  0  0  0  0  0  0  0  0  0  0
    2.2500   -0.7220    0.0000 C   0  0  0  0  0  0  0  0  0  0  0  0
    0.7500   -0.7220    0.0000 C   0  0  0  0  0  0  0  0  0  0  0  0
    0.0000    0.5770    0.0000 C   0  0  0  0  0  0  0  0  0  0  0  0
    0.7500    1.8760    0.0000 C   0  0  0  0  0  0  0  0  0  0  0  0
  1  2  1  0  0  0  0
  2  3  1  0  0  0  0
  2  9  2  0  0  0  0
  3  4  1  0  0  0  0
  3  6  2  0  0  0  0
  4  5  1  0  0  0  0
  6  7  1  0  0  0  0
  7  8  2  0  0  0  0
  8  9  1  0  0  0  0
M  END
>  <name>
Fc1c(NC)cc[c;biphenyl]c1

>  <apo>
1

>  <freq>
1

>  <freq0>
0

>  <freq1>
1

>  <freqA>
0.99887151

>  <a_count>
17

$$$$

  MOE2015           2D

 10 10  0  0  0  0  0  0  0  0999 V2000
    4.0890   -1.0960    0.0000 F   0  0  0  0  0  0  0  0  0  0  0  0
    2.7900   -0.3460    0.0000 C   0  0  0  0  0  0  0  0  0  0  0  0
    2.7900    1.1540    0.0000 C   0  0  0  0  0  0  0  0  0  0  0  0
    4.0890    1.9040    0.0000 C   0  0  0  0  0  0  0  0  0  0  0  0
    5.3880    1.1540    0.0000 O   0  0  0  0  0  0  0  0  0  0  0  0
    1.4910    1.9040    0.0000 C   0  0  0  0  0  0  0  0  0  0  0  0
    1.4910    3.4040    0.0000 C   0  0  0  0  0  0  0  0  0  0  0  0
    0.1920    1.1540    0.0000 C   0  0  0  0  0  0  0  0  0  0  0  0
    0.1920   -0.3460    0.0000 C   0  0  0  0  0  0  0  0  0  0  0  0
    1.4910   -1.0960    0.0000 C   0  0  0  0  0  0  0  0  0  0  0  0
  1  2  1  0  0  0  0
  2  3  1  0  0  0  0
  2 10  2  0  0  0  0
  3  4  1  0  0  0  0
  3  6  2  0  0  0  0
  4  5  2  0  0  0  0
  6  7  1  0  0  0  0
  6  8  1  0  0  0  0
  8  9  2  0  0  0  0
  9 10  1  0  0  0  0
M  END
>  <name>
Fc1c([C;amide]=O)c(C)ccc1

>  <apo>
1

>  <freq>
1

>  <freq0>
0

>  <freq1>
1

>  <freqA>
0.99887151

>  <a_count>
17

$$$$

  MOE2015           2D

 11 12  0  0  0  0  0  0  0  0999 V2000
    0.1930   -2.0080    0.0000 F   0  0  0  0  0  0  0  0  0  0  0  0
    1.4920   -1.2580    0.0000 C   0  0  0  0  0  0  0  0  0  0  0  0
    2.7910   -2.0080    0.0000 C   0  0  0  0  0  0  0  0  0  0  0  0
    4.0900   -1.2580    0.0000 C   0  0  0  0  0  0  0  0  0  0  0  0
    4.0900    0.2420    0.0000 C   0  0  0  0  0  0  0  0  0  0  0  0
    5.5170    0.7060    0.0000 N   0  0  0  0  0  0  0  0  0  0  0  0
    6.3980   -0.5080    0.0000 C   0  0  0  0  0  0  0  0  0  0  0  0
    7.8980   -0.5080    0.0000 O   0  0  0  0  0  0  0  0  0  0  0  0
    5.5170   -1.7210    0.0000 C   0  0  0  0  0  0  0  0  0  0  0  0
    2.7910    0.9920    0.0000 C   0  0  0  0  0  0  0  0  0  0  0  0
    1.4920    0.2420    0.0000 C   0  0  0  0  0  0  0  0  0  0  0  0
  1  2  1  0  0  0  0
  2  3  1  0  0  0  0
  2 11  2  0  0  0  0
  3  4  2  0  0  0  0
  4  5  1  0  0  0  0
  4  9  1  0  0  0  0
  5  6  1  0  0  0  0
  5 10  2  0  0  0  0
  6  7  1  0  0  0  0
  7  8  2  0  0  0  0
  7  9  1  0  0  0  0
 10 11  1  0  0  0  0
M  END
>  <name>
Fc1cc2c(NC(=O)[C;olefin]2)cc1

>  <apo>
1

>  <freq>
1

>  <freq0>
0

>  <freq1>
1

>  <freqA>
0.99887151

>  <a_count>
17

$$$$

  MOE2015           2D

  9  9  0  0  0  0  0  0  0  0999 V2000
    0.0000    0.0000    0.0000 F   0  0  0  0  0  0  0  0  0  0  0  0
    1.5000    0.0000    0.0000 C   0  0  0  0  0  0  0  0  0  0  0  0
    2.2500    1.2990    0.0000 C   0  0  0  0  0  0  0  0  0  0  0  0
    3.7500    1.2990    0.0000 C   0  0  0  0  0  0  0  0  0  0  0  0
    4.5000    0.0000    0.0000 C   0  0  0  0  0  0  0  0  0  0  0  0
    6.0000    0.0000    0.0000 C   0  0  0  0  0  0  0  0  0  0  0  0
    6.7500   -1.2990    0.0000 N   0  0  0  0  0  0  0  0  0  0  0  0
    3.7500   -1.2990    0.0000 C   0  0  0  0  0  0  0  0  0  0  0  0
    2.2500   -1.2990    0.0000 C   0  0  0  0  0  0  0  0  0  0  0  0
  1  2  1  0  0  0  0
  2  3  1  0  0  0  0
  2  9  2  0  0  0  0
  3  4  2  0  0  0  0
  4  5  1  0  0  0  0
  5  6  1  0  0  0  0
  5  8  2  0  0  0  0
  6  7  1  0  0  0  0
  8  9  1  0  0  0  0
M  END
>  <name>
Fc1ccc(C[N;amide])cc1

>  <apo>
1

>  <freq>
1

>  <freq0>
0

>  <freq1>
1

>  <freqA>
0.99887151

>  <a_count>
17

$$$$

  MOE2015           2D

 12 12  0  0  0  0  0  0  0  0999 V2000
    1.4380   -3.1390    0.0000 I   0  0  0  0  0  0  0  0  0  0  0  0
    2.1880   -1.8400    0.0000 C   0  0  0  0  0  0  0  0  0  0  0  0
    1.4380   -0.5410    0.0000 C   0  0  0  0  0  0  0  0  0  0  0  0
   -0.0620   -0.5410    0.0000 O   0  0  0  0  0  0  0  0  0  0  0  0
    2.1880    0.7580    0.0000 C   0  0  0  0  0  0  0  0  0  0  0  0
    1.4380    2.0570    0.0000 I   0  0  0  0  0  0  0  0  0  0  0  0
    3.6880    0.7580    0.0000 C   0  0  0  0  0  0  0  0  0  0  0  0
    4.4380   -0.5410    0.0000 N   0  0  0  0  0  0  0  0  0  0  0  0
    5.9380   -0.5410    0.0000 C   0  0  0  0  0  0  0  0  0  0  0  0
    6.6880    0.7580    0.0000 C   0  0  0  0  0  0  0  0  0  0  0  0
    8.1880    0.7580    0.0000 O   0  0  0  0  0  0  0  0  0  0  0  0
    3.6880   -1.8400    0.0000 C   0  0  0  0  0  0  0  0  0  0  0  0
  1  2  1  0  0  0  0
  2  3  1  0  0  0  0
  2 12  2  0  0  0  0
  3  4  2  0  0  0  0
  3  5  1  0  0  0  0
  5  6  1  0  0  0  0
  5  7  2  0  0  0  0
  7  8  1  0  0  0  0
  8  9  1  0  0  0  0
  8 12  1  0  0  0  0
  9 10  1  0  0  0  0
 10 11  2  0  0  0  0
M  END
>  <name>
IC=1C(=O)C(I)=CN(C[C;ester]=O)C=1

>  <apo>
1

>  <freq>
1

>  <freq0>
0

>  <freq1>
1

>  <freqA>
0.99887151

>  <a_count>
17

$$$$

  MOE2015           2D

  6  6  0  0  0  0  0  0  0  0999 V2000
   -2.0490    2.0490    0.0000 N   0  0  0  0  0  0  0  0  0  0  0  0
   -2.0490    0.5490    0.0000 C   0  0  0  0  0  0  0  0  0  0  0  0
   -0.7500   -0.2010    0.0000 C   0  0  0  0  0  0  0  0  0  0  0  0
    0.5490    0.5490    0.0000 C   0  0  0  0  0  0  0  0  0  0  0  0
    0.5490    2.0490    0.0000 C   0  0  0  0  0  0  0  0  0  0  0  0
   -0.7500    2.7990    0.0000 C   0  0  0  0  0  0  0  0  0  0  0  0
  1  2  1  0  0  0  0
  1  6  1  0  0  0  0
  2  3  1  0  0  0  0
  3  4  1  0  0  0  0
  4  5  1  0  0  0  0
  5  6  1  0  0  0  0
M  END
>  <name>
N1CC[C;NaroC]CC1

>  <apo>
1

>  <freq>
1

>  <freq0>
0

>  <freq1>
1

>  <freqA>
0.99887151

>  <a_count>
17

$$$$

  MOE2015           2D

  6  6  0  0  0  0  0  0  0  0999 V2000
   -2.0490    2.0490    0.0000 N   0  0  0  0  0  0  0  0  0  0  0  0
   -2.0490    0.5490    0.0000 C   0  0  0  0  0  0  0  0  0  0  0  0
   -0.7500   -0.2010    0.0000 C   0  0  0  0  0  0  0  0  0  0  0  0
    0.5490    0.5490    0.0000 C   0  0  0  0  0  0  0  0  0  0  0  0
    0.5490    2.0490    0.0000 C   0  0  0  0  0  0  0  0  0  0  0  0
   -0.7500    2.7990    0.0000 C   0  0  0  0  0  0  0  0  0  0  0  0
  1  2  1  0  0  0  0
  1  6  1  0  0  0  0
  2  3  1  0  0  0  0
  3  4  1  0  0  0  0
  4  5  1  0  0  0  0
  5  6  1  0  0  0  0
M  END
>  <name>
N1CC[C;olefin]CC1

>  <apo>
1

>  <freq>
1

>  <freq0>
0

>  <freq1>
1

>  <freqA>
0.99887151

>  <a_count>
17

$$$$

  MOE2015           2D

 11 12  0  0  0  0  0  0  0  0999 V2000
    6.7620   -1.4610    0.0000 N   0  0  0  0  0  0  0  0  0  0  0  0
    5.4630   -0.7110    0.0000 C   0  0  0  0  0  0  0  0  0  0  0  0
    5.4630    0.7890    0.0000 N   0  0  0  0  0  0  0  0  0  0  0  0
    4.1640    1.5390    0.0000 C   0  0  0  0  0  0  0  0  0  0  0  0
    4.1640    3.0390    0.0000 N   0  0  0  0  0  0  0  0  0  0  0  0
    2.8650    0.7890    0.0000 C   0  0  0  0  0  0  0  0  0  0  0  0
    1.4390    1.2530    0.0000 N   0  0  0  0  0  0  0  0  0  0  0  0
    0.5570    0.0390    0.0000 C   0  0  0  0  0  0  0  0  0  0  0  0
    1.4390   -1.1740    0.0000 N   0  0  0  0  0  0  0  0  0  0  0  0
    2.8650   -0.7110    0.0000 C   0  0  0  0  0  0  0  0  0  0  0  0
    4.1640   -1.4610    0.0000 N   0  0  0  0  0  0  0  0  0  0  0  0
  1  2  1  0  0  0  0
  2  3  1  0  0  0  0
  2 11  2  0  0  0  0
  3  4  2  0  0  0  0
  4  5  1  0  0  0  0
  4  6  1  0  0  0  0
  6  7  1  0  0  0  0
  6 10  2  0  0  0  0
  7  8  2  0  0  0  0
  8  9  1  0  0  0  0
  9 10  1  0  0  0  0
 10 11  1  0  0  0  0
M  END
>  <name>
Nc1nc([N;amine])c2nc[nH;NaroC]c2n1

>  <apo>
2

>  <freq>
1

>  <freq0>
0

>  <freq1>
1

>  <freqA>
0.99887151

>  <a_count>
17

$$$$

  MOE2015           2D

  8  7  0  0  0  0  0  0  0  0999 V2000
    0.4570    0.4570    0.0000 O   0  0  0  0  0  0  0  0  0  0  0  0
    0.4570   -1.0430    0.0000 C   0  0  0  0  0  0  0  0  0  0  0  0
   -0.8420   -1.7930    0.0000 C   0  0  0  0  0  0  0  0  0  0  0  0
   -2.1410   -1.0430    0.0000 N   0  0  0  0  0  0  0  0  0  0  0  0
    1.7560   -1.7930    0.0000 C   0  0  0  0  0  0  0  0  0  0  0  0
    3.0550   -1.0430    0.0000 C   0  0  0  0  0  0  0  0  0  0  0  0
    4.3540   -1.7930    0.0000 C   0  0  0  0  0  0  0  0  0  0  0  0
    5.6530   -1.0430    0.0000 O   0  0  0  0  0  0  0  0  0  0  0  0
  1  2  2  0  0  0  0
  2  3  1  0  0  0  0
  2  5  1  0  0  0  0
  3  4  1  0  0  0  0
  5  6  1  0  0  0  0
  6  7  1  0  0  0  0
  7  8  2  0  0  0  0
M  END
>  <name>
O=C(CN)CC[C;ester]=O

>  <apo>
1

>  <freq>
1

>  <freq0>
0

>  <freq1>
1

>  <freqA>
0.99887151

>  <a_count>
17

$$$$

  MOE2015           2D

  7  6  0  0  0  0  0  0  0  0999 V2000
    0.0800   -1.4140    0.0000 O   0  0  0  0  0  0  0  0  0  0  0  0
    1.3800   -0.6640    0.0000 C   0  0  0  0  0  0  0  0  0  0  0  0
    2.6790   -1.4140    0.0000 N   0  0  0  0  0  0  0  0  0  0  0  0
    3.9780   -0.6640    0.0000 C   0  0  0  0  0  0  0  0  0  0  0  0
    5.2770   -1.4140    0.0000 C   0  0  0  0  0  0  0  0  0  0  0  0
    3.9780    0.8360    0.0000 C   0  0  0  0  0  0  0  0  0  0  0  0
    1.3800    0.8360    0.0000 N   0  0  0  0  0  0  0  0  0  0  0  0
  1  2  2  0  0  0  0
  2  3  1  0  0  0  0
  2  7  1  0  0  0  0
  3  4  1  0  0  0  0
  4  5  1  0  0  0  0
  4  6  1  0  0  0  0
M  END
>  <name>
O=C(NC(C)C)[N;so2amide]

>  <apo>
1

>  <freq>
1

>  <freq0>
0

>  <freq1>
1

>  <freqA>
0.99887151

>  <a_count>
17

$$$$

  MOE2015           2D

  7  6  0  0  0  0  0  0  0  0999 V2000
   -0.0760   -1.5710    0.0000 O   0  0  0  0  0  0  0  0  0  0  0  0
    1.2230   -0.8210    0.0000 C   0  0  0  0  0  0  0  0  0  0  0  0
    2.5220   -1.5710    0.0000 N   0  0  0  0  0  0  0  0  0  0  0  0
    3.8210   -0.8210    0.0000 C   0  0  0  0  0  0  0  0  0  0  0  0
    5.1200   -1.5710    0.0000 C   0  0  0  0  0  0  0  0  0  0  0  0
    6.4190   -0.8210    0.0000 C   0  0  0  0  0  0  0  0  0  0  0  0
    1.2230    0.6790    0.0000 N   0  0  0  0  0  0  0  0  0  0  0  0
  1  2  2  0  0  0  0
  2  3  1  0  0  0  0
  2  7  1  0  0  0  0
  3  4  1  0  0  0  0
  4  5  1  0  0  0  0
  5  6  1  0  0  0  0
M  END
>  <name>
O=C(NCCC)[N;so2amide]

>  <apo>
1

>  <freq>
1

>  <freq0>
0

>  <freq1>
1

>  <freqA>
0.99887151

>  <a_count>
17

$$$$

  MOE2015           2D

  9  8  0  0  0  0  0  0  0  0999 V2000
    4.2500   -0.4330    0.0000 O   0  0  0  0  0  0  0  0  0  0  0  0
    3.5000   -1.7320    0.0000 C   0  0  0  0  0  0  0  0  0  0  0  0
    4.2500   -3.0310    0.0000 O   0  0  0  0  0  0  0  0  0  0  0  0
    2.0000   -1.7320    0.0000 C   0  0  0  0  0  0  0  0  0  0  0  0
    1.2500   -0.4330    0.0000 C   0  0  0  0  0  0  0  0  0  0  0  0
    2.0000    0.8660    0.0000 O   0  0  0  0  0  0  0  0  0  0  0  0
   -0.2500   -0.4330    0.0000 O   0  0  0  0  0  0  0  0  0  0  0  0
    1.2500   -3.0310    0.0000 C   0  0  0  0  0  0  0  0  0  0  0  0
   -0.2500   -3.0310    0.0000 C   0  0  0  0  0  0  0  0  0  0  0  0
  1  2  2  0  0  0  0
  2  3  1  0  0  0  0
  2  4  1  0  0  0  0
  4  5  1  0  0  0  0
  4  8  1  0  0  0  0
  5  6  2  0  0  0  0
  5  7  1  0  0  0  0
  8  9  1  0  0  0  0
M  END
>  <name>
O=C(O)C(C(=O)O)C[C;amine]

>  <apo>
1

>  <freq>
1

>  <freq0>
0

>  <freq1>
1

>  <freqA>
0.99887151

>  <a_count>
17

$$$$

  MOE2015           2D

 11 11  0  0  1  0  0  0  0  0999 V2000
    0.9710    4.1630    0.0000 O   0  0  0  0  0  0  0  0  0  0  0  0
    0.2210    2.8640    0.0000 C   0  0  0  0  0  0  0  0  0  0  0  0
   -1.2790    2.8640    0.0000 O   0  0  0  0  0  0  0  0  0  0  0  0
    0.9710    1.5650    0.0000 C   0  0  3  0  0  0  0  0  0  0  0  0
    0.2210    0.2660    0.0000 C   0  0  0  0  0  0  0  0  0  0  0  0
   -1.2790    0.2660    0.0000 O   0  0  0  0  0  0  0  0  0  0  0  0
    2.4710    1.5650    0.0000 C   0  0  0  0  0  0  0  0  0  0  0  0
    3.3530    0.3520    0.0000 C   0  0  0  0  0  0  0  0  0  0  0  0
    4.7790    0.8150    0.0000 S   0  0  0  0  0  0  0  0  0  0  0  0
    4.7790    2.3150    0.0000 C   0  0  0  0  0  0  0  0  0  0  0  0
    3.3530    2.7790    0.0000 C   0  0  0  0  0  0  0  0  0  0  0  0
  1  2  2  0  0  0  0
  2  3  1  0  0  0  0
  2  4  1  0  0  0  0
  4  5  1  0  0  0  0
  4  7  1  0  0  0  0
  5  6  2  0  0  0  0
  7  8  2  0  0  0  0
  7 11  1  0  0  0  0
  8  9  1  0  0  0  0
  9 10  1  0  0  0  0
 10 11  2  0  0  0  0
M  END
>  <name>
O=C(O)C([C;amide]=O)c1cscc1

>  <apo>
1

>  <freq>
1

>  <freq0>
0

>  <freq1>
1

>  <freqA>
0.99887151

>  <a_count>
17

$$$$

  MOE2015           2D

  7  6  0  0  0  0  0  0  0  0999 V2000
   -0.0760   -1.5710    0.0000 O   0  0  0  0  0  0  0  0  0  0  0  0
    1.2230   -0.8210    0.0000 C   0  0  0  0  0  0  0  0  0  0  0  0
    1.2230    0.6790    0.0000 O   0  0  0  0  0  0  0  0  0  0  0  0
    2.5220   -1.5710    0.0000 C   0  0  0  0  0  0  0  0  0  0  0  0
    3.8210   -0.8210    0.0000 C   0  0  0  0  0  0  0  0  0  0  0  0
    5.1200   -1.5710    0.0000 C   0  0  0  0  0  0  0  0  0  0  0  0
    6.4190   -0.8210    0.0000 C   0  0  0  0  0  0  0  0  0  0  0  0
  1  2  2  0  0  0  0
  2  3  1  0  0  0  0
  2  4  1  0  0  0  0
  4  5  1  0  0  0  0
  5  6  1  0  0  0  0
  6  7  1  0  0  0  0
M  END
>  <name>
O=C(O)CC[C;olefin]C

>  <apo>
1

>  <freq>
1

>  <freq0>
0

>  <freq1>
1

>  <freqA>
0.99887151

>  <a_count>
17

$$$$

  MOE2015           2D

 10 10  0  0  0  0  0  0  0  0999 V2000
    7.0320   -4.0600    0.0000 O   0  0  0  0  0  0  0  0  0  0  0  0
    6.2820   -2.7610    0.0000 C   0  0  0  0  0  0  0  0  0  0  0  0
    7.0320   -1.4620    0.0000 O   0  0  0  0  0  0  0  0  0  0  0  0
    4.7820   -2.7610    0.0000 C   0  0  0  0  0  0  0  0  0  0  0  0
    4.0320   -1.4620    0.0000 C   0  0  0  0  0  0  0  0  0  0  0  0
    2.5320   -1.4620    0.0000 C   0  0  0  0  0  0  0  0  0  0  0  0
    1.6500   -0.2480    0.0000 O   0  0  0  0  0  0  0  0  0  0  0  0
    0.2240   -0.7120    0.0000 C   0  0  0  0  0  0  0  0  0  0  0  0
    0.2240   -2.2120    0.0000 C   0  0  0  0  0  0  0  0  0  0  0  0
    1.6500   -2.6750    0.0000 N   0  0  0  0  0  0  0  0  0  0  0  0
  1  2  2  0  0  0  0
  2  3  1  0  0  0  0
  2  4  1  0  0  0  0
  4  5  1  0  0  0  0
  5  6  1  0  0  0  0
  6  7  1  0  0  0  0
  6 10  2  0  0  0  0
  7  8  1  0  0  0  0
  8  9  2  0  0  0  0
  9 10  1  0  0  0  0
M  END
>  <name>
O=C(O)CCc1o[c;biphenyl][c;biphenyl]n1

>  <apo>
2

>  <freq>
1

>  <freq0>
0

>  <freq1>
1

>  <freqA>
0.99887151

>  <a_count>
17

$$$$

  MOE2015           2D

  7  6  0  0  0  0  0  0  0  0999 V2000
   -0.0760   -1.5710    0.0000 O   0  0  0  0  0  0  0  0  0  0  0  0
    1.2230   -0.8210    0.0000 C   0  0  0  0  0  0  0  0  0  0  0  0
    1.2230    0.6790    0.0000 O   0  0  0  0  0  0  0  0  0  0  0  0
    2.5220   -1.5710    0.0000 C   0  0  0  0  0  0  0  0  0  0  0  0
    3.8210   -0.8210    0.0000 C   0  0  0  0  0  0  0  0  0  0  0  0
    5.1200   -1.5710    0.0000 C   0  0  0  0  0  0  0  0  0  0  0  0
    6.4190   -0.8210    0.0000 C   0  0  0  0  0  0  0  0  0  0  0  0
  1  2  2  0  0  0  0
  2  3  1  0  0  0  0
  2  4  1  0  0  0  0
  4  5  1  0  0  0  0
  5  6  1  0  0  0  0
  6  7  1  0  0  0  0
M  END
>  <name>
O=C(O)[C;olefin]CC[C;olefin]

>  <apo>
2

>  <freq>
1

>  <freq0>
0

>  <freq1>
1

>  <freqA>
0.99887151

>  <a_count>
17

$$$$

  MOE2015           2D

 11 11  0  0  1  0  0  0  0  0999 V2000
    0.9710    4.1630    0.0000 O   0  0  0  0  0  0  0  0  0  0  0  0
    0.2210    2.8640    0.0000 C   0  0  0  0  0  0  0  0  0  0  0  0
   -1.2790    2.8640    0.0000 O   0  0  0  0  0  0  0  0  0  0  0  0
    0.9710    1.5650    0.0000 C   0  0  1  0  0  0  0  0  0  0  0  0
    0.2210    0.2660    0.0000 C   0  0  0  0  0  0  0  0  0  0  0  0
   -1.2790    0.2660    0.0000 O   0  0  0  0  0  0  0  0  0  0  0  0
    2.4710    1.5650    0.0000 C   0  0  0  0  0  0  0  0  0  0  0  0
    3.3530    0.3520    0.0000 C   0  0  0  0  0  0  0  0  0  0  0  0
    4.7790    0.8150    0.0000 S   0  0  0  0  0  0  0  0  0  0  0  0
    4.7790    2.3150    0.0000 C   0  0  0  0  0  0  0  0  0  0  0  0
    3.3530    2.7790    0.0000 C   0  0  0  0  0  0  0  0  0  0  0  0
  1  2  2  0  0  0  0
  2  3  1  0  0  0  0
  4  2  1  6  0  0  0
  4  5  1  0  0  0  0
  4  7  1  0  0  0  0
  5  6  2  0  0  0  0
  7  8  2  0  0  0  0
  7 11  1  0  0  0  0
  8  9  1  0  0  0  0
  9 10  1  0  0  0  0
 10 11  2  0  0  0  0
M  END
>  <name>
O=C(O)[C@@H]([C;amide]=O)c1cscc1

>  <apo>
1

>  <freq>
1

>  <freq0>
0

>  <freq1>
1

>  <freqA>
0.99887151

>  <a_count>
17

$$$$

  MOE2015           2D

  8  8  0  0  1  0  0  0  0  0999 V2000
    4.5710   -2.6390    0.0000 O   0  0  0  0  0  0  0  0  0  0  0  0
    3.8210   -1.3400    0.0000 C   0  0  0  0  0  0  0  0  0  0  0  0
    4.5710   -0.0410    0.0000 O   0  0  0  0  0  0  0  0  0  0  0  0
    2.3210   -1.3400    0.0000 C   0  0  1  0  0  0  0  0  0  0  0  0
    1.4400   -0.1270    0.0000 N   0  0  0  0  0  0  0  0  0  0  0  0
    0.0130   -0.5900    0.0000 C   0  0  0  0  0  0  0  0  0  0  0  0
    0.0130   -2.0900    0.0000 C   0  0  0  0  0  0  0  0  0  0  0  0
    1.4400   -2.5540    0.0000 C   0  0  0  0  0  0  0  0  0  0  0  0
  1  2  2  0  0  0  0
  2  3  1  0  0  0  0
  4  2  1  6  0  0  0
  4  5  1  0  0  0  0
  4  8  1  0  0  0  0
  5  6  1  0  0  0  0
  6  7  1  0  0  0  0
  7  8  1  0  0  0  0
M  END
>  <name>
O=C(O)[C@H]1[N;amide]C[C;thioether]C1

>  <apo>
2

>  <freq>
1

>  <freq0>
0

>  <freq1>
1

>  <freqA>
0.99887151

>  <a_count>
17

$$$$

  MOE2015           2D

 11 11  0  0  0  0  0  0  0  0999 V2000
    5.5230   -0.5900    0.0000 O   0  0  0  0  0  0  0  0  0  0  0  0
    4.7730    0.7090    0.0000 C   0  0  0  0  0  0  0  0  0  0  0  0
    5.5230    2.0080    0.0000 O   0  0  0  0  0  0  0  0  0  0  0  0
    3.2730    0.7090    0.0000 C   0  0  0  0  0  0  0  0  0  0  0  0
    2.5230    2.0080    0.0000 C   0  0  0  0  0  0  0  0  0  0  0  0
    3.2730    3.3070    0.0000 C   0  0  0  0  0  0  0  0  0  0  0  0
    2.5230    4.6060    0.0000 O   0  0  0  0  0  0  0  0  0  0  0  0
    1.0230    2.0080    0.0000 C   0  0  0  0  0  0  0  0  0  0  0  0
    0.2730    0.7090    0.0000 C   0  0  0  0  0  0  0  0  0  0  0  0
    1.0230   -0.5900    0.0000 C   0  0  0  0  0  0  0  0  0  0  0  0
    2.5230   -0.5900    0.0000 C   0  0  0  0  0  0  0  0  0  0  0  0
  1  2  2  0  0  0  0
  2  3  1  0  0  0  0
  2  4  1  0  0  0  0
  4  5  1  0  0  0  0
  4 11  2  0  0  0  0
  5  6  1  0  0  0  0
  5  8  2  0  0  0  0
  6  7  2  0  0  0  0
  8  9  1  0  0  0  0
  9 10  2  0  0  0  0
 10 11  1  0  0  0  0
M  END
>  <name>
O=C(O)c1c([C;amide]=O)cccc1

>  <apo>
1

>  <freq>
1

>  <freq0>
0

>  <freq1>
1

>  <freqA>
0.99887151

>  <a_count>
17

$$$$

  MOE2015           2D

 10 10  0  0  0  0  0  0  0  0999 V2000
    5.6250    3.2480    0.0000 O   0  0  0  0  0  0  0  0  0  0  0  0
    4.8750    1.9490    0.0000 C   0  0  0  0  0  0  0  0  0  0  0  0
    5.6250    0.6500    0.0000 O   0  0  0  0  0  0  0  0  0  0  0  0
    3.3750    1.9490    0.0000 C   0  0  0  0  0  0  0  0  0  0  0  0
    2.6250    0.6500    0.0000 C   0  0  0  0  0  0  0  0  0  0  0  0
    1.1250    0.6500    0.0000 C   0  0  0  0  0  0  0  0  0  0  0  0
    0.3750   -0.6500    0.0000 N   0  0  0  0  0  0  0  0  0  0  0  0
    0.3750    1.9490    0.0000 C   0  0  0  0  0  0  0  0  0  0  0  0
    1.1250    3.2480    0.0000 C   0  0  0  0  0  0  0  0  0  0  0  0
    2.6250    3.2480    0.0000 C   0  0  0  0  0  0  0  0  0  0  0  0
  1  2  2  0  0  0  0
  2  3  1  0  0  0  0
  2  4  1  0  0  0  0
  4  5  1  0  0  0  0
  4 10  2  0  0  0  0
  5  6  2  0  0  0  0
  6  7  1  0  0  0  0
  6  8  1  0  0  0  0
  8  9  2  0  0  0  0
  9 10  1  0  0  0  0
M  END
>  <name>
O=C(O)c1cc([N;amide])ccc1

>  <apo>
1

>  <freq>
1

>  <freq0>
0

>  <freq1>
1

>  <freqA>
0.99887151

>  <a_count>
17

$$$$

  MOE2015           2D

 12 13  0  0  0  0  0  0  0  0999 V2000
    6.7450    3.8940    0.0000 O   0  0  0  0  0  0  0  0  0  0  0  0
    5.9950    2.5950    0.0000 C   0  0  0  0  0  0  0  0  0  0  0  0
    6.7450    1.2960    0.0000 O   0  0  0  0  0  0  0  0  0  0  0  0
    4.4950    2.5950    0.0000 C   0  0  0  0  0  0  0  0  0  0  0  0
    3.7450    1.2960    0.0000 C   0  0  0  0  0  0  0  0  0  0  0  0
    2.2450    1.2960    0.0000 C   0  0  0  0  0  0  0  0  0  0  0  0
    1.2410    0.1810    0.0000 O   0  0  0  0  0  0  0  0  0  0  0  0
   -0.1290    0.7920    0.0000 C   0  0  0  0  0  0  0  0  0  0  0  0
    0.0280    2.2830    0.0000 N   0  0  0  0  0  0  0  0  0  0  0  0
    1.4950    2.5950    0.0000 C   0  0  0  0  0  0  0  0  0  0  0  0
    2.2450    3.8940    0.0000 C   0  0  0  0  0  0  0  0  0  0  0  0
    3.7450    3.8940    0.0000 C   0  0  0  0  0  0  0  0  0  0  0  0
  1  2  2  0  0  0  0
  2  3  1  0  0  0  0
  2  4  1  0  0  0  0
  4  5  1  0  0  0  0
  4 12  2  0  0  0  0
  5  6  2  0  0  0  0
  6  7  1  0  0  0  0
  6 10  1  0  0  0  0
  7  8  1  0  0  0  0
  8  9  2  0  0  0  0
  9 10  1  0  0  0  0
 10 11  2  0  0  0  0
 11 12  1  0  0  0  0
M  END
>  <name>
O=C(O)c1cc2o[c;biphenyl]nc2cc1

>  <apo>
1

>  <freq>
1

>  <freq0>
0

>  <freq1>
1

>  <freqA>
0.99887151

>  <a_count>
17

$$$$

  MOE2015           2D

  8  8  0  0  0  0  0  0  0  0999 V2000
    4.2920    1.1500    0.0000 O   0  0  0  0  0  0  0  0  0  0  0  0
    2.9930    0.4000    0.0000 S   0  0  0  0  0  0  0  0  0  0  0  0
    4.2920   -0.3500    0.0000 O   0  0  0  0  0  0  0  0  0  0  0  0
    2.2430    1.6990    0.0000 C   0  0  0  0  0  0  0  0  0  0  0  0
    0.7430    1.6990    0.0000 C   0  0  0  0  0  0  0  0  0  0  0  0
   -0.0070    0.4000    0.0000 N   0  0  0  0  0  0  0  0  0  0  0  0
    0.7430   -0.8990    0.0000 C   0  0  0  0  0  0  0  0  0  0  0  0
    2.2430   -0.8990    0.0000 C   0  0  0  0  0  0  0  0  0  0  0  0
  1  2  2  0  0  0  0
  2  3  2  0  0  0  0
  2  4  1  0  0  0  0
  2  8  1  0  0  0  0
  4  5  1  0  0  0  0
  5  6  1  0  0  0  0
  6  7  1  0  0  0  0
  7  8  1  0  0  0  0
M  END
>  <name>
O=S1(=O)CC[N;amine]CC1

>  <apo>
1

>  <freq>
1

>  <freq0>
0

>  <freq1>
1

>  <freqA>
0.99887151

>  <a_count>
17

$$$$

  MOE2015           2D

  7  6  0  0  1  0  0  0  0  0999 V2000
   -0.3690   -1.3770    0.0000 O   0  0  0  0  0  0  0  0  0  0  0  0
    0.9300   -2.1270    0.0000 C   0  0  0  0  0  0  0  0  0  0  0  0
    2.2290   -1.3770    0.0000 C   0  0  3  0  0  0  0  0  0  0  0  0
    2.2290    0.1230    0.0000 N   0  0  0  0  0  0  0  0  0  0  0  0
    3.5280   -2.1270    0.0000 C   0  0  0  0  0  0  0  0  0  0  0  0
    4.8270   -1.3770    0.0000 C   0  0  0  0  0  0  0  0  0  0  0  0
    6.1260   -2.1270    0.0000 N   0  0  0  0  0  0  0  0  0  0  0  0
  1  2  2  0  0  0  0
  2  3  1  0  0  0  0
  3  4  1  0  0  0  0
  3  5  1  0  0  0  0
  5  6  1  0  0  0  0
  6  7  1  0  0  0  0
M  END
>  <name>
O=[C;amide]C([N;amide])CC[N;amide]

>  <apo>
3

>  <freq>
1

>  <freq0>
0

>  <freq1>
1

>  <freqA>
0.99887151

>  <a_count>
17

$$$$

  MOE2015           2D

  9  9  0  0  0  0  0  0  0  0999 V2000
    5.5000   -3.1750    0.0000 O   0  0  0  0  0  0  0  0  0  0  0  0
    4.7500   -1.8760    0.0000 C   0  0  0  0  0  0  0  0  0  0  0  0
    3.2500   -1.8760    0.0000 C   0  0  0  0  0  0  0  0  0  0  0  0
    2.5000   -0.5770    0.0000 C   0  0  0  0  0  0  0  0  0  0  0  0
    3.2500    0.7220    0.0000 C   0  0  0  0  0  0  0  0  0  0  0  0
    1.0000   -0.5770    0.0000 O   0  0  0  0  0  0  0  0  0  0  0  0
    0.2500   -1.8760    0.0000 C   0  0  0  0  0  0  0  0  0  0  0  0
    1.0000   -3.1750    0.0000 C   0  0  0  0  0  0  0  0  0  0  0  0
    2.5000   -3.1750    0.0000 S   0  0  0  0  0  0  0  0  0  0  0  0
  1  2  2  0  0  0  0
  2  3  1  0  0  0  0
  3  4  2  0  0  0  0
  3  9  1  0  0  0  0
  4  5  1  0  0  0  0
  4  6  1  0  0  0  0
  6  7  1  0  0  0  0
  7  8  1  0  0  0  0
  8  9  1  0  0  0  0
M  END
>  <name>
O=[C;amide]C1=C(C)OCCS1

>  <apo>
1

>  <freq>
1

>  <freq0>
0

>  <freq1>
1

>  <freqA>
0.99887151

>  <a_count>
17

$$$$

  MOE2015           2D

  7  7  0  0  1  0  0  0  0  0999 V2000
    5.8020    1.6060    0.0000 O   0  0  0  0  0  0  0  0  0  0  0  0
    4.5160    0.8350    0.0000 C   0  0  0  0  0  0  0  0  0  0  0  0
    3.2040    1.5630    0.0000 C   0  0  2  0  0  0  0  0  0  0  0  0
    1.7050    1.5390    0.0000 C   0  0  0  0  0  0  0  0  0  0  0  0
    1.1530    0.1430    0.0000 C   0  0  0  0  0  0  0  0  0  0  0  0
    0.2140    1.7100    0.0000 C   0  0  0  0  0  0  0  0  0  0  0  0
    2.4330    2.8500    0.0000 C   0  0  0  0  0  0  0  0  0  0  0  0
  1  2  2  0  0  0  0
  3  2  1  6  0  0  0
  3  4  1  0  0  0  0
  3  7  1  0  0  0  0
  4  5  1  0  0  0  0
  4  6  1  0  0  0  0
  4  7  1  0  0  0  0
M  END
>  <name>
O=[C;amide][C@@H]1C(C)(C)C1

>  <apo>
1

>  <freq>
1

>  <freq0>
0

>  <freq1>
1

>  <freqA>
0.99887151

>  <a_count>
17

$$$$

  MOE2015           2D

  8  8  0  0  1  0  0  0  0  0999 V2000
    5.5980   -1.5700    0.0000 O   0  0  0  0  0  0  0  0  0  0  0  0
    4.3170   -0.7900    0.0000 C   0  0  0  0  0  0  0  0  0  0  0  0
    3.0000   -1.5100    0.0000 C   0  0  2  0  0  0  0  0  0  0  0  0
    1.6450   -0.8680    0.0000 C   0  0  1  0  0  0  0  0  0  0  0  0
    1.3670    0.6060    0.0000 O   0  0  0  0  0  0  0  0  0  0  0  0
    0.6150   -1.9590    0.0000 C   0  0  0  0  0  0  0  0  0  0  0  0
    1.3350   -3.2750    0.0000 C   0  0  0  0  0  0  0  0  0  0  0  0
    2.8090   -2.9970    0.0000 N   0  0  0  0  0  0  0  0  0  0  0  0
  1  2  2  0  0  0  0
  3  2  1  1  0  0  0
  3  4  1  0  0  0  0
  3  8  1  0  0  0  0
  4  5  1  6  0  0  0
  4  6  1  0  0  0  0
  6  7  1  0  0  0  0
  7  8  1  0  0  0  0
M  END
>  <name>
O=[C;amide][C@@H]1[C@@H](O)CC[N;amide]1

>  <apo>
2

>  <freq>
1

>  <freq0>
0

>  <freq1>
1

>  <freqA>
0.99887151

>  <a_count>
17

$$$$

  MOE2015           2D

  9  9  0  0  0  0  0  0  0  0999 V2000
    5.5000   -3.1750    0.0000 O   0  0  0  0  0  0  0  0  0  0  0  0
    4.7500   -1.8760    0.0000 C   0  0  0  0  0  0  0  0  0  0  0  0
    3.2500   -1.8760    0.0000 C   0  0  0  0  0  0  0  0  0  0  0  0
    2.5000   -0.5770    0.0000 C   0  0  0  0  0  0  0  0  0  0  0  0
    3.2500    0.7220    0.0000 C   0  0  0  0  0  0  0  0  0  0  0  0
    1.0000   -0.5770    0.0000 C   0  0  0  0  0  0  0  0  0  0  0  0
    0.2500   -1.8760    0.0000 C   0  0  0  0  0  0  0  0  0  0  0  0
    1.0000   -3.1750    0.0000 C   0  0  0  0  0  0  0  0  0  0  0  0
    2.5000   -3.1750    0.0000 C   0  0  0  0  0  0  0  0  0  0  0  0
  1  2  2  0  0  0  0
  2  3  1  0  0  0  0
  3  4  1  0  0  0  0
  3  9  2  0  0  0  0
  4  5  1  0  0  0  0
  4  6  2  0  0  0  0
  6  7  1  0  0  0  0
  7  8  2  0  0  0  0
  8  9  1  0  0  0  0
M  END
>  <name>
O=[C;amide]c1c(C)[c;biphenyl]ccc1

>  <apo>
2

>  <freq>
1

>  <freq0>
0

>  <freq1>
1

>  <freqA>
0.99887151

>  <a_count>
17

$$$$

  MOE2015           2D

  9  9  0  0  0  0  0  0  0  0999 V2000
    5.5000   -3.1750    0.0000 O   0  0  0  0  0  0  0  0  0  0  0  0
    4.7500   -1.8760    0.0000 C   0  0  0  0  0  0  0  0  0  0  0  0
    3.2500   -1.8760    0.0000 C   0  0  0  0  0  0  0  0  0  0  0  0
    2.5000   -0.5770    0.0000 C   0  0  0  0  0  0  0  0  0  0  0  0
    3.2500    0.7220    0.0000 C   0  0  0  0  0  0  0  0  0  0  0  0
    1.0000   -0.5770    0.0000 C   0  0  0  0  0  0  0  0  0  0  0  0
    0.2500   -1.8760    0.0000 C   0  0  0  0  0  0  0  0  0  0  0  0
    1.0000   -3.1750    0.0000 C   0  0  0  0  0  0  0  0  0  0  0  0
    2.5000   -3.1750    0.0000 C   0  0  0  0  0  0  0  0  0  0  0  0
  1  2  2  0  0  0  0
  2  3  1  0  0  0  0
  3  4  1  0  0  0  0
  3  9  2  0  0  0  0
  4  5  1  0  0  0  0
  4  6  2  0  0  0  0
  6  7  1  0  0  0  0
  7  8  2  0  0  0  0
  8  9  1  0  0  0  0
M  END
>  <name>
O=[C;amide]c1c(C)cccc1

>  <apo>
1

>  <freq>
1

>  <freq0>
0

>  <freq1>
1

>  <freqA>
0.99887151

>  <a_count>
17

$$$$

  MOE2015           2D

 10 10  0  0  0  0  0  0  0  0999 V2000
   -0.3750   -3.5070    0.0000 O   0  0  0  0  0  0  0  0  0  0  0  0
    0.3750   -2.2080    0.0000 C   0  0  0  0  0  0  0  0  0  0  0  0
    1.8750   -2.2080    0.0000 C   0  0  0  0  0  0  0  0  0  0  0  0
    2.6250   -0.9090    0.0000 C   0  0  0  0  0  0  0  0  0  0  0  0
    1.8750    0.3900    0.0000 O   0  0  0  0  0  0  0  0  0  0  0  0
    4.1250   -0.9090    0.0000 C   0  0  0  0  0  0  0  0  0  0  0  0
    4.8750   -2.2080    0.0000 C   0  0  0  0  0  0  0  0  0  0  0  0
    6.3750   -2.2080    0.0000 C   0  0  0  0  0  0  0  0  0  0  0  0
    4.1250   -3.5070    0.0000 N   0  0  0  0  0  0  0  0  0  0  0  0
    2.6250   -3.5070    0.0000 C   0  0  0  0  0  0  0  0  0  0  0  0
  1  2  2  0  0  0  0
  2  3  1  0  0  0  0
  3  4  1  0  0  0  0
  3 10  2  0  0  0  0
  4  5  1  0  0  0  0
  4  6  2  0  0  0  0
  6  7  1  0  0  0  0
  7  8  1  0  0  0  0
  7  9  2  0  0  0  0
  9 10  1  0  0  0  0
M  END
>  <name>
O=[C;amide]c1c(O)cc(C)nc1

>  <apo>
1

>  <freq>
1

>  <freq0>
0

>  <freq1>
1

>  <freqA>
0.99887151

>  <a_count>
17

$$$$

  MOE2015           2D

  9  9  0  0  0  0  0  0  0  0999 V2000
    6.2970   -2.3540    0.0000 O   0  0  0  0  0  0  0  0  0  0  0  0
    4.9980   -3.1040    0.0000 C   0  0  0  0  0  0  0  0  0  0  0  0
    3.6990   -2.3540    0.0000 C   0  0  0  0  0  0  0  0  0  0  0  0
    2.4000   -3.1040    0.0000 C   0  0  0  0  0  0  0  0  0  0  0  0
    1.1010   -2.3540    0.0000 C   0  0  0  0  0  0  0  0  0  0  0  0
   -0.1980   -3.1040    0.0000 C   0  0  0  0  0  0  0  0  0  0  0  0
    1.1010   -0.8540    0.0000 C   0  0  0  0  0  0  0  0  0  0  0  0
    2.4000   -0.1040    0.0000 C   0  0  0  0  0  0  0  0  0  0  0  0
    3.6990   -0.8540    0.0000 C   0  0  0  0  0  0  0  0  0  0  0  0
  1  2  2  0  0  0  0
  2  3  1  0  0  0  0
  3  4  1  0  0  0  0
  3  9  2  0  0  0  0
  4  5  2  0  0  0  0
  5  6  1  0  0  0  0
  5  7  1  0  0  0  0
  7  8  2  0  0  0  0
  8  9  1  0  0  0  0
M  END
>  <name>
O=[C;amide]c1cc(C)ccc1

>  <apo>
1

>  <freq>
1

>  <freq0>
0

>  <freq1>
1

>  <freqA>
0.99887151

>  <a_count>
17

$$$$

  MOE2015           2D

 11 12  0  0  0  0  0  0  0  0999 V2000
    7.4340    1.9920    0.0000 O   0  0  0  0  0  0  0  0  0  0  0  0
    6.1350    1.2420    0.0000 C   0  0  0  0  0  0  0  0  0  0  0  0
    4.8360    1.9920    0.0000 C   0  0  0  0  0  0  0  0  0  0  0  0
    3.5370    1.2420    0.0000 C   0  0  0  0  0  0  0  0  0  0  0  0
    2.2380    1.9920    0.0000 C   0  0  0  0  0  0  0  0  0  0  0  0
    0.8110    1.5280    0.0000 O   0  0  0  0  0  0  0  0  0  0  0  0
   -0.0700    2.7420    0.0000 C   0  0  0  0  0  0  0  0  0  0  0  0
    0.8110    3.9560    0.0000 C   0  0  0  0  0  0  0  0  0  0  0  0
    2.2380    3.4920    0.0000 C   0  0  0  0  0  0  0  0  0  0  0  0
    3.5370    4.2420    0.0000 C   0  0  0  0  0  0  0  0  0  0  0  0
    4.8360    3.4920    0.0000 C   0  0  0  0  0  0  0  0  0  0  0  0
  1  2  2  0  0  0  0
  2  3  1  0  0  0  0
  3  4  1  0  0  0  0
  3 11  2  0  0  0  0
  4  5  2  0  0  0  0
  5  6  1  0  0  0  0
  5  9  1  0  0  0  0
  6  7  1  0  0  0  0
  7  8  2  0  0  0  0
  8  9  1  0  0  0  0
  9 10  2  0  0  0  0
 10 11  1  0  0  0  0
M  END
>  <name>
O=[C;amide]c1cc2occc2cc1

>  <apo>
1

>  <freq>
1

>  <freq0>
0

>  <freq1>
1

>  <freqA>
0.99887151

>  <a_count>
17

$$$$

  MOE2015           2D

 10 10  0  0  0  0  0  0  0  0999 V2000
   -0.3750   -3.5070    0.0000 O   0  0  0  0  0  0  0  0  0  0  0  0
    0.3750   -2.2080    0.0000 C   0  0  0  0  0  0  0  0  0  0  0  0
    1.8750   -2.2080    0.0000 C   0  0  0  0  0  0  0  0  0  0  0  0
    2.6250   -0.9090    0.0000 C   0  0  0  0  0  0  0  0  0  0  0  0
    1.8750    0.3900    0.0000 O   0  0  0  0  0  0  0  0  0  0  0  0
    4.1250   -0.9090    0.0000 C   0  0  0  0  0  0  0  0  0  0  0  0
    4.8750   -2.2080    0.0000 C   0  0  0  0  0  0  0  0  0  0  0  0
    6.3750   -2.2080    0.0000 N   0  0  0  0  0  0  0  0  0  0  0  0
    4.1250   -3.5070    0.0000 C   0  0  0  0  0  0  0  0  0  0  0  0
    2.6250   -3.5070    0.0000 C   0  0  0  0  0  0  0  0  0  0  0  0
  1  2  2  0  0  0  0
  2  3  1  0  0  0  0
  3  4  1  0  0  0  0
  3 10  2  0  0  0  0
  4  5  1  0  0  0  0
  4  6  2  0  0  0  0
  6  7  1  0  0  0  0
  7  8  1  0  0  0  0
  7  9  2  0  0  0  0
  9 10  1  0  0  0  0
M  END
>  <name>
O=[C;ester]c1c(O)cc(N)cc1

>  <apo>
1

>  <freq>
1

>  <freq0>
0

>  <freq1>
1

>  <freqA>
0.99887151

>  <a_count>
17

$$$$

  MOE2015           2D

 10 10  0  0  0  0  0  0  0  0999 V2000
   -0.3750   -3.5070    0.0000 O   0  0  0  0  0  0  0  0  0  0  0  0
    0.3750   -2.2080    0.0000 C   0  0  0  0  0  0  0  0  0  0  0  0
    1.8750   -2.2080    0.0000 C   0  0  0  0  0  0  0  0  0  0  0  0
    2.6250   -0.9090    0.0000 C   0  0  0  0  0  0  0  0  0  0  0  0
    1.8750    0.3900    0.0000 O   0  0  0  0  0  0  0  0  0  0  0  0
    4.1250   -0.9090    0.0000 C   0  0  0  0  0  0  0  0  0  0  0  0
    4.8750   -2.2080    0.0000 C   0  0  0  0  0  0  0  0  0  0  0  0
    6.3750   -2.2080    0.0000 N   0  0  0  0  0  0  0  0  0  0  0  0
    4.1250   -3.5070    0.0000 C   0  0  0  0  0  0  0  0  0  0  0  0
    2.6250   -3.5070    0.0000 C   0  0  0  0  0  0  0  0  0  0  0  0
  1  2  2  0  0  0  0
  2  3  1  0  0  0  0
  3  4  1  0  0  0  0
  3 10  2  0  0  0  0
  4  5  1  0  0  0  0
  4  6  2  0  0  0  0
  6  7  1  0  0  0  0
  7  8  1  0  0  0  0
  7  9  2  0  0  0  0
  9 10  1  0  0  0  0
M  END
>  <name>
O=[C;ester]c1c([O;ether])cc(N)cc1

>  <apo>
2

>  <freq>
1

>  <freq0>
0

>  <freq1>
1

>  <freqA>
0.99887151

>  <a_count>
17

$$$$

  MOE2015           2D

 10 10  0  0  0  0  0  0  0  0999 V2000
    6.7670   -1.8130    0.0000 O   0  0  0  0  0  0  0  0  0  0  0  0
    5.4680   -1.0630    0.0000 C   0  0  0  0  0  0  0  0  0  0  0  0
    4.1690   -1.8130    0.0000 C   0  0  0  0  0  0  0  0  0  0  0  0
    2.8700   -1.0630    0.0000 C   0  0  0  0  0  0  0  0  0  0  0  0
    1.5710   -1.8130    0.0000 C   0  0  0  0  0  0  0  0  0  0  0  0
    0.2720   -1.0630    0.0000 N   0  0  0  0  0  0  0  0  0  0  0  0
    1.5710   -3.3130    0.0000 C   0  0  0  0  0  0  0  0  0  0  0  0
    0.2720   -4.0630    0.0000 O   0  0  0  0  0  0  0  0  0  0  0  0
    2.8700   -4.0630    0.0000 C   0  0  0  0  0  0  0  0  0  0  0  0
    4.1690   -3.3130    0.0000 C   0  0  0  0  0  0  0  0  0  0  0  0
  1  2  2  0  0  0  0
  2  3  1  0  0  0  0
  3  4  1  0  0  0  0
  3 10  2  0  0  0  0
  4  5  2  0  0  0  0
  5  6  1  0  0  0  0
  5  7  1  0  0  0  0
  7  8  1  0  0  0  0
  7  9  2  0  0  0  0
  9 10  1  0  0  0  0
M  END
>  <name>
O=[C;ester]c1cc(N)c([O;ether])cc1

>  <apo>
2

>  <freq>
1

>  <freq0>
0

>  <freq1>
1

>  <freqA>
0.99887151

>  <a_count>
17

$$$$

  MOE2015           2D

 10 10  0  0  0  0  0  0  0  0999 V2000
    6.7670   -1.8130    0.0000 O   0  0  0  0  0  0  0  0  0  0  0  0
    5.4680   -1.0630    0.0000 C   0  0  0  0  0  0  0  0  0  0  0  0
    4.1690   -1.8130    0.0000 C   0  0  0  0  0  0  0  0  0  0  0  0
    2.8700   -1.0630    0.0000 C   0  0  0  0  0  0  0  0  0  0  0  0
    1.5710   -1.8130    0.0000 C   0  0  0  0  0  0  0  0  0  0  0  0
    0.2720   -1.0630    0.0000 O   0  0  0  0  0  0  0  0  0  0  0  0
    1.5710   -3.3130    0.0000 C   0  0  0  0  0  0  0  0  0  0  0  0
    0.2720   -4.0630    0.0000 N   0  0  0  0  0  0  0  0  0  0  0  0
    2.8700   -4.0630    0.0000 C   0  0  0  0  0  0  0  0  0  0  0  0
    4.1690   -3.3130    0.0000 C   0  0  0  0  0  0  0  0  0  0  0  0
  1  2  2  0  0  0  0
  2  3  1  0  0  0  0
  3  4  1  0  0  0  0
  3 10  2  0  0  0  0
  4  5  2  0  0  0  0
  5  6  1  0  0  0  0
  5  7  1  0  0  0  0
  7  8  1  0  0  0  0
  7  9  2  0  0  0  0
  9 10  1  0  0  0  0
M  END
>  <name>
O=[C;ester]c1cc([O;ether])c(N)cc1

>  <apo>
2

>  <freq>
1

>  <freq0>
0

>  <freq1>
1

>  <freqA>
0.99887151

>  <a_count>
17

$$$$

  MOE2015           2D

 10 10  0  0  0  0  0  0  0  0999 V2000
    5.5450   -3.1430    0.0000 O   0  0  0  0  0  0  0  0  0  0  0  0
    4.7740   -1.8560    0.0000 N   0  3  0  0  0  0  0  0  0  0  0  0
    5.5040   -0.5450    0.0000 O   0  5  0  0  0  0  0  0  0  0  0  0
    3.2750   -1.8800    0.0000 C   0  0  0  0  0  0  0  0  0  0  0  0
    2.3740   -0.6800    0.0000 N   0  0  0  0  0  0  0  0  0  0  0  0
    2.8150    0.7530    0.0000 C   0  0  0  0  0  0  0  0  0  0  0  0
    0.9550   -1.1670    0.0000 C   0  0  0  0  0  0  0  0  0  0  0  0
   -0.2730   -0.3040    0.0000 C   0  0  0  0  0  0  0  0  0  0  0  0
    0.9790   -2.6660    0.0000 N   0  0  0  0  0  0  0  0  0  0  0  0
    2.4120   -3.1070    0.0000 C   0  0  0  0  0  0  0  0  0  0  0  0
  1  2  2  0  0  0  0
  2  3  1  0  0  0  0
  2  4  1  0  0  0  0
  4  5  1  0  0  0  0
  4 10  2  0  0  0  0
  5  6  1  0  0  0  0
  5  7  1  0  0  0  0
  7  8  1  0  0  0  0
  7  9  2  0  0  0  0
  9 10  1  0  0  0  0
M  CHG  1   2   1
M  CHG  1   3  -1
M  END
>  <name>
O=[N+]([O-])c1n(C)c([C;ether])nc1

>  <apo>
1

>  <freq>
1

>  <freq0>
0

>  <freq1>
1

>  <freqA>
0.99887151

>  <a_count>
17

$$$$

  MOE2015           2D

  6  5  0  0  1  0  0  0  0  0999 V2000
   -0.3480   -1.2990    0.0000 O   0  0  0  0  0  0  0  0  0  0  0  0
    0.9510   -2.0490    0.0000 C   0  0  0  0  0  0  0  0  0  0  0  0
    2.2500   -1.2990    0.0000 C   0  0  3  0  0  0  0  0  0  0  0  0
    2.2500    0.2010    0.0000 N   0  0  0  0  0  0  0  0  0  0  0  0
    3.5490   -2.0490    0.0000 C   0  0  0  0  0  0  0  0  0  0  0  0
    4.8480   -1.2990    0.0000 C   0  0  0  0  0  0  0  0  0  0  0  0
  1  2  1  0  0  0  0
  2  3  1  0  0  0  0
  3  4  1  0  0  0  0
  3  5  1  0  0  0  0
  5  6  1  0  0  0  0
M  END
>  <name>
OCC([N;amide])CC

>  <apo>
1

>  <freq>
1

>  <freq0>
0

>  <freq1>
1

>  <freqA>
0.99887151

>  <a_count>
17

$$$$

  MOE2015           2D

  6  5  0  0  1  0  0  0  0  0999 V2000
   -0.3480   -1.2990    0.0000 O   0  0  0  0  0  0  0  0  0  0  0  0
    0.9510   -2.0490    0.0000 C   0  0  0  0  0  0  0  0  0  0  0  0
    2.2500   -1.2990    0.0000 C   0  0  1  0  0  0  0  0  0  0  0  0
    2.2500    0.2010    0.0000 N   0  0  0  0  0  0  0  0  0  0  0  0
    3.5490   -2.0490    0.0000 C   0  0  0  0  0  0  0  0  0  0  0  0
    4.8480   -1.2990    0.0000 C   0  0  0  0  0  0  0  0  0  0  0  0
  1  2  1  0  0  0  0
  2  3  1  0  0  0  0
  3  4  1  1  0  0  0
  3  5  1  0  0  0  0
  5  6  1  0  0  0  0
M  END
>  <name>
OC[C@@H]([N;amide])CC

>  <apo>
1

>  <freq>
1

>  <freq0>
0

>  <freq1>
1

>  <freqA>
0.99887151

>  <a_count>
17

$$$$

  MOE2015           2D

  7  7  0  0  1  0  0  0  0  0999 V2000
    4.9030   -0.6040    0.0000 O   0  0  0  0  0  0  0  0  0  0  0  0
    4.1530   -1.9030    0.0000 C   0  0  0  0  0  0  0  0  0  0  0  0
    2.6530   -1.9030    0.0000 C   0  0  2  0  0  0  0  0  0  0  0  0
    1.7710   -3.1160    0.0000 C   0  0  0  0  0  0  0  0  0  0  0  0
    0.3450   -2.6530    0.0000 C   0  0  0  0  0  0  0  0  0  0  0  0
    0.3450   -1.1530    0.0000 C   0  0  0  0  0  0  0  0  0  0  0  0
    1.7710   -0.6890    0.0000 C   0  0  0  0  0  0  0  0  0  0  0  0
  1  2  1  0  0  0  0
  3  2  1  6  0  0  0
  3  4  1  0  0  0  0
  3  7  1  0  0  0  0
  4  5  2  0  0  0  0
  5  6  1  0  0  0  0
  6  7  1  0  0  0  0
M  END
>  <name>
OC[C@@H]1C=C[C;NaroC]C1

>  <apo>
1

>  <freq>
1

>  <freq0>
0

>  <freq1>
1

>  <freqA>
0.99887151

>  <a_count>
17

$$$$

  MOE2015           2D

  7  7  0  0  1  0  0  0  0  0999 V2000
    4.9030   -0.6040    0.0000 O   0  0  0  0  0  0  0  0  0  0  0  0
    4.1530   -1.9030    0.0000 C   0  0  0  0  0  0  0  0  0  0  0  0
    2.6530   -1.9030    0.0000 C   0  0  1  0  0  0  0  0  0  0  0  0
    1.7710   -3.1160    0.0000 O   0  0  0  0  0  0  0  0  0  0  0  0
    0.3450   -2.6530    0.0000 C   0  0  0  0  0  0  0  0  0  0  0  0
    0.3450   -1.1530    0.0000 C   0  0  0  0  0  0  0  0  0  0  0  0
    1.7710   -0.6890    0.0000 C   0  0  0  0  0  0  0  0  0  0  0  0
  1  2  1  0  0  0  0
  3  2  1  1  0  0  0
  3  4  1  0  0  0  0
  3  7  1  0  0  0  0
  4  5  1  0  0  0  0
  5  6  1  0  0  0  0
  6  7  1  0  0  0  0
M  END
>  <name>
OC[C@H]1O[C;NaroC]CC1

>  <apo>
1

>  <freq>
1

>  <freq0>
0

>  <freq1>
1

>  <freqA>
0.99887151

>  <a_count>
17

$$$$

  MOE2015           2D

  6  5  0  0  1  0  0  0  0  0999 V2000
    3.3750    0.6500    0.0000 O   0  0  0  0  0  0  0  0  0  0  0  0
    2.6250   -0.6500    0.0000 C   0  0  1  0  0  0  0  0  0  0  0  0
    1.1250   -0.6500    0.0000 C   0  0  2  0  0  0  0  0  0  0  0  0
    0.3750   -1.9490    0.0000 N   0  0  0  0  0  0  0  0  0  0  0  0
    0.3750    0.6500    0.0000 C   0  0  0  0  0  0  0  0  0  0  0  0
    3.3750   -1.9490    0.0000 C   0  0  0  0  0  0  0  0  0  0  0  0
  2  1  1  6  0  0  0
  2  3  1  0  0  0  0
  2  6  1  0  0  0  0
  3  4  1  0  0  0  0
  3  5  1  6  0  0  0
M  END
>  <name>
O[C@@H]([C@H]([N;amide])[C;thioether])[C;amine]

>  <apo>
3

>  <freq>
1

>  <freq0>
0

>  <freq1>
1

>  <freqA>
0.99887151

>  <a_count>
17

$$$$

  MOE2015           2D

  7  7  0  0  1  0  0  0  0  0999 V2000
    0.6530   -1.2550    0.0000 O   0  0  0  0  0  0  0  0  0  0  0  0
    1.8660   -0.3730    0.0000 C   0  0  2  0  0  0  0  0  0  0  0  0
    1.8660    1.1270    0.0000 C   0  0  1  0  0  0  0  0  0  0  0  0
    0.6530    2.0090    0.0000 O   0  0  0  0  0  0  0  0  0  0  0  0
    3.2930    1.5910    0.0000 C   0  0  0  0  0  0  0  0  0  0  0  0
    4.1740    0.3770    0.0000 C   0  0  0  0  0  0  0  0  0  0  0  0
    3.2930   -0.8360    0.0000 C   0  0  0  0  0  0  0  0  0  0  0  0
  2  1  1  6  0  0  0
  2  3  1  0  0  0  0
  2  7  1  0  0  0  0
  3  4  1  1  0  0  0
  3  5  1  0  0  0  0
  5  6  1  0  0  0  0
  6  7  1  0  0  0  0
M  END
>  <name>
O[C@@H]1[C@@H](O)[C;ether]C[C;NaroC]1

>  <apo>
2

>  <freq>
1

>  <freq0>
0

>  <freq1>
1

>  <freqA>
0.99887151

>  <a_count>
17

$$$$

  MOE2015           2D

  9  9  0  0  0  0  0  0  0  0999 V2000
    5.5980   -1.5000    0.0000 O   0  0  0  0  0  0  0  0  0  0  0  0
    4.2990   -0.7500    0.0000 C   0  0  0  0  0  0  0  0  0  0  0  0
    4.2990    0.7500    0.0000 C   0  0  0  0  0  0  0  0  0  0  0  0
    3.0000    1.5000    0.0000 C   0  0  0  0  0  0  0  0  0  0  0  0
    3.0000    3.0000    0.0000 O   0  0  0  0  0  0  0  0  0  0  0  0
    1.7010    0.7500    0.0000 C   0  0  0  0  0  0  0  0  0  0  0  0
    1.7010   -0.7500    0.0000 C   0  0  0  0  0  0  0  0  0  0  0  0
    0.4020   -1.5000    0.0000 C   0  0  0  0  0  0  0  0  0  0  0  0
    3.0000   -1.5000    0.0000 C   0  0  0  0  0  0  0  0  0  0  0  0
  1  2  1  0  0  0  0
  2  3  1  0  0  0  0
  2  9  2  0  0  0  0
  3  4  2  0  0  0  0
  4  5  1  0  0  0  0
  4  6  1  0  0  0  0
  6  7  2  0  0  0  0
  7  8  1  0  0  0  0
  7  9  1  0  0  0  0
M  END
>  <name>
Oc1cc([O;ether])cc([C;olefin])c1

>  <apo>
2

>  <freq>
1

>  <freq0>
0

>  <freq1>
1

>  <freqA>
0.99887151

>  <a_count>
17

$$$$

  MOE2015           2D

 11 11  0  0  0  0  0  0  0  0999 V2000
   -1.8450   -1.8960    0.0000 P   0  0  0  0  0  0  0  0  0  0  0  0
   -1.8040   -3.3950    0.0000 O   0  0  0  0  0  0  0  0  0  0  0  0
   -1.8860   -0.3960    0.0000 O   0  0  0  0  0  0  0  0  0  0  0  0
   -3.3440   -1.9370    0.0000 O   0  0  0  0  0  0  0  0  0  0  0  0
   -0.3450   -1.8550    0.0000 N   0  0  0  0  0  0  0  0  0  0  0  0
    0.5030   -0.6180    0.0000 C   0  0  0  0  0  0  0  0  0  0  0  0
    0.0010    0.7960    0.0000 O   0  0  0  0  0  0  0  0  0  0  0  0
    1.9420   -1.0420    0.0000 N   0  0  0  0  0  0  0  0  0  0  0  0
    1.9820   -2.5420    0.0000 C   0  0  0  0  0  0  0  0  0  0  0  0
    3.2190   -3.3900    0.0000 C   0  0  0  0  0  0  0  0  0  0  0  0
    0.5690   -3.0440    0.0000 N   0  0  0  0  0  0  0  0  0  0  0  0
  1  2  2  0  0  0  0
  1  3  1  0  0  0  0
  1  4  1  0  0  0  0
  1  5  1  0  0  0  0
  5  6  1  0  0  0  0
  5 11  1  0  0  0  0
  6  7  2  0  0  0  0
  6  8  1  0  0  0  0
  8  9  2  0  0  0  0
  9 10  1  0  0  0  0
  9 11  1  0  0  0  0
M  END
>  <name>
P(=O)(O)(O)N1C(=O)N=C([C;amine])N1

>  <apo>
1

>  <freq>
1

>  <freq0>
0

>  <freq1>
1

>  <freqA>
0.99887151

>  <a_count>
17

$$$$

  MOE2015           2D

  7  6  0  0  0  0  0  0  0  0999 V2000
    0.0000    0.0000    0.0000 S   0  0  0  0  0  0  0  0  0  0  0  0
    0.7500    1.2990    0.0000 O   0  0  0  0  0  0  0  0  0  0  0  0
   -0.7500   -1.2990    0.0000 O   0  0  0  0  0  0  0  0  0  0  0  0
    1.2990   -0.7500    0.0000 C   0  0  0  0  0  0  0  0  0  0  0  0
    2.5980    0.0000    0.0000 C   0  0  0  0  0  0  0  0  0  0  0  0
   -1.2990    0.7500    0.0000 C   0  0  0  0  0  0  0  0  0  0  0  0
   -2.5980    0.0000    0.0000 C   0  0  0  0  0  0  0  0  0  0  0  0
  1  2  2  0  0  0  0
  1  3  2  0  0  0  0
  1  4  1  0  0  0  0
  1  6  1  0  0  0  0
  4  5  1  0  0  0  0
  6  7  1  0  0  0  0
M  END
>  <name>
S(=O)(=O)(C[C;NaroC])CC

>  <apo>
1

>  <freq>
1

>  <freq0>
0

>  <freq1>
1

>  <freqA>
0.99887151

>  <a_count>
17

$$$$

  MOE2015           2D

 10 10  0  0  0  0  0  0  0  0999 V2000
    1.6500   -1.6500    0.0000 S   0  0  0  0  0  0  0  0  0  0  0  0
    1.6500   -0.1500    0.0000 O   0  0  0  0  0  0  0  0  0  0  0  0
    1.6500   -3.1500    0.0000 O   0  0  0  0  0  0  0  0  0  0  0  0
    3.1500   -1.6500    0.0000 N   0  0  0  0  0  0  0  0  0  0  0  0
    0.1500   -1.6500    0.0000 C   0  0  0  0  0  0  0  0  0  0  0  0
   -0.6000   -0.3510    0.0000 C   0  0  0  0  0  0  0  0  0  0  0  0
   -2.1000   -0.3510    0.0000 C   0  0  0  0  0  0  0  0  0  0  0  0
   -2.8500   -1.6500    0.0000 C   0  0  0  0  0  0  0  0  0  0  0  0
   -2.1000   -2.9490    0.0000 C   0  0  0  0  0  0  0  0  0  0  0  0
   -0.6000   -2.9490    0.0000 C   0  0  0  0  0  0  0  0  0  0  0  0
  1  2  2  0  0  0  0
  1  3  2  0  0  0  0
  1  4  1  0  0  0  0
  1  5  1  0  0  0  0
  5  6  1  0  0  0  0
  5 10  2  0  0  0  0
  6  7  2  0  0  0  0
  7  8  1  0  0  0  0
  8  9  2  0  0  0  0
  9 10  1  0  0  0  0
M  END
>  <name>
S(=O)(=O)(N)c1cc[c;biphenyl]cc1

>  <apo>
1

>  <freq>
1

>  <freq0>
0

>  <freq1>
1

>  <freqA>
0.99887151

>  <a_count>
17

$$$$

  MOE2015           2D

  8  7  0  0  0  0  0  0  0  0999 V2000
   -0.8120   -1.2190    0.0000 S   0  0  0  0  0  0  0  0  0  0  0  0
   -0.0620    0.0800    0.0000 O   0  0  0  0  0  0  0  0  0  0  0  0
   -1.5620   -2.5180    0.0000 O   0  0  0  0  0  0  0  0  0  0  0  0
   -2.1110   -0.4690    0.0000 O   0  0  0  0  0  0  0  0  0  0  0  0
    0.4870   -1.9690    0.0000 C   0  0  0  0  0  0  0  0  0  0  0  0
    1.7860   -1.2190    0.0000 C   0  0  0  0  0  0  0  0  0  0  0  0
    3.0850   -1.9690    0.0000 C   0  0  0  0  0  0  0  0  0  0  0  0
    4.3840   -1.2190    0.0000 N   0  0  0  0  0  0  0  0  0  0  0  0
  1  2  2  0  0  0  0
  1  3  2  0  0  0  0
  1  4  1  0  0  0  0
  1  5  1  0  0  0  0
  5  6  1  0  0  0  0
  6  7  1  0  0  0  0
  7  8  1  0  0  0  0
M  END
>  <name>
S(=O)(=O)(O)CCC[N;amide]

>  <apo>
1

>  <freq>
1

>  <freq0>
0

>  <freq1>
1

>  <freqA>
0.99887151

>  <a_count>
17

$$$$

  MOE2015           2D

  9  9  0  0  0  0  0  0  0  0999 V2000
    1.4170    2.4540    0.0000 S   0  0  0  0  0  0  0  0  0  0  0  0
    2.1670    1.1550    0.0000 C   0  0  0  0  0  0  0  0  0  0  0  0
   -0.0830    2.4540    0.0000 C   0  0  0  0  0  0  0  0  0  0  0  0
   -0.8330    3.7530    0.0000 C   0  0  0  0  0  0  0  0  0  0  0  0
   -2.3330    3.7530    0.0000 C   0  0  0  0  0  0  0  0  0  0  0  0
   -3.0830    2.4540    0.0000 C   0  0  0  0  0  0  0  0  0  0  0  0
   -4.5830    2.4540    0.0000 O   0  0  0  0  0  0  0  0  0  0  0  0
   -2.3330    1.1550    0.0000 C   0  0  0  0  0  0  0  0  0  0  0  0
   -0.8330    1.1550    0.0000 C   0  0  0  0  0  0  0  0  0  0  0  0
  1  2  1  0  0  0  0
  1  3  1  0  0  0  0
  3  4  1  0  0  0  0
  3  9  2  0  0  0  0
  4  5  2  0  0  0  0
  5  6  1  0  0  0  0
  6  7  1  0  0  0  0
  6  8  2  0  0  0  0
  8  9  1  0  0  0  0
M  END
>  <name>
S(C)c1ccc([O;ether])cc1

>  <apo>
1

>  <freq>
1

>  <freq0>
0

>  <freq1>
1

>  <freqA>
0.99887151

>  <a_count>
17

$$$$

  MOE2015           2D

  8  8  0  0  0  0  0  0  0  0999 V2000
    5.4110   -0.8000    0.0000 C   0  0  0  0  0  0  0  0  0  0  0  0
    4.1120   -0.0500    0.0000 C   0  0  0  0  0  0  0  0  0  0  0  0
    2.8120   -0.8000    0.0000 N   0  0  0  0  0  0  0  0  0  0  0  0
    1.5130   -0.0500    0.0000 C   0  0  0  0  0  0  0  0  0  0  0  0
    0.2140   -0.8000    0.0000 C   0  0  0  0  0  0  0  0  0  0  0  0
    1.5130    1.4500    0.0000 C   0  0  0  0  0  0  0  0  0  0  0  0
    2.8120    2.2000    0.0000 C   0  0  0  0  0  0  0  0  0  0  0  0
    4.1120    1.4500    0.0000 C   0  0  0  0  0  0  0  0  0  0  0  0
  1  2  1  0  0  0  0
  2  3  1  0  0  0  0
  2  8  2  0  0  0  0
  3  4  2  0  0  0  0
  4  5  1  0  0  0  0
  4  6  1  0  0  0  0
  6  7  2  0  0  0  0
  7  8  1  0  0  0  0
M  END
>  <name>
[C;amine]c1nc([C;amine])ccc1

>  <apo>
2

>  <freq>
1

>  <freq0>
0

>  <freq1>
1

>  <freqA>
0.99887151

>  <a_count>
17

$$$$

  MOE2015           2D

  7  7  0  0  0  0  0  0  0  0999 V2000
    1.0990    1.5320    0.0000 C   0  0  0  0  0  0  0  0  0  0  0  0
    1.8490    2.8310    0.0000 C   0  0  0  0  0  0  0  0  0  0  0  0
   -0.4010    1.5320    0.0000 C   0  0  0  0  0  0  0  0  0  0  0  0
   -1.2830    2.7450    0.0000 N   0  0  0  0  0  0  0  0  0  0  0  0
   -2.7100    2.2820    0.0000 C   0  0  0  0  0  0  0  0  0  0  0  0
   -2.7100    0.7820    0.0000 C   0  0  0  0  0  0  0  0  0  0  0  0
   -1.2830    0.3180    0.0000 N   0  0  0  0  0  0  0  0  0  0  0  0
  1  2  1  0  0  0  0
  1  3  1  0  0  0  0
  3  4  2  0  0  0  0
  3  7  1  0  0  0  0
  4  5  1  0  0  0  0
  5  6  1  0  0  0  0
  6  7  1  0  0  0  0
M  END
>  <name>
[C;ether](C)C1=NCCN1

>  <apo>
1

>  <freq>
1

>  <freq0>
0

>  <freq1>
1

>  <freqA>
0.99887151

>  <a_count>
17

$$$$

  MOE2015           2D

  5  4  0  0  0  0  0  0  0  0999 V2000
    0.1500   -0.0400    0.0000 C   0  0  0  0  0  0  0  0  0  0  0  0
    1.4490    0.7100    0.0000 C   0  0  0  0  0  0  0  0  0  0  0  0
    2.7480   -0.0400    0.0000 C   0  0  0  0  0  0  0  0  0  0  0  0
   -1.1490    0.7100    0.0000 C   0  0  0  0  0  0  0  0  0  0  0  0
   -2.4480   -0.0400    0.0000 C   0  0  0  0  0  0  0  0  0  0  0  0
  1  2  1  0  0  0  0
  1  4  1  0  0  0  0
  2  3  1  0  0  0  0
  4  5  1  0  0  0  0
M  END
>  <name>
[C;ether](CC)CC

>  <apo>
1

>  <freq>
1

>  <freq0>
0

>  <freq1>
1

>  <freqA>
0.99887151

>  <a_count>
17

$$$$

  MOE2015           2D

  6  6  0  0  0  0  0  0  0  0999 V2000
   -2.0490    2.0490    0.0000 N   0  0  0  0  0  0  0  0  0  0  0  0
   -2.0490    0.5490    0.0000 C   0  0  0  0  0  0  0  0  0  0  0  0
   -0.7500   -0.2010    0.0000 C   0  0  0  0  0  0  0  0  0  0  0  0
    0.5490    0.5490    0.0000 C   0  0  0  0  0  0  0  0  0  0  0  0
    0.5490    2.0490    0.0000 C   0  0  0  0  0  0  0  0  0  0  0  0
   -0.7500    2.7990    0.0000 C   0  0  0  0  0  0  0  0  0  0  0  0
  1  2  1  0  0  0  0
  1  6  1  0  0  0  0
  2  3  1  0  0  0  0
  3  4  1  0  0  0  0
  4  5  1  0  0  0  0
  5  6  1  0  0  0  0
M  END
>  <name>
[N;amide]1CCC[C;NaroC]C1

>  <apo>
2

>  <freq>
1

>  <freq0>
0

>  <freq1>
1

>  <freqA>
0.99887151

>  <a_count>
17

$$$$

  MOE2015           2D

  8  8  0  0  0  0  0  0  0  0999 V2000
    0.4890   -1.1750    0.0000 N   0  0  0  0  0  0  0  0  0  0  0  0
    1.7880   -0.4250    0.0000 C   0  0  0  0  0  0  0  0  0  0  0  0
    1.7880    1.0750    0.0000 C   0  0  0  0  0  0  0  0  0  0  0  0
    0.4890    1.8250    0.0000 C   0  0  0  0  0  0  0  0  0  0  0  0
    3.0870    1.8250    0.0000 C   0  0  0  0  0  0  0  0  0  0  0  0
    4.3860    1.0750    0.0000 C   0  0  0  0  0  0  0  0  0  0  0  0
    4.3860   -0.4250    0.0000 C   0  0  0  0  0  0  0  0  0  0  0  0
    3.0870   -1.1750    0.0000 C   0  0  0  0  0  0  0  0  0  0  0  0
  1  2  1  0  0  0  0
  2  3  1  0  0  0  0
  2  8  2  0  0  0  0
  3  4  1  0  0  0  0
  3  5  2  0  0  0  0
  5  6  1  0  0  0  0
  6  7  2  0  0  0  0
  7  8  1  0  0  0  0
M  END
>  <name>
[N;amide]c1c(C)cccc1

>  <apo>
1

>  <freq>
1

>  <freq0>
0

>  <freq1>
1

>  <freqA>
0.99887151

>  <a_count>
17

$$$$

  MOE2015           2D

  6  6  0  0  0  0  0  0  0  0999 V2000
   -2.0490    2.0490    0.0000 N   0  0  0  0  0  0  0  0  0  0  0  0
   -2.0490    0.5490    0.0000 C   0  0  0  0  0  0  0  0  0  0  0  0
   -0.7500   -0.2010    0.0000 C   0  0  0  0  0  0  0  0  0  0  0  0
    0.5490    0.5490    0.0000 C   0  0  0  0  0  0  0  0  0  0  0  0
    0.5490    2.0490    0.0000 C   0  0  0  0  0  0  0  0  0  0  0  0
   -0.7500    2.7990    0.0000 C   0  0  0  0  0  0  0  0  0  0  0  0
  1  2  1  0  0  0  0
  1  6  1  0  0  0  0
  2  3  1  0  0  0  0
  3  4  1  0  0  0  0
  4  5  1  0  0  0  0
  5  6  1  0  0  0  0
M  END
>  <name>
[N;amine]1CC[C;NaroC]CC1

>  <apo>
2

>  <freq>
1

>  <freq0>
0

>  <freq1>
1

>  <freqA>
0.99887151

>  <a_count>
17

$$$$

  MOE2015           2D

  6  6  0  0  0  0  0  0  0  0999 V2000
   -2.0490    2.0490    0.0000 N   0  0  0  0  0  0  0  0  0  0  0  0
   -2.0490    0.5490    0.0000 C   0  0  0  0  0  0  0  0  0  0  0  0
   -0.7500   -0.2010    0.0000 C   0  0  0  0  0  0  0  0  0  0  0  0
    0.5490    0.5490    0.0000 C   0  0  0  0  0  0  0  0  0  0  0  0
    0.5490    2.0490    0.0000 C   0  0  0  0  0  0  0  0  0  0  0  0
   -0.7500    2.7990    0.0000 C   0  0  0  0  0  0  0  0  0  0  0  0
  1  2  1  0  0  0  0
  1  6  1  0  0  0  0
  2  3  1  0  0  0  0
  3  4  1  0  0  0  0
  4  5  1  0  0  0  0
  5  6  1  0  0  0  0
M  END
>  <name>
[N;amine]1CC[C;amine]CC1

>  <apo>
2

>  <freq>
1

>  <freq0>
0

>  <freq1>
1

>  <freqA>
0.99887151

>  <a_count>
17

$$$$

  MOE2015           2D

  6  6  0  0  0  0  0  0  0  0999 V2000
   -2.0490    2.0490    0.0000 N   0  0  0  0  0  0  0  0  0  0  0  0
   -2.0490    0.5490    0.0000 C   0  0  0  0  0  0  0  0  0  0  0  0
   -0.7500   -0.2010    0.0000 C   0  0  0  0  0  0  0  0  0  0  0  0
    0.5490    0.5490    0.0000 C   0  0  0  0  0  0  0  0  0  0  0  0
    0.5490    2.0490    0.0000 C   0  0  0  0  0  0  0  0  0  0  0  0
   -0.7500    2.7990    0.0000 C   0  0  0  0  0  0  0  0  0  0  0  0
  1  2  1  0  0  0  0
  1  6  1  0  0  0  0
  2  3  1  0  0  0  0
  3  4  1  0  0  0  0
  4  5  1  0  0  0  0
  5  6  1  0  0  0  0
M  END
>  <name>
[N;amine]1CC[C;olefin]CC1

>  <apo>
2

>  <freq>
1

>  <freq0>
0

>  <freq1>
1

>  <freqA>
0.99887151

>  <a_count>
17

$$$$

  MOE2015           2D

 10 11  0  0  0  0  0  0  0  0999 V2000
    7.3810    0.0000    0.0000 N   0  0  0  0  0  0  0  0  0  0  0  0
    5.8810    0.0000    0.0000 C   0  0  0  0  0  0  0  0  0  0  0  0
    5.0000   -1.2140    0.0000 N   0  0  0  0  0  0  0  0  0  0  0  0
    3.5730   -0.7500    0.0000 C   0  0  0  0  0  0  0  0  0  0  0  0
    3.5730    0.7500    0.0000 C   0  0  0  0  0  0  0  0  0  0  0  0
    5.0000    1.2140    0.0000 N   0  0  0  0  0  0  0  0  0  0  0  0
    2.2740    1.5000    0.0000 C   0  0  0  0  0  0  0  0  0  0  0  0
    0.9750    0.7500    0.0000 C   0  0  0  0  0  0  0  0  0  0  0  0
    0.9750   -0.7500    0.0000 C   0  0  0  0  0  0  0  0  0  0  0  0
    2.2740   -1.5000    0.0000 C   0  0  0  0  0  0  0  0  0  0  0  0
  1  2  1  0  0  0  0
  2  3  1  0  0  0  0
  2  6  2  0  0  0  0
  3  4  1  0  0  0  0
  4  5  1  0  0  0  0
  4 10  2  0  0  0  0
  5  6  1  0  0  0  0
  5  7  2  0  0  0  0
  7  8  1  0  0  0  0
  8  9  2  0  0  0  0
  9 10  1  0  0  0  0
M  END
>  <name>
[N;amine]c1[nH;NaroC]c2c(n1)cccc2

>  <apo>
2

>  <freq>
1

>  <freq0>
0

>  <freq1>
1

>  <freqA>
0.99887151

>  <a_count>
17

$$$$

  MOE2015           2D

  9  9  0  0  0  0  0  0  0  0999 V2000
    0.0000    0.0000    0.0000 O   0  0  0  0  0  0  0  0  0  0  0  0
    1.5000    0.0000    0.0000 C   0  0  0  0  0  0  0  0  0  0  0  0
    2.2500    1.2990    0.0000 C   0  0  0  0  0  0  0  0  0  0  0  0
    1.5000    2.5980    0.0000 C   0  0  0  0  0  0  0  0  0  0  0  0
    3.7500    1.2990    0.0000 N   0  0  0  0  0  0  0  0  0  0  0  0
    4.5000    0.0000    0.0000 C   0  0  0  0  0  0  0  0  0  0  0  0
    6.0000    0.0000    0.0000 C   0  0  0  0  0  0  0  0  0  0  0  0
    3.7500   -1.2990    0.0000 N   0  0  0  0  0  0  0  0  0  0  0  0
    2.2500   -1.2990    0.0000 C   0  0  0  0  0  0  0  0  0  0  0  0
  1  2  1  0  0  0  0
  2  3  1  0  0  0  0
  2  9  2  0  0  0  0
  3  4  1  0  0  0  0
  3  5  2  0  0  0  0
  5  6  1  0  0  0  0
  6  7  1  0  0  0  0
  6  8  2  0  0  0  0
  8  9  1  0  0  0  0
M  END
>  <name>
[O;ether]c1c(C)nc(C)nc1

>  <apo>
1

>  <freq>
1

>  <freq0>
0

>  <freq1>
1

>  <freqA>
0.99887151

>  <a_count>
17

$$$$

  MOE2015           2D

 10 11  0  0  0  0  0  0  0  0999 V2000
    0.5660    0.9790    0.0000 O   0  0  0  0  0  0  0  0  0  0  0  0
    1.3160   -0.3200    0.0000 C   0  0  0  0  0  0  0  0  0  0  0  0
    2.8160   -0.3200    0.0000 C   0  0  0  0  0  0  0  0  0  0  0  0
    3.5660   -1.6190    0.0000 C   0  0  0  0  0  0  0  0  0  0  0  0
    5.0330   -1.3070    0.0000 N   0  0  0  0  0  0  0  0  0  0  0  0
    5.1900    0.1850    0.0000 C   0  0  0  0  0  0  0  0  0  0  0  0
    3.8190    0.7950    0.0000 C   0  0  0  0  0  0  0  0  0  0  0  0
    2.8160   -2.9180    0.0000 C   0  0  0  0  0  0  0  0  0  0  0  0
    1.3160   -2.9180    0.0000 C   0  0  0  0  0  0  0  0  0  0  0  0
    0.5660   -1.6190    0.0000 C   0  0  0  0  0  0  0  0  0  0  0  0
  1  2  1  0  0  0  0
  2  3  1  0  0  0  0
  2 10  2  0  0  0  0
  3  4  2  0  0  0  0
  3  7  1  0  0  0  0
  4  5  1  0  0  0  0
  4  8  1  0  0  0  0
  5  6  1  0  0  0  0
  6  7  2  0  0  0  0
  8  9  2  0  0  0  0
  9 10  1  0  0  0  0
M  END
>  <name>
[O;ether]c1c2c([nH]cc2)ccc1

>  <apo>
1

>  <freq>
1

>  <freq0>
0

>  <freq1>
1

>  <freqA>
0.99887151

>  <a_count>
17

$$$$

  MOE2015           2D

 11 12  0  0  0  0  0  0  0  0999 V2000
    0.1930   -0.7200    0.0000 O   0  0  0  0  0  0  0  0  0  0  0  0
    1.4920    0.0300    0.0000 C   0  0  0  0  0  0  0  0  0  0  0  0
    2.7910   -0.7200    0.0000 C   0  0  0  0  0  0  0  0  0  0  0  0
    4.0900    0.0300    0.0000 C   0  0  0  0  0  0  0  0  0  0  0  0
    5.5170   -0.4330    0.0000 S   0  0  0  0  0  0  0  0  0  0  0  0
    6.3980    0.7800    0.0000 C   0  0  0  0  0  0  0  0  0  0  0  0
    7.8980    0.7800    0.0000 N   0  0  0  0  0  0  0  0  0  0  0  0
    5.5170    1.9940    0.0000 N   0  0  0  0  0  0  0  0  0  0  0  0
    4.0900    1.5300    0.0000 C   0  0  0  0  0  0  0  0  0  0  0  0
    2.7910    2.2800    0.0000 C   0  0  0  0  0  0  0  0  0  0  0  0
    1.4920    1.5300    0.0000 C   0  0  0  0  0  0  0  0  0  0  0  0
  1  2  1  0  0  0  0
  2  3  1  0  0  0  0
  2 11  2  0  0  0  0
  3  4  2  0  0  0  0
  4  5  1  0  0  0  0
  4  9  1  0  0  0  0
  5  6  1  0  0  0  0
  6  7  1  0  0  0  0
  6  8  2  0  0  0  0
  8  9  1  0  0  0  0
  9 10  2  0  0  0  0
 10 11  1  0  0  0  0
M  END
>  <name>
[O;ether]c1cc2sc(N)nc2cc1

>  <apo>
1

>  <freq>
1

>  <freq0>
0

>  <freq1>
1

>  <freqA>
0.99887151

>  <a_count>
17

$$$$

  MOE2015           2D

  9  9  0  0  0  0  0  0  0  0999 V2000
    5.5980   -1.5000    0.0000 O   0  0  0  0  0  0  0  0  0  0  0  0
    4.2990   -0.7500    0.0000 C   0  0  0  0  0  0  0  0  0  0  0  0
    4.2990    0.7500    0.0000 N   0  0  0  0  0  0  0  0  0  0  0  0
    3.0000    1.5000    0.0000 C   0  0  0  0  0  0  0  0  0  0  0  0
    3.0000    3.0000    0.0000 C   0  0  0  0  0  0  0  0  0  0  0  0
    1.7010    0.7500    0.0000 C   0  0  0  0  0  0  0  0  0  0  0  0
    1.7010   -0.7500    0.0000 C   0  0  0  0  0  0  0  0  0  0  0  0
    0.4020   -1.5000    0.0000 C   0  0  0  0  0  0  0  0  0  0  0  0
    3.0000   -1.5000    0.0000 N   0  0  0  0  0  0  0  0  0  0  0  0
  1  2  1  0  0  0  0
  2  3  1  0  0  0  0
  2  9  2  0  0  0  0
  3  4  2  0  0  0  0
  4  5  1  0  0  0  0
  4  6  1  0  0  0  0
  6  7  2  0  0  0  0
  7  8  1  0  0  0  0
  7  9  1  0  0  0  0
M  END
>  <name>
[O;ether]c1nc(C)cc(C)n1

>  <apo>
1

>  <freq>
1

>  <freq0>
0

>  <freq1>
1

>  <freqA>
0.99887151

>  <a_count>
17

$$$$

  MOE2015           2D

  7  7  0  0  1  0  0  0  0  0999 V2000
    4.9030   -0.6040    0.0000 S   0  0  0  0  0  0  0  0  0  0  0  0
    4.1530   -1.9030    0.0000 C   0  0  0  0  0  0  0  0  0  0  0  0
    2.6530   -1.9030    0.0000 C   0  0  3  0  0  0  0  0  0  0  0  0
    1.7710   -3.1160    0.0000 O   0  0  0  0  0  0  0  0  0  0  0  0
    0.3450   -2.6530    0.0000 C   0  0  0  0  0  0  0  0  0  0  0  0
    0.3450   -1.1530    0.0000 C   0  0  0  0  0  0  0  0  0  0  0  0
    1.7710   -0.6890    0.0000 C   0  0  0  0  0  0  0  0  0  0  0  0
  1  2  1  0  0  0  0
  2  3  1  0  0  0  0
  3  4  1  0  0  0  0
  3  7  1  0  0  0  0
  4  5  1  0  0  0  0
  5  6  1  0  0  0  0
  6  7  1  0  0  0  0
M  END
>  <name>
[S;disulfide]CC1OCCC1

>  <apo>
1

>  <freq>
1

>  <freq0>
0

>  <freq1>
1

>  <freqA>
0.99887151

>  <a_count>
17

$$$$

  MOE2015           2D

  7  6  0  0  0  0  0  0  0  0999 V2000
   -1.7770   -1.5630    0.0000 S   0  0  0  0  0  0  0  0  0  0  0  0
   -1.7770   -0.0630    0.0000 O   0  0  0  0  0  0  0  0  0  0  0  0
   -3.0760   -2.3130    0.0000 O   0  0  0  0  0  0  0  0  0  0  0  0
   -0.4780   -2.3130    0.0000 C   0  0  0  0  0  0  0  0  0  0  0  0
    0.8210   -1.5630    0.0000 C   0  0  0  0  0  0  0  0  0  0  0  0
    2.1200   -2.3130    0.0000 C   0  0  0  0  0  0  0  0  0  0  0  0
    3.4190   -1.5630    0.0000 C   0  0  0  0  0  0  0  0  0  0  0  0
  1  2  2  0  0  0  0
  1  3  2  0  0  0  0
  1  4  1  0  0  0  0
  4  5  1  0  0  0  0
  5  6  1  0  0  0  0
  6  7  1  0  0  0  0
M  END
>  <name>
[SH;so2amide](=O)(=O)CCCC

>  <apo>
1

>  <freq>
1

>  <freq0>
0

>  <freq1>
1

>  <freqA>
0.99887151

>  <a_count>
17

$$$$

  MOE2015           2D

 10 10  0  0  0  0  0  0  0  0999 V2000
   -3.3750    1.9490    0.0000 S   0  0  0  0  0  0  0  0  0  0  0  0
   -4.1250    3.2480    0.0000 O   0  0  0  0  0  0  0  0  0  0  0  0
   -4.1250    0.6500    0.0000 O   0  0  0  0  0  0  0  0  0  0  0  0
   -1.8750    1.9490    0.0000 C   0  0  0  0  0  0  0  0  0  0  0  0
   -1.1250    0.6500    0.0000 C   0  0  0  0  0  0  0  0  0  0  0  0
    0.3750    0.6500    0.0000 C   0  0  0  0  0  0  0  0  0  0  0  0
    1.1250    1.9490    0.0000 C   0  0  0  0  0  0  0  0  0  0  0  0
    2.6250    1.9490    0.0000 N   0  0  0  0  0  0  0  0  0  0  0  0
    0.3750    3.2480    0.0000 C   0  0  0  0  0  0  0  0  0  0  0  0
   -1.1250    3.2480    0.0000 C   0  0  0  0  0  0  0  0  0  0  0  0
  1  2  2  0  0  0  0
  1  3  2  0  0  0  0
  1  4  1  0  0  0  0
  4  5  1  0  0  0  0
  4 10  2  0  0  0  0
  5  6  2  0  0  0  0
  6  7  1  0  0  0  0
  7  8  1  0  0  0  0
  7  9  2  0  0  0  0
  9 10  1  0  0  0  0
M  END
>  <name>
[SH;so2amide](=O)(=O)c1ccc([N;amide])cc1

>  <apo>
2

>  <freq>
1

>  <freq0>
0

>  <freq1>
1

>  <freqA>
0.99887151

>  <a_count>
17

$$$$

  MOE2015           2D

 13 13  0  0  0  0  0  0  0  0999 V2000
    1.6150    2.7980    0.0000 S   0  0  0  0  0  0  0  0  0  0  0  0
    2.3650    4.0970    0.0000 O   0  0  0  0  0  0  0  0  0  0  0  0
    2.3650    1.4990    0.0000 O   0  0  0  0  0  0  0  0  0  0  0  0
    0.1150    2.7980    0.0000 C   0  0  0  0  0  0  0  0  0  0  0  0
   -0.6350    1.4990    0.0000 N   0  0  0  0  0  0  0  0  0  0  0  0
   -2.1350    1.4990    0.0000 C   0  0  0  0  0  0  0  0  0  0  0  0
   -2.8850    2.7980    0.0000 C   0  0  0  0  0  0  0  0  0  0  0  0
   -4.3850    2.7980    0.0000 C   0  0  0  0  0  0  0  0  0  0  0  0
   -4.3850    4.2980    0.0000 F   0  0  0  0  0  0  0  0  0  0  0  0
   -5.8850    2.7980    0.0000 F   0  0  0  0  0  0  0  0  0  0  0  0
   -4.3850    1.2980    0.0000 F   0  0  0  0  0  0  0  0  0  0  0  0
   -2.1350    4.0970    0.0000 C   0  0  0  0  0  0  0  0  0  0  0  0
   -0.6350    4.0970    0.0000 C   0  0  0  0  0  0  0  0  0  0  0  0
  1  2  2  0  0  0  0
  1  3  2  0  0  0  0
  1  4  1  0  0  0  0
  4  5  1  0  0  0  0
  4 13  2  0  0  0  0
  5  6  2  0  0  0  0
  6  7  1  0  0  0  0
  7  8  1  0  0  0  0
  7 12  2  0  0  0  0
  8  9  1  0  0  0  0
  8 10  1  0  0  0  0
  8 11  1  0  0  0  0
 12 13  1  0  0  0  0
M  END
>  <name>
[SH;so2amide](=O)(=O)c1ncc(C(F)(F)F)cc1

>  <apo>
1

>  <freq>
1

>  <freq0>
0

>  <freq1>
1

>  <freqA>
0.99887151

>  <a_count>
17

$$$$

  MOE2015           2D

 11 11  0  0  0  0  0  0  0  0999 V2000
    1.2270   -2.8340    0.0000 Cl  0  0  0  0  0  0  0  0  0  0  0  0
    1.9770   -1.5350    0.0000 C   0  0  0  0  0  0  0  0  0  0  0  0
    1.2270   -0.2360    0.0000 C   0  0  0  0  0  0  0  0  0  0  0  0
   -0.2730   -0.2360    0.0000 N   0  0  0  0  0  0  0  0  0  0  0  0
    1.9770    1.0630    0.0000 N   0  0  0  0  0  0  0  0  0  0  0  0
    3.4770    1.0630    0.0000 C   0  0  0  0  0  0  0  0  0  0  0  0
    4.2270    2.3620    0.0000 N   0  0  0  0  0  0  0  0  0  0  0  0
    4.2270   -0.2360    0.0000 C   0  0  0  0  0  0  0  0  0  0  0  0
    5.7270   -0.2360    0.0000 C   0  0  0  0  0  0  0  0  0  0  0  0
    6.4770   -1.5350    0.0000 O   0  0  0  0  0  0  0  0  0  0  0  0
    3.4770   -1.5350    0.0000 N   0  0  0  0  0  0  0  0  0  0  0  0
  1  2  1  0  0  0  0
  2  3  1  0  0  0  0
  2 11  2  0  0  0  0
  3  4  1  0  0  0  0
  3  5  2  0  0  0  0
  5  6  1  0  0  0  0
  6  7  1  0  0  0  0
  6  8  2  0  0  0  0
  8  9  1  0  0  0  0
  8 11  1  0  0  0  0
  9 10  2  0  0  0  0
M  END
>  <name>
Clc1c(N)nc(N)c([C;amide]=O)n1

>  <apo>
1

>  <freq>
1

>  <freq0>
0

>  <freq1>
1

>  <freqA>
0.99887151

>  <a_count>
16

$$$$

  MOE2015           2D

 11 11  0  0  0  0  0  0  0  0999 V2000
    2.4050    2.4050    0.0000 Cl  0  0  0  0  0  0  0  0  0  0  0  0
    2.4050    0.9050    0.0000 C   0  0  0  0  0  0  0  0  0  0  0  0
    1.1060    0.1550    0.0000 C   0  0  0  0  0  0  0  0  0  0  0  0
   -0.1930    0.9050    0.0000 O   0  0  0  0  0  0  0  0  0  0  0  0
    1.1060   -1.3450    0.0000 C   0  0  0  0  0  0  0  0  0  0  0  0
   -0.1930   -2.0950    0.0000 O   0  0  0  0  0  0  0  0  0  0  0  0
    2.4050   -2.0950    0.0000 C   0  0  0  0  0  0  0  0  0  0  0  0
    3.7040   -1.3450    0.0000 C   0  0  0  0  0  0  0  0  0  0  0  0
    3.7040    0.1550    0.0000 C   0  0  0  0  0  0  0  0  0  0  0  0
    5.0030    0.9050    0.0000 C   0  0  0  0  0  0  0  0  0  0  0  0
    6.3020    0.1550    0.0000 O   0  0  0  0  0  0  0  0  0  0  0  0
  1  2  1  0  0  0  0
  2  3  1  0  0  0  0
  2  9  2  0  0  0  0
  3  4  1  0  0  0  0
  3  5  2  0  0  0  0
  5  6  1  0  0  0  0
  5  7  1  0  0  0  0
  7  8  2  0  0  0  0
  8  9  1  0  0  0  0
  9 10  1  0  0  0  0
 10 11  2  0  0  0  0
M  END
>  <name>
Clc1c(O)c(O)ccc1[C;amide]=O

>  <apo>
1

>  <freq>
1

>  <freq0>
0

>  <freq1>
1

>  <freqA>
0.99887151

>  <a_count>
16

$$$$

  MOE2015           2D

 10 10  0  0  0  0  0  0  0  0999 V2000
    1.6500    2.8580    0.0000 Cl  0  0  0  0  0  0  0  0  0  0  0  0
    2.4000    1.5590    0.0000 C   0  0  0  0  0  0  0  0  0  0  0  0
    1.6500    0.2600    0.0000 C   0  0  0  0  0  0  0  0  0  0  0  0
    0.1500    0.2600    0.0000 C   0  0  0  0  0  0  0  0  0  0  0  0
   -0.6000   -1.0390    0.0000 O   0  0  0  0  0  0  0  0  0  0  0  0
    2.4000   -1.0390    0.0000 C   0  0  0  0  0  0  0  0  0  0  0  0
    3.9000   -1.0390    0.0000 C   0  0  0  0  0  0  0  0  0  0  0  0
    4.6500    0.2600    0.0000 C   0  0  0  0  0  0  0  0  0  0  0  0
    6.1500    0.2600    0.0000 N   0  0  0  0  0  0  0  0  0  0  0  0
    3.9000    1.5590    0.0000 C   0  0  0  0  0  0  0  0  0  0  0  0
  1  2  1  0  0  0  0
  2  3  1  0  0  0  0
  2 10  2  0  0  0  0
  3  4  1  0  0  0  0
  3  6  2  0  0  0  0
  4  5  2  0  0  0  0
  6  7  1  0  0  0  0
  7  8  2  0  0  0  0
  8  9  1  0  0  0  0
  8 10  1  0  0  0  0
M  END
>  <name>
Clc1c([C;ester]=O)ccc(N)c1

>  <apo>
1

>  <freq>
1

>  <freq0>
0

>  <freq1>
1

>  <freqA>
0.99887151

>  <a_count>
16

$$$$

  MOE2015           2D

 11 11  0  0  0  0  0  0  0  0999 V2000
    1.0230    1.7710    0.0000 Cl  0  0  0  0  0  0  0  0  0  0  0  0
    1.7730    0.4720    0.0000 C   0  0  0  0  0  0  0  0  0  0  0  0
    1.0230   -0.8270    0.0000 C   0  0  0  0  0  0  0  0  0  0  0  0
   -0.4770   -0.8270    0.0000 N   0  0  0  0  0  0  0  0  0  0  0  0
    1.7730   -2.1260    0.0000 C   0  0  0  0  0  0  0  0  0  0  0  0
    3.2730   -2.1260    0.0000 C   0  0  0  0  0  0  0  0  0  0  0  0
    4.0230   -0.8270    0.0000 C   0  0  0  0  0  0  0  0  0  0  0  0
    5.5230   -0.8270    0.0000 N   0  3  0  0  0  0  0  0  0  0  0  0
    6.2730   -2.1260    0.0000 O   0  0  0  0  0  0  0  0  0  0  0  0
    6.2730    0.4720    0.0000 O   0  5  0  0  0  0  0  0  0  0  0  0
    3.2730    0.4720    0.0000 C   0  0  0  0  0  0  0  0  0  0  0  0
  1  2  1  0  0  0  0
  2  3  1  0  0  0  0
  2 11  2  0  0  0  0
  3  4  1  0  0  0  0
  3  5  2  0  0  0  0
  5  6  1  0  0  0  0
  6  7  2  0  0  0  0
  7  8  1  0  0  0  0
  7 11  1  0  0  0  0
  8  9  2  0  0  0  0
  8 10  1  0  0  0  0
M  CHG  1   8   1
M  CHG  1  10  -1
M  END
>  <name>
Clc1c([N;amide])ccc([N+](=O)[O-])c1

>  <apo>
1

>  <freq>
1

>  <freq0>
0

>  <freq1>
1

>  <freqA>
0.99887151

>  <a_count>
16

$$$$

  MOE2015           2D

 11 11  0  0  0  0  0  0  0  0999 V2000
    6.8180    0.4720    0.0000 F   0  0  0  0  0  0  0  0  0  0  0  0
    5.3180    0.4720    0.0000 C   0  0  0  0  0  0  0  0  0  0  0  0
    5.3180   -1.0280    0.0000 F   0  0  0  0  0  0  0  0  0  0  0  0
    5.3180    1.9720    0.0000 F   0  0  0  0  0  0  0  0  0  0  0  0
    3.8180    0.4720    0.0000 C   0  0  0  0  0  0  0  0  0  0  0  0
    3.0680   -0.8270    0.0000 C   0  0  0  0  0  0  0  0  0  0  0  0
    1.5680   -0.8270    0.0000 C   0  0  0  0  0  0  0  0  0  0  0  0
    0.8180   -2.1260    0.0000 O   0  0  0  0  0  0  0  0  0  0  0  0
    0.8180    0.4720    0.0000 C   0  0  0  0  0  0  0  0  0  0  0  0
    1.5680    1.7710    0.0000 C   0  0  0  0  0  0  0  0  0  0  0  0
    3.0680    1.7710    0.0000 C   0  0  0  0  0  0  0  0  0  0  0  0
  1  2  1  0  0  0  0
  2  3  1  0  0  0  0
  2  4  1  0  0  0  0
  2  5  1  0  0  0  0
  5  6  1  0  0  0  0
  5 11  2  0  0  0  0
  6  7  2  0  0  0  0
  7  8  1  0  0  0  0
  7  9  1  0  0  0  0
  9 10  2  0  0  0  0
 10 11  1  0  0  0  0
M  END
>  <name>
FC(F)(F)c1cc([O;ether])ccc1

>  <apo>
1

>  <freq>
1

>  <freq0>
0

>  <freq1>
1

>  <freqA>
0.99887151

>  <a_count>
16

$$$$

  MOE2015           2D

 11 11  0  0  0  0  0  0  0  0999 V2000
   -0.5450   -3.5450    0.0000 F   0  0  0  0  0  0  0  0  0  0  0  0
   -0.5450   -2.0450    0.0000 C   0  0  0  0  0  0  0  0  0  0  0  0
   -2.0450   -2.0450    0.0000 F   0  0  0  0  0  0  0  0  0  0  0  0
   -0.5450   -0.5450    0.0000 F   0  0  0  0  0  0  0  0  0  0  0  0
    0.9550   -2.0450    0.0000 C   0  0  0  0  0  0  0  0  0  0  0  0
    1.7050   -0.7460    0.0000 C   0  0  0  0  0  0  0  0  0  0  0  0
    3.2050   -0.7460    0.0000 C   0  0  0  0  0  0  0  0  0  0  0  0
    3.9550   -2.0450    0.0000 C   0  0  0  0  0  0  0  0  0  0  0  0
    5.4550   -2.0450    0.0000 O   0  0  0  0  0  0  0  0  0  0  0  0
    3.2050   -3.3440    0.0000 C   0  0  0  0  0  0  0  0  0  0  0  0
    1.7050   -3.3440    0.0000 C   0  0  0  0  0  0  0  0  0  0  0  0
  1  2  1  0  0  0  0
  2  3  1  0  0  0  0
  2  4  1  0  0  0  0
  2  5  1  0  0  0  0
  5  6  1  0  0  0  0
  5 11  2  0  0  0  0
  6  7  2  0  0  0  0
  7  8  1  0  0  0  0
  8  9  1  0  0  0  0
  8 10  2  0  0  0  0
 10 11  1  0  0  0  0
M  END
>  <name>
FC(F)(F)c1ccc([O;ether])cc1

>  <apo>
1

>  <freq>
1

>  <freq0>
0

>  <freq1>
1

>  <freqA>
0.99887151

>  <a_count>
16

$$$$

  MOE2015           2D

  8  9  0  0  1  0  0  0  0  0999 V2000
    7.3720    0.0000    0.0000 N   0  0  0  0  0  0  0  0  0  0  0  0
    5.8720    0.0000    0.0000 C   0  0  0  0  0  0  0  0  0  0  0  0
    4.3720    0.0000    0.0000 C   0  0  1  0  0  0  0  0  0  0  0  0
    3.4910    1.2140    0.0000 N   0  0  0  0  0  0  0  0  0  0  0  0
    2.0640    0.7500    0.0000 C   0  0  2  0  0  0  0  0  0  0  0  0
    2.0630   -0.7500    0.0000 C   0  0  2  0  0  0  0  0  0  0  0  0
    3.4900   -1.2140    0.0000 C   0  0  0  0  0  0  0  0  0  0  0  0
    0.7640    0.0000    0.0000 C   0  0  0  0  0  0  0  0  0  0  0  0
  1  2  3  0  0  0  0
  3  2  1  6  0  0  0
  3  4  1  0  0  0  0
  3  7  1  0  0  0  0
  4  5  1  0  0  0  0
  5  6  1  0  0  0  0
  5  8  1  6  0  0  0
  6  7  1  0  0  0  0
  6  8  1  6  0  0  0
M  END
>  <name>
N#C[C@H]1[N;amide][C@@H]2[C@H](C1)C2

>  <apo>
1

>  <freq>
1

>  <freq0>
0

>  <freq1>
1

>  <freqA>
0.99887151

>  <a_count>
16

$$$$

  MOE2015           2D

  6  6  0  0  0  0  0  0  0  0999 V2000
   -2.0490    2.0490    0.0000 N   0  0  0  0  0  0  0  0  0  0  0  0
   -2.0490    0.5490    0.0000 C   0  0  0  0  0  0  0  0  0  0  0  0
   -0.7500   -0.2010    0.0000 C   0  0  0  0  0  0  0  0  0  0  0  0
    0.5490    0.5490    0.0000 N   0  0  0  0  0  0  0  0  0  0  0  0
    0.5490    2.0490    0.0000 C   0  0  0  0  0  0  0  0  0  0  0  0
   -0.7500    2.7990    0.0000 C   0  0  0  0  0  0  0  0  0  0  0  0
  1  2  1  0  0  0  0
  1  6  1  0  0  0  0
  2  3  1  0  0  0  0
  3  4  1  0  0  0  0
  4  5  1  0  0  0  0
  5  6  1  0  0  0  0
M  END
>  <name>
N1CC[N;amine]CC1

>  <apo>
1

>  <freq>
1

>  <freq0>
0

>  <freq1>
1

>  <freqA>
0.99887151

>  <a_count>
16

$$$$

  MOE2015           2D

  8  8  0  0  0  0  0  0  0  0999 V2000
    0.6450    2.3000    0.0000 O   0  0  0  0  0  0  0  0  0  0  0  0
    1.9260    1.5200    0.0000 C   0  0  0  0  0  0  0  0  0  0  0  0
   -0.6710    1.5810    0.0000 C   0  0  0  0  0  0  0  0  0  0  0  0
   -2.0270    2.2230    0.0000 C   0  0  0  0  0  0  0  0  0  0  0  0
   -2.3040    3.6970    0.0000 C   0  0  0  0  0  0  0  0  0  0  0  0
   -3.0560    1.1320    0.0000 S   0  0  0  0  0  0  0  0  0  0  0  0
   -2.3370   -0.1840    0.0000 C   0  0  0  0  0  0  0  0  0  0  0  0
   -0.8620    0.0930    0.0000 C   0  0  0  0  0  0  0  0  0  0  0  0
  1  2  1  0  0  0  0
  1  3  1  0  0  0  0
  3  4  2  0  0  0  0
  3  8  1  0  0  0  0
  4  5  1  0  0  0  0
  4  6  1  0  0  0  0
  6  7  1  0  0  0  0
  7  8  2  0  0  0  0
M  END
>  <name>
O(C)c1c([C;amine])scc1

>  <apo>
1

>  <freq>
1

>  <freq0>
0

>  <freq1>
1

>  <freqA>
0.99887151

>  <a_count>
16

$$$$

  MOE2015           2D

  9  9  0  0  0  0  0  0  0  0999 V2000
    0.9170    1.5880    0.0000 O   0  0  0  0  0  0  0  0  0  0  0  0
    1.6670    0.2890    0.0000 C   0  0  0  0  0  0  0  0  0  0  0  0
   -0.5830    1.5880    0.0000 C   0  0  0  0  0  0  0  0  0  0  0  0
   -1.3330    2.8870    0.0000 C   0  0  0  0  0  0  0  0  0  0  0  0
   -0.5830    4.1860    0.0000 N   0  0  0  0  0  0  0  0  0  0  0  0
   -2.8330    2.8870    0.0000 N   0  0  0  0  0  0  0  0  0  0  0  0
   -3.5830    1.5880    0.0000 C   0  0  0  0  0  0  0  0  0  0  0  0
   -2.8330    0.2890    0.0000 C   0  0  0  0  0  0  0  0  0  0  0  0
   -1.3330    0.2890    0.0000 N   0  0  0  0  0  0  0  0  0  0  0  0
  1  2  1  0  0  0  0
  1  3  1  0  0  0  0
  3  4  1  0  0  0  0
  3  9  2  0  0  0  0
  4  5  1  0  0  0  0
  4  6  2  0  0  0  0
  6  7  1  0  0  0  0
  7  8  2  0  0  0  0
  8  9  1  0  0  0  0
M  END
>  <name>
O(C)c1c([N;so2amide])nccn1

>  <apo>
1

>  <freq>
1

>  <freq0>
0

>  <freq1>
1

>  <freqA>
0.99887151

>  <a_count>
16

$$$$

  MOE2015           2D

  9  9  0  0  0  0  0  0  0  0999 V2000
    1.4170    2.4540    0.0000 O   0  0  0  0  0  0  0  0  0  0  0  0
    2.1670    1.1550    0.0000 C   0  0  0  0  0  0  0  0  0  0  0  0
   -0.0830    2.4540    0.0000 C   0  0  0  0  0  0  0  0  0  0  0  0
   -0.8330    3.7530    0.0000 C   0  0  0  0  0  0  0  0  0  0  0  0
   -2.3330    3.7530    0.0000 N   0  0  0  0  0  0  0  0  0  0  0  0
   -3.0830    2.4540    0.0000 C   0  0  0  0  0  0  0  0  0  0  0  0
   -4.5830    2.4540    0.0000 N   0  0  0  0  0  0  0  0  0  0  0  0
   -2.3330    1.1550    0.0000 N   0  0  0  0  0  0  0  0  0  0  0  0
   -0.8330    1.1550    0.0000 C   0  0  0  0  0  0  0  0  0  0  0  0
  1  2  1  0  0  0  0
  1  3  1  0  0  0  0
  3  4  1  0  0  0  0
  3  9  2  0  0  0  0
  4  5  2  0  0  0  0
  5  6  1  0  0  0  0
  6  7  1  0  0  0  0
  6  8  2  0  0  0  0
  8  9  1  0  0  0  0
M  END
>  <name>
O(C)c1cnc([N;so2amide])nc1

>  <apo>
1

>  <freq>
1

>  <freq0>
0

>  <freq1>
1

>  <freqA>
0.99887151

>  <a_count>
16

$$$$

  MOE2015           2D

  6  6  0  0  0  0  0  0  0  0999 V2000
   -2.0490    2.0490    0.0000 O   0  0  0  0  0  0  0  0  0  0  0  0
   -2.0490    0.5490    0.0000 C   0  0  0  0  0  0  0  0  0  0  0  0
   -0.7500   -0.2010    0.0000 C   0  0  0  0  0  0  0  0  0  0  0  0
    0.5490    0.5490    0.0000 N   0  3  0  0  0  0  0  0  0  0  0  0
    0.5490    2.0490    0.0000 C   0  0  0  0  0  0  0  0  0  0  0  0
   -0.7500    2.7990    0.0000 C   0  0  0  0  0  0  0  0  0  0  0  0
  1  2  1  0  0  0  0
  1  6  1  0  0  0  0
  2  3  1  0  0  0  0
  3  4  1  0  0  0  0
  4  5  1  0  0  0  0
  5  6  1  0  0  0  0
M  CHG  1   4   1
M  END
>  <name>
O1CC[N+;quatN]CC1

>  <apo>
1

>  <freq>
1

>  <freq0>
0

>  <freq1>
1

>  <freqA>
0.99887151

>  <a_count>
16

$$$$

  MOE2015           2D

  8  7  0  0  1  0  0  0  0  0999 V2000
    0.0090   -0.0320    0.0000 O   0  0  0  0  0  0  0  0  0  0  0  0
    1.3080    0.7180    0.0000 C   0  0  0  0  0  0  0  0  0  0  0  0
    1.3080    2.2180    0.0000 N   0  0  0  0  0  0  0  0  0  0  0  0
    2.6070   -0.0320    0.0000 C   0  0  0  0  0  0  0  0  0  0  0  0
    3.9060    0.7180    0.0000 C   0  0  2  0  0  0  0  0  0  0  0  0
    3.9060    2.2180    0.0000 N   0  0  0  0  0  0  0  0  0  0  0  0
    5.2050   -0.0320    0.0000 C   0  0  0  0  0  0  0  0  0  0  0  0
    6.5040    0.7180    0.0000 O   0  0  0  0  0  0  0  0  0  0  0  0
  1  2  2  0  0  0  0
  2  3  1  0  0  0  0
  2  4  1  0  0  0  0
  4  5  1  0  0  0  0
  5  6  1  6  0  0  0
  5  7  1  0  0  0  0
  7  8  2  0  0  0  0
M  END
>  <name>
O=C(N)C[C@H](N)[C;amide]=O

>  <apo>
1

>  <freq>
1

>  <freq0>
0

>  <freq1>
1

>  <freqA>
0.99887151

>  <a_count>
16

$$$$

  MOE2015           2D

  7  6  0  0  1  0  0  0  0  0999 V2000
   -0.1620   -0.6060    0.0000 O   0  0  0  0  0  0  0  0  0  0  0  0
    1.1370   -1.3560    0.0000 C   0  0  0  0  0  0  0  0  0  0  0  0
    1.1370   -2.8560    0.0000 O   0  0  0  0  0  0  0  0  0  0  0  0
    2.4360   -0.6060    0.0000 C   0  0  3  0  0  0  0  0  0  0  0  0
    2.4360    0.8940    0.0000 N   0  0  0  0  0  0  0  0  0  0  0  0
    3.7350   -1.3560    0.0000 C   0  0  0  0  0  0  0  0  0  0  0  0
    5.0340   -0.6060    0.0000 C   0  0  0  0  0  0  0  0  0  0  0  0
  1  2  2  0  0  0  0
  2  3  1  0  0  0  0
  2  4  1  0  0  0  0
  4  5  1  0  0  0  0
  4  6  1  0  0  0  0
  6  7  1  0  0  0  0
M  END
>  <name>
O=C(O)C(N)C[C;thioether]

>  <apo>
1

>  <freq>
1

>  <freq0>
0

>  <freq1>
1

>  <freqA>
0.99887151

>  <a_count>
16

$$$$

  MOE2015           2D

  7  6  0  0  1  0  0  0  0  0999 V2000
   -0.1620   -0.6060    0.0000 O   0  0  0  0  0  0  0  0  0  0  0  0
    1.1370   -1.3560    0.0000 C   0  0  0  0  0  0  0  0  0  0  0  0
    1.1370   -2.8560    0.0000 O   0  0  0  0  0  0  0  0  0  0  0  0
    2.4360   -0.6060    0.0000 C   0  0  1  0  0  0  0  0  0  0  0  0
    2.4360    0.8940    0.0000 N   0  0  0  0  0  0  0  0  0  0  0  0
    3.7350   -1.3560    0.0000 C   0  0  0  0  0  0  0  0  0  0  0  0
    5.0340   -0.6060    0.0000 C   0  0  0  0  0  0  0  0  0  0  0  0
  1  2  2  0  0  0  0
  2  3  1  0  0  0  0
  2  4  1  0  0  0  0
  4  5  1  1  0  0  0
  4  6  1  0  0  0  0
  6  7  1  0  0  0  0
M  END
>  <name>
O=C(O)[C@@H](N)C[C;thioether]

>  <apo>
1

>  <freq>
1

>  <freq0>
0

>  <freq1>
1

>  <freqA>
0.99887151

>  <a_count>
16

$$$$

  MOE2015           2D

  7  6  0  0  1  0  0  0  0  0999 V2000
   -0.1620   -0.6060    0.0000 O   0  0  0  0  0  0  0  0  0  0  0  0
    1.1370   -1.3560    0.0000 C   0  0  0  0  0  0  0  0  0  0  0  0
    1.1370   -2.8560    0.0000 O   0  0  0  0  0  0  0  0  0  0  0  0
    2.4360   -0.6060    0.0000 C   0  0  1  0  0  0  0  0  0  0  0  0
    2.4360    0.8940    0.0000 N   0  0  0  0  0  0  0  0  0  0  0  0
    3.7350   -1.3560    0.0000 C   0  0  0  0  0  0  0  0  0  0  0  0
    5.0340   -0.6060    0.0000 C   0  0  0  0  0  0  0  0  0  0  0  0
  1  2  2  0  0  0  0
  2  3  1  0  0  0  0
  2  4  1  0  0  0  0
  4  5  1  1  0  0  0
  4  6  1  0  0  0  0
  6  7  1  0  0  0  0
M  END
>  <name>
O=C(O)[C@@H]([N;amide])CC

>  <apo>
1

>  <freq>
1

>  <freq0>
0

>  <freq1>
1

>  <freqA>
0.99887151

>  <a_count>
16

$$$$

  MOE2015           2D

  7  6  0  0  1  0  0  0  0  0999 V2000
   -0.1620   -0.6060    0.0000 O   0  0  0  0  0  0  0  0  0  0  0  0
    1.1370   -1.3560    0.0000 C   0  0  0  0  0  0  0  0  0  0  0  0
    1.1370   -2.8560    0.0000 O   0  0  0  0  0  0  0  0  0  0  0  0
    2.4360   -0.6060    0.0000 C   0  0  2  0  0  0  0  0  0  0  0  0
    2.4360    0.8940    0.0000 N   0  0  0  0  0  0  0  0  0  0  0  0
    3.7350   -1.3560    0.0000 C   0  0  0  0  0  0  0  0  0  0  0  0
    5.0340   -0.6060    0.0000 C   0  0  0  0  0  0  0  0  0  0  0  0
  1  2  2  0  0  0  0
  2  3  1  0  0  0  0
  2  4  1  0  0  0  0
  4  5  1  6  0  0  0
  4  6  1  0  0  0  0
  6  7  1  0  0  0  0
M  END
>  <name>
O=C(O)[C@H](N)C[C;thioether]

>  <apo>
1

>  <freq>
1

>  <freq0>
0

>  <freq1>
1

>  <freqA>
0.99887151

>  <a_count>
16

$$$$

  MOE2015           2D

 10 10  0  0  0  0  0  0  0  0999 V2000
    5.1750   -0.1300    0.0000 O   0  0  0  0  0  0  0  0  0  0  0  0
    4.4250    1.1690    0.0000 C   0  0  0  0  0  0  0  0  0  0  0  0
    5.1750    2.4680    0.0000 O   0  0  0  0  0  0  0  0  0  0  0  0
    2.9250    1.1690    0.0000 C   0  0  0  0  0  0  0  0  0  0  0  0
    2.1750    2.4680    0.0000 C   0  0  0  0  0  0  0  0  0  0  0  0
    2.9250    3.7670    0.0000 O   0  0  0  0  0  0  0  0  0  0  0  0
    0.6750    2.4680    0.0000 C   0  0  0  0  0  0  0  0  0  0  0  0
   -0.0750    1.1690    0.0000 C   0  0  0  0  0  0  0  0  0  0  0  0
    0.6750   -0.1300    0.0000 C   0  0  0  0  0  0  0  0  0  0  0  0
    2.1750   -0.1300    0.0000 C   0  0  0  0  0  0  0  0  0  0  0  0
  1  2  2  0  0  0  0
  2  3  1  0  0  0  0
  2  4  1  0  0  0  0
  4  5  1  0  0  0  0
  4 10  2  0  0  0  0
  5  6  1  0  0  0  0
  5  7  2  0  0  0  0
  7  8  1  0  0  0  0
  8  9  2  0  0  0  0
  9 10  1  0  0  0  0
M  END
>  <name>
O=C(O)c1c(O)cc[c;biphenyl]c1

>  <apo>
1

>  <freq>
1

>  <freq0>
0

>  <freq1>
1

>  <freqA>
0.99887151

>  <a_count>
16

$$$$

  MOE2015           2D

  7  6  0  0  0  0  0  0  0  0999 V2000
    0.0800   -1.4140    0.0000 O   0  0  0  0  0  0  0  0  0  0  0  0
    1.3800   -0.6640    0.0000 C   0  0  0  0  0  0  0  0  0  0  0  0
    2.6790   -1.4140    0.0000 O   0  0  0  0  0  0  0  0  0  0  0  0
    3.9780   -0.6640    0.0000 C   0  0  0  0  0  0  0  0  0  0  0  0
    5.2770   -1.4140    0.0000 C   0  0  0  0  0  0  0  0  0  0  0  0
    3.9780    0.8360    0.0000 C   0  0  0  0  0  0  0  0  0  0  0  0
    1.3800    0.8360    0.0000 N   0  0  0  0  0  0  0  0  0  0  0  0
  1  2  2  0  0  0  0
  2  3  1  0  0  0  0
  2  7  1  0  0  0  0
  3  4  1  0  0  0  0
  4  5  1  0  0  0  0
  4  6  1  0  0  0  0
M  END
>  <name>
O=C(OC([C;quatN])C)N

>  <apo>
1

>  <freq>
1

>  <freq0>
0

>  <freq1>
1

>  <freqA>
0.99887151

>  <a_count>
16

$$$$

  MOE2015           2D

  9  9  0  0  0  0  0  0  0  0999 V2000
    5.0000    0.2890    0.0000 O   0  0  0  0  0  0  0  0  0  0  0  0
    4.2500    1.5880    0.0000 C   0  0  0  0  0  0  0  0  0  0  0  0
    5.0000    2.8870    0.0000 N   0  0  0  0  0  0  0  0  0  0  0  0
    2.7500    1.5880    0.0000 C   0  0  0  0  0  0  0  0  0  0  0  0
    2.0000    2.8870    0.0000 C   0  0  0  0  0  0  0  0  0  0  0  0
    0.5000    2.8870    0.0000 C   0  0  0  0  0  0  0  0  0  0  0  0
   -0.2500    1.5880    0.0000 C   0  0  0  0  0  0  0  0  0  0  0  0
    0.5000    0.2890    0.0000 C   0  0  0  0  0  0  0  0  0  0  0  0
    2.0000    0.2890    0.0000 C   0  0  0  0  0  0  0  0  0  0  0  0
  1  2  2  0  0  0  0
  2  3  1  0  0  0  0
  2  4  1  0  0  0  0
  4  5  1  0  0  0  0
  4  9  2  0  0  0  0
  5  6  2  0  0  0  0
  6  7  1  0  0  0  0
  7  8  2  0  0  0  0
  8  9  1  0  0  0  0
M  END
>  <name>
O=C([N;so2amide])c1ccccc1

>  <apo>
1

>  <freq>
1

>  <freq0>
0

>  <freq1>
1

>  <freqA>
0.99887151

>  <a_count>
16

$$$$

  MOE2015           2D

 11 12  0  0  0  0  0  0  0  0999 V2000
    3.4510    2.2760    0.0000 O   0  0  0  0  0  0  0  0  0  0  0  0
    3.4510    0.7760    0.0000 C   0  0  0  0  0  0  0  0  0  0  0  0
    4.7500    0.0260    0.0000 N   0  0  0  0  0  0  0  0  0  0  0  0
    4.7500   -1.4740    0.0000 C   0  0  0  0  0  0  0  0  0  0  0  0
    6.0490   -2.2240    0.0000 N   0  0  0  0  0  0  0  0  0  0  0  0
    3.4510   -2.2240    0.0000 N   0  0  0  0  0  0  0  0  0  0  0  0
    2.1520   -1.4740    0.0000 C   0  0  0  0  0  0  0  0  0  0  0  0
    0.7250   -1.9370    0.0000 N   0  0  0  0  0  0  0  0  0  0  0  0
   -0.1560   -0.7240    0.0000 C   0  0  0  0  0  0  0  0  0  0  0  0
    0.7250    0.4900    0.0000 N   0  0  0  0  0  0  0  0  0  0  0  0
    2.1520    0.0260    0.0000 C   0  0  0  0  0  0  0  0  0  0  0  0
  1  2  2  0  0  0  0
  2  3  1  0  0  0  0
  2 11  1  0  0  0  0
  3  4  1  0  0  0  0
  4  5  1  0  0  0  0
  4  6  2  0  0  0  0
  6  7  1  0  0  0  0
  7  8  1  0  0  0  0
  7 11  2  0  0  0  0
  8  9  1  0  0  0  0
  9 10  2  0  0  0  0
 10 11  1  0  0  0  0
M  END
>  <name>
O=C1NC(N)=Nc2[nH;NaroC]cnc12

>  <apo>
1

>  <freq>
1

>  <freq0>
0

>  <freq1>
1

>  <freqA>
0.99887151

>  <a_count>
16

$$$$

  MOE2015           2D

 10 10  0  0  0  0  0  0  0  0999 V2000
    5.3880   -1.4440    0.0000 O   0  0  0  0  0  0  0  0  0  0  0  0
    4.0890   -0.6940    0.0000 C   0  0  0  0  0  0  0  0  0  0  0  0
    2.7900   -1.4440    0.0000 C   0  0  0  0  0  0  0  0  0  0  0  0
    1.4910   -0.6940    0.0000 C   0  0  0  0  0  0  0  0  0  0  0  0
    1.4910    0.8060    0.0000 O   0  0  0  0  0  0  0  0  0  0  0  0
    0.1920   -1.4440    0.0000 C   0  0  0  0  0  0  0  0  0  0  0  0
    0.1920   -2.9440    0.0000 C   0  0  0  0  0  0  0  0  0  0  0  0
    1.4910   -3.6940    0.0000 C   0  0  0  0  0  0  0  0  0  0  0  0
    2.7900   -2.9440    0.0000 C   0  0  0  0  0  0  0  0  0  0  0  0
    4.0890   -3.6940    0.0000 O   0  0  0  0  0  0  0  0  0  0  0  0
  1  2  2  0  0  0  0
  2  3  1  0  0  0  0
  3  4  1  0  0  0  0
  3  9  2  0  0  0  0
  4  5  1  0  0  0  0
  4  6  2  0  0  0  0
  6  7  1  0  0  0  0
  7  8  2  0  0  0  0
  8  9  1  0  0  0  0
  9 10  1  0  0  0  0
M  END
>  <name>
O=Cc1c([O;ether])cccc1O

>  <apo>
1

>  <freq>
1

>  <freq0>
0

>  <freq1>
1

>  <freqA>
0.99887151

>  <a_count>
16

$$$$

  MOE2015           2D

 11 11  0  0  0  0  0  0  0  0999 V2000
    0.0150   -2.5790    0.0000 O   0  0  0  0  0  0  0  0  0  0  0  0
    1.5150   -2.5620    0.0000 C   0  0  0  0  0  0  0  0  0  0  0  0
    2.2500   -1.2540    0.0000 C   0  0  0  0  0  0  0  0  0  0  0  0
    1.4850    0.0360    0.0000 N   0  0  0  0  0  0  0  0  0  0  0  0
    2.2200    1.3440    0.0000 O   0  0  0  0  0  0  0  0  0  0  0  0
    3.7500   -1.2370    0.0000 C   0  0  0  0  0  0  0  0  0  0  0  0
    4.6450   -2.4410    0.0000 N   0  0  0  0  0  0  0  0  0  0  0  0
    6.0660   -1.9610    0.0000 C   0  0  0  0  0  0  0  0  0  0  0  0
    7.2900   -2.8290    0.0000 N   0  0  0  0  0  0  0  0  0  0  0  0
    6.0490   -0.4610    0.0000 S   0  0  0  0  0  0  0  0  0  0  0  0
    4.6170   -0.0140    0.0000 C   0  0  0  0  0  0  0  0  0  0  0  0
  1  2  2  0  0  0  0
  2  3  1  0  0  0  0
  3  4  2  0  0  0  0
  3  6  1  0  0  0  0
  4  5  1  0  0  0  0
  6  7  1  0  0  0  0
  6 11  2  0  0  0  0
  7  8  2  0  0  0  0
  8  9  1  0  0  0  0
  8 10  1  0  0  0  0
 10 11  1  0  0  0  0
M  END
>  <name>
O=[C;amide]/C(=N/O)/c1nc(N)sc1

>  <apo>
1

>  <freq>
1

>  <freq0>
0

>  <freq1>
1

>  <freqA>
0.99887151

>  <a_count>
16

$$$$

  MOE2015           2D

  7  6  0  0  1  0  0  0  0  0999 V2000
    5.3550   -0.7920    0.0000 O   0  0  0  0  0  0  0  0  0  0  0  0
    4.0560   -1.5420    0.0000 C   0  0  0  0  0  0  0  0  0  0  0  0
    2.7570   -0.7920    0.0000 C   0  0  3  0  0  0  0  0  0  0  0  0
    2.7570    0.7080    0.0000 N   0  0  0  0  0  0  0  0  0  0  0  0
    1.4580   -1.5420    0.0000 C   0  0  2  0  0  0  0  0  0  0  0  0
    1.4580   -3.0420    0.0000 O   0  0  0  0  0  0  0  0  0  0  0  0
    0.1590   -0.7920    0.0000 C   0  0  0  0  0  0  0  0  0  0  0  0
  1  2  2  0  0  0  0
  2  3  1  0  0  0  0
  3  4  1  0  0  0  0
  3  5  1  0  0  0  0
  5  6  1  0  0  0  0
  5  7  1  6  0  0  0
M  END
>  <name>
O=[C;amide]C([N;amide])[C@H](O)C

>  <apo>
2

>  <freq>
1

>  <freq0>
0

>  <freq1>
1

>  <freqA>
0.99887151

>  <a_count>
16

$$$$

  MOE2015           2D

  6  5  0  0  0  0  0  0  0  0999 V2000
   -0.2480   -1.6740    0.0000 O   0  0  0  0  0  0  0  0  0  0  0  0
    1.0510   -0.9240    0.0000 C   0  0  0  0  0  0  0  0  0  0  0  0
    2.3500   -1.6740    0.0000 C   0  0  0  0  0  0  0  0  0  0  0  0
    3.6500   -0.9240    0.0000 C   0  0  0  0  0  0  0  0  0  0  0  0
    4.9490   -1.6740    0.0000 C   0  0  0  0  0  0  0  0  0  0  0  0
    6.2480   -0.9240    0.0000 C   0  0  0  0  0  0  0  0  0  0  0  0
  1  2  2  0  0  0  0
  2  3  1  0  0  0  0
  3  4  1  0  0  0  0
  4  5  1  0  0  0  0
  5  6  1  0  0  0  0
M  END
>  <name>
O=[C;amide]CCCC

>  <apo>
1

>  <freq>
1

>  <freq0>
0

>  <freq1>
1

>  <freqA>
0.99887151

>  <a_count>
16

$$$$

  MOE2015           2D

  6  5  0  0  0  0  0  0  0  0999 V2000
   -0.2480   -1.6740    0.0000 O   0  0  0  0  0  0  0  0  0  0  0  0
    1.0510   -0.9240    0.0000 C   0  0  0  0  0  0  0  0  0  0  0  0
    2.3500   -1.6740    0.0000 C   0  0  0  0  0  0  0  0  0  0  0  0
    3.6500   -0.9240    0.0000 C   0  0  0  0  0  0  0  0  0  0  0  0
    4.9490   -1.6740    0.0000 C   0  0  0  0  0  0  0  0  0  0  0  0
    6.2480   -0.9240    0.0000 C   0  0  0  0  0  0  0  0  0  0  0  0
  1  2  2  0  0  0  0
  2  3  1  0  0  0  0
  3  4  1  0  0  0  0
  4  5  1  0  0  0  0
  5  6  1  0  0  0  0
M  END
>  <name>
O=[C;amide]CCC[C;olefin]

>  <apo>
2

>  <freq>
1

>  <freq0>
0

>  <freq1>
1

>  <freqA>
0.99887151

>  <a_count>
16

$$$$

  MOE2015           2D

  9  9  0  0  0  0  0  0  0  0999 V2000
    7.8330    0.0000    0.0000 O   0  0  0  0  0  0  0  0  0  0  0  0
    6.3330    0.0000    0.0000 C   0  0  0  0  0  0  0  0  0  0  0  0
    5.5830   -1.2990    0.0000 C   0  0  0  0  0  0  0  0  0  0  0  0
    4.0830   -1.2990    0.0000 C   0  0  0  0  0  0  0  0  0  0  0  0
    3.3330    0.0000    0.0000 N   0  0  0  0  0  0  0  0  0  0  0  0
    1.8330    0.0000    0.0000 C   0  0  0  0  0  0  0  0  0  0  0  0
    1.0830   -1.2990    0.0000 C   0  0  0  0  0  0  0  0  0  0  0  0
    1.8330   -2.5980    0.0000 C   0  0  0  0  0  0  0  0  0  0  0  0
    3.3330   -2.5980    0.0000 C   0  0  0  0  0  0  0  0  0  0  0  0
  1  2  2  0  0  0  0
  2  3  1  0  0  0  0
  3  4  1  0  0  0  0
  4  5  1  0  0  0  0
  4  9  2  0  0  0  0
  5  6  2  0  0  0  0
  6  7  1  0  0  0  0
  7  8  2  0  0  0  0
  8  9  1  0  0  0  0
M  END
>  <name>
O=[C;amide]Cc1nc[c;biphenyl]cc1

>  <apo>
2

>  <freq>
1

>  <freq0>
0

>  <freq1>
1

>  <freqA>
0.99887151

>  <a_count>
16

$$$$

  MOE2015           2D

 10 10  0  0  1  0  0  0  0  0999 V2000
    6.2070    1.6630    0.0000 O   0  0  0  0  0  0  0  0  0  0  0  0
    4.9080    0.9130    0.0000 C   0  0  0  0  0  0  0  0  0  0  0  0
    3.6090    1.6630    0.0000 C   0  0  1  0  0  0  0  0  0  0  0  0
    2.3100    0.9130    0.0000 N   0  0  0  0  0  0  0  0  0  0  0  0
    1.0110    1.6630    0.0000 C   0  0  0  0  0  0  0  0  0  0  0  0
   -0.2880    0.9130    0.0000 O   0  0  0  0  0  0  0  0  0  0  0  0
    1.0110    3.1630    0.0000 N   0  0  0  0  0  0  0  0  0  0  0  0
    2.3100    3.9130    0.0000 C   0  0  0  0  0  0  0  0  0  0  0  0
    2.3100    5.4130    0.0000 O   0  0  0  0  0  0  0  0  0  0  0  0
    3.6090    3.1630    0.0000 C   0  0  0  0  0  0  0  0  0  0  0  0
  1  2  2  0  0  0  0
  3  2  1  1  0  0  0
  3  4  1  0  0  0  0
  3 10  1  0  0  0  0
  4  5  1  0  0  0  0
  5  6  2  0  0  0  0
  5  7  1  0  0  0  0
  7  8  1  0  0  0  0
  8  9  2  0  0  0  0
  8 10  1  0  0  0  0
M  END
>  <name>
O=[C;amide][C@H]1NC(=O)NC(=O)C1

>  <apo>
1

>  <freq>
1

>  <freq0>
0

>  <freq1>
1

>  <freqA>
0.99887151

>  <a_count>
16

$$$$

  MOE2015           2D

 10 10  0  0  0  0  0  0  0  0999 V2000
    0.4720   -0.4720    0.0000 O   0  0  0  0  0  0  0  0  0  0  0  0
    0.4720    1.0280    0.0000 C   0  0  0  0  0  0  0  0  0  0  0  0
    1.7710    1.7780    0.0000 C   0  0  0  0  0  0  0  0  0  0  0  0
    1.7710    3.2780    0.0000 C   0  0  0  0  0  0  0  0  0  0  0  0
    0.4720    4.0280    0.0000 O   0  0  0  0  0  0  0  0  0  0  0  0
    3.0700    4.0280    0.0000 C   0  0  0  0  0  0  0  0  0  0  0  0
    4.3690    3.2780    0.0000 C   0  0  0  0  0  0  0  0  0  0  0  0
    4.3690    1.7780    0.0000 C   0  0  0  0  0  0  0  0  0  0  0  0
    5.6680    1.0280    0.0000 O   0  0  0  0  0  0  0  0  0  0  0  0
    3.0700    1.0280    0.0000 C   0  0  0  0  0  0  0  0  0  0  0  0
  1  2  2  0  0  0  0
  2  3  1  0  0  0  0
  3  4  1  0  0  0  0
  3 10  2  0  0  0  0
  4  5  1  0  0  0  0
  4  6  2  0  0  0  0
  6  7  1  0  0  0  0
  7  8  2  0  0  0  0
  8  9  1  0  0  0  0
  8 10  1  0  0  0  0
M  END
>  <name>
O=[C;amide]c1c([O;ether])ccc([O;ether])c1

>  <apo>
3

>  <freq>
1

>  <freq0>
0

>  <freq1>
1

>  <freqA>
0.99887151

>  <a_count>
16

$$$$

  MOE2015           2D

 10 10  0  0  0  0  0  0  0  0999 V2000
    6.7670   -1.8130    0.0000 O   0  0  0  0  0  0  0  0  0  0  0  0
    5.4680   -1.0630    0.0000 C   0  0  0  0  0  0  0  0  0  0  0  0
    4.1690   -1.8130    0.0000 C   0  0  0  0  0  0  0  0  0  0  0  0
    2.8700   -1.0630    0.0000 C   0  0  0  0  0  0  0  0  0  0  0  0
    1.5710   -1.8130    0.0000 C   0  0  0  0  0  0  0  0  0  0  0  0
    0.2720   -1.0630    0.0000 O   0  0  0  0  0  0  0  0  0  0  0  0
    1.5710   -3.3130    0.0000 C   0  0  0  0  0  0  0  0  0  0  0  0
    0.2720   -4.0630    0.0000 O   0  0  0  0  0  0  0  0  0  0  0  0
    2.8700   -4.0630    0.0000 C   0  0  0  0  0  0  0  0  0  0  0  0
    4.1690   -3.3130    0.0000 C   0  0  0  0  0  0  0  0  0  0  0  0
  1  2  2  0  0  0  0
  2  3  1  0  0  0  0
  3  4  1  0  0  0  0
  3 10  2  0  0  0  0
  4  5  2  0  0  0  0
  5  6  1  0  0  0  0
  5  7  1  0  0  0  0
  7  8  1  0  0  0  0
  7  9  2  0  0  0  0
  9 10  1  0  0  0  0
M  END
>  <name>
O=[C;amide]c1cc([O;ether])c([O;ether])cc1

>  <apo>
3

>  <freq>
1

>  <freq0>
0

>  <freq1>
1

>  <freqA>
0.99887151

>  <a_count>
16

$$$$

  MOE2015           2D

  9  9  0  0  0  0  0  0  0  0999 V2000
    6.0000   -3.4640    0.0000 O   0  0  0  0  0  0  0  0  0  0  0  0
    5.2500   -2.1650    0.0000 C   0  0  0  0  0  0  0  0  0  0  0  0
    3.7500   -2.1650    0.0000 C   0  0  0  0  0  0  0  0  0  0  0  0
    3.0000   -0.8660    0.0000 C   0  0  0  0  0  0  0  0  0  0  0  0
    1.5000   -0.8660    0.0000 C   0  0  0  0  0  0  0  0  0  0  0  0
    0.7500   -2.1650    0.0000 C   0  0  0  0  0  0  0  0  0  0  0  0
   -0.7500   -2.1650    0.0000 N   0  0  0  0  0  0  0  0  0  0  0  0
    1.5000   -3.4640    0.0000 C   0  0  0  0  0  0  0  0  0  0  0  0
    3.0000   -3.4640    0.0000 C   0  0  0  0  0  0  0  0  0  0  0  0
  1  2  2  0  0  0  0
  2  3  1  0  0  0  0
  3  4  1  0  0  0  0
  3  9  2  0  0  0  0
  4  5  2  0  0  0  0
  5  6  1  0  0  0  0
  6  7  1  0  0  0  0
  6  8  2  0  0  0  0
  8  9  1  0  0  0  0
M  END
>  <name>
O=[C;amide]c1ccc([N;amide])cc1

>  <apo>
2

>  <freq>
1

>  <freq0>
0

>  <freq1>
1

>  <freqA>
0.99887151

>  <a_count>
16

$$$$

  MOE2015           2D

  9  9  0  0  0  0  0  0  0  0999 V2000
    6.0000   -3.4640    0.0000 O   0  0  0  0  0  0  0  0  0  0  0  0
    5.2500   -2.1650    0.0000 C   0  0  0  0  0  0  0  0  0  0  0  0
    3.7500   -2.1650    0.0000 C   0  0  0  0  0  0  0  0  0  0  0  0
    3.0000   -0.8660    0.0000 C   0  0  0  0  0  0  0  0  0  0  0  0
    1.5000   -0.8660    0.0000 C   0  0  0  0  0  0  0  0  0  0  0  0
    0.7500   -2.1650    0.0000 C   0  0  0  0  0  0  0  0  0  0  0  0
   -0.7500   -2.1650    0.0000 N   0  0  0  0  0  0  0  0  0  0  0  0
    1.5000   -3.4640    0.0000 C   0  0  0  0  0  0  0  0  0  0  0  0
    3.0000   -3.4640    0.0000 C   0  0  0  0  0  0  0  0  0  0  0  0
  1  2  2  0  0  0  0
  2  3  1  0  0  0  0
  3  4  1  0  0  0  0
  3  9  2  0  0  0  0
  4  5  2  0  0  0  0
  5  6  1  0  0  0  0
  6  7  1  0  0  0  0
  6  8  2  0  0  0  0
  8  9  1  0  0  0  0
M  END
>  <name>
O=[C;amide]c1ccc([N;so2amide])cc1

>  <apo>
2

>  <freq>
1

>  <freq0>
0

>  <freq1>
1

>  <freqA>
0.99887151

>  <a_count>
16

$$$$

  MOE2015           2D

  9  9  0  0  0  0  0  0  0  0999 V2000
   -0.7120   -2.9650    0.0000 O   0  0  0  0  0  0  0  0  0  0  0  0
    0.6250   -3.6460    0.0000 C   0  0  0  0  0  0  0  0  0  0  0  0
    1.8830   -2.8290    0.0000 C   0  0  0  0  0  0  0  0  0  0  0  0
    3.2830   -3.3660    0.0000 S   0  0  0  0  0  0  0  0  0  0  0  0
    4.2270   -2.2000    0.0000 C   0  0  0  0  0  0  0  0  0  0  0  0
    5.7250   -2.2790    0.0000 N   0  0  0  0  0  0  0  0  0  0  0  0
    6.5420   -1.0210    0.0000 C   0  0  0  0  0  0  0  0  0  0  0  0
    3.4100   -0.9420    0.0000 C   0  0  0  0  0  0  0  0  0  0  0  0
    1.9610   -1.3310    0.0000 C   0  0  0  0  0  0  0  0  0  0  0  0
  1  2  2  0  0  0  0
  2  3  1  0  0  0  0
  3  4  1  0  0  0  0
  3  9  2  0  0  0  0
  4  5  1  0  0  0  0
  5  6  1  0  0  0  0
  5  8  2  0  0  0  0
  6  7  1  0  0  0  0
  8  9  1  0  0  0  0
M  END
>  <name>
O=[C;amide]c1sc([N;amine]C)cc1

>  <apo>
2

>  <freq>
1

>  <freq0>
0

>  <freq1>
1

>  <freqA>
0.99887151

>  <a_count>
16

$$$$

  MOE2015           2D

  6  5  0  0  0  0  0  0  0  0999 V2000
   -0.2480   -1.6740    0.0000 O   0  0  0  0  0  0  0  0  0  0  0  0
    1.0510   -0.9240    0.0000 C   0  0  0  0  0  0  0  0  0  0  0  0
    2.3500   -1.6740    0.0000 C   0  0  0  0  0  0  0  0  0  0  0  0
    3.6500   -0.9240    0.0000 C   0  0  0  0  0  0  0  0  0  0  0  0
    4.9490   -1.6740    0.0000 C   0  0  0  0  0  0  0  0  0  0  0  0
    6.2480   -0.9240    0.0000 C   0  0  0  0  0  0  0  0  0  0  0  0
  1  2  2  0  0  0  0
  2  3  1  0  0  0  0
  3  4  1  0  0  0  0
  4  5  1  0  0  0  0
  5  6  1  0  0  0  0
M  END
>  <name>
O=[C;ester]CC[C;olefin]C

>  <apo>
2

>  <freq>
1

>  <freq0>
0

>  <freq1>
1

>  <freqA>
0.99887151

>  <a_count>
16

$$$$

  MOE2015           2D

  6  5  0  0  0  0  0  0  0  0999 V2000
   -0.2480   -1.6740    0.0000 O   0  0  0  0  0  0  0  0  0  0  0  0
    1.0510   -0.9240    0.0000 C   0  0  0  0  0  0  0  0  0  0  0  0
    2.3500   -1.6740    0.0000 C   0  0  0  0  0  0  0  0  0  0  0  0
    3.6500   -0.9240    0.0000 C   0  0  0  0  0  0  0  0  0  0  0  0
    4.9490   -1.6740    0.0000 C   0  0  0  0  0  0  0  0  0  0  0  0
    6.2480   -0.9240    0.0000 C   0  0  0  0  0  0  0  0  0  0  0  0
  1  2  2  0  0  0  0
  2  3  1  0  0  0  0
  3  4  1  0  0  0  0
  4  5  1  0  0  0  0
  5  6  1  0  0  0  0
M  END
>  <name>
O=[C;ester][C;amine]CCC

>  <apo>
2

>  <freq>
1

>  <freq0>
0

>  <freq1>
1

>  <freqA>
0.99887151

>  <a_count>
16

$$$$

  MOE2015           2D

  9  9  0  0  0  0  0  0  0  0999 V2000
    5.5000   -3.1750    0.0000 O   0  0  0  0  0  0  0  0  0  0  0  0
    4.7500   -1.8760    0.0000 C   0  0  0  0  0  0  0  0  0  0  0  0
    3.2500   -1.8760    0.0000 C   0  0  0  0  0  0  0  0  0  0  0  0
    2.5000   -0.5770    0.0000 C   0  0  0  0  0  0  0  0  0  0  0  0
    3.2500    0.7220    0.0000 N   0  0  0  0  0  0  0  0  0  0  0  0
    1.0000   -0.5770    0.0000 C   0  0  0  0  0  0  0  0  0  0  0  0
    0.2500   -1.8760    0.0000 C   0  0  0  0  0  0  0  0  0  0  0  0
    1.0000   -3.1750    0.0000 C   0  0  0  0  0  0  0  0  0  0  0  0
    2.5000   -3.1750    0.0000 C   0  0  0  0  0  0  0  0  0  0  0  0
  1  2  2  0  0  0  0
  2  3  1  0  0  0  0
  3  4  1  0  0  0  0
  3  9  2  0  0  0  0
  4  5  1  0  0  0  0
  4  6  2  0  0  0  0
  6  7  1  0  0  0  0
  7  8  2  0  0  0  0
  8  9  1  0  0  0  0
M  END
>  <name>
O=[C;ester]c1c(N)cccc1

>  <apo>
1

>  <freq>
1

>  <freq0>
0

>  <freq1>
1

>  <freqA>
0.99887151

>  <a_count>
16

$$$$

  MOE2015           2D

 11 11  0  0  0  0  0  0  0  0999 V2000
    5.7270    3.3070    0.0000 O   0  0  0  0  0  0  0  0  0  0  0  0
    4.9770    2.0080    0.0000 N   0  3  0  0  0  0  0  0  0  0  0  0
    5.7270    0.7090    0.0000 O   0  5  0  0  0  0  0  0  0  0  0  0
    3.4770    2.0080    0.0000 C   0  0  0  0  0  0  0  0  0  0  0  0
    2.7270    0.7090    0.0000 C   0  0  0  0  0  0  0  0  0  0  0  0
    3.4770   -0.5900    0.0000 O   0  0  0  0  0  0  0  0  0  0  0  0
    1.2270    0.7090    0.0000 C   0  0  0  0  0  0  0  0  0  0  0  0
    0.4770   -0.5900    0.0000 O   0  0  0  0  0  0  0  0  0  0  0  0
    0.4770    2.0080    0.0000 C   0  0  0  0  0  0  0  0  0  0  0  0
    1.2270    3.3070    0.0000 C   0  0  0  0  0  0  0  0  0  0  0  0
    2.7270    3.3070    0.0000 C   0  0  0  0  0  0  0  0  0  0  0  0
  1  2  2  0  0  0  0
  2  3  1  0  0  0  0
  2  4  1  0  0  0  0
  4  5  1  0  0  0  0
  4 11  2  0  0  0  0
  5  6  1  0  0  0  0
  5  7  2  0  0  0  0
  7  8  1  0  0  0  0
  7  9  1  0  0  0  0
  9 10  2  0  0  0  0
 10 11  1  0  0  0  0
M  CHG  1   2   1
M  CHG  1   3  -1
M  END
>  <name>
O=[N+]([O-])c1c(O)c(O)c[c;biphenyl]c1

>  <apo>
1

>  <freq>
1

>  <freq0>
0

>  <freq1>
1

>  <freqA>
0.99887151

>  <a_count>
16

$$$$

  MOE2015           2D

  6  6  0  0  1  0  0  0  0  0999 V2000
    0.2830    0.4910    0.0000 O   0  0  0  0  0  0  0  0  0  0  0  0
    1.0330   -0.8080    0.0000 C   0  0  1  0  0  0  0  0  0  0  0  0
    0.2830   -2.1070    0.0000 C   0  0  0  0  0  0  0  0  0  0  0  0
    2.5330   -0.8080    0.0000 C   0  0  0  0  0  0  0  0  0  0  0  0
    3.8330   -1.5580    0.0000 C   0  0  0  0  0  0  0  0  0  0  0  0
    3.8330   -0.0580    0.0000 C   0  0  0  0  0  0  0  0  0  0  0  0
  2  1  1  6  0  0  0
  2  3  1  0  0  0  0
  2  4  1  0  0  0  0
  4  5  1  0  0  0  0
  4  6  1  0  0  0  0
  5  6  1  0  0  0  0
M  END
>  <name>
O[C@@H]([C;olefin])C1CC1

>  <apo>
1

>  <freq>
1

>  <freq0>
0

>  <freq1>
1

>  <freqA>
0.99887151

>  <a_count>
16

$$$$

  MOE2015           2D

 10 11  0  0  0  0  0  0  0  0999 V2000
    7.3810    0.0000    0.0000 O   0  0  0  0  0  0  0  0  0  0  0  0
    5.8810    0.0000    0.0000 C   0  0  0  0  0  0  0  0  0  0  0  0
    5.0000   -1.2140    0.0000 N   0  0  0  0  0  0  0  0  0  0  0  0
    3.5730   -0.7500    0.0000 C   0  0  0  0  0  0  0  0  0  0  0  0
    3.5730    0.7500    0.0000 C   0  0  0  0  0  0  0  0  0  0  0  0
    5.0000    1.2140    0.0000 N   0  0  0  0  0  0  0  0  0  0  0  0
    2.2740    1.5000    0.0000 C   0  0  0  0  0  0  0  0  0  0  0  0
    0.9750    0.7500    0.0000 C   0  0  0  0  0  0  0  0  0  0  0  0
    0.9750   -0.7500    0.0000 C   0  0  0  0  0  0  0  0  0  0  0  0
    2.2740   -1.5000    0.0000 C   0  0  0  0  0  0  0  0  0  0  0  0
  1  2  1  0  0  0  0
  2  3  1  0  0  0  0
  2  6  2  0  0  0  0
  3  4  1  0  0  0  0
  4  5  1  0  0  0  0
  4 10  2  0  0  0  0
  5  6  1  0  0  0  0
  5  7  2  0  0  0  0
  7  8  1  0  0  0  0
  8  9  2  0  0  0  0
  9 10  1  0  0  0  0
M  END
>  <name>
Oc1[nH;NaroC]c2c(n1)cccc2

>  <apo>
1

>  <freq>
1

>  <freq0>
0

>  <freq1>
1

>  <freqA>
0.99887151

>  <a_count>
16

$$$$

  MOE2015           2D

 10  9  0  0  1  0  0  0  0  0999 V2000
   -1.8190    1.0500    0.0000 S   0  0  0  0  0  0  0  0  0  0  0  0
   -2.5690    2.3490    0.0000 O   0  0  0  0  0  0  0  0  0  0  0  0
   -1.0690   -0.2490    0.0000 O   0  0  0  0  0  0  0  0  0  0  0  0
   -3.1180    0.3000    0.0000 O   0  0  0  0  0  0  0  0  0  0  0  0
   -0.5200    1.8000    0.0000 C   0  0  3  0  0  0  0  0  0  0  0  0
   -0.5200    3.3000    0.0000 C   0  0  0  0  0  0  0  0  0  0  0  0
    0.7790    4.0500    0.0000 O   0  0  0  0  0  0  0  0  0  0  0  0
    0.7790    1.0500    0.0000 C   0  0  0  0  0  0  0  0  0  0  0  0
    2.0780    1.8000    0.0000 C   0  0  0  0  0  0  0  0  0  0  0  0
    3.3770    1.0500    0.0000 O   0  0  0  0  0  0  0  0  0  0  0  0
  1  2  2  0  0  0  0
  1  3  2  0  0  0  0
  1  4  1  0  0  0  0
  1  5  1  0  0  0  0
  5  6  1  0  0  0  0
  5  8  1  0  0  0  0
  6  7  2  0  0  0  0
  8  9  1  0  0  0  0
  9 10  2  0  0  0  0
M  END
>  <name>
S(=O)(=O)(O)C([C;ester]=O)C[C;ester]=O

>  <apo>
2

>  <freq>
1

>  <freq0>
0

>  <freq1>
1

>  <freqA>
0.99887151

>  <a_count>
16

$$$$

  MOE2015           2D

  6  6  0  0  0  0  0  0  0  0999 V2000
   -2.0490    2.0490    0.0000 N   0  0  0  0  0  0  0  0  0  0  0  0
   -2.0490    0.5490    0.0000 C   0  0  0  0  0  0  0  0  0  0  0  0
   -0.7500   -0.2010    0.0000 C   0  0  0  0  0  0  0  0  0  0  0  0
    0.5490    0.5490    0.0000 N   0  0  0  0  0  0  0  0  0  0  0  0
    0.5490    2.0490    0.0000 C   0  0  0  0  0  0  0  0  0  0  0  0
   -0.7500    2.7990    0.0000 C   0  0  0  0  0  0  0  0  0  0  0  0
  1  2  1  0  0  0  0
  1  6  1  0  0  0  0
  2  3  1  0  0  0  0
  3  4  1  0  0  0  0
  4  5  1  0  0  0  0
  5  6  1  0  0  0  0
M  END
>  <name>
[N;amide]1CC[N;amine]CC1

>  <apo>
2

>  <freq>
1

>  <freq0>
0

>  <freq1>
1

>  <freqA>
0.99887151

>  <a_count>
16

$$$$

  MOE2015           2D

  8  8  0  0  0  0  0  0  0  0999 V2000
    7.2200    0.0000    0.0000 N   0  0  0  0  0  0  0  0  0  0  0  0
    5.7200    0.0000    0.0000 C   0  0  0  0  0  0  0  0  0  0  0  0
    4.9700   -1.2990    0.0000 C   0  0  0  0  0  0  0  0  0  0  0  0
    3.4700   -1.2990    0.0000 C   0  0  0  0  0  0  0  0  0  0  0  0
    2.5880   -0.0860    0.0000 S   0  0  0  0  0  0  0  0  0  0  0  0
    1.1620   -0.5490    0.0000 C   0  0  0  0  0  0  0  0  0  0  0  0
    1.1620   -2.0490    0.0000 C   0  0  0  0  0  0  0  0  0  0  0  0
    2.5880   -2.5130    0.0000 N   0  0  0  0  0  0  0  0  0  0  0  0
  1  2  1  0  0  0  0
  2  3  1  0  0  0  0
  3  4  1  0  0  0  0
  4  5  1  0  0  0  0
  4  8  2  0  0  0  0
  5  6  1  0  0  0  0
  6  7  2  0  0  0  0
  7  8  1  0  0  0  0
M  END
>  <name>
[N;amide]CCc1sc[c;biphenyl]n1

>  <apo>
2

>  <freq>
1

>  <freq0>
0

>  <freq1>
1

>  <freqA>
0.99887151

>  <a_count>
16

$$$$

  MOE2015           2D

  8  8  0  0  0  0  0  0  0  0999 V2000
    0.0000    0.0000    0.0000 N   0  0  0  0  0  0  0  0  0  0  0  0
    1.5000    0.0000    0.0000 C   0  0  0  0  0  0  0  0  0  0  0  0
    2.2500   -1.2990    0.0000 N   0  0  0  0  0  0  0  0  0  0  0  0
    3.7500   -1.2990    0.0000 C   0  0  0  0  0  0  0  0  0  0  0  0
    4.5000    0.0000    0.0000 C   0  0  0  0  0  0  0  0  0  0  0  0
    6.0000    0.0000    0.0000 C   0  0  0  0  0  0  0  0  0  0  0  0
    3.7500    1.2990    0.0000 C   0  0  0  0  0  0  0  0  0  0  0  0
    2.2500    1.2990    0.0000 C   0  0  0  0  0  0  0  0  0  0  0  0
  1  2  1  0  0  0  0
  2  3  1  0  0  0  0
  2  8  2  0  0  0  0
  3  4  2  0  0  0  0
  4  5  1  0  0  0  0
  5  6  1  0  0  0  0
  5  7  2  0  0  0  0
  7  8  1  0  0  0  0
M  END
>  <name>
[N;amide]c1n[c;biphenyl]c(C)cc1

>  <apo>
2

>  <freq>
1

>  <freq0>
0

>  <freq1>
1

>  <freqA>
0.99887151

>  <a_count>
16

$$$$

  MOE2015           2D

  8  8  0  0  0  0  0  0  0  0999 V2000
    1.2190    1.7860    0.0000 N   0  0  0  0  0  0  0  0  0  0  0  0
    1.9690    3.0850    0.0000 C   0  0  0  0  0  0  0  0  0  0  0  0
   -0.2810    1.7860    0.0000 C   0  0  0  0  0  0  0  0  0  0  0  0
   -1.0310    0.4870    0.0000 N   0  0  0  0  0  0  0  0  0  0  0  0
   -2.5310    0.4870    0.0000 C   0  0  0  0  0  0  0  0  0  0  0  0
   -3.2810    1.7860    0.0000 C   0  0  0  0  0  0  0  0  0  0  0  0
   -2.5310    3.0850    0.0000 C   0  0  0  0  0  0  0  0  0  0  0  0
   -1.0310    3.0850    0.0000 C   0  0  0  0  0  0  0  0  0  0  0  0
  1  2  1  0  0  0  0
  1  3  1  0  0  0  0
  3  4  1  0  0  0  0
  3  8  2  0  0  0  0
  4  5  2  0  0  0  0
  5  6  1  0  0  0  0
  6  7  2  0  0  0  0
  7  8  1  0  0  0  0
M  END
>  <name>
[N;amine](C)c1ncccc1

>  <apo>
1

>  <freq>
1

>  <freq0>
0

>  <freq1>
1

>  <freqA>
0.99887151

>  <a_count>
16

$$$$

  MOE2015           2D

  6  6  0  0  0  0  0  0  0  0999 V2000
   -2.0490    2.0490    0.0000 N   0  0  0  0  0  0  0  0  0  0  0  0
   -2.0490    0.5490    0.0000 C   0  0  0  0  0  0  0  0  0  0  0  0
   -0.7500   -0.2010    0.0000 C   0  0  0  0  0  0  0  0  0  0  0  0
    0.5490    0.5490    0.0000 N   0  0  0  0  0  0  0  0  0  0  0  0
    0.5490    2.0490    0.0000 C   0  0  0  0  0  0  0  0  0  0  0  0
   -0.7500    2.7990    0.0000 C   0  0  0  0  0  0  0  0  0  0  0  0
  1  2  1  0  0  0  0
  1  6  1  0  0  0  0
  2  3  1  0  0  0  0
  3  4  1  0  0  0  0
  4  5  1  0  0  0  0
  5  6  1  0  0  0  0
M  END
>  <name>
[N;so2amide]1CC[N;amine]CC1

>  <apo>
2

>  <freq>
1

>  <freq0>
0

>  <freq1>
1

>  <freqA>
0.99887151

>  <a_count>
16

$$$$

  MOE2015           2D

  5  4  0  0  0  0  0  0  0  0999 V2000
    3.0000    0.0000    0.0000 N   0  0  0  0  0  0  0  0  0  0  0  0
    1.5000    0.0000    0.0000 C   0  0  0  0  0  0  0  0  0  0  0  0
    1.5000    1.5000    0.0000 C   0  0  0  0  0  0  0  0  0  0  0  0
    0.0000    0.0000    0.0000 C   0  0  0  0  0  0  0  0  0  0  0  0
    1.5000   -1.5000    0.0000 C   0  0  0  0  0  0  0  0  0  0  0  0
  1  2  1  0  0  0  0
  2  3  1  0  0  0  0
  2  4  1  0  0  0  0
  2  5  1  0  0  0  0
M  END
>  <name>
[N;so2amide]C(C)(C)C

>  <apo>
1

>  <freq>
1

>  <freq0>
0

>  <freq1>
1

>  <freqA>
0.99887151

>  <a_count>
16

$$$$

  MOE2015           2D

  8  8  0  0  0  0  0  0  0  0999 V2000
   -0.0240    0.1370    0.0000 N   0  0  0  0  0  0  0  0  0  0  0  0
    1.4740    0.0580    0.0000 C   0  0  0  0  0  0  0  0  0  0  0  0
    2.4180    1.2240    0.0000 C   0  0  0  0  0  0  0  0  0  0  0  0
    2.0290    2.6730    0.0000 C   0  0  0  0  0  0  0  0  0  0  0  0
    3.8180    0.6870    0.0000 C   0  0  0  0  0  0  0  0  0  0  0  0
    5.0760    1.5040    0.0000 C   0  0  0  0  0  0  0  0  0  0  0  0
    3.7390   -0.8110    0.0000 N   0  0  0  0  0  0  0  0  0  0  0  0
    2.2910   -1.2000    0.0000 O   0  0  0  0  0  0  0  0  0  0  0  0
  1  2  1  0  0  0  0
  2  3  2  0  0  0  0
  2  8  1  0  0  0  0
  3  4  1  0  0  0  0
  3  5  1  0  0  0  0
  5  6  1  0  0  0  0
  5  7  2  0  0  0  0
  7  8  1  0  0  0  0
M  END
>  <name>
[N;so2amide]c1c(C)c(C)no1

>  <apo>
1

>  <freq>
1

>  <freq0>
0

>  <freq1>
1

>  <freqA>
0.99887151

>  <a_count>
16

$$$$

  MOE2015           2D

  5  4  0  0  0  0  0  0  0  0999 V2000
    3.0000    0.0000    0.0000 N   0  0  0  0  0  0  0  0  0  0  0  0
    1.5000    0.0000    0.0000 C   0  0  0  0  0  0  0  0  0  0  0  0
    1.5000    1.5000    0.0000 C   0  0  0  0  0  0  0  0  0  0  0  0
    0.0000    0.0000    0.0000 C   0  0  0  0  0  0  0  0  0  0  0  0
    1.5000   -1.5000    0.0000 C   0  0  0  0  0  0  0  0  0  0  0  0
  1  2  1  0  0  0  0
  2  3  1  0  0  0  0
  2  4  1  0  0  0  0
  2  5  1  0  0  0  0
M  END
>  <name>
[N;urea]C(C)(C)C

>  <apo>
1

>  <freq>
1

>  <freq0>
0

>  <freq1>
1

>  <freqA>
0.99887151

>  <a_count>
16

$$$$

  MOE2015           2D

 10 11  0  0  0  0  0  0  0  0999 V2000
    6.7290   -0.8970    0.0000 O   0  0  0  0  0  0  0  0  0  0  0  0
    5.4300   -0.1470    0.0000 C   0  0  0  0  0  0  0  0  0  0  0  0
    4.1310   -0.8970    0.0000 C   0  0  0  0  0  0  0  0  0  0  0  0
    2.8320   -0.1470    0.0000 C   0  0  0  0  0  0  0  0  0  0  0  0
    1.4050   -0.6110    0.0000 O   0  0  0  0  0  0  0  0  0  0  0  0
    0.5230    0.6030    0.0000 C   0  0  0  0  0  0  0  0  0  0  0  0
    1.4050    1.8160    0.0000 O   0  0  0  0  0  0  0  0  0  0  0  0
    2.8320    1.3530    0.0000 C   0  0  0  0  0  0  0  0  0  0  0  0
    4.1310    2.1030    0.0000 C   0  0  0  0  0  0  0  0  0  0  0  0
    5.4300    1.3530    0.0000 C   0  0  0  0  0  0  0  0  0  0  0  0
  1  2  1  0  0  0  0
  2  3  1  0  0  0  0
  2 10  2  0  0  0  0
  3  4  2  0  0  0  0
  4  5  1  0  0  0  0
  4  8  1  0  0  0  0
  5  6  1  0  0  0  0
  6  7  1  0  0  0  0
  7  8  1  0  0  0  0
  8  9  2  0  0  0  0
  9 10  1  0  0  0  0
M  END
>  <name>
[O;ether]c1cc2OCOc2cc1

>  <apo>
1

>  <freq>
1

>  <freq0>
0

>  <freq1>
1

>  <freqA>
0.99887151

>  <a_count>
16

$$$$

  MOE2015           2D

  8  8  0  0  0  0  0  0  0  0999 V2000
    0.0000    0.0000    0.0000 O   0  0  0  0  0  0  0  0  0  0  0  0
    1.5000    0.0000    0.0000 C   0  0  0  0  0  0  0  0  0  0  0  0
    2.2500   -1.2990    0.0000 C   0  0  0  0  0  0  0  0  0  0  0  0
    3.7500   -1.2990    0.0000 C   0  0  0  0  0  0  0  0  0  0  0  0
    4.5000    0.0000    0.0000 C   0  0  0  0  0  0  0  0  0  0  0  0
    6.0000    0.0000    0.0000 C   0  0  0  0  0  0  0  0  0  0  0  0
    3.7500    1.2990    0.0000 C   0  0  0  0  0  0  0  0  0  0  0  0
    2.2500    1.2990    0.0000 C   0  0  0  0  0  0  0  0  0  0  0  0
  1  2  1  0  0  0  0
  2  3  1  0  0  0  0
  2  8  2  0  0  0  0
  3  4  2  0  0  0  0
  4  5  1  0  0  0  0
  5  6  1  0  0  0  0
  5  7  2  0  0  0  0
  7  8  1  0  0  0  0
M  END
>  <name>
[O;ether]c1ccc([C;NaroC])cc1

>  <apo>
2

>  <freq>
1

>  <freq0>
0

>  <freq1>
1

>  <freqA>
0.99887151

>  <a_count>
16

$$$$

  MOE2015           2D

  8  8  0  0  0  0  0  0  0  0999 V2000
    0.0000    0.0000    0.0000 O   0  0  0  0  0  0  0  0  0  0  0  0
    1.5000    0.0000    0.0000 C   0  0  0  0  0  0  0  0  0  0  0  0
    2.2500   -1.2990    0.0000 C   0  0  0  0  0  0  0  0  0  0  0  0
    3.7500   -1.2990    0.0000 C   0  0  0  0  0  0  0  0  0  0  0  0
    4.5000    0.0000    0.0000 C   0  0  0  0  0  0  0  0  0  0  0  0
    6.0000    0.0000    0.0000 C   0  0  0  0  0  0  0  0  0  0  0  0
    3.7500    1.2990    0.0000 C   0  0  0  0  0  0  0  0  0  0  0  0
    2.2500    1.2990    0.0000 C   0  0  0  0  0  0  0  0  0  0  0  0
  1  2  1  0  0  0  0
  2  3  1  0  0  0  0
  2  8  2  0  0  0  0
  3  4  2  0  0  0  0
  4  5  1  0  0  0  0
  5  6  1  0  0  0  0
  5  7  2  0  0  0  0
  7  8  1  0  0  0  0
M  END
>  <name>
[O;ether]c1ccc([C;amine])cc1

>  <apo>
2

>  <freq>
1

>  <freq0>
0

>  <freq1>
1

>  <freqA>
0.99887151

>  <a_count>
16

$$$$

  MOE2015           2D

  8  8  0  0  0  0  0  0  0  0999 V2000
    0.0000    0.0000    0.0000 O   0  0  0  0  0  0  0  0  0  0  0  0
    1.5000    0.0000    0.0000 C   0  0  0  0  0  0  0  0  0  0  0  0
    2.2500   -1.2990    0.0000 C   0  0  0  0  0  0  0  0  0  0  0  0
    3.7500   -1.2990    0.0000 C   0  0  0  0  0  0  0  0  0  0  0  0
    4.5000    0.0000    0.0000 C   0  0  0  0  0  0  0  0  0  0  0  0
    6.0000    0.0000    0.0000 C   0  0  0  0  0  0  0  0  0  0  0  0
    3.7500    1.2990    0.0000 C   0  0  0  0  0  0  0  0  0  0  0  0
    2.2500    1.2990    0.0000 C   0  0  0  0  0  0  0  0  0  0  0  0
  1  2  1  0  0  0  0
  2  3  1  0  0  0  0
  2  8  2  0  0  0  0
  3  4  2  0  0  0  0
  4  5  1  0  0  0  0
  5  6  1  0  0  0  0
  5  7  2  0  0  0  0
  7  8  1  0  0  0  0
M  END
>  <name>
[O;ether]c1ccc([C;olefin])cc1

>  <apo>
2

>  <freq>
1

>  <freq0>
0

>  <freq1>
1

>  <freqA>
0.99887151

>  <a_count>
16

$$$$

  MOE2015           2D

 11 12  0  0  0  0  0  0  0  0999 V2000
    6.7620   -1.4610    0.0000 S   0  0  0  0  0  0  0  0  0  0  0  0
    5.4630   -0.7110    0.0000 C   0  0  0  0  0  0  0  0  0  0  0  0
    5.4630    0.7890    0.0000 N   0  0  0  0  0  0  0  0  0  0  0  0
    4.1640    1.5390    0.0000 C   0  0  0  0  0  0  0  0  0  0  0  0
    4.1640    3.0390    0.0000 N   0  0  0  0  0  0  0  0  0  0  0  0
    2.8650    0.7890    0.0000 C   0  0  0  0  0  0  0  0  0  0  0  0
    1.4390    1.2530    0.0000 N   0  0  0  0  0  0  0  0  0  0  0  0
    0.5570    0.0390    0.0000 C   0  0  0  0  0  0  0  0  0  0  0  0
    1.4390   -1.1740    0.0000 N   0  0  0  0  0  0  0  0  0  0  0  0
    2.8650   -0.7110    0.0000 C   0  0  0  0  0  0  0  0  0  0  0  0
    4.1640   -1.4610    0.0000 N   0  0  0  0  0  0  0  0  0  0  0  0
  1  2  1  0  0  0  0
  2  3  1  0  0  0  0
  2 11  2  0  0  0  0
  3  4  2  0  0  0  0
  4  5  1  0  0  0  0
  4  6  1  0  0  0  0
  6  7  1  0  0  0  0
  6 10  2  0  0  0  0
  7  8  2  0  0  0  0
  8  9  1  0  0  0  0
  9 10  1  0  0  0  0
 10 11  1  0  0  0  0
M  END
>  <name>
[S;thioether]c1nc([N;amine])c2nc[nH;NaroC]c2n1

>  <apo>
3

>  <freq>
1

>  <freq0>
0

>  <freq1>
1

>  <freqA>
0.99887151

>  <a_count>
16

$$$$

  MOE2015           2D

  8  8  0  0  0  0  0  0  0  0999 V2000
    0.4890   -1.1750    0.0000 Br  0  0  0  0  0  0  0  0  0  0  0  0
    1.7880   -0.4250    0.0000 C   0  0  0  0  0  0  0  0  0  0  0  0
    1.7880    1.0750    0.0000 C   0  0  0  0  0  0  0  0  0  0  0  0
    0.4890    1.8250    0.0000 C   0  0  0  0  0  0  0  0  0  0  0  0
    3.0870    1.8250    0.0000 C   0  0  0  0  0  0  0  0  0  0  0  0
    4.3860    1.0750    0.0000 C   0  0  0  0  0  0  0  0  0  0  0  0
    4.3860   -0.4250    0.0000 C   0  0  0  0  0  0  0  0  0  0  0  0
    3.0870   -1.1750    0.0000 C   0  0  0  0  0  0  0  0  0  0  0  0
  1  2  1  0  0  0  0
  2  3  1  0  0  0  0
  2  8  2  0  0  0  0
  3  4  1  0  0  0  0
  3  5  2  0  0  0  0
  5  6  1  0  0  0  0
  6  7  2  0  0  0  0
  7  8  1  0  0  0  0
M  END
>  <name>
Brc1c([C;quatN])cccc1

>  <apo>
1

>  <freq>
1

>  <freq0>
0

>  <freq1>
1

>  <freqA>
0.99887151

>  <a_count>
15

$$$$

  MOE2015           2D

  7  7  0  0  0  0  0  0  0  0999 V2000
    5.1430    0.0000    0.0000 C   0  0  0  0  0  0  0  0  0  0  0  0
    3.6430    0.0000    0.0000 N   0  3  0  0  0  0  0  0  0  0  0  0
    2.8930    1.2990    0.0000 C   0  0  0  0  0  0  0  0  0  0  0  0
    1.3930    1.2990    0.0000 C   0  0  0  0  0  0  0  0  0  0  0  0
    0.6430    0.0000    0.0000 C   0  0  0  0  0  0  0  0  0  0  0  0
    1.3930   -1.2990    0.0000 C   0  0  0  0  0  0  0  0  0  0  0  0
    2.8930   -1.2990    0.0000 C   0  0  0  0  0  0  0  0  0  0  0  0
  1  2  1  0  0  0  0
  2  3  1  0  0  0  0
  2  7  2  0  0  0  0
  3  4  2  0  0  0  0
  4  5  1  0  0  0  0
  5  6  2  0  0  0  0
  6  7  1  0  0  0  0
M  CHG  1   2   1
M  END
>  <name>
C[n+]1cc[c;biphenyl]cc1

>  <apo>
1

>  <freq>
1

>  <freq0>
0

>  <freq1>
1

>  <freqA>
0.99887151

>  <a_count>
15

$$$$

  MOE2015           2D

  7  7  0  0  0  0  0  0  0  0999 V2000
    0.6530   -1.2550    0.0000 C   0  0  0  0  0  0  0  0  0  0  0  0
    1.8660   -0.3730    0.0000 C   0  0  0  0  0  0  0  0  0  0  0  0
    1.8660    1.1270    0.0000 C   0  0  0  0  0  0  0  0  0  0  0  0
    0.6530    2.0090    0.0000 C   0  0  0  0  0  0  0  0  0  0  0  0
    3.2930    1.5910    0.0000 N   0  0  0  0  0  0  0  0  0  0  0  0
    4.1740    0.3770    0.0000 C   0  0  0  0  0  0  0  0  0  0  0  0
    3.2930   -0.8360    0.0000 N   0  0  0  0  0  0  0  0  0  0  0  0
  1  2  1  0  0  0  0
  2  3  2  0  0  0  0
  2  7  1  0  0  0  0
  3  4  1  0  0  0  0
  3  5  1  0  0  0  0
  5  6  2  0  0  0  0
  6  7  1  0  0  0  0
M  END
>  <name>
Cc1c([C;lactam])nc[nH]1

>  <apo>
1

>  <freq>
1

>  <freq0>
0

>  <freq1>
1

>  <freqA>
0.99887151

>  <a_count>
15

$$$$

  MOE2015           2D

  7  7  0  0  0  0  0  0  0  0999 V2000
    0.6530   -1.2550    0.0000 C   0  0  0  0  0  0  0  0  0  0  0  0
    1.8660   -0.3730    0.0000 C   0  0  0  0  0  0  0  0  0  0  0  0
    1.8660    1.1270    0.0000 C   0  0  0  0  0  0  0  0  0  0  0  0
    0.6530    2.0090    0.0000 C   0  0  0  0  0  0  0  0  0  0  0  0
    3.2930    1.5910    0.0000 N   0  0  0  0  0  0  0  0  0  0  0  0
    4.1740    0.3770    0.0000 C   0  0  0  0  0  0  0  0  0  0  0  0
    3.2930   -0.8360    0.0000 N   0  0  0  0  0  0  0  0  0  0  0  0
  1  2  1  0  0  0  0
  2  3  2  0  0  0  0
  2  7  1  0  0  0  0
  3  4  1  0  0  0  0
  3  5  1  0  0  0  0
  5  6  2  0  0  0  0
  6  7  1  0  0  0  0
M  END
>  <name>
Cc1c([C;thioether])nc[nH]1

>  <apo>
1

>  <freq>
1

>  <freq0>
0

>  <freq1>
1

>  <freqA>
0.99887151

>  <a_count>
15

$$$$

  MOE2015           2D

  8  8  0  0  0  0  0  0  0  0999 V2000
    0.4890   -1.1750    0.0000 Cl  0  0  0  0  0  0  0  0  0  0  0  0
    1.7880   -0.4250    0.0000 C   0  0  0  0  0  0  0  0  0  0  0  0
    1.7880    1.0750    0.0000 C   0  0  0  0  0  0  0  0  0  0  0  0
    0.4890    1.8250    0.0000 C   0  0  0  0  0  0  0  0  0  0  0  0
    3.0870    1.8250    0.0000 C   0  0  0  0  0  0  0  0  0  0  0  0
    4.3860    1.0750    0.0000 C   0  0  0  0  0  0  0  0  0  0  0  0
    4.3860   -0.4250    0.0000 C   0  0  0  0  0  0  0  0  0  0  0  0
    3.0870   -1.1750    0.0000 C   0  0  0  0  0  0  0  0  0  0  0  0
  1  2  1  0  0  0  0
  2  3  1  0  0  0  0
  2  8  2  0  0  0  0
  3  4  1  0  0  0  0
  3  5  2  0  0  0  0
  5  6  1  0  0  0  0
  6  7  2  0  0  0  0
  7  8  1  0  0  0  0
M  END
>  <name>
Clc1c([C;amine])cccc1

>  <apo>
1

>  <freq>
1

>  <freq0>
0

>  <freq1>
1

>  <freqA>
0.99887151

>  <a_count>
15

$$$$

  MOE2015           2D

  9  9  0  0  0  0  0  0  0  0999 V2000
    1.3330    2.3090    0.0000 Cl  0  0  0  0  0  0  0  0  0  0  0  0
    2.0830    1.0100    0.0000 C   0  0  0  0  0  0  0  0  0  0  0  0
    1.3330   -0.2890    0.0000 C   0  0  0  0  0  0  0  0  0  0  0  0
   -0.1670   -0.2890    0.0000 C   0  0  0  0  0  0  0  0  0  0  0  0
    2.0830   -1.5880    0.0000 C   0  0  0  0  0  0  0  0  0  0  0  0
    3.5830   -1.5880    0.0000 C   0  0  0  0  0  0  0  0  0  0  0  0
    4.3330   -0.2890    0.0000 C   0  0  0  0  0  0  0  0  0  0  0  0
    5.8330   -0.2890    0.0000 Cl  0  0  0  0  0  0  0  0  0  0  0  0
    3.5830    1.0100    0.0000 C   0  0  0  0  0  0  0  0  0  0  0  0
  1  2  1  0  0  0  0
  2  3  1  0  0  0  0
  2  9  2  0  0  0  0
  3  4  1  0  0  0  0
  3  5  2  0  0  0  0
  5  6  1  0  0  0  0
  6  7  2  0  0  0  0
  7  8  1  0  0  0  0
  7  9  1  0  0  0  0
M  END
>  <name>
Clc1c([C;ether])ccc(Cl)c1

>  <apo>
1

>  <freq>
1

>  <freq0>
0

>  <freq1>
1

>  <freqA>
0.99887151

>  <a_count>
15

$$$$

  MOE2015           2D

 10 10  0  0  0  0  0  0  0  0999 V2000
    6.3430   -0.4000    0.0000 Cl  0  0  0  0  0  0  0  0  0  0  0  0
    5.0440    0.3500    0.0000 C   0  0  0  0  0  0  0  0  0  0  0  0
    3.7450   -0.4000    0.0000 C   0  0  0  0  0  0  0  0  0  0  0  0
    2.4460    0.3500    0.0000 C   0  0  0  0  0  0  0  0  0  0  0  0
    1.1470   -0.4000    0.0000 C   0  0  0  0  0  0  0  0  0  0  0  0
    1.1470   -1.9000    0.0000 O   0  0  0  0  0  0  0  0  0  0  0  0
    2.4460    1.8500    0.0000 C   0  0  0  0  0  0  0  0  0  0  0  0
    1.1470    2.6000    0.0000 O   0  0  0  0  0  0  0  0  0  0  0  0
    3.7450    2.6000    0.0000 C   0  0  0  0  0  0  0  0  0  0  0  0
    5.0440    1.8500    0.0000 C   0  0  0  0  0  0  0  0  0  0  0  0
  1  2  1  0  0  0  0
  2  3  1  0  0  0  0
  2 10  2  0  0  0  0
  3  4  2  0  0  0  0
  4  5  1  0  0  0  0
  4  7  1  0  0  0  0
  5  6  2  0  0  0  0
  7  8  1  0  0  0  0
  7  9  2  0  0  0  0
  9 10  1  0  0  0  0
M  END
>  <name>
Clc1cc([C;amide]=O)c(O)cc1

>  <apo>
1

>  <freq>
1

>  <freq0>
0

>  <freq1>
1

>  <freqA>
0.99887151

>  <a_count>
15

$$$$

  MOE2015           2D

  8  8  0  0  0  0  0  0  0  0999 V2000
    0.0000    0.0000    0.0000 Cl  0  0  0  0  0  0  0  0  0  0  0  0
    1.5000    0.0000    0.0000 C   0  0  0  0  0  0  0  0  0  0  0  0
    2.2500   -1.2990    0.0000 C   0  0  0  0  0  0  0  0  0  0  0  0
    3.7500   -1.2990    0.0000 C   0  0  0  0  0  0  0  0  0  0  0  0
    4.5000    0.0000    0.0000 C   0  0  0  0  0  0  0  0  0  0  0  0
    6.0000    0.0000    0.0000 C   0  0  0  0  0  0  0  0  0  0  0  0
    3.7500    1.2990    0.0000 C   0  0  0  0  0  0  0  0  0  0  0  0
    2.2500    1.2990    0.0000 C   0  0  0  0  0  0  0  0  0  0  0  0
  1  2  1  0  0  0  0
  2  3  1  0  0  0  0
  2  8  2  0  0  0  0
  3  4  2  0  0  0  0
  4  5  1  0  0  0  0
  5  6  1  0  0  0  0
  5  7  2  0  0  0  0
  7  8  1  0  0  0  0
M  END
>  <name>
Clc1ccc([C;NaroC])cc1

>  <apo>
1

>  <freq>
1

>  <freq0>
0

>  <freq1>
1

>  <freqA>
0.99887151

>  <a_count>
15

$$$$

  MOE2015           2D

  8  8  0  0  0  0  0  0  0  0999 V2000
    0.0000    0.0000    0.0000 Cl  0  0  0  0  0  0  0  0  0  0  0  0
    1.5000    0.0000    0.0000 C   0  0  0  0  0  0  0  0  0  0  0  0
    2.2500   -1.2990    0.0000 C   0  0  0  0  0  0  0  0  0  0  0  0
    3.7500   -1.2990    0.0000 C   0  0  0  0  0  0  0  0  0  0  0  0
    4.5000    0.0000    0.0000 C   0  0  0  0  0  0  0  0  0  0  0  0
    6.0000    0.0000    0.0000 C   0  0  0  0  0  0  0  0  0  0  0  0
    3.7500    1.2990    0.0000 C   0  0  0  0  0  0  0  0  0  0  0  0
    2.2500    1.2990    0.0000 C   0  0  0  0  0  0  0  0  0  0  0  0
  1  2  1  0  0  0  0
  2  3  1  0  0  0  0
  2  8  2  0  0  0  0
  3  4  2  0  0  0  0
  4  5  1  0  0  0  0
  5  6  1  0  0  0  0
  5  7  2  0  0  0  0
  7  8  1  0  0  0  0
M  END
>  <name>
Clc1ccc([C;ether])cc1

>  <apo>
1

>  <freq>
1

>  <freq0>
0

>  <freq1>
1

>  <freqA>
0.99887151

>  <a_count>
15

$$$$

  MOE2015           2D

  8  8  0  0  0  0  0  0  0  0999 V2000
    0.0000    0.0000    0.0000 Cl  0  0  0  0  0  0  0  0  0  0  0  0
    1.5000    0.0000    0.0000 C   0  0  0  0  0  0  0  0  0  0  0  0
    2.2500   -1.2990    0.0000 C   0  0  0  0  0  0  0  0  0  0  0  0
    3.7500   -1.2990    0.0000 C   0  0  0  0  0  0  0  0  0  0  0  0
    4.5000    0.0000    0.0000 C   0  0  0  0  0  0  0  0  0  0  0  0
    6.0000    0.0000    0.0000 C   0  0  0  0  0  0  0  0  0  0  0  0
    3.7500    1.2990    0.0000 C   0  0  0  0  0  0  0  0  0  0  0  0
    2.2500    1.2990    0.0000 C   0  0  0  0  0  0  0  0  0  0  0  0
  1  2  1  0  0  0  0
  2  3  1  0  0  0  0
  2  8  2  0  0  0  0
  3  4  2  0  0  0  0
  4  5  1  0  0  0  0
  5  6  1  0  0  0  0
  5  7  2  0  0  0  0
  7  8  1  0  0  0  0
M  END
>  <name>
Clc1ccc([C;thioether])cc1

>  <apo>
1

>  <freq>
1

>  <freq0>
0

>  <freq1>
1

>  <freqA>
0.99887151

>  <a_count>
15

$$$$

  MOE2015           2D

 10 10  0  0  0  0  0  0  0  0999 V2000
    7.5000    0.0000    0.0000 Cl  0  0  0  0  0  0  0  0  0  0  0  0
    6.0000    0.0000    0.0000 C   0  0  0  0  0  0  0  0  0  0  0  0
    5.2500    1.2990    0.0000 C   0  0  0  0  0  0  0  0  0  0  0  0
    3.7500    1.2990    0.0000 C   0  0  0  0  0  0  0  0  0  0  0  0
    3.0000    0.0000    0.0000 C   0  0  0  0  0  0  0  0  0  0  0  0
    1.5000    0.0000    0.0000 S   0  0  0  0  0  0  0  0  0  0  0  0
    0.7500   -1.2990    0.0000 O   0  0  0  0  0  0  0  0  0  0  0  0
    0.7500    1.2990    0.0000 O   0  0  0  0  0  0  0  0  0  0  0  0
    3.7500   -1.2990    0.0000 C   0  0  0  0  0  0  0  0  0  0  0  0
    5.2500   -1.2990    0.0000 C   0  0  0  0  0  0  0  0  0  0  0  0
  1  2  1  0  0  0  0
  2  3  1  0  0  0  0
  2 10  2  0  0  0  0
  3  4  2  0  0  0  0
  4  5  1  0  0  0  0
  5  6  1  0  0  0  0
  5  9  2  0  0  0  0
  6  7  2  0  0  0  0
  6  8  2  0  0  0  0
  9 10  1  0  0  0  0
M  END
>  <name>
Clc1ccc([SH;so2amide](=O)=O)cc1

>  <apo>
1

>  <freq>
1

>  <freq0>
0

>  <freq1>
1

>  <freqA>
0.99887151

>  <a_count>
15

$$$$

  MOE2015           2D

 10 10  0  0  0  0  0  0  0  0999 V2000
    3.1500   -0.1500    0.0000 F   0  0  0  0  0  0  0  0  0  0  0  0
    3.1500   -1.6500    0.0000 C   0  0  0  0  0  0  0  0  0  0  0  0
    3.1500   -3.1500    0.0000 F   0  0  0  0  0  0  0  0  0  0  0  0
    4.6500   -1.6500    0.0000 F   0  0  0  0  0  0  0  0  0  0  0  0
    1.6500   -1.6500    0.0000 C   0  0  0  0  0  0  0  0  0  0  0  0
    0.9000   -2.9490    0.0000 C   0  0  0  0  0  0  0  0  0  0  0  0
   -0.6000   -2.9490    0.0000 C   0  0  0  0  0  0  0  0  0  0  0  0
   -1.3500   -1.6500    0.0000 C   0  0  0  0  0  0  0  0  0  0  0  0
   -0.6000   -0.3510    0.0000 C   0  0  0  0  0  0  0  0  0  0  0  0
    0.9000   -0.3510    0.0000 C   0  0  0  0  0  0  0  0  0  0  0  0
  1  2  1  0  0  0  0
  2  3  1  0  0  0  0
  2  4  1  0  0  0  0
  2  5  1  0  0  0  0
  5  6  1  0  0  0  0
  5 10  2  0  0  0  0
  6  7  2  0  0  0  0
  7  8  1  0  0  0  0
  8  9  2  0  0  0  0
  9 10  1  0  0  0  0
M  END
>  <name>
FC(F)(F)c1cc[c;biphenyl]cc1

>  <apo>
1

>  <freq>
1

>  <freq0>
0

>  <freq1>
1

>  <freqA>
0.99887151

>  <a_count>
15

$$$$

  MOE2015           2D

  9  9  0  0  0  0  0  0  0  0999 V2000
    0.0690   -0.2560    0.0000 F   0  0  0  0  0  0  0  0  0  0  0  0
    1.3680    0.4940    0.0000 C   0  0  0  0  0  0  0  0  0  0  0  0
    2.6670   -0.2560    0.0000 C   0  0  0  0  0  0  0  0  0  0  0  0
    2.6670   -1.7560    0.0000 C   0  0  0  0  0  0  0  0  0  0  0  0
    3.9660    0.4940    0.0000 C   0  0  0  0  0  0  0  0  0  0  0  0
    5.2650   -0.2560    0.0000 F   0  0  0  0  0  0  0  0  0  0  0  0
    3.9660    1.9940    0.0000 C   0  0  0  0  0  0  0  0  0  0  0  0
    2.6670    2.7440    0.0000 C   0  0  0  0  0  0  0  0  0  0  0  0
    1.3680    1.9940    0.0000 C   0  0  0  0  0  0  0  0  0  0  0  0
  1  2  1  0  0  0  0
  2  3  1  0  0  0  0
  2  9  2  0  0  0  0
  3  4  1  0  0  0  0
  3  5  2  0  0  0  0
  5  6  1  0  0  0  0
  5  7  1  0  0  0  0
  7  8  2  0  0  0  0
  8  9  1  0  0  0  0
M  END
>  <name>
Fc1c([C;NaroC])c(F)ccc1

>  <apo>
1

>  <freq>
1

>  <freq0>
0

>  <freq1>
1

>  <freqA>
0.99887151

>  <a_count>
15

$$$$

  MOE2015           2D

  8  8  0  0  0  0  0  0  0  0999 V2000
    0.0000    0.0000    0.0000 F   0  0  0  0  0  0  0  0  0  0  0  0
    1.5000    0.0000    0.0000 C   0  0  0  0  0  0  0  0  0  0  0  0
    2.2500   -1.2990    0.0000 C   0  0  0  0  0  0  0  0  0  0  0  0
    3.7500   -1.2990    0.0000 C   0  0  0  0  0  0  0  0  0  0  0  0
    4.5000    0.0000    0.0000 C   0  0  0  0  0  0  0  0  0  0  0  0
    6.0000    0.0000    0.0000 C   0  0  0  0  0  0  0  0  0  0  0  0
    3.7500    1.2990    0.0000 C   0  0  0  0  0  0  0  0  0  0  0  0
    2.2500    1.2990    0.0000 C   0  0  0  0  0  0  0  0  0  0  0  0
  1  2  1  0  0  0  0
  2  3  1  0  0  0  0
  2  8  2  0  0  0  0
  3  4  2  0  0  0  0
  4  5  1  0  0  0  0
  5  6  1  0  0  0  0
  5  7  2  0  0  0  0
  7  8  1  0  0  0  0
M  END
>  <name>
Fc1ccc([C;amine])cc1

>  <apo>
1

>  <freq>
1

>  <freq0>
0

>  <freq1>
1

>  <freqA>
0.99887151

>  <a_count>
15

$$$$

  MOE2015           2D

 11 12  0  0  0  0  0  0  0  0999 V2000
    6.7620   -1.4610    0.0000 F   0  0  0  0  0  0  0  0  0  0  0  0
    5.4630   -0.7110    0.0000 C   0  0  0  0  0  0  0  0  0  0  0  0
    5.4630    0.7890    0.0000 N   0  0  0  0  0  0  0  0  0  0  0  0
    4.1640    1.5390    0.0000 C   0  0  0  0  0  0  0  0  0  0  0  0
    4.1640    3.0390    0.0000 N   0  0  0  0  0  0  0  0  0  0  0  0
    2.8650    0.7890    0.0000 C   0  0  0  0  0  0  0  0  0  0  0  0
    1.4390    1.2530    0.0000 N   0  0  0  0  0  0  0  0  0  0  0  0
    0.5570    0.0390    0.0000 C   0  0  0  0  0  0  0  0  0  0  0  0
    1.4390   -1.1740    0.0000 N   0  0  0  0  0  0  0  0  0  0  0  0
    2.8650   -0.7110    0.0000 C   0  0  0  0  0  0  0  0  0  0  0  0
    4.1640   -1.4610    0.0000 N   0  0  0  0  0  0  0  0  0  0  0  0
  1  2  1  0  0  0  0
  2  3  1  0  0  0  0
  2 11  2  0  0  0  0
  3  4  2  0  0  0  0
  4  5  1  0  0  0  0
  4  6  1  0  0  0  0
  6  7  1  0  0  0  0
  6 10  2  0  0  0  0
  7  8  2  0  0  0  0
  8  9  1  0  0  0  0
  9 10  1  0  0  0  0
 10 11  1  0  0  0  0
M  END
>  <name>
Fc1nc(N)c2nc[nH;NaroC]c2n1

>  <apo>
1

>  <freq>
1

>  <freq0>
0

>  <freq1>
1

>  <freqA>
0.99887151

>  <a_count>
15

$$$$

  MOE2015           2D

  7  7  0  0  0  0  0  0  0  0999 V2000
    6.1690    2.5550    0.0000 N   0  0  0  0  0  0  0  0  0  0  0  0
    5.1080    1.4950    0.0000 C   0  0  0  0  0  0  0  0  0  0  0  0
    4.0480    0.4340    0.0000 C   0  0  0  0  0  0  0  0  0  0  0  0
    2.5990    0.8220    0.0000 C   0  0  0  0  0  0  0  0  0  0  0  0
    1.3000    0.0720    0.0000 C   0  0  0  0  0  0  0  0  0  0  0  0
    0.5500    1.3710    0.0000 N   0  0  0  0  0  0  0  0  0  0  0  0
    1.8490    2.1210    0.0000 C   0  0  0  0  0  0  0  0  0  0  0  0
  1  2  3  0  0  0  0
  2  3  1  0  0  0  0
  3  4  1  0  0  0  0
  4  5  1  0  0  0  0
  4  7  1  0  0  0  0
  5  6  1  0  0  0  0
  6  7  1  0  0  0  0
M  END
>  <name>
N#CC[C;NaroC]1C[N;so2amide]C1

>  <apo>
2

>  <freq>
1

>  <freq0>
0

>  <freq1>
1

>  <freqA>
0.99887151

>  <a_count>
15

$$$$

  MOE2015           2D

  7  7  0  0  1  0  0  0  0  0999 V2000
    6.5370    0.0000    0.0000 N   0  0  0  0  0  0  0  0  0  0  0  0
    5.0370    0.0000    0.0000 C   0  0  0  0  0  0  0  0  0  0  0  0
    3.5370    0.0000    0.0000 C   0  0  1  0  0  0  0  0  0  0  0  0
    2.6550   -1.2140    0.0000 N   0  0  0  0  0  0  0  0  0  0  0  0
    1.2290   -0.7500    0.0000 C   0  0  0  0  0  0  0  0  0  0  0  0
    1.2290    0.7500    0.0000 C   0  0  0  0  0  0  0  0  0  0  0  0
    2.6550    1.2140    0.0000 C   0  0  0  0  0  0  0  0  0  0  0  0
  1  2  3  0  0  0  0
  3  2  1  1  0  0  0
  3  4  1  0  0  0  0
  3  7  1  0  0  0  0
  4  5  1  0  0  0  0
  5  6  1  0  0  0  0
  6  7  1  0  0  0  0
M  END
>  <name>
N#C[C@H]1[N;amide]CCC1

>  <apo>
1

>  <freq>
1

>  <freq0>
0

>  <freq1>
1

>  <freqA>
0.99887151

>  <a_count>
15

$$$$

  MOE2015           2D

  9  9  0  0  0  0  0  0  0  0999 V2000
    8.0000    0.0000    0.0000 N   0  0  0  0  0  0  0  0  0  0  0  0
    6.5000    0.0000    0.0000 C   0  0  0  0  0  0  0  0  0  0  0  0
    5.0000    0.0000    0.0000 C   0  0  0  0  0  0  0  0  0  0  0  0
    4.2500    1.2990    0.0000 C   0  0  0  0  0  0  0  0  0  0  0  0
    2.7500    1.2990    0.0000 C   0  0  0  0  0  0  0  0  0  0  0  0
    2.0000    0.0000    0.0000 C   0  0  0  0  0  0  0  0  0  0  0  0
    0.5000    0.0000    0.0000 N   0  0  0  0  0  0  0  0  0  0  0  0
    2.7500   -1.2990    0.0000 C   0  0  0  0  0  0  0  0  0  0  0  0
    4.2500   -1.2990    0.0000 C   0  0  0  0  0  0  0  0  0  0  0  0
  1  2  3  0  0  0  0
  2  3  1  0  0  0  0
  3  4  1  0  0  0  0
  3  9  2  0  0  0  0
  4  5  2  0  0  0  0
  5  6  1  0  0  0  0
  6  7  1  0  0  0  0
  6  8  2  0  0  0  0
  8  9  1  0  0  0  0
M  END
>  <name>
N#Cc1ccc([N;urea])cc1

>  <apo>
1

>  <freq>
1

>  <freq0>
0

>  <freq1>
1

>  <freqA>
0.99887151

>  <a_count>
15

$$$$

  MOE2015           2D

  6  5  0  0  0  0  0  0  0  0999 V2000
    0.7170   -0.1920    0.0000 N   0  0  0  0  0  0  0  0  0  0  0  0
   -0.5830    0.5580    0.0000 C   0  0  0  0  0  0  0  0  0  0  0  0
   -0.5830    2.0580    0.0000 N   0  0  0  0  0  0  0  0  0  0  0  0
   -1.8820   -0.1920    0.0000 N   0  0  0  0  0  0  0  0  0  0  0  0
    2.0160    0.5580    0.0000 C   0  0  0  0  0  0  0  0  0  0  0  0
    3.3150   -0.1920    0.0000 C   0  0  0  0  0  0  0  0  0  0  0  0
  1  2  2  0  0  0  0
  1  5  1  0  0  0  0
  2  3  1  0  0  0  0
  2  4  1  0  0  0  0
  5  6  1  0  0  0  0
M  END
>  <name>
N(=C(\N)/N)\C[C;amine]

>  <apo>
1

>  <freq>
1

>  <freq0>
0

>  <freq1>
1

>  <freqA>
0.99887151

>  <a_count>
15

$$$$

  MOE2015           2D

 10 11  0  0  0  0  0  0  0  0999 V2000
    6.7290   -0.8970    0.0000 N   0  0  0  0  0  0  0  0  0  0  0  0
    5.4300   -0.1470    0.0000 C   0  0  0  0  0  0  0  0  0  0  0  0
    4.1310   -0.8970    0.0000 N   0  0  0  0  0  0  0  0  0  0  0  0
    2.8320   -0.1470    0.0000 C   0  0  0  0  0  0  0  0  0  0  0  0
    1.4050   -0.6110    0.0000 N   0  0  0  0  0  0  0  0  0  0  0  0
    0.5230    0.6030    0.0000 C   0  0  0  0  0  0  0  0  0  0  0  0
    1.4050    1.8160    0.0000 N   0  0  0  0  0  0  0  0  0  0  0  0
    2.8320    1.3530    0.0000 C   0  0  0  0  0  0  0  0  0  0  0  0
    4.1310    2.1030    0.0000 C   0  0  0  0  0  0  0  0  0  0  0  0
    5.4300    1.3530    0.0000 N   0  0  0  0  0  0  0  0  0  0  0  0
  1  2  1  0  0  0  0
  2  3  1  0  0  0  0
  2 10  2  0  0  0  0
  3  4  2  0  0  0  0
  4  5  1  0  0  0  0
  4  8  1  0  0  0  0
  5  6  1  0  0  0  0
  6  7  2  0  0  0  0
  7  8  1  0  0  0  0
  8  9  2  0  0  0  0
  9 10  1  0  0  0  0
M  END
>  <name>
Nc1nc2[nH;NaroC]cnc2cn1

>  <apo>
1

>  <freq>
1

>  <freq0>
0

>  <freq1>
1

>  <freqA>
0.99887151

>  <a_count>
15

$$$$

  MOE2015           2D

  6  6  0  0  0  0  0  0  0  0999 V2000
   -2.0490    2.0490    0.0000 O   0  0  0  0  0  0  0  0  0  0  0  0
   -2.0490    0.5490    0.0000 C   0  0  0  0  0  0  0  0  0  0  0  0
   -0.7500   -0.2010    0.0000 C   0  0  0  0  0  0  0  0  0  0  0  0
    0.5490    0.5490    0.0000 N   0  0  0  0  0  0  0  0  0  0  0  0
    0.5490    2.0490    0.0000 C   0  0  0  0  0  0  0  0  0  0  0  0
   -0.7500    2.7990    0.0000 C   0  0  0  0  0  0  0  0  0  0  0  0
  1  2  1  0  0  0  0
  1  6  1  0  0  0  0
  2  3  1  0  0  0  0
  3  4  1  0  0  0  0
  4  5  1  0  0  0  0
  5  6  1  0  0  0  0
M  END
>  <name>
O1CC[N;urea]CC1

>  <apo>
1

>  <freq>
1

>  <freq0>
0

>  <freq1>
1

>  <freqA>
0.99887151

>  <a_count>
15

$$$$

  MOE2015           2D

  7  6  0  0  0  0  0  0  0  0999 V2000
    0.0800   -1.4140    0.0000 O   0  0  0  0  0  0  0  0  0  0  0  0
    1.3800   -0.6640    0.0000 C   0  0  0  0  0  0  0  0  0  0  0  0
    2.6790   -1.4140    0.0000 C   0  0  0  0  0  0  0  0  0  0  0  0
    3.9780   -0.6640    0.0000 C   0  0  0  0  0  0  0  0  0  0  0  0
    5.2770   -1.4140    0.0000 O   0  0  0  0  0  0  0  0  0  0  0  0
    3.9780    0.8360    0.0000 C   0  0  0  0  0  0  0  0  0  0  0  0
    1.3800    0.8360    0.0000 C   0  0  0  0  0  0  0  0  0  0  0  0
  1  2  2  0  0  0  0
  2  3  1  0  0  0  0
  2  7  1  0  0  0  0
  3  4  1  0  0  0  0
  4  5  2  0  0  0  0
  4  6  1  0  0  0  0
M  END
>  <name>
O=C(CC(=O)[C;olefin])[C;olefin]

>  <apo>
2

>  <freq>
1

>  <freq0>
0

>  <freq1>
1

>  <freqA>
0.99887151

>  <a_count>
15

$$$$

  MOE2015           2D

  8  7  0  0  1  0  0  0  0  0999 V2000
    0.0090   -0.0320    0.0000 O   0  0  0  0  0  0  0  0  0  0  0  0
    1.3080    0.7180    0.0000 C   0  0  0  0  0  0  0  0  0  0  0  0
    1.3080    2.2180    0.0000 O   0  0  0  0  0  0  0  0  0  0  0  0
    2.6070   -0.0320    0.0000 C   0  0  0  0  0  0  0  0  0  0  0  0
    3.9060    0.7180    0.0000 C   0  0  1  0  0  0  0  0  0  0  0  0
    3.9060    2.2180    0.0000 N   0  0  0  0  0  0  0  0  0  0  0  0
    5.2050   -0.0320    0.0000 C   0  0  0  0  0  0  0  0  0  0  0  0
    6.5040    0.7180    0.0000 O   0  0  0  0  0  0  0  0  0  0  0  0
  1  2  2  0  0  0  0
  2  3  1  0  0  0  0
  2  4  1  0  0  0  0
  4  5  1  0  0  0  0
  5  6  1  1  0  0  0
  5  7  1  0  0  0  0
  7  8  2  0  0  0  0
M  END
>  <name>
O=C(O)C[C@@H]([N;amide])[C;amide]=O

>  <apo>
2

>  <freq>
1

>  <freq0>
0

>  <freq1>
1

>  <freqA>
0.99887151

>  <a_count>
15

$$$$

  MOE2015           2D

  8  7  0  0  1  0  0  0  0  0999 V2000
    0.0090   -0.0320    0.0000 O   0  0  0  0  0  0  0  0  0  0  0  0
    1.3080    0.7180    0.0000 C   0  0  0  0  0  0  0  0  0  0  0  0
    1.3080    2.2180    0.0000 O   0  0  0  0  0  0  0  0  0  0  0  0
    2.6070   -0.0320    0.0000 C   0  0  0  0  0  0  0  0  0  0  0  0
    3.9060    0.7180    0.0000 C   0  0  2  0  0  0  0  0  0  0  0  0
    3.9060    2.2180    0.0000 N   0  0  0  0  0  0  0  0  0  0  0  0
    5.2050   -0.0320    0.0000 C   0  0  0  0  0  0  0  0  0  0  0  0
    6.5040    0.7180    0.0000 O   0  0  0  0  0  0  0  0  0  0  0  0
  1  2  2  0  0  0  0
  2  3  1  0  0  0  0
  2  4  1  0  0  0  0
  4  5  1  0  0  0  0
  5  6  1  6  0  0  0
  5  7  1  0  0  0  0
  7  8  2  0  0  0  0
M  END
>  <name>
O=C(O)C[C@H](N)[C;amide]=O

>  <apo>
1

>  <freq>
1

>  <freq0>
0

>  <freq1>
1

>  <freqA>
0.99887151

>  <a_count>
15

$$$$

  MOE2015           2D

  9  9  0  0  0  0  0  0  0  0999 V2000
    5.0000    0.2890    0.0000 O   0  0  0  0  0  0  0  0  0  0  0  0
    4.2500    1.5880    0.0000 C   0  0  0  0  0  0  0  0  0  0  0  0
    5.0000    2.8870    0.0000 O   0  0  0  0  0  0  0  0  0  0  0  0
    2.7500    1.5880    0.0000 C   0  0  0  0  0  0  0  0  0  0  0  0
    2.0000    2.8870    0.0000 C   0  0  0  0  0  0  0  0  0  0  0  0
    0.5000    2.8870    0.0000 C   0  0  0  0  0  0  0  0  0  0  0  0
   -0.2500    1.5880    0.0000 C   0  0  0  0  0  0  0  0  0  0  0  0
    0.5000    0.2890    0.0000 C   0  0  0  0  0  0  0  0  0  0  0  0
    2.0000    0.2890    0.0000 C   0  0  0  0  0  0  0  0  0  0  0  0
  1  2  2  0  0  0  0
  2  3  1  0  0  0  0
  2  4  1  0  0  0  0
  4  5  1  0  0  0  0
  4  9  2  0  0  0  0
  5  6  2  0  0  0  0
  6  7  1  0  0  0  0
  7  8  2  0  0  0  0
  8  9  1  0  0  0  0
M  END
>  <name>
O=C(O)c1[c;biphenyl]cccc1

>  <apo>
1

>  <freq>
1

>  <freq0>
0

>  <freq1>
1

>  <freqA>
0.99887151

>  <a_count>
15

$$$$

  MOE2015           2D

  9  9  0  0  0  0  0  0  0  0999 V2000
    5.0000    0.2890    0.0000 O   0  0  0  0  0  0  0  0  0  0  0  0
    4.2500    1.5880    0.0000 C   0  0  0  0  0  0  0  0  0  0  0  0
    5.0000    2.8870    0.0000 O   0  0  0  0  0  0  0  0  0  0  0  0
    2.7500    1.5880    0.0000 C   0  0  0  0  0  0  0  0  0  0  0  0
    2.0000    2.8870    0.0000 C   0  0  0  0  0  0  0  0  0  0  0  0
    0.5000    2.8870    0.0000 C   0  0  0  0  0  0  0  0  0  0  0  0
   -0.2500    1.5880    0.0000 C   0  0  0  0  0  0  0  0  0  0  0  0
    0.5000    0.2890    0.0000 C   0  0  0  0  0  0  0  0  0  0  0  0
    2.0000    0.2890    0.0000 C   0  0  0  0  0  0  0  0  0  0  0  0
  1  2  2  0  0  0  0
  2  3  1  0  0  0  0
  2  4  1  0  0  0  0
  4  5  1  0  0  0  0
  4  9  2  0  0  0  0
  5  6  2  0  0  0  0
  6  7  1  0  0  0  0
  7  8  2  0  0  0  0
  8  9  1  0  0  0  0
M  END
>  <name>
O=C(O)c1cc[c;biphenyl]cc1

>  <apo>
1

>  <freq>
1

>  <freq0>
0

>  <freq1>
1

>  <freqA>
0.99887151

>  <a_count>
15

$$$$

  MOE2015           2D

  9  9  0  0  0  0  0  0  0  0999 V2000
    5.0000    0.2890    0.0000 O   0  0  0  0  0  0  0  0  0  0  0  0
    4.2500    1.5880    0.0000 C   0  0  0  0  0  0  0  0  0  0  0  0
    5.0000    2.8870    0.0000 O   0  0  0  0  0  0  0  0  0  0  0  0
    2.7500    1.5880    0.0000 C   0  0  0  0  0  0  0  0  0  0  0  0
    2.0000    2.8870    0.0000 C   0  0  0  0  0  0  0  0  0  0  0  0
    0.5000    2.8870    0.0000 C   0  0  0  0  0  0  0  0  0  0  0  0
   -0.2500    1.5880    0.0000 C   0  0  0  0  0  0  0  0  0  0  0  0
    0.5000    0.2890    0.0000 C   0  0  0  0  0  0  0  0  0  0  0  0
    2.0000    0.2890    0.0000 C   0  0  0  0  0  0  0  0  0  0  0  0
  1  2  2  0  0  0  0
  2  3  1  0  0  0  0
  2  4  1  0  0  0  0
  4  5  1  0  0  0  0
  4  9  2  0  0  0  0
  5  6  2  0  0  0  0
  6  7  1  0  0  0  0
  7  8  2  0  0  0  0
  8  9  1  0  0  0  0
M  END
>  <name>
O=C(O)c1ccc[c;biphenyl]c1

>  <apo>
1

>  <freq>
1

>  <freq0>
0

>  <freq1>
1

>  <freqA>
0.99887151

>  <a_count>
15

$$$$

  MOE2015           2D

  8  8  0  0  0  0  0  0  0  0999 V2000
    5.4110   -0.8000    0.0000 O   0  0  0  0  0  0  0  0  0  0  0  0
    4.1120   -0.0500    0.0000 C   0  0  0  0  0  0  0  0  0  0  0  0
    2.8120   -0.8000    0.0000 N   0  0  0  0  0  0  0  0  0  0  0  0
    1.5130   -0.0500    0.0000 C   0  0  0  0  0  0  0  0  0  0  0  0
    0.2140   -0.8000    0.0000 O   0  0  0  0  0  0  0  0  0  0  0  0
    1.5130    1.4500    0.0000 C   0  0  0  0  0  0  0  0  0  0  0  0
    2.8120    2.2000    0.0000 C   0  0  0  0  0  0  0  0  0  0  0  0
    4.1120    1.4500    0.0000 C   0  0  0  0  0  0  0  0  0  0  0  0
  1  2  2  0  0  0  0
  2  3  1  0  0  0  0
  2  8  1  0  0  0  0
  3  4  1  0  0  0  0
  4  5  2  0  0  0  0
  4  6  1  0  0  0  0
  6  7  1  0  0  0  0
  7  8  1  0  0  0  0
M  END
>  <name>
O=C1NC(=O)CC[C;lactam]1

>  <apo>
1

>  <freq>
1

>  <freq0>
0

>  <freq1>
1

>  <freqA>
0.99887151

>  <a_count>
15

$$$$

  MOE2015           2D

  9  9  0  0  0  0  0  0  0  0999 V2000
    6.0530   -1.1380    0.0000 O   0  0  0  0  0  0  0  0  0  0  0  0
    4.8050   -0.3060    0.0000 C   0  0  0  0  0  0  0  0  0  0  0  0
    3.3980   -0.8270    0.0000 O   0  0  0  0  0  0  0  0  0  0  0  0
    2.4680    0.3500    0.0000 C   0  0  0  0  0  0  0  0  0  0  0  0
    0.9690    0.2890    0.0000 C   0  0  0  0  0  0  0  0  0  0  0  0
    0.2720   -1.0390    0.0000 O   0  0  0  0  0  0  0  0  0  0  0  0
    3.3000    1.5980    0.0000 C   0  0  0  0  0  0  0  0  0  0  0  0
    2.7790    3.0050    0.0000 C   0  0  0  0  0  0  0  0  0  0  0  0
    4.7440    1.1920    0.0000 O   0  0  0  0  0  0  0  0  0  0  0  0
  1  2  2  0  0  0  0
  2  3  1  0  0  0  0
  2  9  1  0  0  0  0
  3  4  1  0  0  0  0
  4  5  1  0  0  0  0
  4  7  2  0  0  0  0
  5  6  1  0  0  0  0
  7  8  1  0  0  0  0
  7  9  1  0  0  0  0
M  END
>  <name>
O=C1OC(C[O;ester])=C(C)O1

>  <apo>
1

>  <freq>
1

>  <freq0>
0

>  <freq1>
1

>  <freqA>
0.99887151

>  <a_count>
15

$$$$

  MOE2015           2D

  7  6  0  0  0  0  0  0  0  0999 V2000
    2.2500    1.2990    0.0000 O   0  0  0  0  0  0  0  0  0  0  0  0
    3.0000    0.0000    0.0000 C   0  0  0  0  0  0  0  0  0  0  0  0
    2.2500   -1.2990    0.0000 C   0  0  0  0  0  0  0  0  0  0  0  0
    3.0000   -2.5980    0.0000 C   0  0  0  0  0  0  0  0  0  0  0  0
    4.5000   -2.5980    0.0000 O   0  0  0  0  0  0  0  0  0  0  0  0
    0.7500   -1.2990    0.0000 C   0  0  0  0  0  0  0  0  0  0  0  0
    0.0000   -2.5980    0.0000 O   0  0  0  0  0  0  0  0  0  0  0  0
  1  2  2  0  0  0  0
  2  3  1  0  0  0  0
  3  4  1  0  0  0  0
  3  6  1  0  0  0  0
  4  5  1  0  0  0  0
  6  7  1  0  0  0  0
M  END
>  <name>
O=[C;amide]C(CO)CO

>  <apo>
1

>  <freq>
1

>  <freq0>
0

>  <freq1>
1

>  <freqA>
0.99887151

>  <a_count>
15

$$$$

  MOE2015           2D

  6  5  0  0  0  0  0  0  0  0999 V2000
    4.0400   -1.0830    0.0000 O   0  0  0  0  0  0  0  0  0  0  0  0
    2.7410   -1.8330    0.0000 C   0  0  0  0  0  0  0  0  0  0  0  0
    1.4420   -1.0830    0.0000 C   0  0  0  0  0  0  0  0  0  0  0  0
    0.1430   -0.3330    0.0000 N   0  0  0  0  0  0  0  0  0  0  0  0
    0.6920   -2.3820    0.0000 C   0  0  0  0  0  0  0  0  0  0  0  0
    2.1920    0.2170    0.0000 C   0  0  0  0  0  0  0  0  0  0  0  0
  1  2  2  0  0  0  0
  2  3  1  0  0  0  0
  3  4  1  0  0  0  0
  3  5  1  0  0  0  0
  3  6  1  0  0  0  0
M  END
>  <name>
O=[C;amide]C(N)(C)C

>  <apo>
1

>  <freq>
1

>  <freq0>
0

>  <freq1>
1

>  <freqA>
0.99887151

>  <a_count>
15

$$$$

  MOE2015           2D

  6  5  0  0  0  0  0  0  0  0999 V2000
    4.0400   -1.0830    0.0000 O   0  0  0  0  0  0  0  0  0  0  0  0
    2.7410   -1.8330    0.0000 C   0  0  0  0  0  0  0  0  0  0  0  0
    1.4420   -1.0830    0.0000 C   0  0  0  0  0  0  0  0  0  0  0  0
    0.1430   -0.3330    0.0000 N   0  0  0  0  0  0  0  0  0  0  0  0
    0.6920   -2.3820    0.0000 C   0  0  0  0  0  0  0  0  0  0  0  0
    2.1920    0.2170    0.0000 C   0  0  0  0  0  0  0  0  0  0  0  0
  1  2  2  0  0  0  0
  2  3  1  0  0  0  0
  3  4  1  0  0  0  0
  3  5  1  0  0  0  0
  3  6  1  0  0  0  0
M  END
>  <name>
O=[C;amide]C([N;amide])(C)C

>  <apo>
2

>  <freq>
1

>  <freq0>
0

>  <freq1>
1

>  <freqA>
0.99887151

>  <a_count>
15

$$$$

  MOE2015           2D

  8  8  0  0  1  0  0  0  0  0999 V2000
    5.9390   -2.4250    0.0000 O   0  0  0  0  0  0  0  0  0  0  0  0
    4.6100   -3.1220    0.0000 C   0  0  0  0  0  0  0  0  0  0  0  0
    3.3430   -2.3200    0.0000 C   0  0  3  0  0  0  0  0  0  0  0  0
    1.9490   -2.8740    0.0000 N   0  0  0  0  0  0  0  0  0  0  0  0
    0.9910   -1.7200    0.0000 C   0  0  0  0  0  0  0  0  0  0  0  0
   -0.5060   -1.8170    0.0000 O   0  0  0  0  0  0  0  0  0  0  0  0
    1.7930   -0.4520    0.0000 C   0  0  0  0  0  0  0  0  0  0  0  0
    3.2460   -0.8230    0.0000 C   0  0  0  0  0  0  0  0  0  0  0  0
  1  2  2  0  0  0  0
  2  3  1  0  0  0  0
  3  4  1  0  0  0  0
  3  8  1  0  0  0  0
  4  5  1  0  0  0  0
  5  6  2  0  0  0  0
  5  7  1  0  0  0  0
  7  8  1  0  0  0  0
M  END
>  <name>
O=[C;amide]C1NC(=O)CC1

>  <apo>
1

>  <freq>
1

>  <freq0>
0

>  <freq1>
1

>  <freqA>
0.99887151

>  <a_count>
15

$$$$

  MOE2015           2D

  9  9  0  0  0  0  0  0  0  0999 V2000
    8.0750    0.1510    0.0000 O   0  0  0  0  0  0  0  0  0  0  0  0
    6.7880    0.9210    0.0000 C   0  0  0  0  0  0  0  0  0  0  0  0
    5.4780    0.1920    0.0000 C   0  0  0  0  0  0  0  0  0  0  0  0
    4.1910    0.9620    0.0000 C   0  0  0  0  0  0  0  0  0  0  0  0
    2.8110    0.3740    0.0000 N   0  0  0  0  0  0  0  0  0  0  0  0
    1.8250    1.5050    0.0000 C   0  0  0  0  0  0  0  0  0  0  0  0
    0.3310    1.3720    0.0000 N   0  0  0  0  0  0  0  0  0  0  0  0
    2.5950    2.7920    0.0000 S   0  0  0  0  0  0  0  0  0  0  0  0
    4.0580    2.4570    0.0000 C   0  0  0  0  0  0  0  0  0  0  0  0
  1  2  2  0  0  0  0
  2  3  1  0  0  0  0
  3  4  1  0  0  0  0
  4  5  1  0  0  0  0
  4  9  2  0  0  0  0
  5  6  2  0  0  0  0
  6  7  1  0  0  0  0
  6  8  1  0  0  0  0
  8  9  1  0  0  0  0
M  END
>  <name>
O=[C;amide][C;olefin]c1nc(N)sc1

>  <apo>
2

>  <freq>
1

>  <freq0>
0

>  <freq1>
1

>  <freqA>
0.99887151

>  <a_count>
15

$$$$

  MOE2015           2D

  6  5  0  0  1  0  0  0  0  0999 V2000
   -0.3480   -1.2990    0.0000 O   0  0  0  0  0  0  0  0  0  0  0  0
    0.9510   -2.0490    0.0000 C   0  0  0  0  0  0  0  0  0  0  0  0
    2.2500   -1.2990    0.0000 C   0  0  1  0  0  0  0  0  0  0  0  0
    2.2500    0.2010    0.0000 N   0  0  0  0  0  0  0  0  0  0  0  0
    3.5490   -2.0490    0.0000 C   0  0  0  0  0  0  0  0  0  0  0  0
    4.8480   -1.2990    0.0000 C   0  0  0  0  0  0  0  0  0  0  0  0
  1  2  2  0  0  0  0
  2  3  1  0  0  0  0
  3  4  1  1  0  0  0
  3  5  1  0  0  0  0
  5  6  1  0  0  0  0
M  END
>  <name>
O=[C;amide][C@@H]([N;urea])C[C;amine]

>  <apo>
3

>  <freq>
1

>  <freq0>
0

>  <freq1>
1

>  <freqA>
0.99887151

>  <a_count>
15

$$$$

  MOE2015           2D

  6  5  0  0  1  0  0  0  0  0999 V2000
   -0.3480   -1.2990    0.0000 O   0  0  0  0  0  0  0  0  0  0  0  0
    0.9510   -2.0490    0.0000 C   0  0  0  0  0  0  0  0  0  0  0  0
    2.2500   -1.2990    0.0000 C   0  0  2  0  0  0  0  0  0  0  0  0
    2.2500    0.2010    0.0000 N   0  0  0  0  0  0  0  0  0  0  0  0
    3.5490   -2.0490    0.0000 C   0  0  0  0  0  0  0  0  0  0  0  0
    4.8480   -1.2990    0.0000 C   0  0  0  0  0  0  0  0  0  0  0  0
  1  2  2  0  0  0  0
  2  3  1  0  0  0  0
  3  4  1  6  0  0  0
  3  5  1  0  0  0  0
  5  6  1  0  0  0  0
M  END
>  <name>
O=[C;amide][C@H]([N;amide])CC

>  <apo>
2

>  <freq>
1

>  <freq0>
0

>  <freq1>
1

>  <freqA>
0.99887151

>  <a_count>
15

$$$$

  MOE2015           2D

  9  9  0  0  0  0  0  0  0  0999 V2000
    5.5000   -3.1750    0.0000 O   0  0  0  0  0  0  0  0  0  0  0  0
    4.7500   -1.8760    0.0000 C   0  0  0  0  0  0  0  0  0  0  0  0
    3.2500   -1.8760    0.0000 C   0  0  0  0  0  0  0  0  0  0  0  0
    2.5000   -0.5770    0.0000 C   0  0  0  0  0  0  0  0  0  0  0  0
    3.2500    0.7220    0.0000 O   0  0  0  0  0  0  0  0  0  0  0  0
    1.0000   -0.5770    0.0000 C   0  0  0  0  0  0  0  0  0  0  0  0
    0.2500   -1.8760    0.0000 C   0  0  0  0  0  0  0  0  0  0  0  0
    1.0000   -3.1750    0.0000 C   0  0  0  0  0  0  0  0  0  0  0  0
    2.5000   -3.1750    0.0000 C   0  0  0  0  0  0  0  0  0  0  0  0
  1  2  2  0  0  0  0
  2  3  1  0  0  0  0
  3  4  1  0  0  0  0
  3  9  2  0  0  0  0
  4  5  1  0  0  0  0
  4  6  2  0  0  0  0
  6  7  1  0  0  0  0
  7  8  2  0  0  0  0
  8  9  1  0  0  0  0
M  END
>  <name>
O=[C;amide]c1c([O;ester])cccc1

>  <apo>
2

>  <freq>
1

>  <freq0>
0

>  <freq1>
1

>  <freqA>
0.99887151

>  <a_count>
15

$$$$

  MOE2015           2D

  9  9  0  0  0  0  0  0  0  0999 V2000
    5.5000   -3.1750    0.0000 O   0  0  0  0  0  0  0  0  0  0  0  0
    4.7500   -1.8760    0.0000 C   0  0  0  0  0  0  0  0  0  0  0  0
    3.2500   -1.8760    0.0000 C   0  0  0  0  0  0  0  0  0  0  0  0
    2.5000   -0.5770    0.0000 C   0  0  0  0  0  0  0  0  0  0  0  0
    3.2500    0.7220    0.0000 O   0  0  0  0  0  0  0  0  0  0  0  0
    1.0000   -0.5770    0.0000 C   0  0  0  0  0  0  0  0  0  0  0  0
    0.2500   -1.8760    0.0000 C   0  0  0  0  0  0  0  0  0  0  0  0
    1.0000   -3.1750    0.0000 C   0  0  0  0  0  0  0  0  0  0  0  0
    2.5000   -3.1750    0.0000 C   0  0  0  0  0  0  0  0  0  0  0  0
  1  2  2  0  0  0  0
  2  3  1  0  0  0  0
  3  4  1  0  0  0  0
  3  9  2  0  0  0  0
  4  5  1  0  0  0  0
  4  6  2  0  0  0  0
  6  7  1  0  0  0  0
  7  8  2  0  0  0  0
  8  9  1  0  0  0  0
M  END
>  <name>
O=[C;ester]c1c([O;ester])cccc1

>  <apo>
2

>  <freq>
1

>  <freq0>
0

>  <freq1>
1

>  <freqA>
0.99887151

>  <a_count>
15

$$$$

  MOE2015           2D

  5  4  0  0  0  0  0  0  0  0999 V2000
    3.0000    0.0000    0.0000 O   0  0  0  0  0  0  0  0  0  0  0  0
    1.5000    0.0000    0.0000 C   0  0  0  0  0  0  0  0  0  0  0  0
    1.5000    1.5000    0.0000 C   0  0  0  0  0  0  0  0  0  0  0  0
    0.0000    0.0000    0.0000 C   0  0  0  0  0  0  0  0  0  0  0  0
    1.5000   -1.5000    0.0000 C   0  0  0  0  0  0  0  0  0  0  0  0
  1  2  1  0  0  0  0
  2  3  1  0  0  0  0
  2  4  1  0  0  0  0
  2  5  1  0  0  0  0
M  END
>  <name>
OC(C)(C)[C;amine]

>  <apo>
1

>  <freq>
1

>  <freq0>
0

>  <freq1>
1

>  <freqA>
0.99887151

>  <a_count>
15

$$$$

  MOE2015           2D

  6  6  0  0  1  0  0  0  0  0999 V2000
    4.6270    0.0000    0.0000 O   0  0  0  0  0  0  0  0  0  0  0  0
    3.1270    0.0000    0.0000 C   0  0  2  0  0  0  0  0  0  0  0  0
    2.2450   -1.2140    0.0000 C   0  0  0  0  0  0  0  0  0  0  0  0
    0.8180   -0.7500    0.0000 N   0  0  0  0  0  0  0  0  0  0  0  0
    0.8180    0.7500    0.0000 C   0  0  0  0  0  0  0  0  0  0  0  0
    2.2450    1.2140    0.0000 C   0  0  0  0  0  0  0  0  0  0  0  0
  2  1  1  6  0  0  0
  2  3  1  0  0  0  0
  2  6  1  0  0  0  0
  3  4  1  0  0  0  0
  4  5  1  0  0  0  0
  5  6  1  0  0  0  0
M  END
>  <name>
O[C@@H]1C[N;urea]CC1

>  <apo>
1

>  <freq>
1

>  <freq0>
0

>  <freq1>
1

>  <freqA>
0.99887151

>  <a_count>
15

$$$$

  MOE2015           2D

  6  6  0  0  1  0  0  0  0  0999 V2000
    4.6270    0.0000    0.0000 O   0  0  0  0  0  0  0  0  0  0  0  0
    3.1270    0.0000    0.0000 C   0  0  1  0  0  0  0  0  0  0  0  0
    2.2450   -1.2140    0.0000 C   0  0  0  0  0  0  0  0  0  0  0  0
    0.8180   -0.7500    0.0000 N   0  0  0  0  0  0  0  0  0  0  0  0
    0.8180    0.7500    0.0000 C   0  0  0  0  0  0  0  0  0  0  0  0
    2.2450    1.2140    0.0000 C   0  0  0  0  0  0  0  0  0  0  0  0
  2  1  1  1  0  0  0
  2  3  1  0  0  0  0
  2  6  1  0  0  0  0
  3  4  1  0  0  0  0
  4  5  1  0  0  0  0
  5  6  1  0  0  0  0
M  END
>  <name>
O[C@H]1C[N;amine]CC1

>  <apo>
1

>  <freq>
1

>  <freq0>
0

>  <freq1>
1

>  <freqA>
0.99887151

>  <a_count>
15

$$$$

  MOE2015           2D

 10 11  0  0  0  0  0  0  0  0999 V2000
    6.7290   -0.8970    0.0000 O   0  0  0  0  0  0  0  0  0  0  0  0
    5.4300   -0.1470    0.0000 C   0  0  0  0  0  0  0  0  0  0  0  0
    4.1310   -0.8970    0.0000 C   0  0  0  0  0  0  0  0  0  0  0  0
    2.8320   -0.1470    0.0000 C   0  0  0  0  0  0  0  0  0  0  0  0
    1.4050   -0.6110    0.0000 S   0  0  0  0  0  0  0  0  0  0  0  0
    0.5230    0.6030    0.0000 C   0  0  0  0  0  0  0  0  0  0  0  0
    1.4050    1.8160    0.0000 N   0  0  0  0  0  0  0  0  0  0  0  0
    2.8320    1.3530    0.0000 C   0  0  0  0  0  0  0  0  0  0  0  0
    4.1310    2.1030    0.0000 C   0  0  0  0  0  0  0  0  0  0  0  0
    5.4300    1.3530    0.0000 C   0  0  0  0  0  0  0  0  0  0  0  0
  1  2  1  0  0  0  0
  2  3  1  0  0  0  0
  2 10  2  0  0  0  0
  3  4  2  0  0  0  0
  4  5  1  0  0  0  0
  4  8  1  0  0  0  0
  5  6  1  0  0  0  0
  6  7  2  0  0  0  0
  7  8  1  0  0  0  0
  8  9  2  0  0  0  0
  9 10  1  0  0  0  0
M  END
>  <name>
Oc1cc2s[c;biphenyl]nc2cc1

>  <apo>
1

>  <freq>
1

>  <freq0>
0

>  <freq1>
1

>  <freqA>
0.99887151

>  <a_count>
15

$$$$

  MOE2015           2D

  8  8  0  0  0  0  0  0  0  0999 V2000
    0.0000    0.0000    0.0000 O   0  0  0  0  0  0  0  0  0  0  0  0
    1.5000    0.0000    0.0000 C   0  0  0  0  0  0  0  0  0  0  0  0
    2.2500   -1.2990    0.0000 C   0  0  0  0  0  0  0  0  0  0  0  0
    3.7500   -1.2990    0.0000 C   0  0  0  0  0  0  0  0  0  0  0  0
    4.5000    0.0000    0.0000 C   0  0  0  0  0  0  0  0  0  0  0  0
    6.0000    0.0000    0.0000 N   0  0  0  0  0  0  0  0  0  0  0  0
    3.7500    1.2990    0.0000 C   0  0  0  0  0  0  0  0  0  0  0  0
    2.2500    1.2990    0.0000 C   0  0  0  0  0  0  0  0  0  0  0  0
  1  2  1  0  0  0  0
  2  3  1  0  0  0  0
  2  8  2  0  0  0  0
  3  4  2  0  0  0  0
  4  5  1  0  0  0  0
  5  6  1  0  0  0  0
  5  7  2  0  0  0  0
  7  8  1  0  0  0  0
M  END
>  <name>
Oc1ccc([N;amide])cc1

>  <apo>
1

>  <freq>
1

>  <freq0>
0

>  <freq1>
1

>  <freqA>
0.99887151

>  <a_count>
15

$$$$

  MOE2015           2D

  9  8  0  0  0  0  0  0  0  0999 V2000
   -2.3820   -0.6380    0.0000 P   0  0  0  0  0  0  0  0  0  0  0  0
   -3.6810   -1.3880    0.0000 O   0  0  0  0  0  0  0  0  0  0  0  0
   -1.6320   -1.9370    0.0000 O   0  0  0  0  0  0  0  0  0  0  0  0
   -3.1320    0.6610    0.0000 O   0  0  0  0  0  0  0  0  0  0  0  0
   -1.0830    0.1120    0.0000 C   0  0  0  0  0  0  0  0  0  0  0  0
    0.2160   -0.6380    0.0000 P   0  0  0  0  0  0  0  0  0  0  0  0
    0.9660    0.6610    0.0000 O   0  0  0  0  0  0  0  0  0  0  0  0
    1.5150   -1.3880    0.0000 O   0  0  0  0  0  0  0  0  0  0  0  0
   -0.5340   -1.9370    0.0000 O   0  0  0  0  0  0  0  0  0  0  0  0
  1  2  2  0  0  0  0
  1  3  1  0  0  0  0
  1  4  1  0  0  0  0
  1  5  1  0  0  0  0
  5  6  1  0  0  0  0
  6  7  2  0  0  0  0
  6  8  1  0  0  0  0
  6  9  1  0  0  0  0
M  END
>  <name>
P(=O)(O)(O)[C;thioether]P(=O)(O)O

>  <apo>
1

>  <freq>
1

>  <freq0>
0

>  <freq1>
1

>  <freqA>
0.99887151

>  <a_count>
15

$$$$

  MOE2015           2D

  5  5  0  0  0  0  0  0  0  0999 V2000
    0.7970    1.6710    0.0000 C   0  0  0  0  0  0  0  0  0  0  0  0
    0.4090    0.2220    0.0000 C   0  0  0  0  0  0  0  0  0  0  0  0
   -1.0890    0.1430    0.0000 C   0  0  0  0  0  0  0  0  0  0  0  0
   -1.6270    1.5440    0.0000 C   0  0  0  0  0  0  0  0  0  0  0  0
   -0.4610    2.4880    0.0000 C   0  0  0  0  0  0  0  0  0  0  0  0
  1  2  1  0  0  0  0
  1  5  1  0  0  0  0
  2  3  1  0  0  0  0
  3  4  1  0  0  0  0
  4  5  1  0  0  0  0
M  END
>  <name>
[C;NaroC]1CCCC1

>  <apo>
1

>  <freq>
1

>  <freq0>
0

>  <freq1>
1

>  <freqA>
0.99887151

>  <a_count>
15

$$$$

  MOE2015           2D

  7  7  0  0  0  0  0  0  0  0999 V2000
    0.3090   -1.0420    0.0000 C   0  0  0  0  0  0  0  0  0  0  0  0
    1.5670   -0.2250    0.0000 C   0  0  0  0  0  0  0  0  0  0  0  0
    2.9670   -0.7630    0.0000 O   0  0  0  0  0  0  0  0  0  0  0  0
    3.9110    0.4030    0.0000 C   0  0  0  0  0  0  0  0  0  0  0  0
    5.4090    0.3250    0.0000 C   0  0  0  0  0  0  0  0  0  0  0  0
    3.0940    1.6610    0.0000 C   0  0  0  0  0  0  0  0  0  0  0  0
    1.6450    1.2730    0.0000 C   0  0  0  0  0  0  0  0  0  0  0  0
  1  2  1  0  0  0  0
  2  3  1  0  0  0  0
  2  7  2  0  0  0  0
  3  4  1  0  0  0  0
  4  5  1  0  0  0  0
  4  6  2  0  0  0  0
  6  7  1  0  0  0  0
M  END
>  <name>
[C;amine]c1oc([C;thioether])cc1

>  <apo>
2

>  <freq>
1

>  <freq0>
0

>  <freq1>
1

>  <freqA>
0.99887151

>  <a_count>
15

$$$$

  MOE2015           2D

  5  5  0  0  0  0  0  0  0  0999 V2000
    0.7970    1.6710    0.0000 C   0  0  0  0  0  0  0  0  0  0  0  0
    0.4090    0.2220    0.0000 C   0  0  0  0  0  0  0  0  0  0  0  0
   -1.0890    0.1430    0.0000 C   0  0  0  0  0  0  0  0  0  0  0  0
   -1.6270    1.5440    0.0000 C   0  0  0  0  0  0  0  0  0  0  0  0
   -0.4610    2.4880    0.0000 C   0  0  0  0  0  0  0  0  0  0  0  0
  1  2  1  0  0  0  0
  1  5  1  0  0  0  0
  2  3  1  0  0  0  0
  3  4  1  0  0  0  0
  4  5  1  0  0  0  0
M  END
>  <name>
[C;ether]1CCCC1

>  <apo>
1

>  <freq>
1

>  <freq0>
0

>  <freq1>
1

>  <freqA>
0.99887151

>  <a_count>
15

$$$$

  MOE2015           2D

  7  7  0  0  0  0  0  0  0  0999 V2000
    5.1430    0.0000    0.0000 C   0  0  0  0  0  0  0  0  0  0  0  0
    3.6430    0.0000    0.0000 C   0  0  0  0  0  0  0  0  0  0  0  0
    2.8930    1.2990    0.0000 C   0  0  0  0  0  0  0  0  0  0  0  0
    1.3930    1.2990    0.0000 C   0  0  0  0  0  0  0  0  0  0  0  0
    0.6430    0.0000    0.0000 C   0  0  0  0  0  0  0  0  0  0  0  0
    1.3930   -1.2990    0.0000 C   0  0  0  0  0  0  0  0  0  0  0  0
    2.8930   -1.2990    0.0000 C   0  0  0  0  0  0  0  0  0  0  0  0
  1  2  1  0  0  0  0
  2  3  1  0  0  0  0
  2  7  2  0  0  0  0
  3  4  2  0  0  0  0
  4  5  1  0  0  0  0
  5  6  2  0  0  0  0
  6  7  1  0  0  0  0
M  END
>  <name>
[C;ether]c1c[c;biphenyl]ccc1

>  <apo>
2

>  <freq>
1

>  <freq0>
0

>  <freq1>
1

>  <freqA>
0.99887151

>  <a_count>
15

$$$$

  MOE2015           2D

  7  7  0  0  0  0  0  0  0  0999 V2000
    5.1430    0.0000    0.0000 C   0  0  0  0  0  0  0  0  0  0  0  0
    3.6430    0.0000    0.0000 C   0  0  0  0  0  0  0  0  0  0  0  0
    2.8930    1.2990    0.0000 C   0  0  0  0  0  0  0  0  0  0  0  0
    1.3930    1.2990    0.0000 C   0  0  0  0  0  0  0  0  0  0  0  0
    0.6430    0.0000    0.0000 C   0  0  0  0  0  0  0  0  0  0  0  0
    1.3930   -1.2990    0.0000 C   0  0  0  0  0  0  0  0  0  0  0  0
    2.8930   -1.2990    0.0000 C   0  0  0  0  0  0  0  0  0  0  0  0
  1  2  1  0  0  0  0
  2  3  1  0  0  0  0
  2  7  2  0  0  0  0
  3  4  2  0  0  0  0
  4  5  1  0  0  0  0
  5  6  2  0  0  0  0
  6  7  1  0  0  0  0
M  END
>  <name>
[C;thioether]c1ccccc1

>  <apo>
1

>  <freq>
1

>  <freq0>
0

>  <freq1>
1

>  <freqA>
0.99887151

>  <a_count>
15

$$$$

  MOE2015           2D

  8  8  0  0  0  0  0  0  0  0999 V2000
    5.3440   -0.8120    0.0000 N   0  0  0  0  0  0  0  0  0  0  0  0
    4.5940   -2.1110    0.0000 C   0  0  0  0  0  0  0  0  0  0  0  0
    3.0940   -2.1110    0.0000 C   0  0  0  0  0  0  0  0  0  0  0  0
    2.3440   -3.4100    0.0000 N   0  0  0  0  0  0  0  0  0  0  0  0
    0.8440   -3.4100    0.0000 C   0  0  0  0  0  0  0  0  0  0  0  0
    0.0940   -2.1110    0.0000 C   0  0  0  0  0  0  0  0  0  0  0  0
    0.8440   -0.8120    0.0000 C   0  0  0  0  0  0  0  0  0  0  0  0
    2.3440   -0.8120    0.0000 N   0  0  0  0  0  0  0  0  0  0  0  0
  1  2  1  0  0  0  0
  2  3  1  0  0  0  0
  3  4  1  0  0  0  0
  3  8  2  0  0  0  0
  4  5  2  0  0  0  0
  5  6  1  0  0  0  0
  6  7  2  0  0  0  0
  7  8  1  0  0  0  0
M  END
>  <name>
[N;amide]Cc1ncccn1

>  <apo>
1

>  <freq>
1

>  <freq0>
0

>  <freq1>
1

>  <freqA>
0.99887151

>  <a_count>
15

$$$$

  MOE2015           2D

  8  8  0  0  0  0  0  0  0  0999 V2000
    0.4890   -1.1750    0.0000 N   0  0  0  0  0  0  0  0  0  0  0  0
    1.7880   -0.4250    0.0000 C   0  0  0  0  0  0  0  0  0  0  0  0
    1.7880    1.0750    0.0000 C   0  0  0  0  0  0  0  0  0  0  0  0
    0.4890    1.8250    0.0000 C   0  0  0  0  0  0  0  0  0  0  0  0
    3.0870    1.8250    0.0000 C   0  0  0  0  0  0  0  0  0  0  0  0
    4.3860    1.0750    0.0000 C   0  0  0  0  0  0  0  0  0  0  0  0
    4.3860   -0.4250    0.0000 N   0  0  0  0  0  0  0  0  0  0  0  0
    3.0870   -1.1750    0.0000 N   0  0  0  0  0  0  0  0  0  0  0  0
  1  2  1  0  0  0  0
  2  3  1  0  0  0  0
  2  8  2  0  0  0  0
  3  4  1  0  0  0  0
  3  5  2  0  0  0  0
  5  6  1  0  0  0  0
  6  7  2  0  0  0  0
  7  8  1  0  0  0  0
M  END
>  <name>
[N;amine]c1c(C)c[c;biphenyl]nn1

>  <apo>
2

>  <freq>
1

>  <freq0>
0

>  <freq1>
1

>  <freqA>
0.99887151

>  <a_count>
15

$$$$

  MOE2015           2D

 10 11  0  0  0  0  0  0  0  0999 V2000
    0.5660    0.9790    0.0000 N   0  0  0  0  0  0  0  0  0  0  0  0
    1.3160   -0.3200    0.0000 C   0  0  0  0  0  0  0  0  0  0  0  0
    0.5660   -1.6190    0.0000 N   0  0  0  0  0  0  0  0  0  0  0  0
    1.3160   -2.9180    0.0000 C   0  0  0  0  0  0  0  0  0  0  0  0
    2.8160   -2.9180    0.0000 N   0  0  0  0  0  0  0  0  0  0  0  0
    3.5660   -1.6190    0.0000 C   0  0  0  0  0  0  0  0  0  0  0  0
    5.0330   -1.3070    0.0000 N   0  0  0  0  0  0  0  0  0  0  0  0
    5.1900    0.1850    0.0000 C   0  0  0  0  0  0  0  0  0  0  0  0
    3.8190    0.7950    0.0000 N   0  0  0  0  0  0  0  0  0  0  0  0
    2.8160   -0.3200    0.0000 C   0  0  0  0  0  0  0  0  0  0  0  0
  1  2  1  0  0  0  0
  2  3  1  0  0  0  0
  2 10  2  0  0  0  0
  3  4  2  0  0  0  0
  4  5  1  0  0  0  0
  5  6  2  0  0  0  0
  6  7  1  0  0  0  0
  6 10  1  0  0  0  0
  7  8  2  0  0  0  0
  8  9  1  0  0  0  0
  9 10  1  0  0  0  0
M  END
>  <name>
[N;amine]c1ncnc2nc[nH]c12

>  <apo>
1

>  <freq>
1

>  <freq0>
0

>  <freq1>
1

>  <freqA>
0.99887151

>  <a_count>
15

$$$$

  MOE2015           2D

  8  8  0  0  0  0  0  0  0  0999 V2000
    5.4110   -0.8000    0.0000 N   0  0  0  0  0  0  0  0  0  0  0  0
    4.1120   -0.0500    0.0000 C   0  0  0  0  0  0  0  0  0  0  0  0
    2.8120   -0.8000    0.0000 N   0  0  0  0  0  0  0  0  0  0  0  0
    1.5130   -0.0500    0.0000 C   0  0  0  0  0  0  0  0  0  0  0  0
    0.2140   -0.8000    0.0000 C   0  0  0  0  0  0  0  0  0  0  0  0
    1.5130    1.4500    0.0000 C   0  0  0  0  0  0  0  0  0  0  0  0
    2.8120    2.2000    0.0000 C   0  0  0  0  0  0  0  0  0  0  0  0
    4.1120    1.4500    0.0000 N   0  0  0  0  0  0  0  0  0  0  0  0
  1  2  1  0  0  0  0
  2  3  1  0  0  0  0
  2  8  2  0  0  0  0
  3  4  2  0  0  0  0
  4  5  1  0  0  0  0
  4  6  1  0  0  0  0
  6  7  2  0  0  0  0
  7  8  1  0  0  0  0
M  END
>  <name>
[N;so2amide]c1nc(C)ccn1

>  <apo>
1

>  <freq>
1

>  <freq0>
0

>  <freq1>
1

>  <freqA>
0.99887151

>  <a_count>
15

$$$$

  MOE2015           2D

  5  4  0  0  0  0  0  0  0  0999 V2000
    3.0000    0.0000    0.0000 O   0  0  0  0  0  0  0  0  0  0  0  0
    1.5000    0.0000    0.0000 C   0  0  0  0  0  0  0  0  0  0  0  0
    1.5000    1.5000    0.0000 C   0  0  0  0  0  0  0  0  0  0  0  0
    0.0000    0.0000    0.0000 C   0  0  0  0  0  0  0  0  0  0  0  0
    1.5000   -1.5000    0.0000 C   0  0  0  0  0  0  0  0  0  0  0  0
  1  2  1  0  0  0  0
  2  3  1  0  0  0  0
  2  4  1  0  0  0  0
  2  5  1  0  0  0  0
M  END
>  <name>
[O;ester]C(C)(C)C

>  <apo>
1

>  <freq>
1

>  <freq0>
0

>  <freq1>
1

>  <freqA>
0.99887151

>  <a_count>
15

$$$$

  MOE2015           2D

  5  4  0  0  0  0  0  0  0  0999 V2000
    3.0000    0.0000    0.0000 O   0  0  0  0  0  0  0  0  0  0  0  0
    1.5000    0.0000    0.0000 C   0  0  0  0  0  0  0  0  0  0  0  0
    1.5000    1.5000    0.0000 C   0  0  0  0  0  0  0  0  0  0  0  0
    0.0000    0.0000    0.0000 C   0  0  0  0  0  0  0  0  0  0  0  0
    1.5000   -1.5000    0.0000 C   0  0  0  0  0  0  0  0  0  0  0  0
  1  2  1  0  0  0  0
  2  3  1  0  0  0  0
  2  4  1  0  0  0  0
  2  5  1  0  0  0  0
M  END
>  <name>
[O;ester]C(C)(C)[C;amine]

>  <apo>
2

>  <freq>
1

>  <freq0>
0

>  <freq1>
1

>  <freqA>
0.99887151

>  <a_count>
15

$$$$

  MOE2015           2D

  5  4  0  0  0  0  0  0  0  0999 V2000
    3.8780   -1.0390    0.0000 O   0  0  0  0  0  0  0  0  0  0  0  0
    2.5790   -1.7890    0.0000 C   0  0  0  0  0  0  0  0  0  0  0  0
    1.2800   -1.0390    0.0000 C   0  0  0  0  0  0  0  0  0  0  0  0
   -0.0190   -1.7890    0.0000 C   0  0  0  0  0  0  0  0  0  0  0  0
    1.2800    0.4610    0.0000 C   0  0  0  0  0  0  0  0  0  0  0  0
  1  2  1  0  0  0  0
  2  3  1  0  0  0  0
  3  4  1  0  0  0  0
  3  5  1  0  0  0  0
M  END
>  <name>
[O;ester]CC(C)C

>  <apo>
1

>  <freq>
1

>  <freq0>
0

>  <freq1>
1

>  <freqA>
0.99887151

>  <a_count>
15

$$$$

  MOE2015           2D

  5  4  0  0  0  0  0  0  0  0999 V2000
    4.9980    0.7390    0.0000 O   0  0  0  0  0  0  0  0  0  0  0  0
    3.6990    1.4890    0.0000 C   0  0  0  0  0  0  0  0  0  0  0  0
    2.4000    0.7390    0.0000 C   0  0  0  0  0  0  0  0  0  0  0  0
    1.1010    1.4890    0.0000 C   0  0  0  0  0  0  0  0  0  0  0  0
   -0.1980    0.7390    0.0000 C   0  0  0  0  0  0  0  0  0  0  0  0
  1  2  1  0  0  0  0
  2  3  1  0  0  0  0
  3  4  1  0  0  0  0
  4  5  1  0  0  0  0
M  END
>  <name>
[O;ester]CCC[C;amine]

>  <apo>
2

>  <freq>
1

>  <freq0>
0

>  <freq1>
1

>  <freqA>
0.99887151

>  <a_count>
15

$$$$

  MOE2015           2D

  8  8  0  0  0  0  0  0  0  0999 V2000
    0.0000    0.0000    0.0000 O   0  0  0  0  0  0  0  0  0  0  0  0
    1.5000    0.0000    0.0000 C   0  0  0  0  0  0  0  0  0  0  0  0
    2.2500   -1.2990    0.0000 C   0  0  0  0  0  0  0  0  0  0  0  0
    3.7500   -1.2990    0.0000 C   0  0  0  0  0  0  0  0  0  0  0  0
    4.5000    0.0000    0.0000 C   0  0  0  0  0  0  0  0  0  0  0  0
    6.0000    0.0000    0.0000 N   0  0  0  0  0  0  0  0  0  0  0  0
    3.7500    1.2990    0.0000 C   0  0  0  0  0  0  0  0  0  0  0  0
    2.2500    1.2990    0.0000 C   0  0  0  0  0  0  0  0  0  0  0  0
  1  2  1  0  0  0  0
  2  3  1  0  0  0  0
  2  8  2  0  0  0  0
  3  4  2  0  0  0  0
  4  5  1  0  0  0  0
  5  6  1  0  0  0  0
  5  7  2  0  0  0  0
  7  8  1  0  0  0  0
M  END
>  <name>
[O;ester]c1ccc([N;amide])cc1

>  <apo>
2

>  <freq>
1

>  <freq0>
0

>  <freq1>
1

>  <freqA>
0.99887151

>  <a_count>
15

$$$$

  MOE2015           2D

  9  9  0  0  0  0  0  0  0  0999 V2000
    2.3330   -2.3330    0.0000 O   0  0  0  0  0  0  0  0  0  0  0  0
    2.3330   -0.8330    0.0000 C   0  0  0  0  0  0  0  0  0  0  0  0
    3.6320   -0.0830    0.0000 C   0  0  0  0  0  0  0  0  0  0  0  0
    4.9310   -0.8330    0.0000 O   0  0  0  0  0  0  0  0  0  0  0  0
    3.6320    1.4170    0.0000 C   0  0  0  0  0  0  0  0  0  0  0  0
    2.3330    2.1670    0.0000 C   0  0  0  0  0  0  0  0  0  0  0  0
    1.0340    1.4170    0.0000 C   0  0  0  0  0  0  0  0  0  0  0  0
    1.0340   -0.0830    0.0000 C   0  0  0  0  0  0  0  0  0  0  0  0
   -0.2650   -0.8330    0.0000 O   0  0  0  0  0  0  0  0  0  0  0  0
  1  2  1  0  0  0  0
  2  3  1  0  0  0  0
  2  8  2  0  0  0  0
  3  4  1  0  0  0  0
  3  5  2  0  0  0  0
  5  6  1  0  0  0  0
  6  7  2  0  0  0  0
  7  8  1  0  0  0  0
  8  9  1  0  0  0  0
M  END
>  <name>
[O;ether]c1c([O;ether])cccc1[O;ether]

>  <apo>
3

>  <freq>
1

>  <freq0>
0

>  <freq1>
1

>  <freqA>
0.99887151

>  <a_count>
15

$$$$

  MOE2015           2D

  8  8  0  0  0  0  0  0  0  0999 V2000
    0.0000    0.0000    0.0000 O   0  0  0  0  0  0  0  0  0  0  0  0
    1.5000    0.0000    0.0000 C   0  0  0  0  0  0  0  0  0  0  0  0
    2.2500   -1.2990    0.0000 C   0  0  0  0  0  0  0  0  0  0  0  0
    3.7500   -1.2990    0.0000 C   0  0  0  0  0  0  0  0  0  0  0  0
    4.5000    0.0000    0.0000 C   0  0  0  0  0  0  0  0  0  0  0  0
    6.0000    0.0000    0.0000 N   0  0  0  0  0  0  0  0  0  0  0  0
    3.7500    1.2990    0.0000 C   0  0  0  0  0  0  0  0  0  0  0  0
    2.2500    1.2990    0.0000 C   0  0  0  0  0  0  0  0  0  0  0  0
  1  2  1  0  0  0  0
  2  3  1  0  0  0  0
  2  8  2  0  0  0  0
  3  4  2  0  0  0  0
  4  5  1  0  0  0  0
  5  6  1  0  0  0  0
  5  7  2  0  0  0  0
  7  8  1  0  0  0  0
M  END
>  <name>
[O;ether]c1ccc([N;so2amide])cc1

>  <apo>
2

>  <freq>
1

>  <freq0>
0

>  <freq1>
1

>  <freqA>
0.99887151

>  <a_count>
15

$$$$

  MOE2015           2D

  8  8  0  0  0  0  0  0  0  0999 V2000
    0.0000    0.0000    0.0000 O   0  0  0  0  0  0  0  0  0  0  0  0
    1.5000    0.0000    0.0000 C   0  0  0  0  0  0  0  0  0  0  0  0
    2.2500   -1.2990    0.0000 N   0  0  0  0  0  0  0  0  0  0  0  0
    3.7500   -1.2990    0.0000 C   0  0  0  0  0  0  0  0  0  0  0  0
    4.5000    0.0000    0.0000 C   0  0  0  0  0  0  0  0  0  0  0  0
    6.0000    0.0000    0.0000 C   0  0  0  0  0  0  0  0  0  0  0  0
    3.7500    1.2990    0.0000 C   0  0  0  0  0  0  0  0  0  0  0  0
    2.2500    1.2990    0.0000 C   0  0  0  0  0  0  0  0  0  0  0  0
  1  2  1  0  0  0  0
  2  3  1  0  0  0  0
  2  8  2  0  0  0  0
  3  4  2  0  0  0  0
  4  5  1  0  0  0  0
  5  6  1  0  0  0  0
  5  7  2  0  0  0  0
  7  8  1  0  0  0  0
M  END
>  <name>
[O;ether]c1ncc([C;olefin])cc1

>  <apo>
2

>  <freq>
1

>  <freq0>
0

>  <freq1>
1

>  <freqA>
0.99887151

>  <a_count>
15

$$$$

  MOE2015           2D

 11 12  0  0  0  0  0  0  0  0999 V2000
    6.7620   -1.4610    0.0000 S   0  0  0  0  0  0  0  0  0  0  0  0
    5.4630   -0.7110    0.0000 C   0  0  0  0  0  0  0  0  0  0  0  0
    5.4630    0.7890    0.0000 N   0  0  0  0  0  0  0  0  0  0  0  0
    4.1640    1.5390    0.0000 C   0  0  0  0  0  0  0  0  0  0  0  0
    4.1640    3.0390    0.0000 N   0  0  0  0  0  0  0  0  0  0  0  0
    2.8650    0.7890    0.0000 C   0  0  0  0  0  0  0  0  0  0  0  0
    1.4390    1.2530    0.0000 N   0  0  0  0  0  0  0  0  0  0  0  0
    0.5570    0.0390    0.0000 N   0  0  0  0  0  0  0  0  0  0  0  0
    1.4390   -1.1740    0.0000 N   0  0  0  0  0  0  0  0  0  0  0  0
    2.8650   -0.7110    0.0000 C   0  0  0  0  0  0  0  0  0  0  0  0
    4.1640   -1.4610    0.0000 N   0  0  0  0  0  0  0  0  0  0  0  0
  1  2  1  0  0  0  0
  2  3  1  0  0  0  0
  2 11  2  0  0  0  0
  3  4  2  0  0  0  0
  4  5  1  0  0  0  0
  4  6  1  0  0  0  0
  6  7  1  0  0  0  0
  6 10  2  0  0  0  0
  7  8  2  0  0  0  0
  8  9  1  0  0  0  0
  9 10  1  0  0  0  0
 10 11  1  0  0  0  0
M  END
>  <name>
[S;thioether]c1nc([N;amine])c2nn[nH;NaroC]c2n1

>  <apo>
3

>  <freq>
1

>  <freq0>
0

>  <freq1>
1

>  <freqA>
0.99887151

>  <a_count>
15

$$$$

  MOE2015           2D

 11 11  0  0  0  0  0  0  0  0999 V2000
    0.8860    1.5350    0.0000 S   0  0  0  0  0  0  0  0  0  0  0  0
    1.6360    2.8340    0.0000 O   0  0  0  0  0  0  0  0  0  0  0  0
    1.6360    0.2360    0.0000 O   0  0  0  0  0  0  0  0  0  0  0  0
   -0.6140    1.5350    0.0000 C   0  0  0  0  0  0  0  0  0  0  0  0
   -1.3640    0.2360    0.0000 C   0  0  0  0  0  0  0  0  0  0  0  0
   -0.6140   -1.0630    0.0000 F   0  0  0  0  0  0  0  0  0  0  0  0
   -2.8640    0.2360    0.0000 C   0  0  0  0  0  0  0  0  0  0  0  0
   -3.6140    1.5350    0.0000 C   0  0  0  0  0  0  0  0  0  0  0  0
   -2.8640    2.8340    0.0000 C   0  0  0  0  0  0  0  0  0  0  0  0
   -1.3640    2.8340    0.0000 C   0  0  0  0  0  0  0  0  0  0  0  0
   -0.6140    4.1330    0.0000 F   0  0  0  0  0  0  0  0  0  0  0  0
  1  2  2  0  0  0  0
  1  3  2  0  0  0  0
  1  4  1  0  0  0  0
  4  5  1  0  0  0  0
  4 10  2  0  0  0  0
  5  6  1  0  0  0  0
  5  7  2  0  0  0  0
  7  8  1  0  0  0  0
  8  9  2  0  0  0  0
  9 10  1  0  0  0  0
 10 11  1  0  0  0  0
M  END
>  <name>
[SH;so2amide](=O)(=O)c1c(F)cccc1F

>  <apo>
1

>  <freq>
1

>  <freq0>
0

>  <freq1>
1

>  <freqA>
0.99887151

>  <a_count>
15

$$$$

  MOE2015           2D

  9  9  0  0  0  0  0  0  0  0999 V2000
    0.9170    1.5880    0.0000 S   0  0  0  0  0  0  0  0  0  0  0  0
    1.6670    2.8870    0.0000 O   0  0  0  0  0  0  0  0  0  0  0  0
    1.6670    0.2890    0.0000 O   0  0  0  0  0  0  0  0  0  0  0  0
   -0.5830    1.5880    0.0000 C   0  0  0  0  0  0  0  0  0  0  0  0
   -1.3330    0.2890    0.0000 C   0  0  0  0  0  0  0  0  0  0  0  0
   -2.8330    0.2890    0.0000 C   0  0  0  0  0  0  0  0  0  0  0  0
   -3.5830    1.5880    0.0000 C   0  0  0  0  0  0  0  0  0  0  0  0
   -2.8330    2.8870    0.0000 C   0  0  0  0  0  0  0  0  0  0  0  0
   -1.3330    2.8870    0.0000 C   0  0  0  0  0  0  0  0  0  0  0  0
  1  2  2  0  0  0  0
  1  3  2  0  0  0  0
  1  4  1  0  0  0  0
  4  5  1  0  0  0  0
  4  9  2  0  0  0  0
  5  6  2  0  0  0  0
  6  7  1  0  0  0  0
  7  8  2  0  0  0  0
  8  9  1  0  0  0  0
M  END
>  <name>
[SH;so2amide](=O)(=O)c1cc[c;biphenyl]cc1

>  <apo>
2

>  <freq>
1

>  <freq0>
0

>  <freq1>
1

>  <freqA>
0.99887151

>  <a_count>
15

$$$$

  MOE2015           2D

  9  9  0  0  0  0  0  0  0  0999 V2000
    0.9170    1.5880    0.0000 S   0  0  0  0  0  0  0  0  0  0  0  0
    1.6670    2.8870    0.0000 O   0  0  0  0  0  0  0  0  0  0  0  0
    1.6670    0.2890    0.0000 O   0  0  0  0  0  0  0  0  0  0  0  0
   -0.5830    1.5880    0.0000 C   0  0  0  0  0  0  0  0  0  0  0  0
   -1.3330    0.2890    0.0000 C   0  0  0  0  0  0  0  0  0  0  0  0
   -2.8330    0.2890    0.0000 C   0  0  0  0  0  0  0  0  0  0  0  0
   -3.5830    1.5880    0.0000 C   0  0  0  0  0  0  0  0  0  0  0  0
   -2.8330    2.8870    0.0000 C   0  0  0  0  0  0  0  0  0  0  0  0
   -1.3330    2.8870    0.0000 C   0  0  0  0  0  0  0  0  0  0  0  0
  1  2  2  0  0  0  0
  1  3  2  0  0  0  0
  1  4  1  0  0  0  0
  4  5  1  0  0  0  0
  4  9  2  0  0  0  0
  5  6  2  0  0  0  0
  6  7  1  0  0  0  0
  7  8  2  0  0  0  0
  8  9  1  0  0  0  0
M  END
>  <name>
[SH;so2amide](=O)(=O)c1ccccc1

>  <apo>
1

>  <freq>
1

>  <freq0>
0

>  <freq1>
1

>  <freqA>
0.99887151

>  <a_count>
15

$$$$

  MOE2015           2D

  9 10  0  0  0  0  0  0  0  0999 V2000
    0.5060    2.9330    0.0000 N   0  0  0  0  0  0  0  0  0  0  0  0
   -0.9210    2.4690    0.0000 C   0  0  0  0  0  0  0  0  0  0  0  0
   -0.9210    0.9690    0.0000 C   0  0  0  0  0  0  0  0  0  0  0  0
    0.5060    0.5060    0.0000 N   0  0  0  0  0  0  0  0  0  0  0  0
    1.3870    1.7190    0.0000 C   0  0  0  0  0  0  0  0  0  0  0  0
   -2.2200    0.2190    0.0000 C   0  0  0  0  0  0  0  0  0  0  0  0
   -3.5190    0.9690    0.0000 C   0  0  0  0  0  0  0  0  0  0  0  0
   -3.5190    2.4690    0.0000 C   0  0  0  0  0  0  0  0  0  0  0  0
   -2.2200    3.2190    0.0000 C   0  0  0  0  0  0  0  0  0  0  0  0
  1  2  1  0  0  0  0
  1  5  1  0  0  0  0
  2  3  1  0  0  0  0
  2  9  2  0  0  0  0
  3  4  1  0  0  0  0
  3  6  2  0  0  0  0
  4  5  2  0  0  0  0
  6  7  1  0  0  0  0
  7  8  2  0  0  0  0
  8  9  1  0  0  0  0
M  END
>  <name>
[nH]1c2c(n[c;biphenyl]1)cccc2

>  <apo>
1

>  <freq>
1

>  <freq0>
0

>  <freq1>
1

>  <freqA>
0.99887151

>  <a_count>
15

$$$$

  MOE2015           2D

  4  3  0  0  0  0  0  0  0  0999 V2000
    0.0000    0.0000    0.0000 C   0  0  0  0  0  0  0  0  0  0  0  0
   -1.2990   -0.7500    0.0000 C   0  0  0  0  0  0  0  0  0  0  0  0
    0.0000    1.5000    0.0000 C   0  0  0  0  0  0  0  0  0  0  0  0
    1.2990   -0.7500    0.0000 C   0  0  0  0  0  0  0  0  0  0  0  0
  1  2  1  0  0  0  0
  1  3  1  0  0  0  0
  1  4  1  0  0  0  0
M  END
>  <name>
C(C)(C)[C;ether]

>  <apo>
1

>  <freq>
1

>  <freq0>
0

>  <freq1>
1

>  <freqA>
0.99887151

>  <a_count>
14

$$$$

  MOE2015           2D

  4  3  0  0  0  0  0  0  0  0999 V2000
    0.0000    0.0000    0.0000 C   0  0  0  0  0  0  0  0  0  0  0  0
   -1.2990   -0.7500    0.0000 C   0  0  0  0  0  0  0  0  0  0  0  0
    0.0000    1.5000    0.0000 C   0  0  0  0  0  0  0  0  0  0  0  0
    1.2990   -0.7500    0.0000 C   0  0  0  0  0  0  0  0  0  0  0  0
  1  2  1  0  0  0  0
  1  3  1  0  0  0  0
  1  4  1  0  0  0  0
M  END
>  <name>
C(C)(C)[C;olefin]

>  <apo>
1

>  <freq>
1

>  <freq0>
0

>  <freq1>
1

>  <freqA>
0.99887151

>  <a_count>
14

$$$$

  MOE2015           2D

  4  3  0  0  0  0  0  0  0  0999 V2000
    0.1000   -0.3750    0.0000 C   0  0  0  0  0  0  0  0  0  0  0  0
    1.4000    0.3750    0.0000 C   0  0  0  0  0  0  0  0  0  0  0  0
    2.6990   -0.3750    0.0000 C   0  0  0  0  0  0  0  0  0  0  0  0
   -1.1990    0.3750    0.0000 C   0  0  0  0  0  0  0  0  0  0  0  0
  1  2  1  0  0  0  0
  1  4  1  0  0  0  0
  2  3  1  0  0  0  0
M  END
>  <name>
C(CC)[C;quatN]

>  <apo>
1

>  <freq>
1

>  <freq0>
0

>  <freq1>
1

>  <freqA>
0.99887151

>  <a_count>
14

$$$$

  MOE2015           2D

  4  3  0  0  0  0  0  0  0  0999 V2000
    0.1000   -0.3750    0.0000 C   0  0  0  0  0  0  0  0  0  0  0  0
    1.4000    0.3750    0.0000 C   0  0  0  0  0  0  0  0  0  0  0  0
    2.6990   -0.3750    0.0000 C   0  0  0  0  0  0  0  0  0  0  0  0
   -1.1990    0.3750    0.0000 C   0  0  0  0  0  0  0  0  0  0  0  0
  1  2  1  0  0  0  0
  1  4  1  0  0  0  0
  2  3  1  0  0  0  0
M  END
>  <name>
C(C[C;NaroC])[C;lactam]

>  <apo>
2

>  <freq>
1

>  <freq0>
0

>  <freq1>
1

>  <freqA>
0.99887151

>  <a_count>
14

$$$$

  MOE2015           2D

  4  3  0  0  0  0  0  0  0  0999 V2000
    0.0000    0.0000    0.0000 C   0  0  0  0  0  0  0  0  0  0  0  0
   -1.2990   -0.7500    0.0000 C   0  0  0  0  0  0  0  0  0  0  0  0
    0.0000    1.5000    0.0000 C   0  0  0  0  0  0  0  0  0  0  0  0
    1.2990   -0.7500    0.0000 C   0  0  0  0  0  0  0  0  0  0  0  0
  1  2  1  0  0  0  0
  1  3  1  0  0  0  0
  1  4  1  0  0  0  0
M  END
>  <name>
C([C;NaroC])(C)C

>  <apo>
1

>  <freq>
1

>  <freq0>
0

>  <freq1>
1

>  <freqA>
0.99887151

>  <a_count>
14

$$$$

  MOE2015           2D

  4  3  0  0  0  0  0  0  0  0999 V2000
    0.0000    0.0000    0.0000 C   0  0  0  0  0  0  0  0  0  0  0  0
   -1.2990   -0.7500    0.0000 C   0  0  0  0  0  0  0  0  0  0  0  0
    0.0000    1.5000    0.0000 C   0  0  0  0  0  0  0  0  0  0  0  0
    1.2990   -0.7500    0.0000 C   0  0  0  0  0  0  0  0  0  0  0  0
  1  2  1  0  0  0  0
  1  3  1  0  0  0  0
  1  4  1  0  0  0  0
M  END
>  <name>
C([C;amine])(C)C

>  <apo>
1

>  <freq>
1

>  <freq0>
0

>  <freq1>
1

>  <freqA>
0.99887151

>  <a_count>
14

$$$$

  MOE2015           2D

  7  7  0  0  0  0  0  0  0  0999 V2000
    5.1430    0.0000    0.0000 C   0  0  0  0  0  0  0  0  0  0  0  0
    3.6430    0.0000    0.0000 C   0  0  0  0  0  0  0  0  0  0  0  0
    2.8930    1.2990    0.0000 N   0  0  0  0  0  0  0  0  0  0  0  0
    1.3930    1.2990    0.0000 C   0  0  0  0  0  0  0  0  0  0  0  0
    0.6430    0.0000    0.0000 C   0  0  0  0  0  0  0  0  0  0  0  0
    1.3930   -1.2990    0.0000 C   0  0  0  0  0  0  0  0  0  0  0  0
    2.8930   -1.2990    0.0000 C   0  0  0  0  0  0  0  0  0  0  0  0
  1  2  1  0  0  0  0
  2  3  1  0  0  0  0
  2  7  2  0  0  0  0
  3  4  2  0  0  0  0
  4  5  1  0  0  0  0
  5  6  2  0  0  0  0
  6  7  1  0  0  0  0
M  END
>  <name>
Cc1nc[c;biphenyl]cc1

>  <apo>
1

>  <freq>
1

>  <freq0>
0

>  <freq1>
1

>  <freqA>
0.99887151

>  <a_count>
14

$$$$

  MOE2015           2D

  7  7  0  0  0  0  0  0  0  0999 V2000
    0.3090   -1.5080    0.0000 C   0  0  0  0  0  0  0  0  0  0  0  0
    1.5670   -0.6910    0.0000 C   0  0  0  0  0  0  0  0  0  0  0  0
    1.6450    0.8070    0.0000 S   0  0  0  0  0  0  0  0  0  0  0  0
    3.0940    1.1950    0.0000 C   0  0  0  0  0  0  0  0  0  0  0  0
    3.9110   -0.0630    0.0000 C   0  0  0  0  0  0  0  0  0  0  0  0
    5.4090   -0.1420    0.0000 C   0  0  0  0  0  0  0  0  0  0  0  0
    2.9670   -1.2290    0.0000 N   0  0  0  0  0  0  0  0  0  0  0  0
  1  2  1  0  0  0  0
  2  3  1  0  0  0  0
  2  7  2  0  0  0  0
  3  4  1  0  0  0  0
  4  5  2  0  0  0  0
  5  6  1  0  0  0  0
  5  7  1  0  0  0  0
M  END
>  <name>
Cc1scc([C;olefin])n1

>  <apo>
1

>  <freq>
1

>  <freq0>
0

>  <freq1>
1

>  <freqA>
0.99887151

>  <a_count>
14

$$$$

  MOE2015           2D

  8  8  0  0  0  0  0  0  0  0999 V2000
    0.0000    0.0000    0.0000 Cl  0  0  0  0  0  0  0  0  0  0  0  0
    1.5000    0.0000    0.0000 C   0  0  0  0  0  0  0  0  0  0  0  0
    2.2500   -1.2990    0.0000 C   0  0  0  0  0  0  0  0  0  0  0  0
    3.7500   -1.2990    0.0000 C   0  0  0  0  0  0  0  0  0  0  0  0
    4.5000    0.0000    0.0000 C   0  0  0  0  0  0  0  0  0  0  0  0
    6.0000    0.0000    0.0000 N   0  0  0  0  0  0  0  0  0  0  0  0
    3.7500    1.2990    0.0000 C   0  0  0  0  0  0  0  0  0  0  0  0
    2.2500    1.2990    0.0000 C   0  0  0  0  0  0  0  0  0  0  0  0
  1  2  1  0  0  0  0
  2  3  1  0  0  0  0
  2  8  2  0  0  0  0
  3  4  2  0  0  0  0
  4  5  1  0  0  0  0
  5  6  1  0  0  0  0
  5  7  2  0  0  0  0
  7  8  1  0  0  0  0
M  END
>  <name>
Clc1[c;biphenyl]cc([N;amide])cc1

>  <apo>
2

>  <freq>
1

>  <freq0>
0

>  <freq1>
1

>  <freqA>
0.99887151

>  <a_count>
14

$$$$

  MOE2015           2D

  9  9  0  0  0  0  0  0  0  0999 V2000
    1.3330    2.3090    0.0000 Cl  0  0  0  0  0  0  0  0  0  0  0  0
    2.0830    1.0100    0.0000 C   0  0  0  0  0  0  0  0  0  0  0  0
    1.3330   -0.2890    0.0000 C   0  0  0  0  0  0  0  0  0  0  0  0
   -0.1670   -0.2890    0.0000 Cl  0  0  0  0  0  0  0  0  0  0  0  0
    2.0830   -1.5880    0.0000 C   0  0  0  0  0  0  0  0  0  0  0  0
    3.5830   -1.5880    0.0000 C   0  0  0  0  0  0  0  0  0  0  0  0
    4.3330   -0.2890    0.0000 C   0  0  0  0  0  0  0  0  0  0  0  0
    5.8330   -0.2890    0.0000 N   0  0  0  0  0  0  0  0  0  0  0  0
    3.5830    1.0100    0.0000 C   0  0  0  0  0  0  0  0  0  0  0  0
  1  2  1  0  0  0  0
  2  3  1  0  0  0  0
  2  9  2  0  0  0  0
  3  4  1  0  0  0  0
  3  5  2  0  0  0  0
  5  6  1  0  0  0  0
  6  7  2  0  0  0  0
  7  8  1  0  0  0  0
  7  9  1  0  0  0  0
M  END
>  <name>
Clc1c(Cl)ccc([N;urea])c1

>  <apo>
1

>  <freq>
1

>  <freq0>
0

>  <freq1>
1

>  <freqA>
0.99887151

>  <a_count>
14

$$$$

  MOE2015           2D

 10 10  0  0  0  0  0  0  0  0999 V2000
    0.6970    2.6000    0.0000 Cl  0  0  0  0  0  0  0  0  0  0  0  0
    1.9960    1.8500    0.0000 C   0  0  0  0  0  0  0  0  0  0  0  0
    1.9960    0.3500    0.0000 C   0  0  0  0  0  0  0  0  0  0  0  0
    0.6970   -0.4000    0.0000 C   0  0  0  0  0  0  0  0  0  0  0  0
    0.6970   -1.9000    0.0000 O   0  0  0  0  0  0  0  0  0  0  0  0
    3.2950   -0.4000    0.0000 C   0  0  0  0  0  0  0  0  0  0  0  0
    4.5940    0.3500    0.0000 C   0  0  0  0  0  0  0  0  0  0  0  0
    5.8930   -0.4000    0.0000 Cl  0  0  0  0  0  0  0  0  0  0  0  0
    4.5940    1.8500    0.0000 C   0  0  0  0  0  0  0  0  0  0  0  0
    3.2950    2.6000    0.0000 C   0  0  0  0  0  0  0  0  0  0  0  0
  1  2  1  0  0  0  0
  2  3  1  0  0  0  0
  2 10  2  0  0  0  0
  3  4  1  0  0  0  0
  3  6  2  0  0  0  0
  4  5  2  0  0  0  0
  6  7  1  0  0  0  0
  7  8  1  0  0  0  0
  7  9  2  0  0  0  0
  9 10  1  0  0  0  0
M  END
>  <name>
Clc1c([C;amide]=O)cc(Cl)cc1

>  <apo>
1

>  <freq>
1

>  <freq0>
0

>  <freq1>
1

>  <freqA>
0.99887151

>  <a_count>
14

$$$$

  MOE2015           2D

  9  9  0  0  0  0  0  0  0  0999 V2000
    6.3330    0.0000    0.0000 Cl  0  0  0  0  0  0  0  0  0  0  0  0
    4.8330    0.0000    0.0000 C   0  0  0  0  0  0  0  0  0  0  0  0
    4.0830    1.2990    0.0000 C   0  0  0  0  0  0  0  0  0  0  0  0
    2.5830    1.2990    0.0000 C   0  0  0  0  0  0  0  0  0  0  0  0
    1.8330    2.5980    0.0000 N   0  0  0  0  0  0  0  0  0  0  0  0
    1.8330    0.0000    0.0000 C   0  0  0  0  0  0  0  0  0  0  0  0
    0.3330    0.0000    0.0000 F   0  0  0  0  0  0  0  0  0  0  0  0
    2.5830   -1.2990    0.0000 C   0  0  0  0  0  0  0  0  0  0  0  0
    4.0830   -1.2990    0.0000 C   0  0  0  0  0  0  0  0  0  0  0  0
  1  2  1  0  0  0  0
  2  3  1  0  0  0  0
  2  9  2  0  0  0  0
  3  4  2  0  0  0  0
  4  5  1  0  0  0  0
  4  6  1  0  0  0  0
  6  7  1  0  0  0  0
  6  8  2  0  0  0  0
  8  9  1  0  0  0  0
M  END
>  <name>
Clc1cc([N;so2amide])c(F)[c;biphenyl]c1

>  <apo>
2

>  <freq>
1

>  <freq0>
0

>  <freq1>
1

>  <freqA>
0.99887151

>  <a_count>
14

$$$$

  MOE2015           2D

  8  8  0  0  0  0  0  0  0  0999 V2000
    0.0000    0.0000    0.0000 Cl  0  0  0  0  0  0  0  0  0  0  0  0
    1.5000    0.0000    0.0000 C   0  0  0  0  0  0  0  0  0  0  0  0
    2.2500   -1.2990    0.0000 C   0  0  0  0  0  0  0  0  0  0  0  0
    3.7500   -1.2990    0.0000 C   0  0  0  0  0  0  0  0  0  0  0  0
    4.5000    0.0000    0.0000 C   0  0  0  0  0  0  0  0  0  0  0  0
    6.0000    0.0000    0.0000 N   0  0  0  0  0  0  0  0  0  0  0  0
    3.7500    1.2990    0.0000 C   0  0  0  0  0  0  0  0  0  0  0  0
    2.2500    1.2990    0.0000 C   0  0  0  0  0  0  0  0  0  0  0  0
  1  2  1  0  0  0  0
  2  3  1  0  0  0  0
  2  8  2  0  0  0  0
  3  4  2  0  0  0  0
  4  5  1  0  0  0  0
  5  6  1  0  0  0  0
  5  7  2  0  0  0  0
  7  8  1  0  0  0  0
M  END
>  <name>
Clc1ccc([N;urea])cc1

>  <apo>
1

>  <freq>
1

>  <freq0>
0

>  <freq1>
1

>  <freqA>
0.99887151

>  <a_count>
14

$$$$

  MOE2015           2D

 10 10  0  0  0  0  0  0  0  0999 V2000
    3.1500   -0.1500    0.0000 F   0  0  0  0  0  0  0  0  0  0  0  0
    3.1500   -1.6500    0.0000 C   0  0  0  0  0  0  0  0  0  0  0  0
    3.1500   -3.1500    0.0000 F   0  0  0  0  0  0  0  0  0  0  0  0
    4.6500   -1.6500    0.0000 F   0  0  0  0  0  0  0  0  0  0  0  0
    1.6500   -1.6500    0.0000 C   0  0  0  0  0  0  0  0  0  0  0  0
    0.9000   -2.9490    0.0000 N   0  0  0  0  0  0  0  0  0  0  0  0
   -0.6000   -2.9490    0.0000 C   0  0  0  0  0  0  0  0  0  0  0  0
   -1.3500   -1.6500    0.0000 C   0  0  0  0  0  0  0  0  0  0  0  0
   -0.6000   -0.3510    0.0000 C   0  0  0  0  0  0  0  0  0  0  0  0
    0.9000   -0.3510    0.0000 C   0  0  0  0  0  0  0  0  0  0  0  0
  1  2  1  0  0  0  0
  2  3  1  0  0  0  0
  2  4  1  0  0  0  0
  2  5  1  0  0  0  0
  5  6  1  0  0  0  0
  5 10  2  0  0  0  0
  6  7  2  0  0  0  0
  7  8  1  0  0  0  0
  8  9  2  0  0  0  0
  9 10  1  0  0  0  0
M  END
>  <name>
FC(F)(F)c1n[c;biphenyl]ccc1

>  <apo>
1

>  <freq>
1

>  <freq0>
0

>  <freq1>
1

>  <freqA>
0.99887151

>  <a_count>
14

$$$$

  MOE2015           2D

  7  7  0  0  0  0  0  0  0  0999 V2000
   -0.0240    0.7100    0.0000 F   0  0  0  0  0  0  0  0  0  0  0  0
    1.3970    0.2280    0.0000 C   0  0  0  0  0  0  0  0  0  0  0  0
    0.4080   -0.9000    0.0000 F   0  0  0  0  0  0  0  0  0  0  0  0
    2.1470    1.5270    0.0000 C   0  0  0  0  0  0  0  0  0  0  0  0
    3.4460    0.7770    0.0000 C   0  0  0  0  0  0  0  0  0  0  0  0
    4.8950    1.1650    0.0000 N   0  0  0  0  0  0  0  0  0  0  0  0
    2.6960   -0.5220    0.0000 C   0  0  0  0  0  0  0  0  0  0  0  0
  1  2  1  0  0  0  0
  2  3  1  0  0  0  0
  2  4  1  0  0  0  0
  2  7  1  0  0  0  0
  4  5  1  0  0  0  0
  5  6  1  0  0  0  0
  5  7  1  0  0  0  0
M  END
>  <name>
FC1(F)CC([N;amide])C1

>  <apo>
1

>  <freq>
1

>  <freq0>
0

>  <freq1>
1

>  <freqA>
0.99887151

>  <a_count>
14

$$$$

  MOE2015           2D

 11 11  0  0  0  0  0  0  0  0999 V2000
    1.7050   -2.0080    0.0000 F   0  0  0  0  0  0  0  0  0  0  0  0
    2.4550   -0.7090    0.0000 C   0  0  0  0  0  0  0  0  0  0  0  0
    1.7050    0.5900    0.0000 C   0  0  0  0  0  0  0  0  0  0  0  0
    0.2050    0.5900    0.0000 C   0  0  0  0  0  0  0  0  0  0  0  0
   -0.5450   -0.7090    0.0000 O   0  0  0  0  0  0  0  0  0  0  0  0
    2.4550    1.8900    0.0000 C   0  0  0  0  0  0  0  0  0  0  0  0
    1.7050    3.1890    0.0000 F   0  0  0  0  0  0  0  0  0  0  0  0
    3.9550    1.8900    0.0000 C   0  0  0  0  0  0  0  0  0  0  0  0
    4.7050    0.5900    0.0000 C   0  0  0  0  0  0  0  0  0  0  0  0
    6.2050    0.5900    0.0000 F   0  0  0  0  0  0  0  0  0  0  0  0
    3.9550   -0.7090    0.0000 C   0  0  0  0  0  0  0  0  0  0  0  0
  1  2  1  0  0  0  0
  2  3  1  0  0  0  0
  2 11  2  0  0  0  0
  3  4  1  0  0  0  0
  3  6  2  0  0  0  0
  4  5  2  0  0  0  0
  6  7  1  0  0  0  0
  6  8  1  0  0  0  0
  8  9  2  0  0  0  0
  9 10  1  0  0  0  0
  9 11  1  0  0  0  0
M  END
>  <name>
Fc1c([C;amide]=O)c(F)cc(F)c1

>  <apo>
1

>  <freq>
1

>  <freq0>
0

>  <freq1>
1

>  <freqA>
0.99887151

>  <a_count>
14

$$$$

  MOE2015           2D

  8  8  0  0  0  0  0  0  0  0999 V2000
    0.4890   -1.1750    0.0000 F   0  0  0  0  0  0  0  0  0  0  0  0
    1.7880   -0.4250    0.0000 C   0  0  0  0  0  0  0  0  0  0  0  0
    1.7880    1.0750    0.0000 C   0  0  0  0  0  0  0  0  0  0  0  0
    0.4890    1.8250    0.0000 N   0  0  0  0  0  0  0  0  0  0  0  0
    3.0870    1.8250    0.0000 C   0  0  0  0  0  0  0  0  0  0  0  0
    4.3860    1.0750    0.0000 C   0  0  0  0  0  0  0  0  0  0  0  0
    4.3860   -0.4250    0.0000 C   0  0  0  0  0  0  0  0  0  0  0  0
    3.0870   -1.1750    0.0000 C   0  0  0  0  0  0  0  0  0  0  0  0
  1  2  1  0  0  0  0
  2  3  1  0  0  0  0
  2  8  2  0  0  0  0
  3  4  1  0  0  0  0
  3  5  2  0  0  0  0
  5  6  1  0  0  0  0
  6  7  2  0  0  0  0
  7  8  1  0  0  0  0
M  END
>  <name>
Fc1c([N;so2amide])ccc[c;biphenyl]1

>  <apo>
2

>  <freq>
1

>  <freq0>
0

>  <freq1>
1

>  <freqA>
0.99887151

>  <a_count>
14

$$$$

  MOE2015           2D

  8  8  0  0  0  0  0  0  0  0999 V2000
    0.0000    0.0000    0.0000 F   0  0  0  0  0  0  0  0  0  0  0  0
    1.5000    0.0000    0.0000 C   0  0  0  0  0  0  0  0  0  0  0  0
    2.2500   -1.2990    0.0000 C   0  0  0  0  0  0  0  0  0  0  0  0
    3.7500   -1.2990    0.0000 C   0  0  0  0  0  0  0  0  0  0  0  0
    4.5000    0.0000    0.0000 C   0  0  0  0  0  0  0  0  0  0  0  0
    6.0000    0.0000    0.0000 N   0  0  0  0  0  0  0  0  0  0  0  0
    3.7500    1.2990    0.0000 C   0  0  0  0  0  0  0  0  0  0  0  0
    2.2500    1.2990    0.0000 C   0  0  0  0  0  0  0  0  0  0  0  0
  1  2  1  0  0  0  0
  2  3  1  0  0  0  0
  2  8  2  0  0  0  0
  3  4  2  0  0  0  0
  4  5  1  0  0  0  0
  5  6  1  0  0  0  0
  5  7  2  0  0  0  0
  7  8  1  0  0  0  0
M  END
>  <name>
Fc1ccc([N;amide])cc1

>  <apo>
1

>  <freq>
1

>  <freq0>
0

>  <freq1>
1

>  <freqA>
0.99887151

>  <a_count>
14

$$$$

  MOE2015           2D

 10 11  0  0  0  0  0  0  0  0999 V2000
    6.7290   -0.8970    0.0000 F   0  0  0  0  0  0  0  0  0  0  0  0
    5.4300   -0.1470    0.0000 C   0  0  0  0  0  0  0  0  0  0  0  0
    5.4300    1.3530    0.0000 C   0  0  0  0  0  0  0  0  0  0  0  0
    4.1310    2.1030    0.0000 N   0  0  0  0  0  0  0  0  0  0  0  0
    2.8320    1.3530    0.0000 C   0  0  0  0  0  0  0  0  0  0  0  0
    1.4050    1.8160    0.0000 N   0  0  0  0  0  0  0  0  0  0  0  0
    0.5230    0.6030    0.0000 N   0  0  0  0  0  0  0  0  0  0  0  0
    1.4050   -0.6110    0.0000 C   0  0  0  0  0  0  0  0  0  0  0  0
    2.8320   -0.1470    0.0000 C   0  0  0  0  0  0  0  0  0  0  0  0
    4.1310   -0.8970    0.0000 C   0  0  0  0  0  0  0  0  0  0  0  0
  1  2  1  0  0  0  0
  2  3  1  0  0  0  0
  2 10  2  0  0  0  0
  3  4  2  0  0  0  0
  4  5  1  0  0  0  0
  5  6  1  0  0  0  0
  5  9  2  0  0  0  0
  6  7  1  0  0  0  0
  7  8  2  0  0  0  0
  8  9  1  0  0  0  0
  9 10  1  0  0  0  0
M  END
>  <name>
Fc1cnc2[nH;NaroC]n[c;biphenyl]c2c1

>  <apo>
2

>  <freq>
1

>  <freq0>
0

>  <freq1>
1

>  <freqA>
0.99887151

>  <a_count>
14

$$$$

  MOE2015           2D

  5  5  0  0  0  0  0  0  0  0999 V2000
    0.7970    1.6710    0.0000 N   0  0  0  0  0  0  0  0  0  0  0  0
    0.4090    0.2220    0.0000 C   0  0  0  0  0  0  0  0  0  0  0  0
   -1.0890    0.1430    0.0000 C   0  0  0  0  0  0  0  0  0  0  0  0
   -1.6270    1.5440    0.0000 C   0  0  0  0  0  0  0  0  0  0  0  0
   -0.4610    2.4880    0.0000 C   0  0  0  0  0  0  0  0  0  0  0  0
  1  2  1  0  0  0  0
  1  5  1  0  0  0  0
  2  3  1  0  0  0  0
  3  4  1  0  0  0  0
  4  5  1  0  0  0  0
M  END
>  <name>
N1C[C;lactam]CC1

>  <apo>
1

>  <freq>
1

>  <freq0>
0

>  <freq1>
1

>  <freqA>
0.99887151

>  <a_count>
14

$$$$

  MOE2015           2D

  6  5  0  0  1  0  0  0  0  0999 V2000
    3.3750    0.6500    0.0000 O   0  0  0  0  0  0  0  0  0  0  0  0
    2.6250   -0.6500    0.0000 C   0  0  0  0  0  0  0  0  0  0  0  0
    3.3750   -1.9490    0.0000 N   0  0  0  0  0  0  0  0  0  0  0  0
    1.1250   -0.6500    0.0000 C   0  0  1  0  0  0  0  0  0  0  0  0
    0.3750    0.6500    0.0000 N   0  0  0  0  0  0  0  0  0  0  0  0
    0.3750   -1.9490    0.0000 C   0  0  0  0  0  0  0  0  0  0  0  0
  1  2  2  0  0  0  0
  2  3  1  0  0  0  0
  2  4  1  0  0  0  0
  4  5  1  6  0  0  0
  4  6  1  0  0  0  0
M  END
>  <name>
O=C(N)[C@@H](N)[C;amine]

>  <apo>
1

>  <freq>
1

>  <freq0>
0

>  <freq1>
1

>  <freqA>
0.99887151

>  <a_count>
14

$$$$

  MOE2015           2D

  7  7  0  0  0  0  0  0  0  0999 V2000
    3.7190   -0.6910    0.0000 O   0  0  0  0  0  0  0  0  0  0  0  0
    3.3310    0.7580    0.0000 C   0  0  0  0  0  0  0  0  0  0  0  0
    4.3920    1.8190    0.0000 O   0  0  0  0  0  0  0  0  0  0  0  0
    1.8820    1.1470    0.0000 C   0  0  0  0  0  0  0  0  0  0  0  0
    1.1320    2.4460    0.0000 C   0  0  0  0  0  0  0  0  0  0  0  0
   -0.1670    1.6960    0.0000 N   0  0  0  0  0  0  0  0  0  0  0  0
    0.5830    0.3970    0.0000 C   0  0  0  0  0  0  0  0  0  0  0  0
  1  2  2  0  0  0  0
  2  3  1  0  0  0  0
  2  4  1  0  0  0  0
  4  5  1  0  0  0  0
  4  7  1  0  0  0  0
  5  6  1  0  0  0  0
  6  7  1  0  0  0  0
M  END
>  <name>
O=C(O)C1C[N;amine]C1

>  <apo>
1

>  <freq>
1

>  <freq0>
0

>  <freq1>
1

>  <freqA>
0.99887151

>  <a_count>
14

$$$$

  MOE2015           2D

  6  5  0  0  0  0  0  0  0  0999 V2000
   -0.0070   -1.2750    0.0000 O   0  0  0  0  0  0  0  0  0  0  0  0
    1.2920   -0.5250    0.0000 C   0  0  0  0  0  0  0  0  0  0  0  0
    1.2920    0.9750    0.0000 O   0  0  0  0  0  0  0  0  0  0  0  0
    2.5920   -1.2750    0.0000 C   0  0  0  0  0  0  0  0  0  0  0  0
    3.8910   -0.5250    0.0000 C   0  0  0  0  0  0  0  0  0  0  0  0
    5.1900   -1.2750    0.0000 C   0  0  0  0  0  0  0  0  0  0  0  0
  1  2  2  0  0  0  0
  2  3  1  0  0  0  0
  2  4  1  0  0  0  0
  4  5  1  0  0  0  0
  5  6  1  0  0  0  0
M  END
>  <name>
O=C(O)CC[C;olefin]

>  <apo>
1

>  <freq>
1

>  <freq0>
0

>  <freq1>
1

>  <freqA>
0.99887151

>  <a_count>
14

$$$$

  MOE2015           2D

  9  9  0  0  0  0  0  0  0  0999 V2000
    4.8870   -2.8220    0.0000 O   0  0  0  0  0  0  0  0  0  0  0  0
    4.1370   -1.5230    0.0000 C   0  0  0  0  0  0  0  0  0  0  0  0
    4.8870   -0.2230    0.0000 O   0  0  0  0  0  0  0  0  0  0  0  0
    2.6370   -1.5230    0.0000 C   0  0  0  0  0  0  0  0  0  0  0  0
    1.7550   -0.3090    0.0000 C   0  0  0  0  0  0  0  0  0  0  0  0
    2.2190    1.1180    0.0000 C   0  0  0  0  0  0  0  0  0  0  0  0
    0.3290   -0.7730    0.0000 N   0  0  0  0  0  0  0  0  0  0  0  0
    0.3290   -2.2730    0.0000 C   0  0  0  0  0  0  0  0  0  0  0  0
    1.7550   -2.7360    0.0000 S   0  0  0  0  0  0  0  0  0  0  0  0
  1  2  2  0  0  0  0
  2  3  1  0  0  0  0
  2  4  1  0  0  0  0
  4  5  2  0  0  0  0
  4  9  1  0  0  0  0
  5  6  1  0  0  0  0
  5  7  1  0  0  0  0
  7  8  2  0  0  0  0
  8  9  1  0  0  0  0
M  END
>  <name>
O=C(O)c1c(C)n[c;biphenyl]s1

>  <apo>
1

>  <freq>
1

>  <freq0>
0

>  <freq1>
1

>  <freqA>
0.99887151

>  <a_count>
14

$$$$

  MOE2015           2D

  6  5  0  0  0  0  0  0  0  0999 V2000
    1.5000    1.5000    0.0000 O   0  0  0  0  0  0  0  0  0  0  0  0
    1.5000    0.0000    0.0000 C   0  0  0  0  0  0  0  0  0  0  0  0
    2.7990   -0.7500    0.0000 O   0  0  0  0  0  0  0  0  0  0  0  0
    4.0980    0.0000    0.0000 C   0  0  0  0  0  0  0  0  0  0  0  0
    0.2010   -0.7500    0.0000 C   0  0  0  0  0  0  0  0  0  0  0  0
   -1.0980    0.0000    0.0000 C   0  0  0  0  0  0  0  0  0  0  0  0
  1  2  2  0  0  0  0
  2  3  1  0  0  0  0
  2  5  1  0  0  0  0
  3  4  1  0  0  0  0
  5  6  1  0  0  0  0
M  END
>  <name>
O=C(OC)C[C;amine]

>  <apo>
1

>  <freq>
1

>  <freq0>
0

>  <freq1>
1

>  <freqA>
0.99887151

>  <a_count>
14

$$$$

  MOE2015           2D

  7  6  0  0  1  0  0  0  0  0999 V2000
    0.0800   -0.3000    0.0000 O   0  0  0  0  0  0  0  0  0  0  0  0
    1.3800    0.4500    0.0000 C   0  0  0  0  0  0  0  0  0  0  0  0
    1.3800    1.9500    0.0000 O   0  5  0  0  0  0  0  0  0  0  0  0
    2.6790   -0.3000    0.0000 C   0  0  0  0  0  0  0  0  0  0  0  0
    3.9780    0.4500    0.0000 C   0  0  2  0  0  0  0  0  0  0  0  0
    5.2770   -0.3000    0.0000 O   0  0  0  0  0  0  0  0  0  0  0  0
    3.9780    1.9500    0.0000 C   0  0  0  0  0  0  0  0  0  0  0  0
  1  2  2  0  0  0  0
  2  3  1  0  0  0  0
  2  4  1  0  0  0  0
  4  5  1  0  0  0  0
  5  6  1  1  0  0  0
  5  7  1  0  0  0  0
M  CHG  1   3  -1
M  END
>  <name>
O=C([O-])C[C@H](O)[C;quatN]

>  <apo>
1

>  <freq>
1

>  <freq0>
0

>  <freq1>
1

>  <freqA>
0.99887151

>  <a_count>
14

$$$$

  MOE2015           2D

  7  6  0  0  1  0  0  0  0  0999 V2000
    0.0800   -0.3000    0.0000 O   0  0  0  0  0  0  0  0  0  0  0  0
    1.3800    0.4500    0.0000 C   0  0  0  0  0  0  0  0  0  0  0  0
    1.3800    1.9500    0.0000 O   0  5  0  0  0  0  0  0  0  0  0  0
    2.6790   -0.3000    0.0000 C   0  0  0  0  0  0  0  0  0  0  0  0
    3.9780    0.4500    0.0000 C   0  0  2  0  0  0  0  0  0  0  0  0
    5.2770   -0.3000    0.0000 O   0  0  0  0  0  0  0  0  0  0  0  0
    3.9780    1.9500    0.0000 C   0  0  0  0  0  0  0  0  0  0  0  0
  1  2  2  0  0  0  0
  2  3  1  0  0  0  0
  2  4  1  0  0  0  0
  4  5  1  0  0  0  0
  5  6  1  1  0  0  0
  5  7  1  0  0  0  0
M  CHG  1   3  -1
M  END
>  <name>
O=C([O-])C[C@H]([O;ester])[C;quatN]

>  <apo>
2

>  <freq>
1

>  <freq0>
0

>  <freq1>
1

>  <freqA>
0.99887151

>  <a_count>
14

$$$$

  MOE2015           2D

  7  7  0  0  1  0  0  0  0  0999 V2000
    0.6530   -1.2550    0.0000 O   0  0  0  0  0  0  0  0  0  0  0  0
    1.8660   -0.3730    0.0000 C   0  0  0  0  0  0  0  0  0  0  0  0
    1.8660    1.1270    0.0000 C   0  0  3  0  0  0  0  0  0  0  0  0
    0.6530    2.0090    0.0000 N   0  0  0  0  0  0  0  0  0  0  0  0
    3.2930    1.5910    0.0000 C   0  0  0  0  0  0  0  0  0  0  0  0
    4.1740    0.3770    0.0000 C   0  0  0  0  0  0  0  0  0  0  0  0
    3.2930   -0.8360    0.0000 S   0  0  0  0  0  0  0  0  0  0  0  0
  1  2  2  0  0  0  0
  2  3  1  0  0  0  0
  2  7  1  0  0  0  0
  3  4  1  0  0  0  0
  3  5  1  0  0  0  0
  5  6  1  0  0  0  0
  6  7  1  0  0  0  0
M  END
>  <name>
O=C1C([N;amide])CCS1

>  <apo>
1

>  <freq>
1

>  <freq0>
0

>  <freq1>
1

>  <freqA>
0.99887151

>  <a_count>
14

$$$$

  MOE2015           2D

 10 11  0  0  0  0  0  0  0  0999 V2000
    0.5660    0.9790    0.0000 O   0  0  0  0  0  0  0  0  0  0  0  0
    1.3160   -0.3200    0.0000 C   0  0  0  0  0  0  0  0  0  0  0  0
    0.5660   -1.6190    0.0000 N   0  0  0  0  0  0  0  0  0  0  0  0
    1.3160   -2.9180    0.0000 C   0  0  0  0  0  0  0  0  0  0  0  0
    2.8160   -2.9180    0.0000 N   0  0  0  0  0  0  0  0  0  0  0  0
    3.5660   -1.6190    0.0000 C   0  0  0  0  0  0  0  0  0  0  0  0
    5.0330   -1.3070    0.0000 N   0  0  0  0  0  0  0  0  0  0  0  0
    5.1900    0.1850    0.0000 C   0  0  0  0  0  0  0  0  0  0  0  0
    3.8190    0.7950    0.0000 N   0  0  0  0  0  0  0  0  0  0  0  0
    2.8160   -0.3200    0.0000 C   0  0  0  0  0  0  0  0  0  0  0  0
  1  2  2  0  0  0  0
  2  3  1  0  0  0  0
  2 10  1  0  0  0  0
  3  4  2  0  0  0  0
  4  5  1  0  0  0  0
  5  6  1  0  0  0  0
  6  7  1  0  0  0  0
  6 10  2  0  0  0  0
  7  8  1  0  0  0  0
  8  9  2  0  0  0  0
  9 10  1  0  0  0  0
M  END
>  <name>
O=C1N=CNc2[nH;NaroC]cnc12

>  <apo>
1

>  <freq>
1

>  <freq0>
0

>  <freq1>
1

>  <freqA>
0.99887151

>  <a_count>
14

$$$$

  MOE2015           2D

 10 11  0  0  0  0  0  0  0  0999 V2000
    0.5660    0.9790    0.0000 O   0  0  0  0  0  0  0  0  0  0  0  0
    1.3160   -0.3200    0.0000 C   0  0  0  0  0  0  0  0  0  0  0  0
    0.5660   -1.6190    0.0000 N   0  0  0  0  0  0  0  0  0  0  0  0
    1.3160   -2.9180    0.0000 C   0  0  0  0  0  0  0  0  0  0  0  0
    2.8160   -2.9180    0.0000 N   0  0  0  0  0  0  0  0  0  0  0  0
    3.5660   -1.6190    0.0000 C   0  0  0  0  0  0  0  0  0  0  0  0
    5.0330   -1.3070    0.0000 N   0  0  0  0  0  0  0  0  0  0  0  0
    5.1900    0.1850    0.0000 C   0  0  0  0  0  0  0  0  0  0  0  0
    3.8190    0.7950    0.0000 N   0  0  0  0  0  0  0  0  0  0  0  0
    2.8160   -0.3200    0.0000 C   0  0  0  0  0  0  0  0  0  0  0  0
  1  2  2  0  0  0  0
  2  3  1  0  0  0  0
  2 10  1  0  0  0  0
  3  4  1  0  0  0  0
  4  5  2  0  0  0  0
  5  6  1  0  0  0  0
  6  7  1  0  0  0  0
  6 10  2  0  0  0  0
  7  8  1  0  0  0  0
  8  9  2  0  0  0  0
  9 10  1  0  0  0  0
M  END
>  <name>
O=C1NC=Nc2[nH;NaroC]cnc12

>  <apo>
1

>  <freq>
1

>  <freq0>
0

>  <freq1>
1

>  <freqA>
0.99887151

>  <a_count>
14

$$$$

  MOE2015           2D

  7  7  0  0  1  0  0  0  0  0999 V2000
    0.3090   -1.0420    0.0000 O   0  0  0  0  0  0  0  0  0  0  0  0
    1.5670   -0.2250    0.0000 C   0  0  0  0  0  0  0  0  0  0  0  0
    2.9670   -0.7630    0.0000 O   0  0  0  0  0  0  0  0  0  0  0  0
    3.9110    0.4030    0.0000 C   0  0  3  0  0  0  0  0  0  0  0  0
    5.4090    0.3250    0.0000 C   0  0  0  0  0  0  0  0  0  0  0  0
    3.0940    1.6610    0.0000 C   0  0  0  0  0  0  0  0  0  0  0  0
    1.6450    1.2730    0.0000 N   0  0  0  0  0  0  0  0  0  0  0  0
  1  2  2  0  0  0  0
  2  3  1  0  0  0  0
  2  7  1  0  0  0  0
  3  4  1  0  0  0  0
  4  5  1  0  0  0  0
  4  6  1  0  0  0  0
  6  7  1  0  0  0  0
M  END
>  <name>
O=C1OC([C;ether])CN1

>  <apo>
1

>  <freq>
1

>  <freq0>
0

>  <freq1>
1

>  <freqA>
0.99887151

>  <a_count>
14

$$$$

  MOE2015           2D

  6  5  0  0  1  0  0  0  0  0999 V2000
    5.5650   -1.4910    0.0000 O   0  0  0  0  0  0  0  0  0  0  0  0
    4.2660   -0.7410    0.0000 C   0  0  0  0  0  0  0  0  0  0  0  0
    2.9670   -1.4910    0.0000 C   0  0  0  0  0  0  0  0  0  0  0  0
    1.6670   -0.7410    0.0000 C   0  0  3  0  0  0  0  0  0  0  0  0
    0.3680   -1.4910    0.0000 O   0  0  0  0  0  0  0  0  0  0  0  0
    1.6670    0.7590    0.0000 C   0  0  0  0  0  0  0  0  0  0  0  0
  1  2  2  0  0  0  0
  2  3  1  0  0  0  0
  3  4  1  0  0  0  0
  4  5  1  0  0  0  0
  4  6  1  0  0  0  0
M  END
>  <name>
O=[C;amide]CC(O)C

>  <apo>
1

>  <freq>
1

>  <freq0>
0

>  <freq1>
1

>  <freqA>
0.99887151

>  <a_count>
14

$$$$

  MOE2015           2D

  6  5  0  0  1  0  0  0  0  0999 V2000
    5.5650   -1.4910    0.0000 O   0  0  0  0  0  0  0  0  0  0  0  0
    4.2660   -0.7410    0.0000 C   0  0  0  0  0  0  0  0  0  0  0  0
    2.9670   -1.4910    0.0000 C   0  0  0  0  0  0  0  0  0  0  0  0
    1.6670   -0.7410    0.0000 C   0  0  1  0  0  0  0  0  0  0  0  0
    0.3680   -1.4910    0.0000 O   0  0  0  0  0  0  0  0  0  0  0  0
    1.6670    0.7590    0.0000 C   0  0  0  0  0  0  0  0  0  0  0  0
  1  2  2  0  0  0  0
  2  3  1  0  0  0  0
  3  4  1  0  0  0  0
  4  5  1  0  0  0  0
  4  6  1  1  0  0  0
M  END
>  <name>
O=[C;amide]C[C@@H]([O;ester])[C;olefin]

>  <apo>
3

>  <freq>
1

>  <freq0>
0

>  <freq1>
1

>  <freqA>
0.99887151

>  <a_count>
14

$$$$

  MOE2015           2D

  9  9  0  0  0  0  0  0  0  0999 V2000
    5.5000   -3.1750    0.0000 O   0  0  0  0  0  0  0  0  0  0  0  0
    4.7500   -1.8760    0.0000 C   0  0  0  0  0  0  0  0  0  0  0  0
    3.2500   -1.8760    0.0000 C   0  0  0  0  0  0  0  0  0  0  0  0
    2.5000   -0.5770    0.0000 C   0  0  0  0  0  0  0  0  0  0  0  0
    3.2500    0.7220    0.0000 O   0  0  0  0  0  0  0  0  0  0  0  0
    1.0000   -0.5770    0.0000 C   0  0  0  0  0  0  0  0  0  0  0  0
    0.2500   -1.8760    0.0000 C   0  0  0  0  0  0  0  0  0  0  0  0
    1.0000   -3.1750    0.0000 C   0  0  0  0  0  0  0  0  0  0  0  0
    2.5000   -3.1750    0.0000 N   0  0  0  0  0  0  0  0  0  0  0  0
  1  2  2  0  0  0  0
  2  3  1  0  0  0  0
  3  4  1  0  0  0  0
  3  9  2  0  0  0  0
  4  5  1  0  0  0  0
  4  6  2  0  0  0  0
  6  7  1  0  0  0  0
  7  8  2  0  0  0  0
  8  9  1  0  0  0  0
M  END
>  <name>
O=[C;amide]c1c(O)cccn1

>  <apo>
1

>  <freq>
1

>  <freq0>
0

>  <freq1>
1

>  <freqA>
0.99887151

>  <a_count>
14

$$$$

  MOE2015           2D

  9  9  0  0  0  0  0  0  0  0999 V2000
    6.0000   -3.4640    0.0000 O   0  0  0  0  0  0  0  0  0  0  0  0
    5.2500   -2.1650    0.0000 C   0  0  0  0  0  0  0  0  0  0  0  0
    3.7500   -2.1650    0.0000 C   0  0  0  0  0  0  0  0  0  0  0  0
    3.0000   -0.8660    0.0000 C   0  0  0  0  0  0  0  0  0  0  0  0
    1.5000   -0.8660    0.0000 N   0  0  0  0  0  0  0  0  0  0  0  0
    0.7500   -2.1650    0.0000 C   0  0  0  0  0  0  0  0  0  0  0  0
   -0.7500   -2.1650    0.0000 N   0  0  0  0  0  0  0  0  0  0  0  0
    1.5000   -3.4640    0.0000 N   0  0  0  0  0  0  0  0  0  0  0  0
    3.0000   -3.4640    0.0000 C   0  0  0  0  0  0  0  0  0  0  0  0
  1  2  2  0  0  0  0
  2  3  1  0  0  0  0
  3  4  1  0  0  0  0
  3  9  2  0  0  0  0
  4  5  2  0  0  0  0
  5  6  1  0  0  0  0
  6  7  1  0  0  0  0
  6  8  2  0  0  0  0
  8  9  1  0  0  0  0
M  END
>  <name>
O=[C;amide]c1cnc(N)nc1

>  <apo>
1

>  <freq>
1

>  <freq0>
0

>  <freq1>
1

>  <freqA>
0.99887151

>  <a_count>
14

$$$$

  MOE2015           2D

  6  5  0  0  1  0  0  0  0  0999 V2000
    5.5650   -1.4910    0.0000 O   0  0  0  0  0  0  0  0  0  0  0  0
    4.2660   -0.7410    0.0000 C   0  0  0  0  0  0  0  0  0  0  0  0
    2.9670   -1.4910    0.0000 C   0  0  0  0  0  0  0  0  0  0  0  0
    1.6670   -0.7410    0.0000 C   0  0  2  0  0  0  0  0  0  0  0  0
    0.3680   -1.4910    0.0000 O   0  0  0  0  0  0  0  0  0  0  0  0
    1.6670    0.7590    0.0000 C   0  0  0  0  0  0  0  0  0  0  0  0
  1  2  2  0  0  0  0
  2  3  1  0  0  0  0
  3  4  1  0  0  0  0
  4  5  1  0  0  0  0
  4  6  1  6  0  0  0
M  END
>  <name>
O=[C;ester]C[C@H](O)[C;ether]

>  <apo>
2

>  <freq>
1

>  <freq0>
0

>  <freq1>
1

>  <freqA>
0.99887151

>  <a_count>
14

$$$$

  MOE2015           2D

  6  5  0  0  0  0  0  0  0  0999 V2000
    1.5000    1.5000    0.0000 O   0  0  0  0  0  0  0  0  0  0  0  0
    1.5000    0.0000    0.0000 C   0  0  0  0  0  0  0  0  0  0  0  0
    0.2010   -0.7500    0.0000 C   0  0  0  0  0  0  0  0  0  0  0  0
   -1.0980    0.0000    0.0000 O   0  0  0  0  0  0  0  0  0  0  0  0
    2.7990   -0.7500    0.0000 C   0  0  0  0  0  0  0  0  0  0  0  0
    4.0980    0.0000    0.0000 O   0  0  0  0  0  0  0  0  0  0  0  0
  1  2  1  0  0  0  0
  2  3  1  0  0  0  0
  2  5  1  0  0  0  0
  3  4  1  0  0  0  0
  5  6  1  0  0  0  0
M  END
>  <name>
OC(CO)C[O;ester]

>  <apo>
1

>  <freq>
1

>  <freq0>
0

>  <freq1>
1

>  <freqA>
0.99887151

>  <a_count>
14

$$$$

  MOE2015           2D

  5  4  0  0  1  0  0  0  0  0999 V2000
    3.8780   -1.0390    0.0000 O   0  0  0  0  0  0  0  0  0  0  0  0
    2.5790   -1.7890    0.0000 C   0  0  0  0  0  0  0  0  0  0  0  0
    1.2800   -1.0390    0.0000 C   0  0  1  0  0  0  0  0  0  0  0  0
   -0.0190   -1.7890    0.0000 N   0  0  0  0  0  0  0  0  0  0  0  0
    1.2800    0.4610    0.0000 C   0  0  0  0  0  0  0  0  0  0  0  0
  1  2  1  0  0  0  0
  2  3  1  0  0  0  0
  3  4  1  0  0  0  0
  3  5  1  1  0  0  0
M  END
>  <name>
OC[C@@H]([N;amide])C

>  <apo>
1

>  <freq>
1

>  <freq0>
0

>  <freq1>
1

>  <freqA>
0.99887151

>  <a_count>
14

$$$$

  MOE2015           2D

  8  8  0  0  0  0  0  0  0  0999 V2000
    5.4110   -0.8000    0.0000 O   0  0  0  0  0  0  0  0  0  0  0  0
    4.1120   -0.0500    0.0000 C   0  0  0  0  0  0  0  0  0  0  0  0
    2.8120   -0.8000    0.0000 C   0  0  0  0  0  0  0  0  0  0  0  0
    1.5130   -0.0500    0.0000 C   0  0  0  0  0  0  0  0  0  0  0  0
    0.2140   -0.8000    0.0000 O   0  0  0  0  0  0  0  0  0  0  0  0
    1.5130    1.4500    0.0000 C   0  0  0  0  0  0  0  0  0  0  0  0
    2.8120    2.2000    0.0000 C   0  0  0  0  0  0  0  0  0  0  0  0
    4.1120    1.4500    0.0000 C   0  0  0  0  0  0  0  0  0  0  0  0
  1  2  1  0  0  0  0
  2  3  1  0  0  0  0
  2  8  2  0  0  0  0
  3  4  2  0  0  0  0
  4  5  1  0  0  0  0
  4  6  1  0  0  0  0
  6  7  2  0  0  0  0
  7  8  1  0  0  0  0
M  END
>  <name>
Oc1cc([O;ester])ccc1

>  <apo>
1

>  <freq>
1

>  <freq0>
0

>  <freq1>
1

>  <freqA>
0.99887151

>  <a_count>
14

$$$$

  MOE2015           2D

  6  5  0  0  0  0  0  0  0  0999 V2000
   -0.2170   -0.3750    0.0000 S   0  0  0  0  0  0  0  0  0  0  0  0
    0.5330   -1.6740    0.0000 O   0  0  0  0  0  0  0  0  0  0  0  0
   -0.9670    0.9240    0.0000 O   0  0  0  0  0  0  0  0  0  0  0  0
    1.0830    0.3750    0.0000 C   0  0  0  0  0  0  0  0  0  0  0  0
    2.3820   -0.3750    0.0000 C   0  0  0  0  0  0  0  0  0  0  0  0
   -1.5160   -1.1250    0.0000 C   0  0  0  0  0  0  0  0  0  0  0  0
  1  2  2  0  0  0  0
  1  3  2  0  0  0  0
  1  4  1  0  0  0  0
  1  6  1  0  0  0  0
  4  5  1  0  0  0  0
M  END
>  <name>
S(=O)(=O)(C[C;amine])C

>  <apo>
1

>  <freq>
1

>  <freq0>
0

>  <freq1>
1

>  <freqA>
0.99887151

>  <a_count>
14

$$$$

  MOE2015           2D

 10 10  0  0  0  0  0  0  0  0999 V2000
   -1.5790   -1.6000    0.0000 S   0  0  0  0  0  0  0  0  0  0  0  0
   -1.5590   -3.1000    0.0000 O   0  0  0  0  0  0  0  0  0  0  0  0
   -1.5990   -0.1000    0.0000 O   0  0  0  0  0  0  0  0  0  0  0  0
   -3.0790   -1.6200    0.0000 N   0  0  0  0  0  0  0  0  0  0  0  0
   -0.0790   -1.5800    0.0000 C   0  0  0  0  0  0  0  0  0  0  0  0
    0.8190   -2.7820    0.0000 S   0  0  0  0  0  0  0  0  0  0  0  0
    2.2390   -2.3000    0.0000 C   0  0  0  0  0  0  0  0  0  0  0  0
    3.4640   -3.1650    0.0000 N   0  0  0  0  0  0  0  0  0  0  0  0
    2.2190   -0.8000    0.0000 N   0  0  0  0  0  0  0  0  0  0  0  0
    0.7860   -0.3550    0.0000 N   0  0  0  0  0  0  0  0  0  0  0  0
  1  2  2  0  0  0  0
  1  3  2  0  0  0  0
  1  4  1  0  0  0  0
  1  5  1  0  0  0  0
  5  6  1  0  0  0  0
  5 10  2  0  0  0  0
  6  7  1  0  0  0  0
  7  8  1  0  0  0  0
  7  9  2  0  0  0  0
  9 10  1  0  0  0  0
M  END
>  <name>
S(=O)(=O)(N)c1sc([N;amide])nn1

>  <apo>
1

>  <freq>
1

>  <freq0>
0

>  <freq1>
1

>  <freqA>
0.99887151

>  <a_count>
14

$$$$

  MOE2015           2D

  7  6  0  0  0  0  0  0  0  0999 V2000
    1.0140    0.2720    0.0000 S   0  0  0  0  0  0  0  0  0  0  0  0
   -0.2850   -0.4780    0.0000 P   0  0  0  0  0  0  0  0  0  0  0  0
    0.4650   -1.7770    0.0000 O   0  0  0  0  0  0  0  0  0  0  0  0
   -1.0350    0.8210    0.0000 O   0  0  0  0  0  0  0  0  0  0  0  0
   -1.5840   -1.2280    0.0000 O   0  0  0  0  0  0  0  0  0  0  0  0
    2.3130   -0.4780    0.0000 C   0  0  0  0  0  0  0  0  0  0  0  0
    3.6120    0.2720    0.0000 C   0  0  0  0  0  0  0  0  0  0  0  0
  1  2  1  0  0  0  0
  1  6  1  0  0  0  0
  2  3  2  0  0  0  0
  2  4  1  0  0  0  0
  2  5  1  0  0  0  0
  6  7  1  0  0  0  0
M  END
>  <name>
S(P(=O)(O)O)C[C;amine]

>  <apo>
1

>  <freq>
1

>  <freq0>
0

>  <freq1>
1

>  <freqA>
0.99887151

>  <a_count>
14

$$$$

  MOE2015           2D

  6  5  0  0  1  0  0  0  0  0999 V2000
    4.8480   -1.2990    0.0000 S   0  0  0  0  0  0  0  0  0  0  0  0
    3.5490   -2.0490    0.0000 C   0  0  0  0  0  0  0  0  0  0  0  0
    2.2500   -1.2990    0.0000 C   0  0  2  0  0  0  0  0  0  0  0  0
    0.9510   -2.0490    0.0000 C   0  0  0  0  0  0  0  0  0  0  0  0
   -0.3480   -1.2990    0.0000 O   0  0  0  0  0  0  0  0  0  0  0  0
    2.2500    0.2010    0.0000 C   0  0  0  0  0  0  0  0  0  0  0  0
  1  2  1  0  0  0  0
  2  3  1  0  0  0  0
  3  4  1  0  0  0  0
  3  6  1  6  0  0  0
  4  5  2  0  0  0  0
M  END
>  <name>
SC[C@H]([C;amide]=O)C

>  <apo>
1

>  <freq>
1

>  <freq0>
0

>  <freq1>
1

>  <freqA>
0.99887151

>  <a_count>
14

$$$$

  MOE2015           2D

  7  6  0  0  1  0  0  0  0  0999 V2000
    5.3550   -0.7920    0.0000 S   0  0  0  0  0  0  0  0  0  0  0  0
    4.0560   -1.5420    0.0000 C   0  0  0  0  0  0  0  0  0  0  0  0
    2.7570   -0.7920    0.0000 C   0  0  2  0  0  0  0  0  0  0  0  0
    2.7570    0.7080    0.0000 N   0  0  0  0  0  0  0  0  0  0  0  0
    1.4580   -1.5420    0.0000 C   0  0  0  0  0  0  0  0  0  0  0  0
    1.4580   -3.0420    0.0000 O   0  0  0  0  0  0  0  0  0  0  0  0
    0.1590   -0.7920    0.0000 O   0  0  0  0  0  0  0  0  0  0  0  0
  1  2  1  0  0  0  0
  2  3  1  0  0  0  0
  3  4  1  1  0  0  0
  3  5  1  0  0  0  0
  5  6  2  0  0  0  0
  5  7  1  0  0  0  0
M  END
>  <name>
SC[C@H]([N;amide])C(=O)O

>  <apo>
1

>  <freq>
1

>  <freq0>
0

>  <freq1>
1

>  <freqA>
0.99887151

>  <a_count>
14

$$$$

  MOE2015           2D

  7  7  0  0  0  0  0  0  0  0999 V2000
    5.1430    0.0000    0.0000 C   0  0  0  0  0  0  0  0  0  0  0  0
    3.6430    0.0000    0.0000 C   0  0  0  0  0  0  0  0  0  0  0  0
    2.8930    1.2990    0.0000 C   0  0  0  0  0  0  0  0  0  0  0  0
    1.3930    1.2990    0.0000 N   0  0  0  0  0  0  0  0  0  0  0  0
    0.6430    0.0000    0.0000 C   0  0  0  0  0  0  0  0  0  0  0  0
    1.3930   -1.2990    0.0000 C   0  0  0  0  0  0  0  0  0  0  0  0
    2.8930   -1.2990    0.0000 C   0  0  0  0  0  0  0  0  0  0  0  0
  1  2  1  0  0  0  0
  2  3  1  0  0  0  0
  2  7  2  0  0  0  0
  3  4  2  0  0  0  0
  4  5  1  0  0  0  0
  5  6  2  0  0  0  0
  6  7  1  0  0  0  0
M  END
>  <name>
[C;amine]c1cnccc1

>  <apo>
1

>  <freq>
1

>  <freq0>
0

>  <freq1>
1

>  <freqA>
0.99887151

>  <a_count>
14

$$$$

  MOE2015           2D

  7  7  0  0  0  0  0  0  0  0999 V2000
    0.3090   -1.5080    0.0000 C   0  0  0  0  0  0  0  0  0  0  0  0
    1.5670   -0.6910    0.0000 C   0  0  0  0  0  0  0  0  0  0  0  0
    1.6450    0.8070    0.0000 S   0  0  0  0  0  0  0  0  0  0  0  0
    3.0940    1.1950    0.0000 C   0  0  0  0  0  0  0  0  0  0  0  0
    3.9110   -0.0630    0.0000 C   0  0  0  0  0  0  0  0  0  0  0  0
    5.4090   -0.1420    0.0000 C   0  0  0  0  0  0  0  0  0  0  0  0
    2.9670   -1.2290    0.0000 N   0  0  0  0  0  0  0  0  0  0  0  0
  1  2  1  0  0  0  0
  2  3  1  0  0  0  0
  2  7  2  0  0  0  0
  3  4  1  0  0  0  0
  4  5  2  0  0  0  0
  5  6  1  0  0  0  0
  5  7  1  0  0  0  0
M  END
>  <name>
[C;amine]c1scc([C;thioether])n1

>  <apo>
2

>  <freq>
1

>  <freq0>
0

>  <freq1>
1

>  <freqA>
0.99887151

>  <a_count>
14

$$$$

  MOE2015           2D

  7  7  0  0  0  0  0  0  0  0999 V2000
    5.1430    0.0000    0.0000 C   0  0  0  0  0  0  0  0  0  0  0  0
    3.6430    0.0000    0.0000 C   0  0  0  0  0  0  0  0  0  0  0  0
    2.8930    1.2990    0.0000 C   0  0  0  0  0  0  0  0  0  0  0  0
    1.3930    1.2990    0.0000 N   0  0  0  0  0  0  0  0  0  0  0  0
    0.6430    0.0000    0.0000 C   0  0  0  0  0  0  0  0  0  0  0  0
    1.3930   -1.2990    0.0000 C   0  0  0  0  0  0  0  0  0  0  0  0
    2.8930   -1.2990    0.0000 C   0  0  0  0  0  0  0  0  0  0  0  0
  1  2  1  0  0  0  0
  2  3  1  0  0  0  0
  2  7  2  0  0  0  0
  3  4  2  0  0  0  0
  4  5  1  0  0  0  0
  5  6  2  0  0  0  0
  6  7  1  0  0  0  0
M  END
>  <name>
[C;ether]c1[c;biphenyl]nccc1

>  <apo>
2

>  <freq>
1

>  <freq0>
0

>  <freq1>
1

>  <freqA>
0.99887151

>  <a_count>
14

$$$$

  MOE2015           2D

  7  7  0  0  0  0  0  0  0  0999 V2000
    5.1430    0.0000    0.0000 C   0  0  0  0  0  0  0  0  0  0  0  0
    3.6430    0.0000    0.0000 C   0  0  0  0  0  0  0  0  0  0  0  0
    2.8930    1.2990    0.0000 N   0  0  0  0  0  0  0  0  0  0  0  0
    1.3930    1.2990    0.0000 C   0  0  0  0  0  0  0  0  0  0  0  0
    0.6430    0.0000    0.0000 C   0  0  0  0  0  0  0  0  0  0  0  0
    1.3930   -1.2990    0.0000 C   0  0  0  0  0  0  0  0  0  0  0  0
    2.8930   -1.2990    0.0000 C   0  0  0  0  0  0  0  0  0  0  0  0
  1  2  1  0  0  0  0
  2  3  1  0  0  0  0
  2  7  2  0  0  0  0
  3  4  2  0  0  0  0
  4  5  1  0  0  0  0
  5  6  2  0  0  0  0
  6  7  1  0  0  0  0
M  END
>  <name>
[C;ether]c1ncccc1

>  <apo>
1

>  <freq>
1

>  <freq0>
0

>  <freq1>
1

>  <freqA>
0.99887151

>  <a_count>
14

$$$$

  MOE2015           2D

  6  6  0  0  0  0  0  0  0  0999 V2000
   -2.0490    2.0490    0.0000 C   0  0  0  0  0  0  0  0  0  0  0  0
   -2.0490    0.5490    0.0000 C   0  0  0  0  0  0  0  0  0  0  0  0
   -0.7500   -0.2010    0.0000 C   0  0  0  0  0  0  0  0  0  0  0  0
    0.5490    0.5490    0.0000 C   0  0  0  0  0  0  0  0  0  0  0  0
    0.5490    2.0490    0.0000 C   0  0  0  0  0  0  0  0  0  0  0  0
   -0.7500    2.7990    0.0000 C   0  0  0  0  0  0  0  0  0  0  0  0
  1  2  1  0  0  0  0
  1  6  2  0  0  0  0
  2  3  2  0  0  0  0
  3  4  1  0  0  0  0
  4  5  1  0  0  0  0
  5  6  1  0  0  0  0
M  END
>  <name>
[C;olefin]=1C=CCCC=1

>  <apo>
1

>  <freq>
1

>  <freq0>
0

>  <freq1>
1

>  <freqA>
0.99887151

>  <a_count>
14

$$$$

  MOE2015           2D

  7  7  0  0  0  0  0  0  0  0999 V2000
    0.6530   -1.2550    0.0000 C   0  0  0  0  0  0  0  0  0  0  0  0
    1.8660   -0.3730    0.0000 C   0  0  0  0  0  0  0  0  0  0  0  0
    1.8660    1.1270    0.0000 C   0  0  0  0  0  0  0  0  0  0  0  0
    0.6530    2.0090    0.0000 C   0  0  0  0  0  0  0  0  0  0  0  0
    3.2930    1.5910    0.0000 N   0  0  0  0  0  0  0  0  0  0  0  0
    4.1740    0.3770    0.0000 C   0  0  0  0  0  0  0  0  0  0  0  0
    3.2930   -0.8360    0.0000 S   0  0  0  0  0  0  0  0  0  0  0  0
  1  2  1  0  0  0  0
  2  3  2  0  0  0  0
  2  7  1  0  0  0  0
  3  4  1  0  0  0  0
  3  5  1  0  0  0  0
  5  6  2  0  0  0  0
  6  7  1  0  0  0  0
M  END
>  <name>
[C;olefin]c1c(C)ncs1

>  <apo>
1

>  <freq>
1

>  <freq0>
0

>  <freq1>
1

>  <freqA>
0.99887151

>  <a_count>
14

$$$$

  MOE2015           2D

  7  7  0  0  0  0  0  0  0  0999 V2000
    5.1430    0.0000    0.0000 C   0  0  0  0  0  0  0  0  0  0  0  0
    3.6430    0.0000    0.0000 C   0  0  0  0  0  0  0  0  0  0  0  0
    2.8930    1.2990    0.0000 N   0  0  0  0  0  0  0  0  0  0  0  0
    1.3930    1.2990    0.0000 C   0  0  0  0  0  0  0  0  0  0  0  0
    0.6430    0.0000    0.0000 C   0  0  0  0  0  0  0  0  0  0  0  0
    1.3930   -1.2990    0.0000 C   0  0  0  0  0  0  0  0  0  0  0  0
    2.8930   -1.2990    0.0000 C   0  0  0  0  0  0  0  0  0  0  0  0
  1  2  1  0  0  0  0
  2  3  1  0  0  0  0
  2  7  2  0  0  0  0
  3  4  2  0  0  0  0
  4  5  1  0  0  0  0
  5  6  2  0  0  0  0
  6  7  1  0  0  0  0
M  END
>  <name>
[C;olefin]c1nc[c;biphenyl]cc1

>  <apo>
2

>  <freq>
1

>  <freq0>
0

>  <freq1>
1

>  <freqA>
0.99887151

>  <a_count>
14

$$$$

  MOE2015           2D

  7  7  0  0  0  0  0  0  0  0999 V2000
    5.1430    0.0000    0.0000 C   0  0  0  0  0  0  0  0  0  0  0  0
    3.6430    0.0000    0.0000 C   0  0  0  0  0  0  0  0  0  0  0  0
    2.8930    1.2990    0.0000 N   0  0  0  0  0  0  0  0  0  0  0  0
    1.3930    1.2990    0.0000 C   0  0  0  0  0  0  0  0  0  0  0  0
    0.6430    0.0000    0.0000 C   0  0  0  0  0  0  0  0  0  0  0  0
    1.3930   -1.2990    0.0000 C   0  0  0  0  0  0  0  0  0  0  0  0
    2.8930   -1.2990    0.0000 C   0  0  0  0  0  0  0  0  0  0  0  0
  1  2  1  0  0  0  0
  2  3  1  0  0  0  0
  2  7  2  0  0  0  0
  3  4  2  0  0  0  0
  4  5  1  0  0  0  0
  5  6  2  0  0  0  0
  6  7  1  0  0  0  0
M  END
>  <name>
[C;olefin]c1ncccc1

>  <apo>
1

>  <freq>
1

>  <freq0>
0

>  <freq1>
1

>  <freqA>
0.99887151

>  <a_count>
14

$$$$

  MOE2015           2D

  6  5  0  0  0  0  0  0  0  0999 V2000
    0.1990   -0.9910    0.0000 Hg  0  0  0  0  0  0  0  0  0  0  0  0
    1.4980   -1.7410    0.0000 Cl  0  0  0  0  0  0  0  0  0  0  0  0
   -1.1000   -0.2410    0.0000 C   0  0  0  0  0  0  0  0  0  0  0  0
   -2.4000   -0.9910    0.0000 C   0  0  0  0  0  0  0  0  0  0  0  0
   -3.6990   -0.2410    0.0000 C   0  0  0  0  0  0  0  0  0  0  0  0
   -4.9980   -0.9910    0.0000 N   0  0  0  0  0  0  0  0  0  0  0  0
  1  2  1  0  0  0  0
  1  3  1  0  0  0  0
  3  4  1  0  0  0  0
  4  5  1  0  0  0  0
  5  6  1  0  0  0  0
M  END
>  <name>
[Hg](Cl)C[C;ether]C[N;urea]

>  <apo>
2

>  <freq>
1

>  <freq0>
0

>  <freq1>
1

>  <freqA>
0.99887151

>  <a_count>
14

$$$$

  MOE2015           2D

  5  5  0  0  0  0  0  0  0  0999 V2000
    0.7970    1.6710    0.0000 N   0  0  0  0  0  0  0  0  0  0  0  0
    0.4090    0.2220    0.0000 C   0  0  0  0  0  0  0  0  0  0  0  0
   -1.0890    0.1430    0.0000 C   0  0  0  0  0  0  0  0  0  0  0  0
   -1.6270    1.5440    0.0000 C   0  0  0  0  0  0  0  0  0  0  0  0
   -0.4610    2.4880    0.0000 C   0  0  0  0  0  0  0  0  0  0  0  0
  1  2  1  0  0  0  0
  1  5  1  0  0  0  0
  2  3  1  0  0  0  0
  3  4  1  0  0  0  0
  4  5  1  0  0  0  0
M  END
>  <name>
[N;amide]1CC[C;NaroC]C1

>  <apo>
2

>  <freq>
1

>  <freq0>
0

>  <freq1>
1

>  <freqA>
0.99887151

>  <a_count>
14

$$$$

  MOE2015           2D

  7  7  0  0  0  0  0  0  0  0999 V2000
    5.1430    0.0000    0.0000 N   0  0  0  0  0  0  0  0  0  0  0  0
    3.6430    0.0000    0.0000 C   0  0  0  0  0  0  0  0  0  0  0  0
    2.8930    1.2990    0.0000 C   0  0  0  0  0  0  0  0  0  0  0  0
    1.3930    1.2990    0.0000 C   0  0  0  0  0  0  0  0  0  0  0  0
    0.6430    0.0000    0.0000 C   0  0  0  0  0  0  0  0  0  0  0  0
    1.3930   -1.2990    0.0000 C   0  0  0  0  0  0  0  0  0  0  0  0
    2.8930   -1.2990    0.0000 C   0  0  0  0  0  0  0  0  0  0  0  0
  1  2  1  0  0  0  0
  2  3  1  0  0  0  0
  2  7  2  0  0  0  0
  3  4  2  0  0  0  0
  4  5  1  0  0  0  0
  5  6  2  0  0  0  0
  6  7  1  0  0  0  0
M  END
>  <name>
[N;amide]c1[c;biphenyl]cccc1

>  <apo>
2

>  <freq>
1

>  <freq0>
0

>  <freq1>
1

>  <freqA>
0.99887151

>  <a_count>
14

$$$$

  MOE2015           2D

  5  5  0  0  0  0  0  0  0  0999 V2000
    0.7970    1.6710    0.0000 N   0  0  0  0  0  0  0  0  0  0  0  0
    0.4090    0.2220    0.0000 C   0  0  0  0  0  0  0  0  0  0  0  0
   -1.0890    0.1430    0.0000 C   0  0  0  0  0  0  0  0  0  0  0  0
   -1.6270    1.5440    0.0000 C   0  0  0  0  0  0  0  0  0  0  0  0
   -0.4610    2.4880    0.0000 C   0  0  0  0  0  0  0  0  0  0  0  0
  1  2  1  0  0  0  0
  1  5  1  0  0  0  0
  2  3  1  0  0  0  0
  3  4  1  0  0  0  0
  4  5  1  0  0  0  0
M  END
>  <name>
[N;so2amide]1CCCC1

>  <apo>
1

>  <freq>
1

>  <freq0>
0

>  <freq1>
1

>  <freqA>
0.99887151

>  <a_count>
14

$$$$

  MOE2015           2D

  5  5  0  0  0  0  0  0  0  0999 V2000
    4.0270   -0.5300    0.0000 N   0  0  0  0  0  0  0  0  0  0  0  0
    2.5780   -0.1420    0.0000 C   0  0  0  0  0  0  0  0  0  0  0  0
    1.2790   -0.8920    0.0000 C   0  0  0  0  0  0  0  0  0  0  0  0
    0.5290    0.4070    0.0000 C   0  0  0  0  0  0  0  0  0  0  0  0
    1.8280    1.1570    0.0000 C   0  0  0  0  0  0  0  0  0  0  0  0
  1  2  1  0  0  0  0
  2  3  1  0  0  0  0
  2  5  1  0  0  0  0
  3  4  1  0  0  0  0
  4  5  1  0  0  0  0
M  END
>  <name>
[N;so2amide]C1C[C;amine]C1

>  <apo>
2

>  <freq>
1

>  <freq0>
0

>  <freq1>
1

>  <freqA>
0.99887151

>  <a_count>
14

$$$$

  MOE2015           2D

  7  7  0  0  0  0  0  0  0  0999 V2000
    5.1430    0.0000    0.0000 N   0  0  0  0  0  0  0  0  0  0  0  0
    3.6430    0.0000    0.0000 C   0  0  0  0  0  0  0  0  0  0  0  0
    2.8930    1.2990    0.0000 C   0  0  0  0  0  0  0  0  0  0  0  0
    1.3930    1.2990    0.0000 C   0  0  0  0  0  0  0  0  0  0  0  0
    0.6430    0.0000    0.0000 C   0  0  0  0  0  0  0  0  0  0  0  0
    1.3930   -1.2990    0.0000 C   0  0  0  0  0  0  0  0  0  0  0  0
    2.8930   -1.2990    0.0000 C   0  0  0  0  0  0  0  0  0  0  0  0
  1  2  1  0  0  0  0
  2  3  1  0  0  0  0
  2  7  2  0  0  0  0
  3  4  2  0  0  0  0
  4  5  1  0  0  0  0
  5  6  2  0  0  0  0
  6  7  1  0  0  0  0
M  END
>  <name>
[N;so2amide]c1ccccc1

>  <apo>
1

>  <freq>
1

>  <freq0>
0

>  <freq1>
1

>  <freqA>
0.99887151

>  <a_count>
14

$$$$

  MOE2015           2D

  7  7  0  0  0  0  0  0  0  0999 V2000
    5.1430    0.0000    0.0000 N   0  0  0  0  0  0  0  0  0  0  0  0
    3.6430    0.0000    0.0000 C   0  0  0  0  0  0  0  0  0  0  0  0
    2.8930    1.2990    0.0000 C   0  0  0  0  0  0  0  0  0  0  0  0
    1.3930    1.2990    0.0000 C   0  0  0  0  0  0  0  0  0  0  0  0
    0.6430    0.0000    0.0000 C   0  0  0  0  0  0  0  0  0  0  0  0
    1.3930   -1.2990    0.0000 C   0  0  0  0  0  0  0  0  0  0  0  0
    2.8930   -1.2990    0.0000 C   0  0  0  0  0  0  0  0  0  0  0  0
  1  2  1  0  0  0  0
  2  3  1  0  0  0  0
  2  7  2  0  0  0  0
  3  4  2  0  0  0  0
  4  5  1  0  0  0  0
  5  6  2  0  0  0  0
  6  7  1  0  0  0  0
M  END
>  <name>
[N;urea]c1ccccc1

>  <apo>
1

>  <freq>
1

>  <freq0>
0

>  <freq1>
1

>  <freqA>
0.99887151

>  <a_count>
14

$$$$

  MOE2015           2D

  7  6  0  0  1  0  0  0  0  0999 V2000
    5.3550   -0.7920    0.0000 S   0  0  0  0  0  0  0  0  0  0  0  0
    4.0560   -1.5420    0.0000 C   0  0  0  0  0  0  0  0  0  0  0  0
    2.7570   -0.7920    0.0000 C   0  0  2  0  0  0  0  0  0  0  0  0
    2.7570    0.7080    0.0000 N   0  0  0  0  0  0  0  0  0  0  0  0
    1.4580   -1.5420    0.0000 C   0  0  0  0  0  0  0  0  0  0  0  0
    1.4580   -3.0420    0.0000 O   0  0  0  0  0  0  0  0  0  0  0  0
    0.1590   -0.7920    0.0000 O   0  0  0  0  0  0  0  0  0  0  0  0
  1  2  1  0  0  0  0
  2  3  1  0  0  0  0
  3  4  1  1  0  0  0
  3  5  1  0  0  0  0
  5  6  2  0  0  0  0
  5  7  1  0  0  0  0
M  END
>  <name>
[S;disulfide]C[C@H]([N;amide])C(=O)O

>  <apo>
2

>  <freq>
1

>  <freq0>
0

>  <freq1>
1

>  <freqA>
0.99887151

>  <a_count>
14

$$$$

  MOE2015           2D

  6  5  0  0  1  0  0  0  0  0999 V2000
    4.8480   -1.2990    0.0000 S   0  0  0  0  0  0  0  0  0  0  0  0
    3.5490   -2.0490    0.0000 C   0  0  0  0  0  0  0  0  0  0  0  0
    2.2500   -1.2990    0.0000 C   0  0  2  0  0  0  0  0  0  0  0  0
    0.9510   -2.0490    0.0000 C   0  0  0  0  0  0  0  0  0  0  0  0
   -0.3480   -1.2990    0.0000 O   0  0  0  0  0  0  0  0  0  0  0  0
    2.2500    0.2010    0.0000 C   0  0  0  0  0  0  0  0  0  0  0  0
  1  2  1  0  0  0  0
  2  3  1  0  0  0  0
  3  4  1  0  0  0  0
  3  6  1  6  0  0  0
  4  5  2  0  0  0  0
M  END
>  <name>
[S;thioester]C[C@H]([C;amide]=O)C

>  <apo>
2

>  <freq>
1

>  <freq0>
0

>  <freq1>
1

>  <freqA>
0.99887151

>  <a_count>
14

$$$$

  MOE2015           2D

  9  9  0  0  0  0  0  0  0  0999 V2000
    0.9170    1.5880    0.0000 S   0  0  0  0  0  0  0  0  0  0  0  0
    1.6670    2.8870    0.0000 O   0  0  0  0  0  0  0  0  0  0  0  0
    1.6670    0.2890    0.0000 O   0  0  0  0  0  0  0  0  0  0  0  0
   -0.5830    1.5880    0.0000 C   0  0  0  0  0  0  0  0  0  0  0  0
   -1.3330    0.2890    0.0000 C   0  0  0  0  0  0  0  0  0  0  0  0
   -2.8330    0.2890    0.0000 N   0  0  0  0  0  0  0  0  0  0  0  0
   -3.5830    1.5880    0.0000 C   0  0  0  0  0  0  0  0  0  0  0  0
   -2.8330    2.8870    0.0000 C   0  0  0  0  0  0  0  0  0  0  0  0
   -1.3330    2.8870    0.0000 C   0  0  0  0  0  0  0  0  0  0  0  0
  1  2  2  0  0  0  0
  1  3  2  0  0  0  0
  1  4  1  0  0  0  0
  4  5  1  0  0  0  0
  4  9  2  0  0  0  0
  5  6  2  0  0  0  0
  6  7  1  0  0  0  0
  7  8  2  0  0  0  0
  8  9  1  0  0  0  0
M  END
>  <name>
[SH;so2amide](=O)(=O)c1cnccc1

>  <apo>
1

>  <freq>
1

>  <freq0>
0

>  <freq1>
1

>  <freqA>
0.99887151

>  <a_count>
14

$$$$

  MOE2015           2D

  9 10  0  0  0  0  0  0  0  0999 V2000
    2.9330    0.5060    0.0000 N   0  0  0  0  0  0  0  0  0  0  0  0
    3.8140    1.7190    0.0000 N   0  0  0  0  0  0  0  0  0  0  0  0
    2.9330    2.9330    0.0000 C   0  0  0  0  0  0  0  0  0  0  0  0
    1.5060    2.4690    0.0000 C   0  0  0  0  0  0  0  0  0  0  0  0
    1.5060    0.9690    0.0000 C   0  0  0  0  0  0  0  0  0  0  0  0
    0.2070    0.2190    0.0000 N   0  0  0  0  0  0  0  0  0  0  0  0
   -1.0920    0.9690    0.0000 C   0  0  0  0  0  0  0  0  0  0  0  0
   -1.0920    2.4690    0.0000 C   0  0  0  0  0  0  0  0  0  0  0  0
    0.2070    3.2190    0.0000 C   0  0  0  0  0  0  0  0  0  0  0  0
  1  2  1  0  0  0  0
  1  5  1  0  0  0  0
  2  3  2  0  0  0  0
  3  4  1  0  0  0  0
  4  5  1  0  0  0  0
  4  9  2  0  0  0  0
  5  6  2  0  0  0  0
  6  7  1  0  0  0  0
  7  8  2  0  0  0  0
  8  9  1  0  0  0  0
M  END
>  <name>
[nH;NaroC]1n[c;biphenyl]c2c1nccc2

>  <apo>
2

>  <freq>
1

>  <freq0>
0

>  <freq1>
1

>  <freqA>
0.99887151

>  <a_count>
14

$$$$

  MOE2015           2D

  9  9  0  0  0  0  0  0  0  0999 V2000
    0.1360   -0.5060    0.0000 Br  0  0  0  0  0  0  0  0  0  0  0  0
    1.4350    0.2440    0.0000 C   0  0  0  0  0  0  0  0  0  0  0  0
    2.7340   -0.5060    0.0000 C   0  0  0  0  0  0  0  0  0  0  0  0
    4.0330    0.2440    0.0000 C   0  0  0  0  0  0  0  0  0  0  0  0
    5.3320   -0.5060    0.0000 C   0  0  0  0  0  0  0  0  0  0  0  0
    6.6310    0.2440    0.0000 O   0  0  0  0  0  0  0  0  0  0  0  0
    4.0330    1.7440    0.0000 C   0  0  0  0  0  0  0  0  0  0  0  0
    2.7340    2.4940    0.0000 N   0  0  0  0  0  0  0  0  0  0  0  0
    1.4350    1.7440    0.0000 C   0  0  0  0  0  0  0  0  0  0  0  0
  1  2  1  0  0  0  0
  2  3  1  0  0  0  0
  2  9  2  0  0  0  0
  3  4  2  0  0  0  0
  4  5  1  0  0  0  0
  4  7  1  0  0  0  0
  5  6  2  0  0  0  0
  7  8  2  0  0  0  0
  8  9  1  0  0  0  0
M  END
>  <name>
Brc1cc([C;ester]=O)cnc1

>  <apo>
1

>  <freq>
1

>  <freq0>
0

>  <freq1>
1

>  <freqA>
0.99887151

>  <a_count>
13

$$$$

  MOE2015           2D

  7  7  0  0  0  0  0  0  0  0999 V2000
    1.0990    1.5320    0.0000 C   0  0  0  0  0  0  0  0  0  0  0  0
    1.8490    2.8310    0.0000 C   0  0  0  0  0  0  0  0  0  0  0  0
   -0.4010    1.5320    0.0000 C   0  0  0  0  0  0  0  0  0  0  0  0
   -1.2830    2.7450    0.0000 O   0  0  0  0  0  0  0  0  0  0  0  0
   -2.7100    2.2820    0.0000 N   0  0  0  0  0  0  0  0  0  0  0  0
   -2.7100    0.7820    0.0000 C   0  0  0  0  0  0  0  0  0  0  0  0
   -1.2830    0.3180    0.0000 N   0  0  0  0  0  0  0  0  0  0  0  0
  1  2  1  0  0  0  0
  1  3  1  0  0  0  0
  3  4  1  0  0  0  0
  3  7  2  0  0  0  0
  4  5  1  0  0  0  0
  5  6  2  0  0  0  0
  6  7  1  0  0  0  0
M  END
>  <name>
C([C;amine])c1on[c;biphenyl]n1

>  <apo>
2

>  <freq>
1

>  <freq0>
0

>  <freq1>
1

>  <freqA>
0.99887151

>  <a_count>
13

$$$$

  MOE2015           2D

  9  9  0  0  0  0  0  0  0  0999 V2000
    2.7500    3.0310    0.0000 Cl  0  0  0  0  0  0  0  0  0  0  0  0
    2.0000    1.7320    0.0000 C   0  0  0  0  0  0  0  0  0  0  0  0
    2.7500    0.4330    0.0000 C   0  0  0  0  0  0  0  0  0  0  0  0
    4.2500    0.4330    0.0000 C   0  0  0  0  0  0  0  0  0  0  0  0
    5.7500    0.4330    0.0000 N   0  0  0  0  0  0  0  0  0  0  0  0
    2.0000   -0.8660    0.0000 C   0  0  0  0  0  0  0  0  0  0  0  0
    0.5000   -0.8660    0.0000 C   0  0  0  0  0  0  0  0  0  0  0  0
   -0.2500    0.4330    0.0000 C   0  0  0  0  0  0  0  0  0  0  0  0
    0.5000    1.7320    0.0000 C   0  0  0  0  0  0  0  0  0  0  0  0
  1  2  1  0  0  0  0
  2  3  1  0  0  0  0
  2  9  2  0  0  0  0
  3  4  1  0  0  0  0
  3  6  2  0  0  0  0
  4  5  3  0  0  0  0
  6  7  1  0  0  0  0
  7  8  2  0  0  0  0
  8  9  1  0  0  0  0
M  END
>  <name>
Clc1c(C#N)cc[c;biphenyl]c1

>  <apo>
1

>  <freq>
1

>  <freq0>
0

>  <freq1>
1

>  <freqA>
0.99887151

>  <a_count>
13

$$$$

  MOE2015           2D

 10 10  0  0  0  0  0  0  0  0999 V2000
    0.4020   -1.5000    0.0000 Cl  0  0  0  0  0  0  0  0  0  0  0  0
    1.7010   -0.7500    0.0000 C   0  0  0  0  0  0  0  0  0  0  0  0
    1.7010    0.7500    0.0000 C   0  0  0  0  0  0  0  0  0  0  0  0
    0.4020    1.5000    0.0000 Cl  0  0  0  0  0  0  0  0  0  0  0  0
    3.0000    1.5000    0.0000 C   0  0  0  0  0  0  0  0  0  0  0  0
    4.2990    0.7500    0.0000 C   0  0  0  0  0  0  0  0  0  0  0  0
    5.5980    1.5000    0.0000 O   0  0  0  0  0  0  0  0  0  0  0  0
    4.2990   -0.7500    0.0000 C   0  0  0  0  0  0  0  0  0  0  0  0
    5.5980   -1.5000    0.0000 Cl  0  0  0  0  0  0  0  0  0  0  0  0
    3.0000   -1.5000    0.0000 C   0  0  0  0  0  0  0  0  0  0  0  0
  1  2  1  0  0  0  0
  2  3  1  0  0  0  0
  2 10  2  0  0  0  0
  3  4  1  0  0  0  0
  3  5  2  0  0  0  0
  5  6  1  0  0  0  0
  6  7  1  0  0  0  0
  6  8  2  0  0  0  0
  8  9  1  0  0  0  0
  8 10  1  0  0  0  0
M  END
>  <name>
Clc1c(Cl)cc([O;ether])c(Cl)c1

>  <apo>
1

>  <freq>
1

>  <freq0>
0

>  <freq1>
1

>  <freqA>
0.99887151

>  <a_count>
13

$$$$

  MOE2015           2D

  9  9  0  0  0  0  0  0  0  0999 V2000
    3.0000    3.1750    0.0000 Cl  0  0  0  0  0  0  0  0  0  0  0  0
    2.2500    1.8760    0.0000 C   0  0  0  0  0  0  0  0  0  0  0  0
    3.0000    0.5770    0.0000 C   0  0  0  0  0  0  0  0  0  0  0  0
    4.5000    0.5770    0.0000 C   0  0  0  0  0  0  0  0  0  0  0  0
    5.2500   -0.7220    0.0000 O   0  0  0  0  0  0  0  0  0  0  0  0
    2.2500   -0.7220    0.0000 C   0  0  0  0  0  0  0  0  0  0  0  0
    0.7500   -0.7220    0.0000 C   0  0  0  0  0  0  0  0  0  0  0  0
    0.0000    0.5770    0.0000 C   0  0  0  0  0  0  0  0  0  0  0  0
    0.7500    1.8760    0.0000 N   0  0  0  0  0  0  0  0  0  0  0  0
  1  2  1  0  0  0  0
  2  3  1  0  0  0  0
  2  9  2  0  0  0  0
  3  4  1  0  0  0  0
  3  6  2  0  0  0  0
  4  5  2  0  0  0  0
  6  7  1  0  0  0  0
  7  8  2  0  0  0  0
  8  9  1  0  0  0  0
M  END
>  <name>
Clc1c([C;amide]=O)cccn1

>  <apo>
1

>  <freq>
1

>  <freq0>
0

>  <freq1>
1

>  <freqA>
0.99887151

>  <a_count>
13

$$$$

  MOE2015           2D

  9  9  0  0  0  0  0  0  0  0999 V2000
    0.0690   -0.2560    0.0000 Cl  0  0  0  0  0  0  0  0  0  0  0  0
    1.3680    0.4940    0.0000 C   0  0  0  0  0  0  0  0  0  0  0  0
    2.6670   -0.2560    0.0000 C   0  0  0  0  0  0  0  0  0  0  0  0
    2.6670   -1.7560    0.0000 N   0  0  0  0  0  0  0  0  0  0  0  0
    3.9660    0.4940    0.0000 C   0  0  0  0  0  0  0  0  0  0  0  0
    5.2650   -0.2560    0.0000 Cl  0  0  0  0  0  0  0  0  0  0  0  0
    3.9660    1.9940    0.0000 C   0  0  0  0  0  0  0  0  0  0  0  0
    2.6670    2.7440    0.0000 N   0  0  0  0  0  0  0  0  0  0  0  0
    1.3680    1.9940    0.0000 C   0  0  0  0  0  0  0  0  0  0  0  0
  1  2  1  0  0  0  0
  2  3  1  0  0  0  0
  2  9  2  0  0  0  0
  3  4  1  0  0  0  0
  3  5  2  0  0  0  0
  5  6  1  0  0  0  0
  5  7  1  0  0  0  0
  7  8  2  0  0  0  0
  8  9  1  0  0  0  0
M  END
>  <name>
Clc1c([N;amide])c(Cl)cnc1

>  <apo>
1

>  <freq>
1

>  <freq0>
0

>  <freq1>
1

>  <freqA>
0.99887151

>  <a_count>
13

$$$$

  MOE2015           2D

  8  8  0  0  0  0  0  0  0  0999 V2000
    1.6410    2.1390    0.0000 Cl  0  0  0  0  0  0  0  0  0  0  0  0
    2.0300    0.6900    0.0000 C   0  0  0  0  0  0  0  0  0  0  0  0
    3.4300    0.1530    0.0000 C   0  0  0  0  0  0  0  0  0  0  0  0
    4.6880    0.9700    0.0000 N   0  0  0  0  0  0  0  0  0  0  0  0
    3.3510   -1.3450    0.0000 O   0  0  0  0  0  0  0  0  0  0  0  0
    1.9030   -1.7340    0.0000 N   0  0  0  0  0  0  0  0  0  0  0  0
    1.0860   -0.4760    0.0000 C   0  0  0  0  0  0  0  0  0  0  0  0
   -0.4120   -0.3970    0.0000 C   0  0  0  0  0  0  0  0  0  0  0  0
  1  2  1  0  0  0  0
  2  3  2  0  0  0  0
  2  7  1  0  0  0  0
  3  4  1  0  0  0  0
  3  5  1  0  0  0  0
  5  6  1  0  0  0  0
  6  7  2  0  0  0  0
  7  8  1  0  0  0  0
M  END
>  <name>
Clc1c([N;so2amide])onc1C

>  <apo>
1

>  <freq>
1

>  <freq0>
0

>  <freq1>
1

>  <freqA>
0.99887151

>  <a_count>
13

$$$$

  MOE2015           2D

  9  9  0  0  0  0  0  0  0  0999 V2000
    0.0690   -0.2560    0.0000 Cl  0  0  0  0  0  0  0  0  0  0  0  0
    1.3680    0.4940    0.0000 C   0  0  0  0  0  0  0  0  0  0  0  0
    2.6670   -0.2560    0.0000 C   0  0  0  0  0  0  0  0  0  0  0  0
    2.6670   -1.7560    0.0000 O   0  0  0  0  0  0  0  0  0  0  0  0
    3.9660    0.4940    0.0000 C   0  0  0  0  0  0  0  0  0  0  0  0
    5.2650   -0.2560    0.0000 Cl  0  0  0  0  0  0  0  0  0  0  0  0
    3.9660    1.9940    0.0000 C   0  0  0  0  0  0  0  0  0  0  0  0
    2.6670    2.7440    0.0000 C   0  0  0  0  0  0  0  0  0  0  0  0
    1.3680    1.9940    0.0000 C   0  0  0  0  0  0  0  0  0  0  0  0
  1  2  1  0  0  0  0
  2  3  1  0  0  0  0
  2  9  2  0  0  0  0
  3  4  1  0  0  0  0
  3  5  2  0  0  0  0
  5  6  1  0  0  0  0
  5  7  1  0  0  0  0
  7  8  2  0  0  0  0
  8  9  1  0  0  0  0
M  END
>  <name>
Clc1c([O;ether])c(Cl)ccc1

>  <apo>
1

>  <freq>
1

>  <freq0>
0

>  <freq1>
1

>  <freqA>
0.99887151

>  <a_count>
13

$$$$

  MOE2015           2D

  9  9  0  0  0  0  0  0  0  0999 V2000
    0.0690   -0.2560    0.0000 Cl  0  0  0  0  0  0  0  0  0  0  0  0
    1.3680    0.4940    0.0000 C   0  0  0  0  0  0  0  0  0  0  0  0
    2.6670   -0.2560    0.0000 C   0  0  0  0  0  0  0  0  0  0  0  0
    2.6670   -1.7560    0.0000 S   0  0  0  0  0  0  0  0  0  0  0  0
    3.9660    0.4940    0.0000 C   0  0  0  0  0  0  0  0  0  0  0  0
    5.2650   -0.2560    0.0000 Cl  0  0  0  0  0  0  0  0  0  0  0  0
    3.9660    1.9940    0.0000 C   0  0  0  0  0  0  0  0  0  0  0  0
    2.6670    2.7440    0.0000 C   0  0  0  0  0  0  0  0  0  0  0  0
    1.3680    1.9940    0.0000 C   0  0  0  0  0  0  0  0  0  0  0  0
  1  2  1  0  0  0  0
  2  3  1  0  0  0  0
  2  9  2  0  0  0  0
  3  4  1  0  0  0  0
  3  5  2  0  0  0  0
  5  6  1  0  0  0  0
  5  7  1  0  0  0  0
  7  8  2  0  0  0  0
  8  9  1  0  0  0  0
M  END
>  <name>
Clc1c([S;thioether])c(Cl)ccc1

>  <apo>
1

>  <freq>
1

>  <freq0>
0

>  <freq1>
1

>  <freqA>
0.99887151

>  <a_count>
13

$$$$

  MOE2015           2D

  8  8  0  0  0  0  0  0  0  0999 V2000
    0.0000    0.0000    0.0000 Cl  0  0  0  0  0  0  0  0  0  0  0  0
    1.5000    0.0000    0.0000 C   0  0  0  0  0  0  0  0  0  0  0  0
    2.2500   -1.2990    0.0000 C   0  0  0  0  0  0  0  0  0  0  0  0
    3.7500   -1.2990    0.0000 C   0  0  0  0  0  0  0  0  0  0  0  0
    4.5000    0.0000    0.0000 C   0  0  0  0  0  0  0  0  0  0  0  0
    6.0000    0.0000    0.0000 S   0  0  0  0  0  0  0  0  0  0  0  0
    3.7500    1.2990    0.0000 C   0  0  0  0  0  0  0  0  0  0  0  0
    2.2500    1.2990    0.0000 C   0  0  0  0  0  0  0  0  0  0  0  0
  1  2  1  0  0  0  0
  2  3  1  0  0  0  0
  2  8  2  0  0  0  0
  3  4  2  0  0  0  0
  4  5  1  0  0  0  0
  5  6  1  0  0  0  0
  5  7  2  0  0  0  0
  7  8  1  0  0  0  0
M  END
>  <name>
Clc1ccc([S;thioether])cc1

>  <apo>
1

>  <freq>
1

>  <freq0>
0

>  <freq1>
1

>  <freqA>
0.99887151

>  <a_count>
13

$$$$

  MOE2015           2D

  8  8  0  0  0  0  0  0  0  0999 V2000
    5.4110   -0.8000    0.0000 F   0  0  0  0  0  0  0  0  0  0  0  0
    4.1120   -0.0500    0.0000 C   0  0  0  0  0  0  0  0  0  0  0  0
    2.8120   -0.8000    0.0000 C   0  0  0  0  0  0  0  0  0  0  0  0
    1.5130   -0.0500    0.0000 C   0  0  0  0  0  0  0  0  0  0  0  0
    0.2140   -0.8000    0.0000 O   0  0  0  0  0  0  0  0  0  0  0  0
    1.5130    1.4500    0.0000 C   0  0  0  0  0  0  0  0  0  0  0  0
    2.8120    2.2000    0.0000 C   0  0  0  0  0  0  0  0  0  0  0  0
    4.1120    1.4500    0.0000 C   0  0  0  0  0  0  0  0  0  0  0  0
  1  2  1  0  0  0  0
  2  3  1  0  0  0  0
  2  8  2  0  0  0  0
  3  4  2  0  0  0  0
  4  5  1  0  0  0  0
  4  6  1  0  0  0  0
  6  7  2  0  0  0  0
  7  8  1  0  0  0  0
M  END
>  <name>
Fc1[c;biphenyl]c(O)ccc1

>  <apo>
1

>  <freq>
1

>  <freq0>
0

>  <freq1>
1

>  <freqA>
0.99887151

>  <a_count>
13

$$$$

  MOE2015           2D

  8  8  0  0  0  0  0  0  0  0999 V2000
    0.4890   -1.1750    0.0000 F   0  0  0  0  0  0  0  0  0  0  0  0
    1.7880   -0.4250    0.0000 C   0  0  0  0  0  0  0  0  0  0  0  0
    1.7880    1.0750    0.0000 C   0  0  0  0  0  0  0  0  0  0  0  0
    0.4890    1.8250    0.0000 O   0  0  0  0  0  0  0  0  0  0  0  0
    3.0870    1.8250    0.0000 C   0  0  0  0  0  0  0  0  0  0  0  0
    4.3860    1.0750    0.0000 C   0  0  0  0  0  0  0  0  0  0  0  0
    4.3860   -0.4250    0.0000 C   0  0  0  0  0  0  0  0  0  0  0  0
    3.0870   -1.1750    0.0000 C   0  0  0  0  0  0  0  0  0  0  0  0
  1  2  1  0  0  0  0
  2  3  1  0  0  0  0
  2  8  2  0  0  0  0
  3  4  1  0  0  0  0
  3  5  2  0  0  0  0
  5  6  1  0  0  0  0
  6  7  2  0  0  0  0
  7  8  1  0  0  0  0
M  END
>  <name>
Fc1c([O;ether])cc[c;biphenyl]c1

>  <apo>
2

>  <freq>
1

>  <freq0>
0

>  <freq1>
1

>  <freqA>
0.99887151

>  <a_count>
13

$$$$

  MOE2015           2D

  8  8  0  0  0  0  0  0  0  0999 V2000
    0.0000    0.0000    0.0000 F   0  0  0  0  0  0  0  0  0  0  0  0
    1.5000    0.0000    0.0000 C   0  0  0  0  0  0  0  0  0  0  0  0
    2.2500   -1.2990    0.0000 C   0  0  0  0  0  0  0  0  0  0  0  0
    3.7500   -1.2990    0.0000 C   0  0  0  0  0  0  0  0  0  0  0  0
    4.5000    0.0000    0.0000 C   0  0  0  0  0  0  0  0  0  0  0  0
    6.0000    0.0000    0.0000 O   0  0  0  0  0  0  0  0  0  0  0  0
    3.7500    1.2990    0.0000 C   0  0  0  0  0  0  0  0  0  0  0  0
    2.2500    1.2990    0.0000 C   0  0  0  0  0  0  0  0  0  0  0  0
  1  2  1  0  0  0  0
  2  3  1  0  0  0  0
  2  8  2  0  0  0  0
  3  4  2  0  0  0  0
  4  5  1  0  0  0  0
  5  6  1  0  0  0  0
  5  7  2  0  0  0  0
  7  8  1  0  0  0  0
M  END
>  <name>
Fc1ccc([O;ether])cc1

>  <apo>
1

>  <freq>
1

>  <freq0>
0

>  <freq1>
1

>  <freqA>
0.99887151

>  <a_count>
13

$$$$

  MOE2015           2D

  8  8  0  0  0  0  0  0  0  0999 V2000
    0.0000    0.0000    0.0000 F   0  0  0  0  0  0  0  0  0  0  0  0
    1.5000    0.0000    0.0000 C   0  0  0  0  0  0  0  0  0  0  0  0
    2.2500   -1.2990    0.0000 C   0  0  0  0  0  0  0  0  0  0  0  0
    3.7500   -1.2990    0.0000 N   0  0  0  0  0  0  0  0  0  0  0  0
    4.5000    0.0000    0.0000 C   0  0  0  0  0  0  0  0  0  0  0  0
    6.0000    0.0000    0.0000 N   0  0  0  0  0  0  0  0  0  0  0  0
    3.7500    1.2990    0.0000 C   0  0  0  0  0  0  0  0  0  0  0  0
    2.2500    1.2990    0.0000 C   0  0  0  0  0  0  0  0  0  0  0  0
  1  2  1  0  0  0  0
  2  3  1  0  0  0  0
  2  8  2  0  0  0  0
  3  4  2  0  0  0  0
  4  5  1  0  0  0  0
  5  6  1  0  0  0  0
  5  7  2  0  0  0  0
  7  8  1  0  0  0  0
M  END
>  <name>
Fc1cnc([N;amide])cc1

>  <apo>
1

>  <freq>
1

>  <freq0>
0

>  <freq1>
1

>  <freqA>
0.99887151

>  <a_count>
13

$$$$

  MOE2015           2D

  9  9  0  0  0  0  0  0  0  0999 V2000
    0.0000    0.0000    0.0000 F   0  0  0  0  0  0  0  0  0  0  0  0
    1.5000    0.0000    0.0000 C   0  0  0  0  0  0  0  0  0  0  0  0
    2.2500    1.2990    0.0000 N   0  0  0  0  0  0  0  0  0  0  0  0
    3.7500    1.2990    0.0000 C   0  0  0  0  0  0  0  0  0  0  0  0
    4.5000    0.0000    0.0000 C   0  0  0  0  0  0  0  0  0  0  0  0
    6.0000    0.0000    0.0000 C   0  0  0  0  0  0  0  0  0  0  0  0
    6.7500   -1.2990    0.0000 O   0  0  0  0  0  0  0  0  0  0  0  0
    3.7500   -1.2990    0.0000 C   0  0  0  0  0  0  0  0  0  0  0  0
    2.2500   -1.2990    0.0000 C   0  0  0  0  0  0  0  0  0  0  0  0
  1  2  1  0  0  0  0
  2  3  1  0  0  0  0
  2  9  2  0  0  0  0
  3  4  2  0  0  0  0
  4  5  1  0  0  0  0
  5  6  1  0  0  0  0
  5  8  2  0  0  0  0
  6  7  2  0  0  0  0
  8  9  1  0  0  0  0
M  END
>  <name>
Fc1ncc([C;amide]=O)cc1

>  <apo>
1

>  <freq>
1

>  <freq0>
0

>  <freq1>
1

>  <freqA>
0.99887151

>  <a_count>
13

$$$$

  MOE2015           2D

  4  3  0  0  0  0  0  0  0  0999 V2000
    3.0000    0.0000    0.0000 N   0  0  0  0  0  0  0  0  0  0  0  0
    1.5000    0.0000    0.0000 C   0  0  0  0  0  0  0  0  0  0  0  0
    0.7500   -1.2990    0.0000 C   0  0  0  0  0  0  0  0  0  0  0  0
    0.7500    1.2990    0.0000 C   0  0  0  0  0  0  0  0  0  0  0  0
  1  2  1  0  0  0  0
  2  3  1  0  0  0  0
  2  4  1  0  0  0  0
M  END
>  <name>
NC([C;ether])C

>  <apo>
1

>  <freq>
1

>  <freq0>
0

>  <freq1>
1

>  <freqA>
0.99887151

>  <a_count>
13

$$$$

  MOE2015           2D

  4  3  0  0  0  0  0  0  0  0999 V2000
   -0.0740   -0.2750    0.0000 N   0  0  0  0  0  0  0  0  0  0  0  0
    1.2250   -1.0250    0.0000 C   0  0  0  0  0  0  0  0  0  0  0  0
    2.5250   -0.2750    0.0000 C   0  0  0  0  0  0  0  0  0  0  0  0
    3.8240   -1.0250    0.0000 C   0  0  0  0  0  0  0  0  0  0  0  0
  1  2  1  0  0  0  0
  2  3  1  0  0  0  0
  3  4  1  0  0  0  0
M  END
>  <name>
NCC[C;amine]

>  <apo>
1

>  <freq>
1

>  <freq0>
0

>  <freq1>
1

>  <freqA>
0.99887151

>  <a_count>
13

$$$$

  MOE2015           2D

  8  8  0  0  0  0  0  0  0  0999 V2000
    5.4110   -0.8000    0.0000 N   0  0  0  0  0  0  0  0  0  0  0  0
    4.1120   -0.0500    0.0000 C   0  0  0  0  0  0  0  0  0  0  0  0
    2.8120   -0.8000    0.0000 N   0  0  0  0  0  0  0  0  0  0  0  0
    1.5130   -0.0500    0.0000 C   0  0  0  0  0  0  0  0  0  0  0  0
    0.2140   -0.8000    0.0000 N   0  0  0  0  0  0  0  0  0  0  0  0
    1.5130    1.4500    0.0000 C   0  0  0  0  0  0  0  0  0  0  0  0
    2.8120    2.2000    0.0000 N   0  0  0  0  0  0  0  0  0  0  0  0
    4.1120    1.4500    0.0000 N   0  0  0  0  0  0  0  0  0  0  0  0
  1  2  1  0  0  0  0
  2  3  1  0  0  0  0
  2  8  2  0  0  0  0
  3  4  2  0  0  0  0
  4  5  1  0  0  0  0
  4  6  1  0  0  0  0
  6  7  2  0  0  0  0
  7  8  1  0  0  0  0
M  END
>  <name>
Nc1nc(N)[c;biphenyl]nn1

>  <apo>
1

>  <freq>
1

>  <freq0>
0

>  <freq1>
1

>  <freqA>
0.99887151

>  <a_count>
13

$$$$

  MOE2015           2D

  5  5  0  0  0  0  0  0  0  0999 V2000
    0.7970    1.6710    0.0000 O   0  0  0  0  0  0  0  0  0  0  0  0
    0.4090    0.2220    0.0000 C   0  0  0  0  0  0  0  0  0  0  0  0
   -1.0890    0.1430    0.0000 C   0  0  0  0  0  0  0  0  0  0  0  0
   -1.6270    1.5440    0.0000 C   0  0  0  0  0  0  0  0  0  0  0  0
   -0.4610    2.4880    0.0000 C   0  0  0  0  0  0  0  0  0  0  0  0
  1  2  1  0  0  0  0
  1  5  1  0  0  0  0
  2  3  1  0  0  0  0
  3  4  1  0  0  0  0
  4  5  1  0  0  0  0
M  END
>  <name>
O1CC[C;ether]C1

>  <apo>
1

>  <freq>
1

>  <freq0>
0

>  <freq1>
1

>  <freqA>
0.99887151

>  <a_count>
13

$$$$

  MOE2015           2D

  5  5  0  0  0  0  0  0  0  0999 V2000
    0.7970    1.6710    0.0000 O   0  0  0  0  0  0  0  0  0  0  0  0
    0.4090    0.2220    0.0000 C   0  0  0  0  0  0  0  0  0  0  0  0
   -1.0890    0.1430    0.0000 C   0  0  0  0  0  0  0  0  0  0  0  0
   -1.6270    1.5440    0.0000 C   0  0  0  0  0  0  0  0  0  0  0  0
   -0.4610    2.4880    0.0000 C   0  0  0  0  0  0  0  0  0  0  0  0
  1  2  1  0  0  0  0
  1  5  1  0  0  0  0
  2  3  1  0  0  0  0
  3  4  1  0  0  0  0
  4  5  1  0  0  0  0
M  END
>  <name>
O1C[C;ether]CC1

>  <apo>
1

>  <freq>
1

>  <freq0>
0

>  <freq1>
1

>  <freqA>
0.99887151

>  <a_count>
13

$$$$

  MOE2015           2D

  7  6  0  0  0  0  0  0  0  0999 V2000
   -0.0760   -1.5710    0.0000 O   0  0  0  0  0  0  0  0  0  0  0  0
    1.2230   -0.8210    0.0000 C   0  0  0  0  0  0  0  0  0  0  0  0
    1.2230    0.6790    0.0000 O   0  0  0  0  0  0  0  0  0  0  0  0
    2.5220   -1.5710    0.0000 C   0  0  0  0  0  0  0  0  0  0  0  0
    3.8210   -0.8210    0.0000 C   0  0  0  0  0  0  0  0  0  0  0  0
    5.1200   -1.5710    0.0000 C   0  0  0  0  0  0  0  0  0  0  0  0
    6.4190   -0.8210    0.0000 O   0  0  0  0  0  0  0  0  0  0  0  0
  1  2  2  0  0  0  0
  2  3  1  0  0  0  0
  2  4  1  0  0  0  0
  4  5  1  0  0  0  0
  5  6  1  0  0  0  0
  6  7  2  0  0  0  0
M  END
>  <name>
O=C(O)CC[C;amide]=O

>  <apo>
1

>  <freq>
1

>  <freq0>
0

>  <freq1>
1

>  <freqA>
0.99887151

>  <a_count>
13

$$$$

  MOE2015           2D

  6  5  0  0  0  0  0  0  0  0999 V2000
   -0.0070   -1.2750    0.0000 O   0  0  0  0  0  0  0  0  0  0  0  0
    1.2920   -0.5250    0.0000 C   0  0  0  0  0  0  0  0  0  0  0  0
    2.5920   -1.2750    0.0000 O   0  0  0  0  0  0  0  0  0  0  0  0
    3.8910   -0.5250    0.0000 C   0  0  0  0  0  0  0  0  0  0  0  0
    5.1900   -1.2750    0.0000 C   0  0  0  0  0  0  0  0  0  0  0  0
    1.2920    0.9750    0.0000 N   0  0  0  0  0  0  0  0  0  0  0  0
  1  2  2  0  0  0  0
  2  3  1  0  0  0  0
  2  6  1  0  0  0  0
  3  4  1  0  0  0  0
  4  5  1  0  0  0  0
M  END
>  <name>
O=C(OC[C;quatN])N

>  <apo>
1

>  <freq>
1

>  <freq0>
0

>  <freq1>
1

>  <freqA>
0.99887151

>  <a_count>
13

$$$$

  MOE2015           2D

  7  6  0  0  1  0  0  0  0  0999 V2000
    0.8150   -3.0420    0.0000 O   0  0  0  0  0  0  0  0  0  0  0  0
    0.8150   -1.5420    0.0000 C   0  0  0  0  0  0  0  0  0  0  0  0
   -0.4840   -0.7920    0.0000 O   0  5  0  0  0  0  0  0  0  0  0  0
    2.1140   -0.7920    0.0000 C   0  0  1  0  0  0  0  0  0  0  0  0
    2.1140    0.7080    0.0000 N   0  0  0  0  0  0  0  0  0  0  0  0
    3.4130   -1.5420    0.0000 C   0  0  0  0  0  0  0  0  0  0  0  0
    4.7120   -0.7920    0.0000 O   0  0  0  0  0  0  0  0  0  0  0  0
  1  2  2  0  0  0  0
  2  3  1  0  0  0  0
  2  4  1  0  0  0  0
  4  5  1  1  0  0  0
  4  6  1  0  0  0  0
  6  7  1  0  0  0  0
M  CHG  1   3  -1
M  END
>  <name>
O=C([O-])[C@@H]([N;amide])CO

>  <apo>
1

>  <freq>
1

>  <freq0>
0

>  <freq1>
1

>  <freqA>
0.99887151

>  <a_count>
13

$$$$

  MOE2015           2D

  8  8  0  0  1  0  0  0  0  0999 V2000
    0.5710   -1.5060    0.0000 O   0  0  0  0  0  0  0  0  0  0  0  0
    1.7850   -0.6240    0.0000 C   0  0  0  0  0  0  0  0  0  0  0  0
    1.7850    0.8760    0.0000 C   0  0  3  0  0  0  0  0  0  0  0  0
    0.5710    1.7580    0.0000 N   0  0  0  0  0  0  0  0  0  0  0  0
    3.2110    1.3400    0.0000 N   0  0  0  0  0  0  0  0  0  0  0  0
    4.0930    0.1260    0.0000 C   0  0  0  0  0  0  0  0  0  0  0  0
    5.5930    0.1260    0.0000 O   0  0  0  0  0  0  0  0  0  0  0  0
    3.2110   -1.0870    0.0000 N   0  0  0  0  0  0  0  0  0  0  0  0
  1  2  2  0  0  0  0
  2  3  1  0  0  0  0
  2  8  1  0  0  0  0
  3  4  1  0  0  0  0
  3  5  1  0  0  0  0
  5  6  1  0  0  0  0
  6  7  2  0  0  0  0
  6  8  1  0  0  0  0
M  END
>  <name>
O=C1C([N;urea])NC(=O)N1

>  <apo>
1

>  <freq>
1

>  <freq0>
0

>  <freq1>
1

>  <freqA>
0.99887151

>  <a_count>
13

$$$$

  MOE2015           2D

  8  7  0  0  0  0  0  0  0  0999 V2000
    0.0000   -2.9230    0.0000 O   0  0  0  0  0  0  0  0  0  0  0  0
    1.5000   -2.9230    0.0000 C   0  0  0  0  0  0  0  0  0  0  0  0
    2.2500   -1.6240    0.0000 C   0  0  0  0  0  0  0  0  0  0  0  0
    1.5000   -0.3250    0.0000 C   0  0  0  0  0  0  0  0  0  0  0  0
    0.7500    0.9740    0.0000 N   0  0  0  0  0  0  0  0  0  0  0  0
    3.7500   -1.6240    0.0000 C   0  0  0  0  0  0  0  0  0  0  0  0
    4.5000   -2.9230    0.0000 O   0  0  0  0  0  0  0  0  0  0  0  0
    4.5000   -0.3250    0.0000 C   0  0  0  0  0  0  0  0  0  0  0  0
  1  2  2  0  0  0  0
  2  3  1  0  0  0  0
  3  4  1  0  0  0  0
  3  6  2  0  0  0  0
  4  5  3  0  0  0  0
  6  7  1  0  0  0  0
  6  8  1  0  0  0  0
M  END
>  <name>
O=[C;amide]/C(/C#N)=C(\O)/C

>  <apo>
1

>  <freq>
1

>  <freq0>
0

>  <freq1>
1

>  <freqA>
0.99887151

>  <a_count>
13

$$$$

  MOE2015           2D

  6  5  0  0  0  0  0  0  0  0999 V2000
    0.0000    0.0000    0.0000 O   0  0  0  0  0  0  0  0  0  0  0  0
    1.5000    0.0000    0.0000 C   0  0  0  0  0  0  0  0  0  0  0  0
    2.2500    1.2990    0.0000 C   0  0  0  0  0  0  0  0  0  0  0  0
    1.5000    2.5980    0.0000 N   0  0  0  0  0  0  0  0  0  0  0  0
    3.7500    1.2990    0.0000 C   0  0  0  0  0  0  0  0  0  0  0  0
    4.5000    0.0000    0.0000 C   0  0  0  0  0  0  0  0  0  0  0  0
  1  2  2  0  0  0  0
  2  3  1  0  0  0  0
  3  4  1  0  0  0  0
  3  5  2  0  0  0  0
  5  6  1  0  0  0  0
M  END
>  <name>
O=[C;amide]/C(/[N;amide])=C\C

>  <apo>
2

>  <freq>
1

>  <freq0>
0

>  <freq1>
1

>  <freqA>
0.99887151

>  <a_count>
13

$$$$

  MOE2015           2D

  5  4  0  0  0  0  0  0  0  0999 V2000
    3.8780   -1.0390    0.0000 O   0  0  0  0  0  0  0  0  0  0  0  0
    2.5790   -1.7890    0.0000 C   0  0  0  0  0  0  0  0  0  0  0  0
    1.2800   -1.0390    0.0000 C   0  0  0  0  0  0  0  0  0  0  0  0
   -0.0190   -1.7890    0.0000 C   0  0  0  0  0  0  0  0  0  0  0  0
    1.2800    0.4610    0.0000 C   0  0  0  0  0  0  0  0  0  0  0  0
  1  2  2  0  0  0  0
  2  3  1  0  0  0  0
  3  4  1  0  0  0  0
  3  5  1  0  0  0  0
M  END
>  <name>
O=[C;amide]C(C)C

>  <apo>
1

>  <freq>
1

>  <freq0>
0

>  <freq1>
1

>  <freqA>
0.99887151

>  <a_count>
13

$$$$

  MOE2015           2D

  6  5  0  0  1  0  0  0  0  0999 V2000
   -0.3480   -1.2990    0.0000 O   0  0  0  0  0  0  0  0  0  0  0  0
    0.9510   -2.0490    0.0000 C   0  0  0  0  0  0  0  0  0  0  0  0
    2.2500   -1.2990    0.0000 C   0  0  3  0  0  0  0  0  0  0  0  0
    2.2500    0.2010    0.0000 N   0  0  0  0  0  0  0  0  0  0  0  0
    3.5490   -2.0490    0.0000 C   0  0  0  0  0  0  0  0  0  0  0  0
    4.8480   -1.2990    0.0000 O   0  0  0  0  0  0  0  0  0  0  0  0
  1  2  2  0  0  0  0
  2  3  1  0  0  0  0
  3  4  1  0  0  0  0
  3  5  1  0  0  0  0
  5  6  1  0  0  0  0
M  END
>  <name>
O=[C;amide]C([N;amide])CO

>  <apo>
2

>  <freq>
1

>  <freq0>
0

>  <freq1>
1

>  <freqA>
0.99887151

>  <a_count>
13

$$$$

  MOE2015           2D

  7  7  0  0  0  0  0  0  0  0999 V2000
   -0.0970   -1.8540    0.0000 O   0  0  0  0  0  0  0  0  0  0  0  0
    1.3950   -2.0100    0.0000 C   0  0  0  0  0  0  0  0  0  0  0  0
    2.2760   -0.7950    0.0000 C   0  0  0  0  0  0  0  0  0  0  0  0
    3.2210   -1.9610    0.0000 C   0  0  0  0  0  0  0  0  0  0  0  0
    4.7020   -1.7250    0.0000 O   0  0  0  0  0  0  0  0  0  0  0  0
    1.4920    0.4830    0.0000 C   0  0  0  0  0  0  0  0  0  0  0  0
    2.9910    0.5230    0.0000 C   0  0  0  0  0  0  0  0  0  0  0  0
  1  2  2  0  0  0  0
  2  3  1  0  0  0  0
  3  4  1  0  0  0  0
  3  6  1  0  0  0  0
  3  7  1  0  0  0  0
  4  5  2  0  0  0  0
  6  7  1  0  0  0  0
M  END
>  <name>
O=[C;amide]C1([C;amide]=O)CC1

>  <apo>
2

>  <freq>
1

>  <freq0>
0

>  <freq1>
1

>  <freqA>
0.99887151

>  <a_count>
13

$$$$

  MOE2015           2D

  5  4  0  0  0  0  0  0  0  0999 V2000
    4.9980    0.7390    0.0000 O   0  0  0  0  0  0  0  0  0  0  0  0
    3.6990    1.4890    0.0000 C   0  0  0  0  0  0  0  0  0  0  0  0
    2.4000    0.7390    0.0000 C   0  0  0  0  0  0  0  0  0  0  0  0
    1.1010    1.4890    0.0000 C   0  0  0  0  0  0  0  0  0  0  0  0
   -0.1980    0.7390    0.0000 C   0  0  0  0  0  0  0  0  0  0  0  0
  1  2  2  0  0  0  0
  2  3  1  0  0  0  0
  3  4  1  0  0  0  0
  4  5  1  0  0  0  0
M  END
>  <name>
O=[C;amide]CC[C;thioether]

>  <apo>
2

>  <freq>
1

>  <freq0>
0

>  <freq1>
1

>  <freqA>
0.99887151

>  <a_count>
13

$$$$

  MOE2015           2D

  5  4  0  0  0  0  0  0  0  0999 V2000
    4.9980    0.7390    0.0000 O   0  0  0  0  0  0  0  0  0  0  0  0
    3.6990    1.4890    0.0000 C   0  0  0  0  0  0  0  0  0  0  0  0
    2.4000    0.7390    0.0000 C   0  0  0  0  0  0  0  0  0  0  0  0
    1.1010    1.4890    0.0000 C   0  0  0  0  0  0  0  0  0  0  0  0
   -0.1980    0.7390    0.0000 C   0  0  0  0  0  0  0  0  0  0  0  0
  1  2  2  0  0  0  0
  2  3  1  0  0  0  0
  3  4  1  0  0  0  0
  4  5  1  0  0  0  0
M  END
>  <name>
O=[C;amide][C;amine]CC

>  <apo>
2

>  <freq>
1

>  <freq0>
0

>  <freq1>
1

>  <freqA>
0.99887151

>  <a_count>
13

$$$$

  MOE2015           2D

  6  5  0  0  1  0  0  0  0  0999 V2000
   -0.3480   -1.2990    0.0000 O   0  0  0  0  0  0  0  0  0  0  0  0
    0.9510   -2.0490    0.0000 C   0  0  0  0  0  0  0  0  0  0  0  0
    2.2500   -1.2990    0.0000 C   0  0  1  0  0  0  0  0  0  0  0  0
    2.2500    0.2010    0.0000 N   0  0  0  0  0  0  0  0  0  0  0  0
    3.5490   -2.0490    0.0000 C   0  0  0  0  0  0  0  0  0  0  0  0
    4.8480   -1.2990    0.0000 O   0  0  0  0  0  0  0  0  0  0  0  0
  1  2  2  0  0  0  0
  2  3  1  0  0  0  0
  3  4  1  1  0  0  0
  3  5  1  0  0  0  0
  5  6  1  0  0  0  0
M  END
>  <name>
O=[C;amide][C@@H](N)CO

>  <apo>
1

>  <freq>
1

>  <freq0>
0

>  <freq1>
1

>  <freqA>
0.99887151

>  <a_count>
13

$$$$

  MOE2015           2D

  6  5  0  0  1  0  0  0  0  0999 V2000
   -0.3480   -1.2990    0.0000 O   0  0  0  0  0  0  0  0  0  0  0  0
    0.9510   -2.0490    0.0000 C   0  0  0  0  0  0  0  0  0  0  0  0
    2.2500   -1.2990    0.0000 C   0  0  2  0  0  0  0  0  0  0  0  0
    2.2500    0.2010    0.0000 N   0  0  0  0  0  0  0  0  0  0  0  0
    3.5490   -2.0490    0.0000 C   0  0  0  0  0  0  0  0  0  0  0  0
    4.8480   -1.2990    0.0000 O   0  0  0  0  0  0  0  0  0  0  0  0
  1  2  2  0  0  0  0
  2  3  1  0  0  0  0
  3  4  1  6  0  0  0
  3  5  1  0  0  0  0
  5  6  1  0  0  0  0
M  END
>  <name>
O=[C;amide][C@H]([N;amide])CO

>  <apo>
2

>  <freq>
1

>  <freq0>
0

>  <freq1>
1

>  <freqA>
0.99887151

>  <a_count>
13

$$$$

  MOE2015           2D

  6  6  0  0  1  0  0  0  0  0999 V2000
    4.6360    1.9200    0.0000 O   0  0  0  0  0  0  0  0  0  0  0  0
    3.5760    0.8600    0.0000 C   0  0  0  0  0  0  0  0  0  0  0  0
    2.1270    1.2480    0.0000 C   0  0  1  0  0  0  0  0  0  0  0  0
    0.8280    0.4980    0.0000 N   0  0  0  0  0  0  0  0  0  0  0  0
    0.0780    1.7970    0.0000 C   0  0  0  0  0  0  0  0  0  0  0  0
    1.3770    2.5470    0.0000 C   0  0  0  0  0  0  0  0  0  0  0  0
  1  2  2  0  0  0  0
  3  2  1  1  0  0  0
  3  4  1  0  0  0  0
  3  6  1  0  0  0  0
  4  5  1  0  0  0  0
  5  6  1  0  0  0  0
M  END
>  <name>
O=[C;amide][C@H]1[N;amide]CC1

>  <apo>
2

>  <freq>
1

>  <freq0>
0

>  <freq1>
1

>  <freqA>
0.99887151

>  <a_count>
13

$$$$

  MOE2015           2D

  8  8  0  0  0  0  0  0  0  0999 V2000
    5.5980   -1.5700    0.0000 O   0  0  0  0  0  0  0  0  0  0  0  0
    4.3170   -0.7900    0.0000 C   0  0  0  0  0  0  0  0  0  0  0  0
    3.0000   -1.5100    0.0000 C   0  0  0  0  0  0  0  0  0  0  0  0
    1.6450   -0.8680    0.0000 C   0  0  0  0  0  0  0  0  0  0  0  0
    1.3670    0.6060    0.0000 C   0  0  0  0  0  0  0  0  0  0  0  0
    0.6150   -1.9590    0.0000 O   0  0  0  0  0  0  0  0  0  0  0  0
    1.3350   -3.2750    0.0000 N   0  0  0  0  0  0  0  0  0  0  0  0
    2.8090   -2.9970    0.0000 C   0  0  0  0  0  0  0  0  0  0  0  0
  1  2  2  0  0  0  0
  2  3  1  0  0  0  0
  3  4  2  0  0  0  0
  3  8  1  0  0  0  0
  4  5  1  0  0  0  0
  4  6  1  0  0  0  0
  6  7  1  0  0  0  0
  7  8  2  0  0  0  0
M  END
>  <name>
O=[C;amide]c1c(C)onc1

>  <apo>
1

>  <freq>
1

>  <freq0>
0

>  <freq1>
1

>  <freqA>
0.99887151

>  <a_count>
13

$$$$

  MOE2015           2D

  8  8  0  0  0  0  0  0  0  0999 V2000
    5.3440   -0.8120    0.0000 O   0  0  0  0  0  0  0  0  0  0  0  0
    4.5940   -2.1110    0.0000 C   0  0  0  0  0  0  0  0  0  0  0  0
    3.0940   -2.1110    0.0000 C   0  0  0  0  0  0  0  0  0  0  0  0
    2.3440   -3.4100    0.0000 C   0  0  0  0  0  0  0  0  0  0  0  0
    0.8440   -3.4100    0.0000 N   0  0  0  0  0  0  0  0  0  0  0  0
    0.0940   -2.1110    0.0000 C   0  0  0  0  0  0  0  0  0  0  0  0
    0.8440   -0.8120    0.0000 C   0  0  0  0  0  0  0  0  0  0  0  0
    2.3440   -0.8120    0.0000 C   0  0  0  0  0  0  0  0  0  0  0  0
  1  2  2  0  0  0  0
  2  3  1  0  0  0  0
  3  4  1  0  0  0  0
  3  8  2  0  0  0  0
  4  5  2  0  0  0  0
  5  6  1  0  0  0  0
  6  7  2  0  0  0  0
  7  8  1  0  0  0  0
M  END
>  <name>
O=[C;amide]c1cnccc1

>  <apo>
1

>  <freq>
1

>  <freq0>
0

>  <freq1>
1

>  <freqA>
0.99887151

>  <a_count>
13

$$$$

  MOE2015           2D

  7  6  0  0  0  0  0  0  0  0999 V2000
   -0.0760   -1.5710    0.0000 O   0  0  0  0  0  0  0  0  0  0  0  0
    1.2230   -0.8210    0.0000 N   0  3  0  0  0  0  0  0  0  0  0  0
    2.5220   -1.5710    0.0000 O   0  0  0  0  0  0  0  0  0  0  0  0
    3.8210   -0.8210    0.0000 C   0  0  0  0  0  0  0  0  0  0  0  0
    5.1200   -1.5710    0.0000 C   0  0  0  0  0  0  0  0  0  0  0  0
    6.4190   -0.8210    0.0000 N   0  0  0  0  0  0  0  0  0  0  0  0
    1.2230    0.6790    0.0000 O   0  5  0  0  0  0  0  0  0  0  0  0
  1  2  2  0  0  0  0
  2  3  1  0  0  0  0
  2  7  1  0  0  0  0
  3  4  1  0  0  0  0
  4  5  1  0  0  0  0
  5  6  1  0  0  0  0
M  CHG  1   2   1
M  CHG  1   7  -1
M  END
>  <name>
O=[N+](OCC[N;amide])[O-]

>  <apo>
1

>  <freq>
1

>  <freq0>
0

>  <freq1>
1

>  <freqA>
0.99887151

>  <a_count>
13

$$$$

  MOE2015           2D

  5  4  0  0  1  0  0  0  0  0999 V2000
    0.1310   -1.0100    0.0000 O   0  0  0  0  0  0  0  0  0  0  0  0
    1.4300   -0.2600    0.0000 C   0  0  3  0  0  0  0  0  0  0  0  0
    2.7290   -1.0100    0.0000 C   0  0  0  0  0  0  0  0  0  0  0  0
    4.0280   -0.2600    0.0000 O   0  0  0  0  0  0  0  0  0  0  0  0
    1.4300    1.2400    0.0000 C   0  0  0  0  0  0  0  0  0  0  0  0
  1  2  1  0  0  0  0
  2  3  1  0  0  0  0
  2  5  1  0  0  0  0
  3  4  1  0  0  0  0
M  END
>  <name>
OC(CO)[C;NaroC]

>  <apo>
1

>  <freq>
1

>  <freq0>
0

>  <freq1>
1

>  <freqA>
0.99887151

>  <a_count>
13

$$$$

  MOE2015           2D

  5  4  0  0  0  0  0  0  0  0999 V2000
    4.9980   -1.3390    0.0000 O   0  0  0  0  0  0  0  0  0  0  0  0
    3.6990   -0.5890    0.0000 C   0  0  0  0  0  0  0  0  0  0  0  0
    2.4000   -1.3390    0.0000 C   0  0  0  0  0  0  0  0  0  0  0  0
    1.1010   -0.5890    0.0000 C   0  0  0  0  0  0  0  0  0  0  0  0
   -0.1980   -1.3390    0.0000 O   0  0  0  0  0  0  0  0  0  0  0  0
  1  2  1  0  0  0  0
  2  3  1  0  0  0  0
  3  4  1  0  0  0  0
  4  5  1  0  0  0  0
M  END
>  <name>
OC[C;ether]CO

>  <apo>
1

>  <freq>
1

>  <freq0>
0

>  <freq1>
1

>  <freqA>
0.99887151

>  <a_count>
13

$$$$

  MOE2015           2D

  5  4  0  0  1  0  0  0  0  0999 V2000
    0.1310   -1.0100    0.0000 O   0  0  0  0  0  0  0  0  0  0  0  0
    1.4300   -0.2600    0.0000 C   0  0  1  0  0  0  0  0  0  0  0  0
    2.7290   -1.0100    0.0000 C   0  0  0  0  0  0  0  0  0  0  0  0
    4.0280   -0.2600    0.0000 O   0  0  0  0  0  0  0  0  0  0  0  0
    1.4300    1.2400    0.0000 C   0  0  0  0  0  0  0  0  0  0  0  0
  2  1  1  6  0  0  0
  2  3  1  0  0  0  0
  2  5  1  0  0  0  0
  3  4  1  0  0  0  0
M  END
>  <name>
O[C@@H](CO)[C;NaroC]

>  <apo>
1

>  <freq>
1

>  <freq0>
0

>  <freq1>
1

>  <freqA>
0.99887151

>  <a_count>
13

$$$$

  MOE2015           2D

  5  4  0  0  1  0  0  0  0  0999 V2000
    0.1310   -1.0100    0.0000 O   0  0  0  0  0  0  0  0  0  0  0  0
    1.4300   -0.2600    0.0000 C   0  0  1  0  0  0  0  0  0  0  0  0
    2.7290   -1.0100    0.0000 C   0  0  0  0  0  0  0  0  0  0  0  0
    4.0280   -0.2600    0.0000 O   0  0  0  0  0  0  0  0  0  0  0  0
    1.4300    1.2400    0.0000 C   0  0  0  0  0  0  0  0  0  0  0  0
  2  1  1  6  0  0  0
  2  3  1  0  0  0  0
  2  5  1  0  0  0  0
  3  4  1  0  0  0  0
M  END
>  <name>
O[C@@H](CO)[C;ether]

>  <apo>
1

>  <freq>
1

>  <freq0>
0

>  <freq1>
1

>  <freqA>
0.99887151

>  <a_count>
13

$$$$

  MOE2015           2D

  6  5  0  0  1  0  0  0  0  0999 V2000
   -0.3480   -1.2990    0.0000 S   0  0  0  0  0  0  0  0  0  0  0  0
    0.9510   -2.0490    0.0000 C   0  0  0  0  0  0  0  0  0  0  0  0
    2.2500   -1.2990    0.0000 C   0  0  2  0  0  0  0  0  0  0  0  0
    2.2500    0.2010    0.0000 N   0  0  0  0  0  0  0  0  0  0  0  0
    3.5490   -2.0490    0.0000 C   0  0  0  0  0  0  0  0  0  0  0  0
    4.8480   -1.2990    0.0000 O   0  0  0  0  0  0  0  0  0  0  0  0
  1  2  1  0  0  0  0
  2  3  1  0  0  0  0
  3  4  1  6  0  0  0
  3  5  1  0  0  0  0
  5  6  2  0  0  0  0
M  END
>  <name>
SC[C@H]([N;amide])[C;amide]=O

>  <apo>
2

>  <freq>
1

>  <freq0>
0

>  <freq1>
1

>  <freqA>
0.99887151

>  <a_count>
13

$$$$

  MOE2015           2D

  5  4  0  0  0  0  0  0  0  0999 V2000
    4.9980   -1.3390    0.0000 Hg  0  3  0  0  0  0  0  0  0  0  0  0
    3.6990   -0.5890    0.0000 C   0  0  0  0  0  0  0  0  0  0  0  0
    2.4000   -1.3390    0.0000 C   0  0  0  0  0  0  0  0  0  0  0  0
    1.1010   -0.5890    0.0000 C   0  0  0  0  0  0  0  0  0  0  0  0
   -0.1980   -1.3390    0.0000 N   0  0  0  0  0  0  0  0  0  0  0  0
  1  2  1  0  0  0  0
  2  3  1  0  0  0  0
  3  4  1  0  0  0  0
  4  5  1  0  0  0  0
M  CHG  1   1   1
M  END
>  <name>
[Hg+]C[C;ether]C[N;urea]

>  <apo>
2

>  <freq>
1

>  <freq0>
0

>  <freq1>
1

>  <freqA>
0.99887151

>  <a_count>
13

$$$$

  MOE2015           2D

  4  3  0  0  0  0  0  0  0  0999 V2000
    0.1000   -0.3750    0.0000 N   0  0  0  0  0  0  0  0  0  0  0  0
    1.4000    0.3750    0.0000 C   0  0  0  0  0  0  0  0  0  0  0  0
    2.6990   -0.3750    0.0000 C   0  0  0  0  0  0  0  0  0  0  0  0
   -1.1990    0.3750    0.0000 C   0  0  0  0  0  0  0  0  0  0  0  0
  1  2  1  0  0  0  0
  1  4  1  0  0  0  0
  2  3  1  0  0  0  0
M  END
>  <name>
[N;amide](C[C;amine])C

>  <apo>
2

>  <freq>
1

>  <freq0>
0

>  <freq1>
1

>  <freqA>
0.99887151

>  <a_count>
13

$$$$

  MOE2015           2D

  4  3  0  0  0  0  0  0  0  0999 V2000
    3.0000    0.0000    0.0000 N   0  0  0  0  0  0  0  0  0  0  0  0
    1.5000    0.0000    0.0000 C   0  0  0  0  0  0  0  0  0  0  0  0
    0.7500   -1.2990    0.0000 C   0  0  0  0  0  0  0  0  0  0  0  0
    0.7500    1.2990    0.0000 C   0  0  0  0  0  0  0  0  0  0  0  0
  1  2  1  0  0  0  0
  2  3  1  0  0  0  0
  2  4  1  0  0  0  0
M  END
>  <name>
[N;amide]C([C;NaroC])C

>  <apo>
2

>  <freq>
1

>  <freq0>
0

>  <freq1>
1

>  <freqA>
0.99887151

>  <a_count>
13

$$$$

  MOE2015           2D

  4  3  0  0  0  0  0  0  0  0999 V2000
   -0.0740   -0.2750    0.0000 N   0  0  0  0  0  0  0  0  0  0  0  0
    1.2250   -1.0250    0.0000 C   0  0  0  0  0  0  0  0  0  0  0  0
    2.5250   -0.2750    0.0000 C   0  0  0  0  0  0  0  0  0  0  0  0
    3.8240   -1.0250    0.0000 C   0  0  0  0  0  0  0  0  0  0  0  0
  1  2  1  0  0  0  0
  2  3  1  0  0  0  0
  3  4  1  0  0  0  0
M  END
>  <name>
[N;amide]CC[C;amine]

>  <apo>
2

>  <freq>
1

>  <freq0>
0

>  <freq1>
1

>  <freqA>
0.99887151

>  <a_count>
13

$$$$

  MOE2015           2D

  7  7  0  0  0  0  0  0  0  0999 V2000
    0.3090   -1.5080    0.0000 N   0  0  0  0  0  0  0  0  0  0  0  0
    1.5670   -0.6910    0.0000 C   0  0  0  0  0  0  0  0  0  0  0  0
    1.6450    0.8070    0.0000 N   0  0  0  0  0  0  0  0  0  0  0  0
    3.0940    1.1950    0.0000 O   0  0  0  0  0  0  0  0  0  0  0  0
    3.9110   -0.0630    0.0000 C   0  0  0  0  0  0  0  0  0  0  0  0
    5.4090   -0.1420    0.0000 C   0  0  0  0  0  0  0  0  0  0  0  0
    2.9670   -1.2290    0.0000 C   0  0  0  0  0  0  0  0  0  0  0  0
  1  2  1  0  0  0  0
  2  3  2  0  0  0  0
  2  7  1  0  0  0  0
  3  4  1  0  0  0  0
  4  5  1  0  0  0  0
  5  6  1  0  0  0  0
  5  7  2  0  0  0  0
M  END
>  <name>
[N;amide]c1noc(C)c1

>  <apo>
1

>  <freq>
1

>  <freq0>
0

>  <freq1>
1

>  <freqA>
0.99887151

>  <a_count>
13

$$$$

  MOE2015           2D

  7  7  0  0  0  0  0  0  0  0999 V2000
    0.3090   -1.0420    0.0000 N   0  0  0  0  0  0  0  0  0  0  0  0
    1.5670   -0.2250    0.0000 C   0  0  0  0  0  0  0  0  0  0  0  0
    2.9670   -0.7630    0.0000 S   0  0  0  0  0  0  0  0  0  0  0  0
    3.9110    0.4030    0.0000 C   0  0  0  0  0  0  0  0  0  0  0  0
    5.4090    0.3250    0.0000 C   0  0  0  0  0  0  0  0  0  0  0  0
    3.0940    1.6610    0.0000 C   0  0  0  0  0  0  0  0  0  0  0  0
    1.6450    1.2730    0.0000 N   0  0  0  0  0  0  0  0  0  0  0  0
  1  2  1  0  0  0  0
  2  3  1  0  0  0  0
  2  7  2  0  0  0  0
  3  4  1  0  0  0  0
  4  5  1  0  0  0  0
  4  6  2  0  0  0  0
  6  7  1  0  0  0  0
M  END
>  <name>
[N;amide]c1sc(C)cn1

>  <apo>
1

>  <freq>
1

>  <freq0>
0

>  <freq1>
1

>  <freqA>
0.99887151

>  <a_count>
13

$$$$

  MOE2015           2D

  7  7  0  0  0  0  0  0  0  0999 V2000
    0.3090   -1.5080    0.0000 N   0  0  0  0  0  0  0  0  0  0  0  0
    1.5670   -0.6910    0.0000 C   0  0  0  0  0  0  0  0  0  0  0  0
    1.6450    0.8070    0.0000 N   0  0  0  0  0  0  0  0  0  0  0  0
    3.0940    1.1950    0.0000 O   0  0  0  0  0  0  0  0  0  0  0  0
    3.9110   -0.0630    0.0000 C   0  0  0  0  0  0  0  0  0  0  0  0
    5.4090   -0.1420    0.0000 C   0  0  0  0  0  0  0  0  0  0  0  0
    2.9670   -1.2290    0.0000 C   0  0  0  0  0  0  0  0  0  0  0  0
  1  2  1  0  0  0  0
  2  3  2  0  0  0  0
  2  7  1  0  0  0  0
  3  4  1  0  0  0  0
  4  5  1  0  0  0  0
  5  6  1  0  0  0  0
  5  7  2  0  0  0  0
M  END
>  <name>
[N;so2amide]c1noc(C)c1

>  <apo>
1

>  <freq>
1

>  <freq0>
0

>  <freq1>
1

>  <freqA>
0.99887151

>  <a_count>
13

$$$$

  MOE2015           2D

  7  7  0  0  0  0  0  0  0  0999 V2000
    0.3090   -1.5080    0.0000 N   0  0  0  0  0  0  0  0  0  0  0  0
    1.5670   -0.6910    0.0000 C   0  0  0  0  0  0  0  0  0  0  0  0
    1.6450    0.8070    0.0000 N   0  0  0  0  0  0  0  0  0  0  0  0
    3.0940    1.1950    0.0000 O   0  0  0  0  0  0  0  0  0  0  0  0
    3.9110   -0.0630    0.0000 C   0  0  0  0  0  0  0  0  0  0  0  0
    5.4090   -0.1420    0.0000 C   0  0  0  0  0  0  0  0  0  0  0  0
    2.9670   -1.2290    0.0000 C   0  0  0  0  0  0  0  0  0  0  0  0
  1  2  1  0  0  0  0
  2  3  2  0  0  0  0
  2  7  1  0  0  0  0
  3  4  1  0  0  0  0
  4  5  1  0  0  0  0
  5  6  1  0  0  0  0
  5  7  2  0  0  0  0
M  END
>  <name>
[N;urea]c1noc(C)c1

>  <apo>
1

>  <freq>
1

>  <freq0>
0

>  <freq1>
1

>  <freqA>
0.99887151

>  <a_count>
13

$$$$

  MOE2015           2D

  7  7  0  0  0  0  0  0  0  0999 V2000
    0.3090   -1.5080    0.0000 N   0  0  0  0  0  0  0  0  0  0  0  0
    1.5670   -0.6910    0.0000 C   0  0  0  0  0  0  0  0  0  0  0  0
    1.6450    0.8070    0.0000 S   0  0  0  0  0  0  0  0  0  0  0  0
    3.0940    1.1950    0.0000 C   0  0  0  0  0  0  0  0  0  0  0  0
    3.9110   -0.0630    0.0000 C   0  0  0  0  0  0  0  0  0  0  0  0
    5.4090   -0.1420    0.0000 C   0  0  0  0  0  0  0  0  0  0  0  0
    2.9670   -1.2290    0.0000 N   0  0  0  0  0  0  0  0  0  0  0  0
  1  2  1  0  0  0  0
  2  3  1  0  0  0  0
  2  7  2  0  0  0  0
  3  4  1  0  0  0  0
  4  5  2  0  0  0  0
  5  6  1  0  0  0  0
  5  7  1  0  0  0  0
M  END
>  <name>
[N;urea]c1s[c;biphenyl]c(C)n1

>  <apo>
2

>  <freq>
1

>  <freq0>
0

>  <freq1>
1

>  <freqA>
0.99887151

>  <a_count>
13

$$$$

  MOE2015           2D

  5  4  0  0  0  0  0  0  0  0999 V2000
    4.9980   -1.3390    0.0000 O   0  0  0  0  0  0  0  0  0  0  0  0
    3.6990   -0.5890    0.0000 C   0  0  0  0  0  0  0  0  0  0  0  0
    2.4000   -1.3390    0.0000 C   0  0  0  0  0  0  0  0  0  0  0  0
    1.1010   -0.5890    0.0000 C   0  0  0  0  0  0  0  0  0  0  0  0
   -0.1980   -1.3390    0.0000 O   0  0  0  0  0  0  0  0  0  0  0  0
  1  2  1  0  0  0  0
  2  3  1  0  0  0  0
  3  4  1  0  0  0  0
  4  5  1  0  0  0  0
M  END
>  <name>
[O;ester]C[C;ether]CO

>  <apo>
2

>  <freq>
1

>  <freq0>
0

>  <freq1>
1

>  <freqA>
0.99887151

>  <a_count>
13

$$$$

  MOE2015           2D

  7  7  0  0  0  0  0  0  0  0999 V2000
    5.1430    0.0000    0.0000 O   0  0  0  0  0  0  0  0  0  0  0  0
    3.6430    0.0000    0.0000 C   0  0  0  0  0  0  0  0  0  0  0  0
    2.8930    1.2990    0.0000 C   0  0  0  0  0  0  0  0  0  0  0  0
    1.3930    1.2990    0.0000 C   0  0  0  0  0  0  0  0  0  0  0  0
    0.6430    0.0000    0.0000 C   0  0  0  0  0  0  0  0  0  0  0  0
    1.3930   -1.2990    0.0000 C   0  0  0  0  0  0  0  0  0  0  0  0
    2.8930   -1.2990    0.0000 C   0  0  0  0  0  0  0  0  0  0  0  0
  1  2  1  0  0  0  0
  2  3  1  0  0  0  0
  2  7  2  0  0  0  0
  3  4  2  0  0  0  0
  4  5  1  0  0  0  0
  5  6  2  0  0  0  0
  6  7  1  0  0  0  0
M  END
>  <name>
[O;ether]c1[c;biphenyl]c[c;biphenyl]cc1

>  <apo>
3

>  <freq>
1

>  <freq0>
0

>  <freq1>
1

>  <freqA>
0.99887151

>  <a_count>
13

$$$$

  MOE2015           2D

  7  7  0  0  0  0  0  0  0  0999 V2000
    5.1430    0.0000    0.0000 O   0  0  0  0  0  0  0  0  0  0  0  0
    3.6430    0.0000    0.0000 C   0  0  0  0  0  0  0  0  0  0  0  0
    2.8930    1.2990    0.0000 C   0  0  0  0  0  0  0  0  0  0  0  0
    1.3930    1.2990    0.0000 C   0  0  0  0  0  0  0  0  0  0  0  0
    0.6430    0.0000    0.0000 C   0  0  0  0  0  0  0  0  0  0  0  0
    1.3930   -1.2990    0.0000 C   0  0  0  0  0  0  0  0  0  0  0  0
    2.8930   -1.2990    0.0000 C   0  0  0  0  0  0  0  0  0  0  0  0
  1  2  1  0  0  0  0
  2  3  1  0  0  0  0
  2  7  2  0  0  0  0
  3  4  2  0  0  0  0
  4  5  1  0  0  0  0
  5  6  2  0  0  0  0
  6  7  1  0  0  0  0
M  END
>  <name>
[O;ether]c1c[c;biphenyl]ccc1

>  <apo>
2

>  <freq>
1

>  <freq0>
0

>  <freq1>
1

>  <freqA>
0.99887151

>  <a_count>
13

$$$$

  MOE2015           2D

  8  8  0  0  0  0  0  0  0  0999 V2000
    0.0000    0.0000    0.0000 O   0  0  0  0  0  0  0  0  0  0  0  0
    1.5000    0.0000    0.0000 C   0  0  0  0  0  0  0  0  0  0  0  0
    2.2500   -1.2990    0.0000 C   0  0  0  0  0  0  0  0  0  0  0  0
    3.7500   -1.2990    0.0000 N   0  0  0  0  0  0  0  0  0  0  0  0
    4.5000    0.0000    0.0000 C   0  0  0  0  0  0  0  0  0  0  0  0
    6.0000    0.0000    0.0000 N   0  0  0  0  0  0  0  0  0  0  0  0
    3.7500    1.2990    0.0000 N   0  0  0  0  0  0  0  0  0  0  0  0
    2.2500    1.2990    0.0000 C   0  0  0  0  0  0  0  0  0  0  0  0
  1  2  1  0  0  0  0
  2  3  1  0  0  0  0
  2  8  2  0  0  0  0
  3  4  2  0  0  0  0
  4  5  1  0  0  0  0
  5  6  1  0  0  0  0
  5  7  2  0  0  0  0
  7  8  1  0  0  0  0
M  END
>  <name>
[O;ether]c1cnc([N;so2amide])nc1

>  <apo>
2

>  <freq>
1

>  <freq0>
0

>  <freq1>
1

>  <freqA>
0.99887151

>  <a_count>
13

$$$$

  MOE2015           2D

  8  8  0  0  0  0  0  0  0  0999 V2000
    5.4110   -0.8000    0.0000 O   0  0  0  0  0  0  0  0  0  0  0  0
    4.1120   -0.0500    0.0000 C   0  0  0  0  0  0  0  0  0  0  0  0
    2.8120   -0.8000    0.0000 N   0  0  0  0  0  0  0  0  0  0  0  0
    1.5130   -0.0500    0.0000 C   0  0  0  0  0  0  0  0  0  0  0  0
    0.2140   -0.8000    0.0000 N   0  0  0  0  0  0  0  0  0  0  0  0
    1.5130    1.4500    0.0000 N   0  0  0  0  0  0  0  0  0  0  0  0
    2.8120    2.2000    0.0000 C   0  0  0  0  0  0  0  0  0  0  0  0
    4.1120    1.4500    0.0000 C   0  0  0  0  0  0  0  0  0  0  0  0
  1  2  1  0  0  0  0
  2  3  1  0  0  0  0
  2  8  2  0  0  0  0
  3  4  2  0  0  0  0
  4  5  1  0  0  0  0
  4  6  1  0  0  0  0
  6  7  2  0  0  0  0
  7  8  1  0  0  0  0
M  END
>  <name>
[O;ether]c1nc(N)n[c;biphenyl]c1

>  <apo>
2

>  <freq>
1

>  <freq0>
0

>  <freq1>
1

>  <freqA>
0.99887151

>  <a_count>
13

$$$$

  MOE2015           2D

  7  7  0  0  0  0  0  0  0  0999 V2000
    5.1430    0.0000    0.0000 Br  0  0  0  0  0  0  0  0  0  0  0  0
    3.6430    0.0000    0.0000 C   0  0  0  0  0  0  0  0  0  0  0  0
    2.8930    1.2990    0.0000 C   0  0  0  0  0  0  0  0  0  0  0  0
    1.3930    1.2990    0.0000 C   0  0  0  0  0  0  0  0  0  0  0  0
    0.6430    0.0000    0.0000 C   0  0  0  0  0  0  0  0  0  0  0  0
    1.3930   -1.2990    0.0000 C   0  0  0  0  0  0  0  0  0  0  0  0
    2.8930   -1.2990    0.0000 C   0  0  0  0  0  0  0  0  0  0  0  0
  1  2  1  0  0  0  0
  2  3  1  0  0  0  0
  2  7  2  0  0  0  0
  3  4  2  0  0  0  0
  4  5  1  0  0  0  0
  5  6  2  0  0  0  0
  6  7  1  0  0  0  0
M  END
>  <name>
Brc1cc[c;biphenyl]cc1

>  <apo>
1

>  <freq>
1

>  <freq0>
0

>  <freq1>
1

>  <freqA>
0.99887151

>  <a_count>
12

$$$$

  MOE2015           2D

  6  6  0  0  0  0  0  0  0  0999 V2000
    4.6270    0.0000    0.0000 C   0  0  0  0  0  0  0  0  0  0  0  0
    3.1270    0.0000    0.0000 C   0  0  0  0  0  0  0  0  0  0  0  0
    2.2450   -1.2140    0.0000 N   0  0  0  0  0  0  0  0  0  0  0  0
    0.8180   -0.7500    0.0000 C   0  0  0  0  0  0  0  0  0  0  0  0
    0.8180    0.7500    0.0000 C   0  0  0  0  0  0  0  0  0  0  0  0
    2.2450    1.2140    0.0000 N   0  0  0  0  0  0  0  0  0  0  0  0
  1  2  1  0  0  0  0
  2  3  1  0  0  0  0
  2  6  2  0  0  0  0
  3  4  1  0  0  0  0
  4  5  2  0  0  0  0
  5  6  1  0  0  0  0
M  END
>  <name>
Cc1[nH;NaroC]ccn1

>  <apo>
1

>  <freq>
1

>  <freq0>
0

>  <freq1>
1

>  <freqA>
0.99887151

>  <a_count>
12

$$$$

  MOE2015           2D

  8  8  0  0  0  0  0  0  0  0999 V2000
    5.4110   -0.8000    0.0000 Cl  0  0  0  0  0  0  0  0  0  0  0  0
    4.1120   -0.0500    0.0000 C   0  0  0  0  0  0  0  0  0  0  0  0
    2.8120   -0.8000    0.0000 C   0  0  0  0  0  0  0  0  0  0  0  0
    1.5130   -0.0500    0.0000 C   0  0  0  0  0  0  0  0  0  0  0  0
    0.2140   -0.8000    0.0000 Cl  0  0  0  0  0  0  0  0  0  0  0  0
    1.5130    1.4500    0.0000 C   0  0  0  0  0  0  0  0  0  0  0  0
    2.8120    2.2000    0.0000 C   0  0  0  0  0  0  0  0  0  0  0  0
    4.1120    1.4500    0.0000 C   0  0  0  0  0  0  0  0  0  0  0  0
  1  2  1  0  0  0  0
  2  3  1  0  0  0  0
  2  8  2  0  0  0  0
  3  4  2  0  0  0  0
  4  5  1  0  0  0  0
  4  6  1  0  0  0  0
  6  7  2  0  0  0  0
  7  8  1  0  0  0  0
M  END
>  <name>
Clc1[c;biphenyl]c(Cl)ccc1

>  <apo>
1

>  <freq>
1

>  <freq0>
0

>  <freq1>
1

>  <freqA>
0.99887151

>  <a_count>
12

$$$$

  MOE2015           2D

  8  8  0  0  0  0  0  0  0  0999 V2000
    5.4110   -0.8000    0.0000 Cl  0  0  0  0  0  0  0  0  0  0  0  0
    4.1120   -0.0500    0.0000 C   0  0  0  0  0  0  0  0  0  0  0  0
    2.8120   -0.8000    0.0000 C   0  0  0  0  0  0  0  0  0  0  0  0
    1.5130   -0.0500    0.0000 C   0  0  0  0  0  0  0  0  0  0  0  0
    0.2140   -0.8000    0.0000 F   0  0  0  0  0  0  0  0  0  0  0  0
    1.5130    1.4500    0.0000 C   0  0  0  0  0  0  0  0  0  0  0  0
    2.8120    2.2000    0.0000 C   0  0  0  0  0  0  0  0  0  0  0  0
    4.1120    1.4500    0.0000 C   0  0  0  0  0  0  0  0  0  0  0  0
  1  2  1  0  0  0  0
  2  3  1  0  0  0  0
  2  8  2  0  0  0  0
  3  4  2  0  0  0  0
  4  5  1  0  0  0  0
  4  6  1  0  0  0  0
  6  7  2  0  0  0  0
  7  8  1  0  0  0  0
M  END
>  <name>
Clc1[c;biphenyl]c(F)ccc1

>  <apo>
1

>  <freq>
1

>  <freq0>
0

>  <freq1>
1

>  <freqA>
0.99887151

>  <a_count>
12

$$$$

  MOE2015           2D

  7  7  0  0  0  0  0  0  0  0999 V2000
    5.1430    0.0000    0.0000 Cl  0  0  0  0  0  0  0  0  0  0  0  0
    3.6430    0.0000    0.0000 C   0  0  0  0  0  0  0  0  0  0  0  0
    2.8930    1.2990    0.0000 C   0  0  0  0  0  0  0  0  0  0  0  0
    1.3930    1.2990    0.0000 C   0  0  0  0  0  0  0  0  0  0  0  0
    0.6430    0.0000    0.0000 C   0  0  0  0  0  0  0  0  0  0  0  0
    1.3930   -1.2990    0.0000 C   0  0  0  0  0  0  0  0  0  0  0  0
    2.8930   -1.2990    0.0000 C   0  0  0  0  0  0  0  0  0  0  0  0
  1  2  1  0  0  0  0
  2  3  1  0  0  0  0
  2  7  2  0  0  0  0
  3  4  2  0  0  0  0
  4  5  1  0  0  0  0
  5  6  2  0  0  0  0
  6  7  1  0  0  0  0
M  END
>  <name>
Clc1[c;biphenyl]cccc1

>  <apo>
1

>  <freq>
1

>  <freq0>
0

>  <freq1>
1

>  <freqA>
0.99887151

>  <a_count>
12

$$$$

  MOE2015           2D

  8  8  0  0  0  0  0  0  0  0999 V2000
    0.4890   -1.1750    0.0000 Cl  0  0  0  0  0  0  0  0  0  0  0  0
    1.7880   -0.4250    0.0000 C   0  0  0  0  0  0  0  0  0  0  0  0
    1.7880    1.0750    0.0000 C   0  0  0  0  0  0  0  0  0  0  0  0
    0.4890    1.8250    0.0000 Cl  0  0  0  0  0  0  0  0  0  0  0  0
    3.0870    1.8250    0.0000 C   0  0  0  0  0  0  0  0  0  0  0  0
    4.3860    1.0750    0.0000 C   0  0  0  0  0  0  0  0  0  0  0  0
    4.3860   -0.4250    0.0000 C   0  0  0  0  0  0  0  0  0  0  0  0
    3.0870   -1.1750    0.0000 C   0  0  0  0  0  0  0  0  0  0  0  0
  1  2  1  0  0  0  0
  2  3  1  0  0  0  0
  2  8  2  0  0  0  0
  3  4  1  0  0  0  0
  3  5  2  0  0  0  0
  5  6  1  0  0  0  0
  6  7  2  0  0  0  0
  7  8  1  0  0  0  0
M  END
>  <name>
Clc1c(Cl)ccc[c;biphenyl]1

>  <apo>
1

>  <freq>
1

>  <freq0>
0

>  <freq1>
1

>  <freqA>
0.99887151

>  <a_count>
12

$$$$

  MOE2015           2D

  7  7  0  0  0  0  0  0  0  0999 V2000
    0.6530   -1.2550    0.0000 Cl  0  0  0  0  0  0  0  0  0  0  0  0
    1.8660   -0.3730    0.0000 C   0  0  0  0  0  0  0  0  0  0  0  0
    1.8660    1.1270    0.0000 C   0  0  0  0  0  0  0  0  0  0  0  0
    0.6530    2.0090    0.0000 C   0  0  0  0  0  0  0  0  0  0  0  0
    3.2930    1.5910    0.0000 C   0  0  0  0  0  0  0  0  0  0  0  0
    4.1740    0.3770    0.0000 C   0  0  0  0  0  0  0  0  0  0  0  0
    3.2930   -0.8360    0.0000 S   0  0  0  0  0  0  0  0  0  0  0  0
  1  2  1  0  0  0  0
  2  3  2  0  0  0  0
  2  7  1  0  0  0  0
  3  4  1  0  0  0  0
  3  5  1  0  0  0  0
  5  6  2  0  0  0  0
  6  7  1  0  0  0  0
M  END
>  <name>
Clc1c([C;ether])ccs1

>  <apo>
1

>  <freq>
1

>  <freq0>
0

>  <freq1>
1

>  <freqA>
0.99887151

>  <a_count>
12

$$$$

  MOE2015           2D

  8  8  0  0  0  0  0  0  0  0999 V2000
    5.4110   -0.8000    0.0000 Cl  0  0  0  0  0  0  0  0  0  0  0  0
    4.1120   -0.0500    0.0000 C   0  0  0  0  0  0  0  0  0  0  0  0
    2.8120   -0.8000    0.0000 C   0  0  0  0  0  0  0  0  0  0  0  0
    1.5130   -0.0500    0.0000 C   0  0  0  0  0  0  0  0  0  0  0  0
    0.2140   -0.8000    0.0000 Cl  0  0  0  0  0  0  0  0  0  0  0  0
    1.5130    1.4500    0.0000 C   0  0  0  0  0  0  0  0  0  0  0  0
    2.8120    2.2000    0.0000 C   0  0  0  0  0  0  0  0  0  0  0  0
    4.1120    1.4500    0.0000 C   0  0  0  0  0  0  0  0  0  0  0  0
  1  2  1  0  0  0  0
  2  3  1  0  0  0  0
  2  8  2  0  0  0  0
  3  4  2  0  0  0  0
  4  5  1  0  0  0  0
  4  6  1  0  0  0  0
  6  7  2  0  0  0  0
  7  8  1  0  0  0  0
M  END
>  <name>
Clc1cc(Cl)c[c;biphenyl]c1

>  <apo>
1

>  <freq>
1

>  <freq0>
0

>  <freq1>
1

>  <freqA>
0.99887151

>  <a_count>
12

$$$$

  MOE2015           2D

  7  7  0  0  0  0  0  0  0  0999 V2000
    5.1430    0.0000    0.0000 F   0  0  0  0  0  0  0  0  0  0  0  0
    3.6430    0.0000    0.0000 C   0  0  0  0  0  0  0  0  0  0  0  0
    2.8930    1.2990    0.0000 C   0  0  0  0  0  0  0  0  0  0  0  0
    1.3930    1.2990    0.0000 C   0  0  0  0  0  0  0  0  0  0  0  0
    0.6430    0.0000    0.0000 C   0  0  0  0  0  0  0  0  0  0  0  0
    1.3930   -1.2990    0.0000 C   0  0  0  0  0  0  0  0  0  0  0  0
    2.8930   -1.2990    0.0000 C   0  0  0  0  0  0  0  0  0  0  0  0
  1  2  1  0  0  0  0
  2  3  1  0  0  0  0
  2  7  2  0  0  0  0
  3  4  2  0  0  0  0
  4  5  1  0  0  0  0
  5  6  2  0  0  0  0
  6  7  1  0  0  0  0
M  END
>  <name>
Fc1c[c;biphenyl]ccc1

>  <apo>
1

>  <freq>
1

>  <freq0>
0

>  <freq1>
1

>  <freqA>
0.99887151

>  <a_count>
12

$$$$

  MOE2015           2D

  8  8  0  0  0  0  0  0  0  0999 V2000
    5.4110   -0.8000    0.0000 F   0  0  0  0  0  0  0  0  0  0  0  0
    4.1120   -0.0500    0.0000 C   0  0  0  0  0  0  0  0  0  0  0  0
    2.8120   -0.8000    0.0000 C   0  0  0  0  0  0  0  0  0  0  0  0
    1.5130   -0.0500    0.0000 C   0  0  0  0  0  0  0  0  0  0  0  0
    0.2140   -0.8000    0.0000 F   0  0  0  0  0  0  0  0  0  0  0  0
    1.5130    1.4500    0.0000 C   0  0  0  0  0  0  0  0  0  0  0  0
    2.8120    2.2000    0.0000 C   0  0  0  0  0  0  0  0  0  0  0  0
    4.1120    1.4500    0.0000 C   0  0  0  0  0  0  0  0  0  0  0  0
  1  2  1  0  0  0  0
  2  3  1  0  0  0  0
  2  8  2  0  0  0  0
  3  4  2  0  0  0  0
  4  5  1  0  0  0  0
  4  6  1  0  0  0  0
  6  7  2  0  0  0  0
  7  8  1  0  0  0  0
M  END
>  <name>
Fc1cc(F)cc[c;biphenyl]1

>  <apo>
1

>  <freq>
1

>  <freq0>
0

>  <freq1>
1

>  <freqA>
0.99887151

>  <a_count>
12

$$$$

  MOE2015           2D

  7  7  0  0  0  0  0  0  0  0999 V2000
    5.1430    0.0000    0.0000 N   0  0  0  0  0  0  0  0  0  0  0  0
    3.6430    0.0000    0.0000 C   0  0  0  0  0  0  0  0  0  0  0  0
    2.8930    1.2990    0.0000 N   0  0  0  0  0  0  0  0  0  0  0  0
    1.3930    1.2990    0.0000 C   0  0  0  0  0  0  0  0  0  0  0  0
    0.6430    0.0000    0.0000 C   0  0  0  0  0  0  0  0  0  0  0  0
    1.3930   -1.2990    0.0000 C   0  0  0  0  0  0  0  0  0  0  0  0
    2.8930   -1.2990    0.0000 N   0  0  0  0  0  0  0  0  0  0  0  0
  1  2  1  0  0  0  0
  2  3  1  0  0  0  0
  2  7  2  0  0  0  0
  3  4  2  0  0  0  0
  4  5  1  0  0  0  0
  5  6  2  0  0  0  0
  6  7  1  0  0  0  0
M  END
>  <name>
Nc1ncc[c;biphenyl]n1

>  <apo>
1

>  <freq>
1

>  <freq0>
0

>  <freq1>
1

>  <freqA>
0.99887151

>  <a_count>
12

$$$$

  MOE2015           2D

  5  4  0  0  0  0  0  0  0  0999 V2000
    0.1310   -1.0100    0.0000 O   0  0  0  0  0  0  0  0  0  0  0  0
    1.4300   -0.2600    0.0000 C   0  0  0  0  0  0  0  0  0  0  0  0
    1.4300    1.2400    0.0000 N   0  0  0  0  0  0  0  0  0  0  0  0
    2.7290   -1.0100    0.0000 C   0  0  0  0  0  0  0  0  0  0  0  0
    4.0280   -0.2600    0.0000 C   0  0  0  0  0  0  0  0  0  0  0  0
  1  2  2  0  0  0  0
  2  3  1  0  0  0  0
  2  4  1  0  0  0  0
  4  5  1  0  0  0  0
M  END
>  <name>
O=C(N)[C;amine]C

>  <apo>
1

>  <freq>
1

>  <freq0>
0

>  <freq1>
1

>  <freqA>
0.99887151

>  <a_count>
12

$$$$

  MOE2015           2D

  8  8  0  0  0  0  0  0  0  0999 V2000
    4.5710   -2.6390    0.0000 O   0  0  0  0  0  0  0  0  0  0  0  0
    3.8210   -1.3400    0.0000 C   0  0  0  0  0  0  0  0  0  0  0  0
    4.5710   -0.0410    0.0000 N   0  0  0  0  0  0  0  0  0  0  0  0
    2.3210   -1.3400    0.0000 C   0  0  0  0  0  0  0  0  0  0  0  0
    1.4400   -0.1270    0.0000 N   0  0  0  0  0  0  0  0  0  0  0  0
    0.0130   -0.5900    0.0000 N   0  0  0  0  0  0  0  0  0  0  0  0
    0.0130   -2.0900    0.0000 C   0  0  0  0  0  0  0  0  0  0  0  0
    1.4400   -2.5540    0.0000 N   0  0  0  0  0  0  0  0  0  0  0  0
  1  2  2  0  0  0  0
  2  3  1  0  0  0  0
  2  4  1  0  0  0  0
  4  5  2  0  0  0  0
  4  8  1  0  0  0  0
  5  6  1  0  0  0  0
  6  7  1  0  0  0  0
  7  8  2  0  0  0  0
M  END
>  <name>
O=C(N)c1n[nH;NaroC]cn1

>  <apo>
1

>  <freq>
1

>  <freq0>
0

>  <freq1>
1

>  <freqA>
0.99887151

>  <a_count>
12

$$$$

  MOE2015           2D

  8  8  0  0  0  0  0  0  0  0999 V2000
    4.5710   -2.6390    0.0000 O   0  0  0  0  0  0  0  0  0  0  0  0
    3.8210   -1.3400    0.0000 C   0  0  0  0  0  0  0  0  0  0  0  0
    4.5710   -0.0410    0.0000 N   0  0  0  0  0  0  0  0  0  0  0  0
    2.3210   -1.3400    0.0000 C   0  0  0  0  0  0  0  0  0  0  0  0
    1.4400   -0.1270    0.0000 N   0  0  0  0  0  0  0  0  0  0  0  0
    0.0130   -0.5900    0.0000 N   0  0  0  0  0  0  0  0  0  0  0  0
    0.0130   -2.0900    0.0000 N   0  0  0  0  0  0  0  0  0  0  0  0
    1.4400   -2.5540    0.0000 C   0  0  0  0  0  0  0  0  0  0  0  0
  1  2  2  0  0  0  0
  2  3  1  0  0  0  0
  2  4  1  0  0  0  0
  4  5  1  0  0  0  0
  4  8  2  0  0  0  0
  5  6  2  0  0  0  0
  6  7  1  0  0  0  0
  7  8  1  0  0  0  0
M  END
>  <name>
O=C(N)c1nn[nH;NaroC]c1

>  <apo>
1

>  <freq>
1

>  <freq0>
0

>  <freq1>
1

>  <freqA>
0.99887151

>  <a_count>
12

$$$$

  MOE2015           2D

  5  4  0  0  0  0  0  0  0  0999 V2000
    0.1310   -1.0100    0.0000 O   0  0  0  0  0  0  0  0  0  0  0  0
    1.4300   -0.2600    0.0000 C   0  0  0  0  0  0  0  0  0  0  0  0
    1.4300    1.2400    0.0000 N   0  0  0  0  0  0  0  0  0  0  0  0
    2.7290   -1.0100    0.0000 C   0  0  0  0  0  0  0  0  0  0  0  0
    4.0280   -0.2600    0.0000 C   0  0  0  0  0  0  0  0  0  0  0  0
  1  2  2  0  0  0  0
  2  3  1  0  0  0  0
  2  4  1  0  0  0  0
  4  5  1  0  0  0  0
M  END
>  <name>
O=C([N;so2amide])CC

>  <apo>
1

>  <freq>
1

>  <freq0>
0

>  <freq1>
1

>  <freqA>
0.99887151

>  <a_count>
12

$$$$

  MOE2015           2D

  8  8  0  0  1  0  0  0  0  0999 V2000
    0.5710   -1.5060    0.0000 O   0  0  0  0  0  0  0  0  0  0  0  0
    1.7850   -0.6240    0.0000 C   0  0  0  0  0  0  0  0  0  0  0  0
    1.7850    0.8760    0.0000 C   0  0  3  0  0  0  0  0  0  0  0  0
    0.5710    1.7580    0.0000 N   0  0  0  0  0  0  0  0  0  0  0  0
    3.2110    1.3400    0.0000 N   0  0  0  0  0  0  0  0  0  0  0  0
    4.0930    0.1260    0.0000 C   0  0  0  0  0  0  0  0  0  0  0  0
    5.5930    0.1260    0.0000 O   0  0  0  0  0  0  0  0  0  0  0  0
    3.2110   -1.0870    0.0000 N   0  5  0  0  0  0  0  0  0  0  0  0
  1  2  2  0  0  0  0
  2  3  1  0  0  0  0
  2  8  1  0  0  0  0
  3  4  1  0  0  0  0
  3  5  1  0  0  0  0
  5  6  1  0  0  0  0
  6  7  2  0  0  0  0
  6  8  1  0  0  0  0
M  CHG  1   8  -1
M  END
>  <name>
O=C1C([N;urea])NC(=O)[N-]1

>  <apo>
1

>  <freq>
1

>  <freq0>
0

>  <freq1>
1

>  <freqA>
0.99887151

>  <a_count>
12

$$$$

  MOE2015           2D

  7  7  0  0  0  0  0  0  0  0999 V2000
    0.3090   -1.0420    0.0000 O   0  0  0  0  0  0  0  0  0  0  0  0
    1.5670   -0.2250    0.0000 C   0  0  0  0  0  0  0  0  0  0  0  0
    2.9670   -0.7630    0.0000 N   0  0  0  0  0  0  0  0  0  0  0  0
    3.9110    0.4030    0.0000 C   0  0  0  0  0  0  0  0  0  0  0  0
    5.4090    0.3250    0.0000 C   0  0  0  0  0  0  0  0  0  0  0  0
    3.0940    1.6610    0.0000 N   0  0  0  0  0  0  0  0  0  0  0  0
    1.6450    1.2730    0.0000 N   0  0  0  0  0  0  0  0  0  0  0  0
  1  2  2  0  0  0  0
  2  3  1  0  0  0  0
  2  7  1  0  0  0  0
  3  4  1  0  0  0  0
  4  5  1  0  0  0  0
  4  6  2  0  0  0  0
  6  7  1  0  0  0  0
M  END
>  <name>
O=C1NC([C;amine])=NN1

>  <apo>
1

>  <freq>
1

>  <freq0>
0

>  <freq1>
1

>  <freqA>
0.99887151

>  <a_count>
12

$$$$

  MOE2015           2D

  6  6  0  0  0  0  0  0  0  0999 V2000
    4.6270    0.0000    0.0000 O   0  0  0  0  0  0  0  0  0  0  0  0
    3.1270    0.0000    0.0000 C   0  0  0  0  0  0  0  0  0  0  0  0
    2.2450   -1.2140    0.0000 N   0  0  0  0  0  0  0  0  0  0  0  0
    0.8180   -0.7500    0.0000 C   0  0  0  0  0  0  0  0  0  0  0  0
    0.8180    0.7500    0.0000 C   0  0  0  0  0  0  0  0  0  0  0  0
    2.2450    1.2140    0.0000 N   0  0  0  0  0  0  0  0  0  0  0  0
  1  2  2  0  0  0  0
  2  3  1  0  0  0  0
  2  6  1  0  0  0  0
  3  4  1  0  0  0  0
  4  5  1  0  0  0  0
  5  6  1  0  0  0  0
M  END
>  <name>
O=C1NCC[N;urea]1

>  <apo>
1

>  <freq>
1

>  <freq0>
0

>  <freq1>
1

>  <freqA>
0.99887151

>  <a_count>
12

$$$$

  MOE2015           2D

  6  6  0  0  0  0  0  0  0  0999 V2000
    4.6270    0.0000    0.0000 O   0  0  0  0  0  0  0  0  0  0  0  0
    3.1270    0.0000    0.0000 C   0  0  0  0  0  0  0  0  0  0  0  0
    2.2450   -1.2140    0.0000 N   0  0  0  0  0  0  0  0  0  0  0  0
    0.8180   -0.7500    0.0000 C   0  0  0  0  0  0  0  0  0  0  0  0
    0.8180    0.7500    0.0000 C   0  0  0  0  0  0  0  0  0  0  0  0
    2.2450    1.2140    0.0000 N   0  0  0  0  0  0  0  0  0  0  0  0
  1  2  2  0  0  0  0
  2  3  1  0  0  0  0
  2  6  1  0  0  0  0
  3  4  1  0  0  0  0
  4  5  1  0  0  0  0
  5  6  1  0  0  0  0
M  END
>  <name>
O=C1[N;urea]CC[N;so2amide]1

>  <apo>
2

>  <freq>
1

>  <freq0>
0

>  <freq1>
1

>  <freqA>
0.99887151

>  <a_count>
12

$$$$

  MOE2015           2D

  6  5  0  0  0  0  0  0  0  0999 V2000
    0.0000    0.0000    0.0000 O   0  0  0  0  0  0  0  0  0  0  0  0
    1.5000    0.0000    0.0000 C   0  0  0  0  0  0  0  0  0  0  0  0
    2.2500    1.2990    0.0000 C   0  0  0  0  0  0  0  0  0  0  0  0
    1.5000    2.5980    0.0000 N   0  0  0  0  0  0  0  0  0  0  0  0
    3.7500    1.2990    0.0000 C   0  0  0  0  0  0  0  0  0  0  0  0
    4.5000    0.0000    0.0000 N   0  0  0  0  0  0  0  0  0  0  0  0
  1  2  2  0  0  0  0
  2  3  1  0  0  0  0
  3  4  1  0  0  0  0
  3  5  2  0  0  0  0
  5  6  1  0  0  0  0
M  END
>  <name>
O=[C;amide]/C(/[N;amide])=C\[N;urea]

>  <apo>
3

>  <freq>
1

>  <freq0>
0

>  <freq1>
1

>  <freqA>
0.99887151

>  <a_count>
12

$$$$

  MOE2015           2D

  5  4  0  0  1  0  0  0  0  0999 V2000
    3.8780   -1.0390    0.0000 O   0  0  0  0  0  0  0  0  0  0  0  0
    2.5790   -1.7890    0.0000 C   0  0  0  0  0  0  0  0  0  0  0  0
    1.2800   -1.0390    0.0000 C   0  0  3  0  0  0  0  0  0  0  0  0
   -0.0190   -1.7890    0.0000 N   0  0  0  0  0  0  0  0  0  0  0  0
    1.2800    0.4610    0.0000 C   0  0  0  0  0  0  0  0  0  0  0  0
  1  2  2  0  0  0  0
  2  3  1  0  0  0  0
  3  4  1  0  0  0  0
  3  5  1  0  0  0  0
M  END
>  <name>
O=[C;amide]C(N)C

>  <apo>
1

>  <freq>
1

>  <freq0>
0

>  <freq1>
1

>  <freqA>
0.99887151

>  <a_count>
12

$$$$

  MOE2015           2D

  5  4  0  0  1  0  0  0  0  0999 V2000
    3.8780   -1.0390    0.0000 O   0  0  0  0  0  0  0  0  0  0  0  0
    2.5790   -1.7890    0.0000 C   0  0  0  0  0  0  0  0  0  0  0  0
    1.2800   -1.0390    0.0000 C   0  0  2  0  0  0  0  0  0  0  0  0
   -0.0190   -1.7890    0.0000 N   0  0  0  0  0  0  0  0  0  0  0  0
    1.2800    0.4610    0.0000 C   0  0  0  0  0  0  0  0  0  0  0  0
  1  2  2  0  0  0  0
  2  3  1  0  0  0  0
  3  4  1  0  0  0  0
  3  5  1  6  0  0  0
M  END
>  <name>
O=[C;amide][C@H]([N;amide])[C;thioether]

>  <apo>
3

>  <freq>
1

>  <freq0>
0

>  <freq1>
1

>  <freqA>
0.99887151

>  <a_count>
12

$$$$

  MOE2015           2D

  8  8  0  0  0  0  0  0  0  0999 V2000
    5.9390   -2.4250    0.0000 O   0  0  0  0  0  0  0  0  0  0  0  0
    4.6100   -3.1220    0.0000 C   0  0  0  0  0  0  0  0  0  0  0  0
    3.3430   -2.3200    0.0000 C   0  0  0  0  0  0  0  0  0  0  0  0
    1.9490   -2.8740    0.0000 O   0  0  0  0  0  0  0  0  0  0  0  0
    0.9910   -1.7200    0.0000 C   0  0  0  0  0  0  0  0  0  0  0  0
   -0.5060   -1.8170    0.0000 C   0  0  0  0  0  0  0  0  0  0  0  0
    1.7930   -0.4520    0.0000 N   0  0  0  0  0  0  0  0  0  0  0  0
    3.2460   -0.8230    0.0000 N   0  0  0  0  0  0  0  0  0  0  0  0
  1  2  2  0  0  0  0
  2  3  1  0  0  0  0
  3  4  1  0  0  0  0
  3  8  2  0  0  0  0
  4  5  1  0  0  0  0
  5  6  1  0  0  0  0
  5  7  2  0  0  0  0
  7  8  1  0  0  0  0
M  END
>  <name>
O=[C;amide]c1oc(C)nn1

>  <apo>
1

>  <freq>
1

>  <freq0>
0

>  <freq1>
1

>  <freqA>
0.99887151

>  <a_count>
12

$$$$

  MOE2015           2D

  9  9  0  0  0  0  0  0  0  0999 V2000
   -0.0830   -0.1460    0.0000 O   0  0  0  0  0  0  0  0  0  0  0  0
    0.6880   -1.4330    0.0000 N   0  3  0  0  0  0  0  0  0  0  0  0
   -0.0420   -2.7440    0.0000 O   0  5  0  0  0  0  0  0  0  0  0  0
    2.1870   -1.4090    0.0000 C   0  0  0  0  0  0  0  0  0  0  0  0
    3.0880   -2.6090    0.0000 S   0  0  0  0  0  0  0  0  0  0  0  0
    4.5070   -2.1230    0.0000 C   0  0  0  0  0  0  0  0  0  0  0  0
    5.7350   -2.9850    0.0000 N   0  0  0  0  0  0  0  0  0  0  0  0
    4.4830   -0.6230    0.0000 N   0  0  0  0  0  0  0  0  0  0  0  0
    3.0500   -0.1820    0.0000 C   0  0  0  0  0  0  0  0  0  0  0  0
  1  2  2  0  0  0  0
  2  3  1  0  0  0  0
  2  4  1  0  0  0  0
  4  5  1  0  0  0  0
  4  9  2  0  0  0  0
  5  6  1  0  0  0  0
  6  7  1  0  0  0  0
  6  8  2  0  0  0  0
  8  9  1  0  0  0  0
M  CHG  1   2   1
M  CHG  1   3  -1
M  END
>  <name>
O=[N+]([O-])c1sc([N;amide])nc1

>  <apo>
1

>  <freq>
1

>  <freq0>
0

>  <freq1>
1

>  <freqA>
0.99887151

>  <a_count>
12

$$$$

  MOE2015           2D

  4  3  0  0  0  0  0  0  0  0999 V2000
    3.0000    0.0000    0.0000 O   0  0  0  0  0  0  0  0  0  0  0  0
    1.5000    0.0000    0.0000 C   0  0  0  0  0  0  0  0  0  0  0  0
    0.7500   -1.2990    0.0000 C   0  0  0  0  0  0  0  0  0  0  0  0
    0.7500    1.2990    0.0000 C   0  0  0  0  0  0  0  0  0  0  0  0
  1  2  1  0  0  0  0
  2  3  1  0  0  0  0
  2  4  1  0  0  0  0
M  END
>  <name>
OC(C)[C;NaroC]

>  <apo>
1

>  <freq>
1

>  <freq0>
0

>  <freq1>
1

>  <freqA>
0.99887151

>  <a_count>
12

$$$$

  MOE2015           2D

  4  3  0  0  0  0  0  0  0  0999 V2000
    3.0000    0.0000    0.0000 O   0  0  0  0  0  0  0  0  0  0  0  0
    1.5000    0.0000    0.0000 C   0  0  0  0  0  0  0  0  0  0  0  0
    0.7500   -1.2990    0.0000 C   0  0  0  0  0  0  0  0  0  0  0  0
    0.7500    1.2990    0.0000 C   0  0  0  0  0  0  0  0  0  0  0  0
  1  2  1  0  0  0  0
  2  3  1  0  0  0  0
  2  4  1  0  0  0  0
M  END
>  <name>
OC(C)[C;ether]

>  <apo>
1

>  <freq>
1

>  <freq0>
0

>  <freq1>
1

>  <freqA>
0.99887151

>  <a_count>
12

$$$$

  MOE2015           2D

  4  3  0  0  0  0  0  0  0  0999 V2000
    3.0000    0.0000    0.0000 O   0  0  0  0  0  0  0  0  0  0  0  0
    1.5000    0.0000    0.0000 C   0  0  0  0  0  0  0  0  0  0  0  0
    0.7500   -1.2990    0.0000 C   0  0  0  0  0  0  0  0  0  0  0  0
    0.7500    1.2990    0.0000 C   0  0  0  0  0  0  0  0  0  0  0  0
  1  2  1  0  0  0  0
  2  3  1  0  0  0  0
  2  4  1  0  0  0  0
M  END
>  <name>
OC([C;NaroC])[C;amine]

>  <apo>
2

>  <freq>
1

>  <freq0>
0

>  <freq1>
1

>  <freqA>
0.99887151

>  <a_count>
12

$$$$

  MOE2015           2D

  4  3  0  0  0  0  0  0  0  0999 V2000
    3.0000    0.0000    0.0000 O   0  0  0  0  0  0  0  0  0  0  0  0
    1.5000    0.0000    0.0000 C   0  0  0  0  0  0  0  0  0  0  0  0
    0.7500   -1.2990    0.0000 C   0  0  0  0  0  0  0  0  0  0  0  0
    0.7500    1.2990    0.0000 C   0  0  0  0  0  0  0  0  0  0  0  0
  1  2  1  0  0  0  0
  2  3  1  0  0  0  0
  2  4  1  0  0  0  0
M  END
>  <name>
OC([C;amine])[C;amine]

>  <apo>
2

>  <freq>
1

>  <freq0>
0

>  <freq1>
1

>  <freqA>
0.99887151

>  <a_count>
12

$$$$

  MOE2015           2D

  4  3  0  0  0  0  0  0  0  0999 V2000
    3.0000    0.0000    0.0000 O   0  0  0  0  0  0  0  0  0  0  0  0
    1.5000    0.0000    0.0000 C   0  0  0  0  0  0  0  0  0  0  0  0
    0.7500   -1.2990    0.0000 C   0  0  0  0  0  0  0  0  0  0  0  0
    0.7500    1.2990    0.0000 C   0  0  0  0  0  0  0  0  0  0  0  0
  1  2  1  0  0  0  0
  2  3  1  0  0  0  0
  2  4  1  0  0  0  0
M  END
>  <name>
OC([C;ether])[C;ether]

>  <apo>
2

>  <freq>
1

>  <freq0>
0

>  <freq1>
1

>  <freqA>
0.99887151

>  <a_count>
12

$$$$

  MOE2015           2D

  4  3  0  0  0  0  0  0  0  0999 V2000
    3.0000    0.0000    0.0000 O   0  0  0  0  0  0  0  0  0  0  0  0
    1.5000    0.0000    0.0000 C   0  0  0  0  0  0  0  0  0  0  0  0
    0.7500   -1.2990    0.0000 C   0  0  0  0  0  0  0  0  0  0  0  0
    0.7500    1.2990    0.0000 C   0  0  0  0  0  0  0  0  0  0  0  0
  1  2  1  0  0  0  0
  2  3  1  0  0  0  0
  2  4  1  0  0  0  0
M  END
>  <name>
OC([C;olefin])[C;ether]

>  <apo>
2

>  <freq>
1

>  <freq0>
0

>  <freq1>
1

>  <freqA>
0.99887151

>  <a_count>
12

$$$$

  MOE2015           2D

  4  3  0  0  0  0  0  0  0  0999 V2000
   -0.0740   -0.2750    0.0000 O   0  0  0  0  0  0  0  0  0  0  0  0
    1.2250   -1.0250    0.0000 C   0  0  0  0  0  0  0  0  0  0  0  0
    2.5250   -0.2750    0.0000 C   0  0  0  0  0  0  0  0  0  0  0  0
    3.8240   -1.0250    0.0000 C   0  0  0  0  0  0  0  0  0  0  0  0
  1  2  1  0  0  0  0
  2  3  1  0  0  0  0
  3  4  1  0  0  0  0
M  END
>  <name>
OCC[C;amine]

>  <apo>
1

>  <freq>
1

>  <freq0>
0

>  <freq1>
1

>  <freqA>
0.99887151

>  <a_count>
12

$$$$

  MOE2015           2D

  6  6  0  0  0  0  0  0  0  0999 V2000
    4.6270    0.0000    0.0000 C   0  0  0  0  0  0  0  0  0  0  0  0
    3.1270    0.0000    0.0000 C   0  0  0  0  0  0  0  0  0  0  0  0
    2.2450   -1.2140    0.0000 C   0  0  0  0  0  0  0  0  0  0  0  0
    0.8180   -0.7500    0.0000 S   0  0  0  0  0  0  0  0  0  0  0  0
    0.8180    0.7500    0.0000 C   0  0  0  0  0  0  0  0  0  0  0  0
    2.2450    1.2140    0.0000 C   0  0  0  0  0  0  0  0  0  0  0  0
  1  2  1  0  0  0  0
  2  3  2  0  0  0  0
  2  6  1  0  0  0  0
  3  4  1  0  0  0  0
  4  5  1  0  0  0  0
  5  6  2  0  0  0  0
M  END
>  <name>
[C;amine]c1cscc1

>  <apo>
1

>  <freq>
1

>  <freq0>
0

>  <freq1>
1

>  <freqA>
0.99887151

>  <a_count>
12

$$$$

  MOE2015           2D

  6  6  0  0  0  0  0  0  0  0999 V2000
    4.6270    0.0000    0.0000 C   0  0  0  0  0  0  0  0  0  0  0  0
    3.1270    0.0000    0.0000 C   0  0  0  0  0  0  0  0  0  0  0  0
    2.2450   -1.2140    0.0000 O   0  0  0  0  0  0  0  0  0  0  0  0
    0.8180   -0.7500    0.0000 C   0  0  0  0  0  0  0  0  0  0  0  0
    0.8180    0.7500    0.0000 C   0  0  0  0  0  0  0  0  0  0  0  0
    2.2450    1.2140    0.0000 C   0  0  0  0  0  0  0  0  0  0  0  0
  1  2  1  0  0  0  0
  2  3  1  0  0  0  0
  2  6  2  0  0  0  0
  3  4  1  0  0  0  0
  4  5  2  0  0  0  0
  5  6  1  0  0  0  0
M  END
>  <name>
[C;amine]c1o[c;biphenyl]cc1

>  <apo>
2

>  <freq>
1

>  <freq0>
0

>  <freq1>
1

>  <freqA>
0.99887151

>  <a_count>
12

$$$$

  MOE2015           2D

  6  6  0  0  0  0  0  0  0  0999 V2000
    4.6270    0.0000    0.0000 C   0  0  0  0  0  0  0  0  0  0  0  0
    3.1270    0.0000    0.0000 C   0  0  0  0  0  0  0  0  0  0  0  0
    2.2450   -1.2140    0.0000 S   0  0  0  0  0  0  0  0  0  0  0  0
    0.8180   -0.7500    0.0000 C   0  0  0  0  0  0  0  0  0  0  0  0
    0.8180    0.7500    0.0000 C   0  0  0  0  0  0  0  0  0  0  0  0
    2.2450    1.2140    0.0000 C   0  0  0  0  0  0  0  0  0  0  0  0
  1  2  1  0  0  0  0
  2  3  1  0  0  0  0
  2  6  2  0  0  0  0
  3  4  1  0  0  0  0
  4  5  2  0  0  0  0
  5  6  1  0  0  0  0
M  END
>  <name>
[C;amine]c1sccc1

>  <apo>
1

>  <freq>
1

>  <freq0>
0

>  <freq1>
1

>  <freqA>
0.99887151

>  <a_count>
12

$$$$

  MOE2015           2D

  6  6  0  0  0  0  0  0  0  0999 V2000
    4.6270    0.0000    0.0000 C   0  0  0  0  0  0  0  0  0  0  0  0
    3.1270    0.0000    0.0000 C   0  0  0  0  0  0  0  0  0  0  0  0
    2.2450   -1.2140    0.0000 S   0  0  0  0  0  0  0  0  0  0  0  0
    0.8180   -0.7500    0.0000 C   0  0  0  0  0  0  0  0  0  0  0  0
    0.8180    0.7500    0.0000 C   0  0  0  0  0  0  0  0  0  0  0  0
    2.2450    1.2140    0.0000 C   0  0  0  0  0  0  0  0  0  0  0  0
  1  2  1  0  0  0  0
  2  3  1  0  0  0  0
  2  6  2  0  0  0  0
  3  4  1  0  0  0  0
  4  5  2  0  0  0  0
  5  6  1  0  0  0  0
M  END
>  <name>
[C;olefin]c1sccc1

>  <apo>
1

>  <freq>
1

>  <freq0>
0

>  <freq1>
1

>  <freqA>
0.99887151

>  <a_count>
12

$$$$

  MOE2015           2D

  4  4  0  0  0  0  0  0  0  0999 V2000
    3.5490    0.0000    0.0000 C   0  0  0  0  0  0  0  0  0  0  0  0
    2.0490    0.0000    0.0000 C   0  0  0  0  0  0  0  0  0  0  0  0
    0.7500   -0.7500    0.0000 C   0  0  0  0  0  0  0  0  0  0  0  0
    0.7500    0.7500    0.0000 C   0  0  0  0  0  0  0  0  0  0  0  0
  1  2  1  0  0  0  0
  2  3  1  0  0  0  0
  2  4  1  0  0  0  0
  3  4  1  0  0  0  0
M  END
>  <name>
[C;quatN]C1CC1

>  <apo>
1

>  <freq>
1

>  <freq0>
0

>  <freq1>
1

>  <freqA>
0.99887151

>  <a_count>
12

$$$$

  MOE2015           2D

  7  7  0  0  0  0  0  0  0  0999 V2000
    5.1430    0.0000    0.0000 N   0  0  0  0  0  0  0  0  0  0  0  0
    3.6430    0.0000    0.0000 C   0  0  0  0  0  0  0  0  0  0  0  0
    2.8930    1.2990    0.0000 N   0  0  0  0  0  0  0  0  0  0  0  0
    1.3930    1.2990    0.0000 C   0  0  0  0  0  0  0  0  0  0  0  0
    0.6430    0.0000    0.0000 C   0  0  0  0  0  0  0  0  0  0  0  0
    1.3930   -1.2990    0.0000 N   0  0  0  0  0  0  0  0  0  0  0  0
    2.8930   -1.2990    0.0000 C   0  0  0  0  0  0  0  0  0  0  0  0
  1  2  1  0  0  0  0
  2  3  1  0  0  0  0
  2  7  2  0  0  0  0
  3  4  2  0  0  0  0
  4  5  1  0  0  0  0
  5  6  2  0  0  0  0
  6  7  1  0  0  0  0
M  END
>  <name>
[N;amine]c1n[c;biphenyl][c;biphenyl]nc1

>  <apo>
3

>  <freq>
1

>  <freq0>
0

>  <freq1>
1

>  <freqA>
0.99887151

>  <a_count>
12

$$$$

  MOE2015           2D

  7  7  0  0  0  0  0  0  0  0999 V2000
    5.1430    0.0000    0.0000 N   0  0  0  0  0  0  0  0  0  0  0  0
    3.6430    0.0000    0.0000 C   0  0  0  0  0  0  0  0  0  0  0  0
    2.8930    1.2990    0.0000 N   0  0  0  0  0  0  0  0  0  0  0  0
    1.3930    1.2990    0.0000 C   0  0  0  0  0  0  0  0  0  0  0  0
    0.6430    0.0000    0.0000 C   0  0  0  0  0  0  0  0  0  0  0  0
    1.3930   -1.2990    0.0000 C   0  0  0  0  0  0  0  0  0  0  0  0
    2.8930   -1.2990    0.0000 N   0  0  0  0  0  0  0  0  0  0  0  0
  1  2  1  0  0  0  0
  2  3  1  0  0  0  0
  2  7  2  0  0  0  0
  3  4  2  0  0  0  0
  4  5  1  0  0  0  0
  5  6  2  0  0  0  0
  6  7  1  0  0  0  0
M  END
>  <name>
[N;amine]c1ncc[c;biphenyl]n1

>  <apo>
2

>  <freq>
1

>  <freq0>
0

>  <freq1>
1

>  <freqA>
0.99887151

>  <a_count>
12

$$$$

  MOE2015           2D

  7  7  0  0  0  0  0  0  0  0999 V2000
    5.1430    0.0000    0.0000 N   0  0  0  0  0  0  0  0  0  0  0  0
    3.6430    0.0000    0.0000 C   0  0  0  0  0  0  0  0  0  0  0  0
    2.8930    1.2990    0.0000 N   0  0  0  0  0  0  0  0  0  0  0  0
    1.3930    1.2990    0.0000 C   0  0  0  0  0  0  0  0  0  0  0  0
    0.6430    0.0000    0.0000 C   0  0  0  0  0  0  0  0  0  0  0  0
    1.3930   -1.2990    0.0000 C   0  0  0  0  0  0  0  0  0  0  0  0
    2.8930   -1.2990    0.0000 N   0  0  0  0  0  0  0  0  0  0  0  0
  1  2  1  0  0  0  0
  2  3  1  0  0  0  0
  2  7  2  0  0  0  0
  3  4  2  0  0  0  0
  4  5  1  0  0  0  0
  5  6  2  0  0  0  0
  6  7  1  0  0  0  0
M  END
>  <name>
[N;so2amide]c1ncccn1

>  <apo>
1

>  <freq>
1

>  <freq0>
0

>  <freq1>
1

>  <freqA>
0.99887151

>  <a_count>
12

$$$$

  MOE2015           2D

  7  7  0  0  0  0  0  0  0  0999 V2000
    0.3090   -1.0420    0.0000 N   0  0  0  0  0  0  0  0  0  0  0  0
    1.5670   -0.2250    0.0000 C   0  0  0  0  0  0  0  0  0  0  0  0
    2.9670   -0.7630    0.0000 S   0  0  0  0  0  0  0  0  0  0  0  0
    3.9110    0.4030    0.0000 C   0  0  0  0  0  0  0  0  0  0  0  0
    5.4090    0.3250    0.0000 C   0  0  0  0  0  0  0  0  0  0  0  0
    3.0940    1.6610    0.0000 N   0  0  0  0  0  0  0  0  0  0  0  0
    1.6450    1.2730    0.0000 N   0  0  0  0  0  0  0  0  0  0  0  0
  1  2  1  0  0  0  0
  2  3  1  0  0  0  0
  2  7  2  0  0  0  0
  3  4  1  0  0  0  0
  4  5  1  0  0  0  0
  4  6  2  0  0  0  0
  6  7  1  0  0  0  0
M  END
>  <name>
[N;so2amide]c1sc(C)nn1

>  <apo>
1

>  <freq>
1

>  <freq0>
0

>  <freq1>
1

>  <freqA>
0.99887151

>  <a_count>
12

$$$$

  MOE2015           2D

  4  3  0  0  0  0  0  0  0  0999 V2000
   -0.0740   -1.0250    0.0000 N   0  0  0  0  0  0  0  0  0  0  0  0
    1.2250   -0.2750    0.0000 C   0  0  0  0  0  0  0  0  0  0  0  0
    2.5250   -1.0250    0.0000 C   0  0  0  0  0  0  0  0  0  0  0  0
    3.8240   -0.2750    0.0000 N   0  0  0  0  0  0  0  0  0  0  0  0
  1  2  1  0  0  0  0
  2  3  1  0  0  0  0
  3  4  1  0  0  0  0
M  END
>  <name>
[N;urea]CCN

>  <apo>
1

>  <freq>
1

>  <freq0>
0

>  <freq1>
1

>  <freqA>
0.99887151

>  <a_count>
12

$$$$

  MOE2015           2D

  4  3  0  0  0  0  0  0  0  0999 V2000
    3.0000    0.0000    0.0000 O   0  0  0  0  0  0  0  0  0  0  0  0
    1.5000    0.0000    0.0000 C   0  0  0  0  0  0  0  0  0  0  0  0
    0.7500   -1.2990    0.0000 C   0  0  0  0  0  0  0  0  0  0  0  0
    0.7500    1.2990    0.0000 C   0  0  0  0  0  0  0  0  0  0  0  0
  1  2  1  0  0  0  0
  2  3  1  0  0  0  0
  2  4  1  0  0  0  0
M  END
>  <name>
[O;ester]C(C)[C;quatN]

>  <apo>
2

>  <freq>
1

>  <freq0>
0

>  <freq1>
1

>  <freqA>
0.99887151

>  <a_count>
12

$$$$

  MOE2015           2D

  4  3  0  0  0  0  0  0  0  0999 V2000
    3.0000    0.0000    0.0000 O   0  0  0  0  0  0  0  0  0  0  0  0
    1.5000    0.0000    0.0000 C   0  0  0  0  0  0  0  0  0  0  0  0
    0.7500   -1.2990    0.0000 C   0  0  0  0  0  0  0  0  0  0  0  0
    0.7500    1.2990    0.0000 C   0  0  0  0  0  0  0  0  0  0  0  0
  1  2  1  0  0  0  0
  2  3  1  0  0  0  0
  2  4  1  0  0  0  0
M  END
>  <name>
[O;ester]C([C;amine])C

>  <apo>
2

>  <freq>
1

>  <freq0>
0

>  <freq1>
1

>  <freqA>
0.99887151

>  <a_count>
12

$$$$

  MOE2015           2D

  4  3  0  0  0  0  0  0  0  0999 V2000
   -0.0740   -0.2750    0.0000 S   0  0  0  0  0  0  0  0  0  0  0  0
    1.2250   -1.0250    0.0000 C   0  0  0  0  0  0  0  0  0  0  0  0
    2.5250   -0.2750    0.0000 C   0  0  0  0  0  0  0  0  0  0  0  0
    3.8240   -1.0250    0.0000 C   0  0  0  0  0  0  0  0  0  0  0  0
  1  2  1  0  0  0  0
  2  3  1  0  0  0  0
  3  4  1  0  0  0  0
M  END
>  <name>
[S;disulfide]CC[C;olefin]

>  <apo>
2

>  <freq>
1

>  <freq0>
0

>  <freq1>
1

>  <freqA>
0.99887151

>  <a_count>
12

$$$$

  MOE2015           2D

  7  7  0  0  0  0  0  0  0  0999 V2000
    5.1430    0.0000    0.0000 S   0  0  0  0  0  0  0  0  0  0  0  0
    3.6430    0.0000    0.0000 C   0  0  0  0  0  0  0  0  0  0  0  0
    2.8930    1.2990    0.0000 C   0  0  0  0  0  0  0  0  0  0  0  0
    1.3930    1.2990    0.0000 C   0  0  0  0  0  0  0  0  0  0  0  0
    0.6430    0.0000    0.0000 N   0  0  0  0  0  0  0  0  0  0  0  0
    1.3930   -1.2990    0.0000 C   0  0  0  0  0  0  0  0  0  0  0  0
    2.8930   -1.2990    0.0000 C   0  0  0  0  0  0  0  0  0  0  0  0
  1  2  1  0  0  0  0
  2  3  1  0  0  0  0
  2  7  2  0  0  0  0
  3  4  2  0  0  0  0
  4  5  1  0  0  0  0
  5  6  2  0  0  0  0
  6  7  1  0  0  0  0
M  END
>  <name>
[S;thioether]c1ccncc1

>  <apo>
1

>  <freq>
1

>  <freq0>
0

>  <freq1>
1

>  <freqA>
0.99887151

>  <a_count>
12

$$$$

  MOE2015           2D

  8  8  0  0  0  0  0  0  0  0999 V2000
    0.0000    0.0000    0.0000 Br  0  0  0  0  0  0  0  0  0  0  0  0
    1.5000    0.0000    0.0000 C   0  0  0  0  0  0  0  0  0  0  0  0
    2.2500   -1.2990    0.0000 C   0  0  0  0  0  0  0  0  0  0  0  0
    3.7500   -1.2990    0.0000 N   0  0  0  0  0  0  0  0  0  0  0  0
    4.5000    0.0000    0.0000 C   0  0  0  0  0  0  0  0  0  0  0  0
    6.0000    0.0000    0.0000 O   0  0  0  0  0  0  0  0  0  0  0  0
    3.7500    1.2990    0.0000 N   0  0  0  0  0  0  0  0  0  0  0  0
    2.2500    1.2990    0.0000 C   0  0  0  0  0  0  0  0  0  0  0  0
  1  2  1  0  0  0  0
  2  3  1  0  0  0  0
  2  8  2  0  0  0  0
  3  4  2  0  0  0  0
  4  5  1  0  0  0  0
  5  6  1  0  0  0  0
  5  7  2  0  0  0  0
  7  8  1  0  0  0  0
M  END
>  <name>
Brc1cnc([O;ether])nc1

>  <apo>
1

>  <freq>
1

>  <freq0>
0

>  <freq1>
1

>  <freqA>
0.99887151

>  <a_count>
11

$$$$

  MOE2015           2D

  3  2  0  0  0  0  0  0  0  0999 V2000
    0.2500    0.0670    0.0000 C   0  0  0  0  0  0  0  0  0  0  0  0
    1.5490   -0.6830    0.0000 C   0  0  0  0  0  0  0  0  0  0  0  0
   -1.0490   -0.6830    0.0000 C   0  0  0  0  0  0  0  0  0  0  0  0
  1  2  1  0  0  0  0
  1  3  1  0  0  0  0
M  END
>  <name>
C(C)[C;ether]

>  <apo>
1

>  <freq>
1

>  <freq0>
0

>  <freq1>
1

>  <freqA>
0.99887151

>  <a_count>
11

$$$$

  MOE2015           2D

  3  2  0  0  0  0  0  0  0  0999 V2000
    0.2500    0.0670    0.0000 C   0  0  0  0  0  0  0  0  0  0  0  0
    1.5490   -0.6830    0.0000 C   0  0  0  0  0  0  0  0  0  0  0  0
   -1.0490   -0.6830    0.0000 C   0  0  0  0  0  0  0  0  0  0  0  0
  1  2  1  0  0  0  0
  1  3  1  0  0  0  0
M  END
>  <name>
C([C;amine])[C;lactam]

>  <apo>
2

>  <freq>
1

>  <freq0>
0

>  <freq1>
1

>  <freqA>
0.99887151

>  <a_count>
11

$$$$

  MOE2015           2D

  3  2  0  0  0  0  0  0  0  0999 V2000
    0.2500    0.0670    0.0000 C   0  0  0  0  0  0  0  0  0  0  0  0
    1.5490   -0.6830    0.0000 C   0  0  0  0  0  0  0  0  0  0  0  0
   -1.0490   -0.6830    0.0000 C   0  0  0  0  0  0  0  0  0  0  0  0
  1  2  1  0  0  0  0
  1  3  1  0  0  0  0
M  END
>  <name>
C([C;quatN])[C;ether]

>  <apo>
2

>  <freq>
1

>  <freq0>
0

>  <freq1>
1

>  <freqA>
0.99887151

>  <a_count>
11

$$$$

  MOE2015           2D

  7  7  0  0  0  0  0  0  0  0999 V2000
    5.1430    0.0000    0.0000 Cl  0  0  0  0  0  0  0  0  0  0  0  0
    3.6430    0.0000    0.0000 C   0  0  0  0  0  0  0  0  0  0  0  0
    2.8930    1.2990    0.0000 C   0  0  0  0  0  0  0  0  0  0  0  0
    1.3930    1.2990    0.0000 N   0  0  0  0  0  0  0  0  0  0  0  0
    0.6430    0.0000    0.0000 C   0  0  0  0  0  0  0  0  0  0  0  0
    1.3930   -1.2990    0.0000 C   0  0  0  0  0  0  0  0  0  0  0  0
    2.8930   -1.2990    0.0000 C   0  0  0  0  0  0  0  0  0  0  0  0
  1  2  1  0  0  0  0
  2  3  1  0  0  0  0
  2  7  2  0  0  0  0
  3  4  2  0  0  0  0
  4  5  1  0  0  0  0
  5  6  2  0  0  0  0
  6  7  1  0  0  0  0
M  END
>  <name>
Clc1cn[c;biphenyl][c;biphenyl]c1

>  <apo>
2

>  <freq>
1

>  <freq0>
0

>  <freq1>
1

>  <freqA>
0.99887151

>  <a_count>
11

$$$$

  MOE2015           2D

  8  8  0  0  0  0  0  0  0  0999 V2000
   -0.0150    0.4590    0.0000 Cl  0  0  0  0  0  0  0  0  0  0  0  0
    1.4820    0.5560    0.0000 C   0  0  0  0  0  0  0  0  0  0  0  0
    2.4400   -0.5990    0.0000 S   0  0  0  0  0  0  0  0  0  0  0  0
    3.8340   -0.0440    0.0000 C   0  0  0  0  0  0  0  0  0  0  0  0
    5.1020   -0.8460    0.0000 C   0  0  0  0  0  0  0  0  0  0  0  0
    6.4300   -0.1490    0.0000 O   0  0  0  0  0  0  0  0  0  0  0  0
    3.7370    1.4530    0.0000 C   0  0  0  0  0  0  0  0  0  0  0  0
    2.2840    1.8230    0.0000 C   0  0  0  0  0  0  0  0  0  0  0  0
  1  2  1  0  0  0  0
  2  3  1  0  0  0  0
  2  8  2  0  0  0  0
  3  4  1  0  0  0  0
  4  5  1  0  0  0  0
  4  7  2  0  0  0  0
  5  6  2  0  0  0  0
  7  8  1  0  0  0  0
M  END
>  <name>
Clc1sc([C;amide]=O)cc1

>  <apo>
1

>  <freq>
1

>  <freq0>
0

>  <freq1>
1

>  <freqA>
0.99887151

>  <a_count>
11

$$$$

  MOE2015           2D

  6  6  0  0  0  0  0  0  0  0999 V2000
    4.6270    0.0000    0.0000 C   0  0  0  0  0  0  0  0  0  0  0  0
    3.1270    0.0000    0.0000 N   0  0  0  0  0  0  0  0  0  0  0  0
    2.2450   -1.2140    0.0000 N   0  0  0  0  0  0  0  0  0  0  0  0
    0.8180   -0.7500    0.0000 C   0  0  0  0  0  0  0  0  0  0  0  0
    0.8180    0.7500    0.0000 N   0  0  0  0  0  0  0  0  0  0  0  0
    2.2450    1.2140    0.0000 C   0  0  0  0  0  0  0  0  0  0  0  0
  1  2  1  0  0  0  0
  2  3  1  0  0  0  0
  2  6  1  0  0  0  0
  3  4  2  0  0  0  0
  4  5  1  0  0  0  0
  5  6  2  0  0  0  0
M  END
>  <name>
Cn1n[c;biphenyl]nc1

>  <apo>
1

>  <freq>
1

>  <freq0>
0

>  <freq1>
1

>  <freqA>
0.99887151

>  <a_count>
11

$$$$

  MOE2015           2D

  6  5  0  0  0  0  0  0  0  0999 V2000
    0.5330    0.9240    0.0000 F   0  0  0  0  0  0  0  0  0  0  0  0
    1.2830   -0.3750    0.0000 C   0  0  0  0  0  0  0  0  0  0  0  0
   -0.0160   -1.1250    0.0000 F   0  0  0  0  0  0  0  0  0  0  0  0
    2.0330   -1.6740    0.0000 F   0  0  0  0  0  0  0  0  0  0  0  0
    2.5830    0.3750    0.0000 C   0  0  0  0  0  0  0  0  0  0  0  0
    3.8820   -0.3750    0.0000 C   0  0  0  0  0  0  0  0  0  0  0  0
  1  2  1  0  0  0  0
  2  3  1  0  0  0  0
  2  4  1  0  0  0  0
  2  5  1  0  0  0  0
  5  6  1  0  0  0  0
M  END
>  <name>
FC(F)(F)C[C;thioether]

>  <apo>
1

>  <freq>
1

>  <freq0>
0

>  <freq1>
1

>  <freqA>
0.99887151

>  <a_count>
11

$$$$

  MOE2015           2D

  9  8  0  0  0  0  0  0  0  0999 V2000
    0.2290   -0.1320    0.0000 F   0  0  0  0  0  0  0  0  0  0  0  0
   -0.5210    1.1670    0.0000 C   0  0  0  0  0  0  0  0  0  0  0  0
   -1.2710    2.4660    0.0000 F   0  0  0  0  0  0  0  0  0  0  0  0
   -1.8200    0.4170    0.0000 F   0  0  0  0  0  0  0  0  0  0  0  0
    0.7780    1.9170    0.0000 C   0  0  0  0  0  0  0  0  0  0  0  0
    2.0770    1.1670    0.0000 C   0  0  0  0  0  0  0  0  0  0  0  0
    2.8270    2.4660    0.0000 F   0  0  0  0  0  0  0  0  0  0  0  0
    3.3760    0.4170    0.0000 F   0  0  0  0  0  0  0  0  0  0  0  0
    1.3270   -0.1320    0.0000 F   0  0  0  0  0  0  0  0  0  0  0  0
  1  2  1  0  0  0  0
  2  3  1  0  0  0  0
  2  4  1  0  0  0  0
  2  5  1  0  0  0  0
  5  6  1  0  0  0  0
  6  7  1  0  0  0  0
  6  8  1  0  0  0  0
  6  9  1  0  0  0  0
M  END
>  <name>
FC(F)(F)[C;ether]C(F)(F)F

>  <apo>
1

>  <freq>
1

>  <freq0>
0

>  <freq1>
1

>  <freqA>
0.99887151

>  <a_count>
11

$$$$

  MOE2015           2D

  5  4  0  0  0  0  0  0  0  0999 V2000
    3.0000    0.0000    0.0000 F   0  0  0  0  0  0  0  0  0  0  0  0
    1.5000    0.0000    0.0000 C   0  0  0  0  0  0  0  0  0  0  0  0
    0.0000    0.0000    0.0000 F   0  0  0  0  0  0  0  0  0  0  0  0
    1.5000    1.5000    0.0000 C   0  0  0  0  0  0  0  0  0  0  0  0
    1.5000   -1.5000    0.0000 C   0  0  0  0  0  0  0  0  0  0  0  0
  1  2  1  0  0  0  0
  2  3  1  0  0  0  0
  2  4  1  0  0  0  0
  2  5  1  0  0  0  0
M  END
>  <name>
FC(F)([C;olefin])[C;ether]

>  <apo>
2

>  <freq>
1

>  <freq0>
0

>  <freq1>
1

>  <freqA>
0.99887151

>  <a_count>
11

$$$$

  MOE2015           2D

  4  3  0  0  0  0  0  0  0  0999 V2000
   -0.0740   -0.2750    0.0000 F   0  0  0  0  0  0  0  0  0  0  0  0
    1.2250   -1.0250    0.0000 C   0  0  0  0  0  0  0  0  0  0  0  0
    2.5250   -0.2750    0.0000 C   0  0  0  0  0  0  0  0  0  0  0  0
    3.8240   -1.0250    0.0000 C   0  0  0  0  0  0  0  0  0  0  0  0
  1  2  1  0  0  0  0
  2  3  1  0  0  0  0
  3  4  1  0  0  0  0
M  END
>  <name>
FCC[C;amine]

>  <apo>
1

>  <freq>
1

>  <freq0>
0

>  <freq1>
1

>  <freqA>
0.99887151

>  <a_count>
11

$$$$

  MOE2015           2D

  7  7  0  0  0  0  0  0  0  0999 V2000
    5.1430    0.0000    0.0000 F   0  0  0  0  0  0  0  0  0  0  0  0
    3.6430    0.0000    0.0000 C   0  0  0  0  0  0  0  0  0  0  0  0
    2.8930    1.2990    0.0000 N   0  0  0  0  0  0  0  0  0  0  0  0
    1.3930    1.2990    0.0000 C   0  0  0  0  0  0  0  0  0  0  0  0
    0.6430    0.0000    0.0000 C   0  0  0  0  0  0  0  0  0  0  0  0
    1.3930   -1.2990    0.0000 C   0  0  0  0  0  0  0  0  0  0  0  0
    2.8930   -1.2990    0.0000 C   0  0  0  0  0  0  0  0  0  0  0  0
  1  2  1  0  0  0  0
  2  3  1  0  0  0  0
  2  7  2  0  0  0  0
  3  4  2  0  0  0  0
  4  5  1  0  0  0  0
  5  6  2  0  0  0  0
  6  7  1  0  0  0  0
M  END
>  <name>
Fc1nc[c;biphenyl]cc1

>  <apo>
1

>  <freq>
1

>  <freq0>
0

>  <freq1>
1

>  <freqA>
0.99887151

>  <a_count>
11

$$$$

  MOE2015           2D

  5  4  0  0  0  0  0  0  0  0999 V2000
    0.1310   -1.0100    0.0000 O   0  0  0  0  0  0  0  0  0  0  0  0
    1.4300   -0.2600    0.0000 C   0  0  0  0  0  0  0  0  0  0  0  0
    1.4300    1.2400    0.0000 O   0  0  0  0  0  0  0  0  0  0  0  0
    2.7290   -1.0100    0.0000 C   0  0  0  0  0  0  0  0  0  0  0  0
    4.0280   -0.2600    0.0000 C   0  0  0  0  0  0  0  0  0  0  0  0
  1  2  2  0  0  0  0
  2  3  1  0  0  0  0
  2  4  1  0  0  0  0
  4  5  1  0  0  0  0
M  END
>  <name>
O=C(O)C[C;olefin]

>  <apo>
1

>  <freq>
1

>  <freq0>
0

>  <freq1>
1

>  <freqA>
0.99887151

>  <a_count>
11

$$$$

  MOE2015           2D

  5  4  0  0  0  0  0  0  0  0999 V2000
    0.1310   -1.0100    0.0000 O   0  0  0  0  0  0  0  0  0  0  0  0
    1.4300   -0.2600    0.0000 C   0  0  0  0  0  0  0  0  0  0  0  0
    1.4300    1.2400    0.0000 O   0  0  0  0  0  0  0  0  0  0  0  0
    2.7290   -1.0100    0.0000 C   0  0  0  0  0  0  0  0  0  0  0  0
    4.0280   -0.2600    0.0000 C   0  0  0  0  0  0  0  0  0  0  0  0
  1  2  2  0  0  0  0
  2  3  1  0  0  0  0
  2  4  1  0  0  0  0
  4  5  1  0  0  0  0
M  END
>  <name>
O=C(O)[C;amine][C;ether]

>  <apo>
2

>  <freq>
1

>  <freq0>
0

>  <freq1>
1

>  <freqA>
0.99887151

>  <a_count>
11

$$$$

  MOE2015           2D

  5  4  0  0  0  0  0  0  0  0999 V2000
    0.1310   -1.0100    0.0000 O   0  0  0  0  0  0  0  0  0  0  0  0
    1.4300   -0.2600    0.0000 C   0  0  0  0  0  0  0  0  0  0  0  0
    1.4300    1.2400    0.0000 O   0  0  0  0  0  0  0  0  0  0  0  0
    2.7290   -1.0100    0.0000 C   0  0  0  0  0  0  0  0  0  0  0  0
    4.0280   -0.2600    0.0000 C   0  0  0  0  0  0  0  0  0  0  0  0
  1  2  2  0  0  0  0
  2  3  1  0  0  0  0
  2  4  1  0  0  0  0
  4  5  1  0  0  0  0
M  END
>  <name>
O=C(O)[C;olefin]C

>  <apo>
1

>  <freq>
1

>  <freq0>
0

>  <freq1>
1

>  <freqA>
0.99887151

>  <a_count>
11

$$$$

  MOE2015           2D

  5  4  0  0  1  0  0  0  0  0999 V2000
    3.8780   -1.0390    0.0000 O   0  0  0  0  0  0  0  0  0  0  0  0
    2.5790   -1.7890    0.0000 C   0  0  0  0  0  0  0  0  0  0  0  0
    1.2800   -1.0390    0.0000 C   0  0  1  0  0  0  0  0  0  0  0  0
   -0.0190   -1.7890    0.0000 O   0  0  0  0  0  0  0  0  0  0  0  0
    1.2800    0.4610    0.0000 C   0  0  0  0  0  0  0  0  0  0  0  0
  1  2  2  0  0  0  0
  2  3  1  0  0  0  0
  3  4  1  0  0  0  0
  3  5  1  1  0  0  0
M  END
>  <name>
O=[C;amide][C@@H](O)C

>  <apo>
1

>  <freq>
1

>  <freq0>
0

>  <freq1>
1

>  <freqA>
0.99887151

>  <a_count>
11

$$$$

  MOE2015           2D

  7  7  0  0  0  0  0  0  0  0999 V2000
    4.9030   -0.6040    0.0000 O   0  0  0  0  0  0  0  0  0  0  0  0
    4.1530   -1.9030    0.0000 C   0  0  0  0  0  0  0  0  0  0  0  0
    2.6530   -1.9030    0.0000 C   0  0  0  0  0  0  0  0  0  0  0  0
    1.7710   -3.1160    0.0000 O   0  0  0  0  0  0  0  0  0  0  0  0
    0.3450   -2.6530    0.0000 C   0  0  0  0  0  0  0  0  0  0  0  0
    0.3450   -1.1530    0.0000 C   0  0  0  0  0  0  0  0  0  0  0  0
    1.7710   -0.6890    0.0000 C   0  0  0  0  0  0  0  0  0  0  0  0
  1  2  2  0  0  0  0
  2  3  1  0  0  0  0
  3  4  1  0  0  0  0
  3  7  2  0  0  0  0
  4  5  1  0  0  0  0
  5  6  2  0  0  0  0
  6  7  1  0  0  0  0
M  END
>  <name>
O=[C;amide]c1occc1

>  <apo>
1

>  <freq>
1

>  <freq0>
0

>  <freq1>
1

>  <freqA>
0.99887151

>  <a_count>
11

$$$$

  MOE2015           2D

  7  7  0  0  0  0  0  0  0  0999 V2000
    4.9030   -0.6040    0.0000 O   0  0  0  0  0  0  0  0  0  0  0  0
    4.1530   -1.9030    0.0000 C   0  0  0  0  0  0  0  0  0  0  0  0
    2.6530   -1.9030    0.0000 C   0  0  0  0  0  0  0  0  0  0  0  0
    1.7710   -3.1160    0.0000 N   0  0  0  0  0  0  0  0  0  0  0  0
    0.3450   -2.6530    0.0000 C   0  0  0  0  0  0  0  0  0  0  0  0
    0.3450   -1.1530    0.0000 N   0  0  0  0  0  0  0  0  0  0  0  0
    1.7710   -0.6890    0.0000 C   0  0  0  0  0  0  0  0  0  0  0  0
  1  2  2  0  0  0  0
  2  3  1  0  0  0  0
  3  4  1  0  0  0  0
  3  7  2  0  0  0  0
  4  5  1  0  0  0  0
  5  6  2  0  0  0  0
  6  7  1  0  0  0  0
M  END
>  <name>
O=[C;ester]c1[nH;NaroC]cnc1

>  <apo>
2

>  <freq>
1

>  <freq0>
0

>  <freq1>
1

>  <freqA>
0.99887151

>  <a_count>
11

$$$$

  MOE2015           2D

  8  8  0  0  0  0  0  0  0  0999 V2000
    4.5710   -2.6390    0.0000 O   0  0  0  0  0  0  0  0  0  0  0  0
    3.8210   -1.3400    0.0000 N   0  3  0  0  0  0  0  0  0  0  0  0
    4.5710   -0.0410    0.0000 O   0  5  0  0  0  0  0  0  0  0  0  0
    2.3210   -1.3400    0.0000 C   0  0  0  0  0  0  0  0  0  0  0  0
    1.4400   -0.1270    0.0000 N   0  0  0  0  0  0  0  0  0  0  0  0
    0.0130   -0.5900    0.0000 C   0  0  0  0  0  0  0  0  0  0  0  0
    0.0130   -2.0900    0.0000 C   0  0  0  0  0  0  0  0  0  0  0  0
    1.4400   -2.5540    0.0000 N   0  0  0  0  0  0  0  0  0  0  0  0
  1  2  2  0  0  0  0
  2  3  1  0  0  0  0
  2  4  1  0  0  0  0
  4  5  1  0  0  0  0
  4  8  2  0  0  0  0
  5  6  1  0  0  0  0
  6  7  2  0  0  0  0
  7  8  1  0  0  0  0
M  CHG  1   2   1
M  CHG  1   3  -1
M  END
>  <name>
O=[N+]([O-])c1[nH;NaroC]ccn1

>  <apo>
1

>  <freq>
1

>  <freq0>
0

>  <freq1>
1

>  <freqA>
0.99887151

>  <a_count>
11

$$$$

  MOE2015           2D

  6  5  0  0  0  0  0  0  0  0999 V2000
   -0.2170   -0.3750    0.0000 P   0  0  0  0  0  0  0  0  0  0  0  0
    0.5330   -1.6740    0.0000 O   0  0  0  0  0  0  0  0  0  0  0  0
    1.0830    0.3750    0.0000 O   0  0  0  0  0  0  0  0  0  0  0  0
    2.3820   -0.3750    0.0000 C   0  0  0  0  0  0  0  0  0  0  0  0
   -0.9670    0.9240    0.0000 O   0  0  0  0  0  0  0  0  0  0  0  0
   -1.5160   -1.1250    0.0000 O   0  0  0  0  0  0  0  0  0  0  0  0
  1  2  2  0  0  0  0
  1  3  1  0  0  0  0
  1  5  1  0  0  0  0
  1  6  1  0  0  0  0
  3  4  1  0  0  0  0
M  END
>  <name>
P(=O)(O[C;NaroC])(O)O

>  <apo>
1

>  <freq>
1

>  <freq0>
0

>  <freq1>
1

>  <freqA>
0.99887151

>  <a_count>
11

$$$$

  MOE2015           2D

  6  5  0  0  0  0  0  0  0  0999 V2000
   -0.2170   -0.3750    0.0000 P   0  0  0  0  0  0  0  0  0  0  0  0
    0.5330   -1.6740    0.0000 O   0  0  0  0  0  0  0  0  0  0  0  0
    1.0830    0.3750    0.0000 O   0  0  0  0  0  0  0  0  0  0  0  0
    2.3820   -0.3750    0.0000 C   0  0  0  0  0  0  0  0  0  0  0  0
   -0.9670    0.9240    0.0000 O   0  0  0  0  0  0  0  0  0  0  0  0
   -1.5160   -1.1250    0.0000 O   0  0  0  0  0  0  0  0  0  0  0  0
  1  2  2  0  0  0  0
  1  3  1  0  0  0  0
  1  5  1  0  0  0  0
  1  6  1  0  0  0  0
  3  4  1  0  0  0  0
M  END
>  <name>
P(=O)(O[C;ether])(O)O

>  <apo>
1

>  <freq>
1

>  <freq0>
0

>  <freq1>
1

>  <freqA>
0.99887151

>  <a_count>
11

$$$$

  MOE2015           2D

  5  4  0  0  1  0  0  0  0  0999 V2000
    0.1310   -1.0100    0.0000 S   0  0  0  0  0  0  0  0  0  0  0  0
    1.4300   -0.2600    0.0000 C   0  0  3  0  0  0  0  0  0  0  0  0
    2.7290   -1.0100    0.0000 C   0  0  0  0  0  0  0  0  0  0  0  0
    4.0280   -0.2600    0.0000 O   0  0  0  0  0  0  0  0  0  0  0  0
    1.4300    1.2400    0.0000 C   0  0  0  0  0  0  0  0  0  0  0  0
  1  2  1  0  0  0  0
  2  3  1  0  0  0  0
  2  5  1  0  0  0  0
  3  4  2  0  0  0  0
M  END
>  <name>
SC([C;amide]=O)C

>  <apo>
1

>  <freq>
1

>  <freq0>
0

>  <freq1>
1

>  <freqA>
0.99887151

>  <a_count>
11

$$$$

  MOE2015           2D

  3  2  0  0  0  0  0  0  0  0999 V2000
    0.2500    0.0670    0.0000 C   0  0  0  0  0  0  0  0  0  0  0  0
    1.5490   -0.6830    0.0000 C   0  0  0  0  0  0  0  0  0  0  0  0
   -1.0490   -0.6830    0.0000 C   0  0  0  0  0  0  0  0  0  0  0  0
  1  2  1  0  0  0  0
  1  3  1  0  0  0  0
M  END
>  <name>
[C;amine](C)[C;ether]

>  <apo>
2

>  <freq>
1

>  <freq0>
0

>  <freq1>
1

>  <freqA>
0.99887151

>  <a_count>
11

$$$$

  MOE2015           2D

  3  2  0  0  0  0  0  0  0  0999 V2000
    0.2500    0.0670    0.0000 C   0  0  0  0  0  0  0  0  0  0  0  0
    1.5490   -0.6830    0.0000 C   0  0  0  0  0  0  0  0  0  0  0  0
   -1.0490   -0.6830    0.0000 C   0  0  0  0  0  0  0  0  0  0  0  0
  1  2  1  0  0  0  0
  1  3  1  0  0  0  0
M  END
>  <name>
[C;amine]([C;ether])C

>  <apo>
2

>  <freq>
1

>  <freq0>
0

>  <freq1>
1

>  <freqA>
0.99887151

>  <a_count>
11

$$$$

  MOE2015           2D

  3  2  0  0  0  0  0  0  0  0999 V2000
    0.2500    0.0670    0.0000 C   0  0  0  0  0  0  0  0  0  0  0  0
    1.5490   -0.6830    0.0000 C   0  0  0  0  0  0  0  0  0  0  0  0
   -1.0490   -0.6830    0.0000 C   0  0  0  0  0  0  0  0  0  0  0  0
  1  2  1  0  0  0  0
  1  3  1  0  0  0  0
M  END
>  <name>
[C;ether](C)[C;NaroC]

>  <apo>
2

>  <freq>
1

>  <freq0>
0

>  <freq1>
1

>  <freqA>
0.99887151

>  <a_count>
11

$$$$

  MOE2015           2D

  3  2  0  0  0  0  0  0  0  0999 V2000
    0.2500    0.0670    0.0000 C   0  0  0  0  0  0  0  0  0  0  0  0
    1.5490   -0.6830    0.0000 C   0  0  0  0  0  0  0  0  0  0  0  0
   -1.0490   -0.6830    0.0000 C   0  0  0  0  0  0  0  0  0  0  0  0
  1  2  1  0  0  0  0
  1  3  1  0  0  0  0
M  END
>  <name>
[C;ether]([C;NaroC])C

>  <apo>
2

>  <freq>
1

>  <freq0>
0

>  <freq1>
1

>  <freqA>
0.99887151

>  <a_count>
11

$$$$

  MOE2015           2D

  3  2  0  0  0  0  0  0  0  0999 V2000
    0.2500    0.0670    0.0000 C   0  0  0  0  0  0  0  0  0  0  0  0
    1.5490   -0.6830    0.0000 C   0  0  0  0  0  0  0  0  0  0  0  0
   -1.0490   -0.6830    0.0000 C   0  0  0  0  0  0  0  0  0  0  0  0
  1  2  1  0  0  0  0
  1  3  1  0  0  0  0
M  END
>  <name>
[C;thioether](C)C

>  <apo>
1

>  <freq>
1

>  <freq0>
0

>  <freq1>
1

>  <freqA>
0.99887151

>  <a_count>
11

$$$$

  MOE2015           2D

  4  4  0  0  0  0  0  0  0  0999 V2000
    3.5490    0.0000    0.0000 N   0  0  0  0  0  0  0  0  0  0  0  0
    2.0490    0.0000    0.0000 C   0  0  0  0  0  0  0  0  0  0  0  0
    0.7500   -0.7500    0.0000 C   0  0  0  0  0  0  0  0  0  0  0  0
    0.7500    0.7500    0.0000 C   0  0  0  0  0  0  0  0  0  0  0  0
  1  2  1  0  0  0  0
  2  3  1  0  0  0  0
  2  4  1  0  0  0  0
  3  4  1  0  0  0  0
M  END
>  <name>
[N;amide]C1CC1

>  <apo>
1

>  <freq>
1

>  <freq0>
0

>  <freq1>
1

>  <freqA>
0.99887151

>  <a_count>
11

$$$$

  MOE2015           2D

  4  4  0  0  0  0  0  0  0  0999 V2000
    3.5490    0.0000    0.0000 N   0  0  0  0  0  0  0  0  0  0  0  0
    2.0490    0.0000    0.0000 C   0  0  0  0  0  0  0  0  0  0  0  0
    0.7500   -0.7500    0.0000 C   0  0  0  0  0  0  0  0  0  0  0  0
    0.7500    0.7500    0.0000 C   0  0  0  0  0  0  0  0  0  0  0  0
  1  2  1  0  0  0  0
  2  3  1  0  0  0  0
  2  4  1  0  0  0  0
  3  4  1  0  0  0  0
M  END
>  <name>
[N;urea]C1CC1

>  <apo>
1

>  <freq>
1

>  <freq0>
0

>  <freq1>
1

>  <freqA>
0.99887151

>  <a_count>
11

$$$$

  MOE2015           2D

  5  4  0  0  0  0  0  0  0  0999 V2000
   -0.3000   -0.5200    0.0000 O   0  0  0  0  0  0  0  0  0  0  0  0
    0.4500   -1.8190    0.0000 C   0  0  0  0  0  0  0  0  0  0  0  0
    1.9500   -1.8190    0.0000 C   0  0  0  0  0  0  0  0  0  0  0  0
    3.4500   -1.8190    0.0000 C   0  0  0  0  0  0  0  0  0  0  0  0
    4.9500   -1.8190    0.0000 C   0  0  0  0  0  0  0  0  0  0  0  0
  1  2  1  0  0  0  0
  2  3  1  0  0  0  0
  3  4  3  0  0  0  0
  4  5  1  0  0  0  0
M  END
>  <name>
[O;ester]CC#C[C;amine]

>  <apo>
2

>  <freq>
1

>  <freq0>
0

>  <freq1>
1

>  <freqA>
0.99887151

>  <a_count>
11

$$$$

  MOE2015           2D

  7  7  0  0  0  0  0  0  0  0999 V2000
    5.1430    0.0000    0.0000 O   0  0  0  0  0  0  0  0  0  0  0  0
    3.6430    0.0000    0.0000 C   0  0  0  0  0  0  0  0  0  0  0  0
    2.8930    1.2990    0.0000 C   0  0  0  0  0  0  0  0  0  0  0  0
    1.3930    1.2990    0.0000 N   0  0  0  0  0  0  0  0  0  0  0  0
    0.6430    0.0000    0.0000 C   0  0  0  0  0  0  0  0  0  0  0  0
    1.3930   -1.2990    0.0000 N   0  0  0  0  0  0  0  0  0  0  0  0
    2.8930   -1.2990    0.0000 C   0  0  0  0  0  0  0  0  0  0  0  0
  1  2  1  0  0  0  0
  2  3  1  0  0  0  0
  2  7  2  0  0  0  0
  3  4  2  0  0  0  0
  4  5  1  0  0  0  0
  5  6  2  0  0  0  0
  6  7  1  0  0  0  0
M  END
>  <name>
[O;ether]c1cn[c;biphenyl]nc1

>  <apo>
2

>  <freq>
1

>  <freq0>
0

>  <freq1>
1

>  <freqA>
0.99887151

>  <a_count>
11

$$$$

  MOE2015           2D

  7  7  0  0  0  0  0  0  0  0999 V2000
    0.3090   -1.0420    0.0000 S   0  0  0  0  0  0  0  0  0  0  0  0
    1.5670   -0.2250    0.0000 C   0  0  0  0  0  0  0  0  0  0  0  0
    2.9670   -0.7630    0.0000 S   0  0  0  0  0  0  0  0  0  0  0  0
    3.9110    0.4030    0.0000 C   0  0  0  0  0  0  0  0  0  0  0  0
    5.4090    0.3250    0.0000 C   0  0  0  0  0  0  0  0  0  0  0  0
    3.0940    1.6610    0.0000 N   0  0  0  0  0  0  0  0  0  0  0  0
    1.6450    1.2730    0.0000 N   0  0  0  0  0  0  0  0  0  0  0  0
  1  2  1  0  0  0  0
  2  3  1  0  0  0  0
  2  7  2  0  0  0  0
  3  4  1  0  0  0  0
  4  5  1  0  0  0  0
  4  6  2  0  0  0  0
  6  7  1  0  0  0  0
M  END
>  <name>
[S;thioether]c1sc(C)nn1

>  <apo>
1

>  <freq>
1

>  <freq0>
0

>  <freq1>
1

>  <freqA>
0.99887151

>  <a_count>
11

$$$$

  MOE2015           2D

  5  4  0  0  0  0  0  0  0  0999 V2000
   -0.9700    0.2600    0.0000 S   0  0  0  0  0  0  0  0  0  0  0  0
   -2.2690   -0.4900    0.0000 O   0  0  0  0  0  0  0  0  0  0  0  0
   -0.9700    1.7600    0.0000 O   0  0  0  0  0  0  0  0  0  0  0  0
    0.3290   -0.4900    0.0000 C   0  0  0  0  0  0  0  0  0  0  0  0
    1.6280    0.2600    0.0000 C   0  0  0  0  0  0  0  0  0  0  0  0
  1  2  2  0  0  0  0
  1  3  2  0  0  0  0
  1  4  1  0  0  0  0
  4  5  1  0  0  0  0
M  END
>  <name>
[SH;so2amide](=O)(=O)CC

>  <apo>
1

>  <freq>
1

>  <freq0>
0

>  <freq1>
1

>  <freqA>
0.99887151

>  <a_count>
11

$$$$

  MOE2015           2D

  6  6  0  0  0  0  0  0  0  0999 V2000
   -2.0490    2.0490    0.0000 N   0  0  0  0  0  0  0  0  0  0  0  0
   -2.0490    0.5490    0.0000 C   0  0  0  0  0  0  0  0  0  0  0  0
   -0.7500   -0.2010    0.0000 C   0  0  0  0  0  0  0  0  0  0  0  0
    0.5490    0.5490    0.0000 C   0  0  0  0  0  0  0  0  0  0  0  0
    0.5490    2.0490    0.0000 C   0  0  0  0  0  0  0  0  0  0  0  0
   -0.7500    2.7990    0.0000 C   0  0  0  0  0  0  0  0  0  0  0  0
  1  2  1  0  0  0  0
  1  6  2  0  0  0  0
  2  3  2  0  0  0  0
  3  4  1  0  0  0  0
  4  5  2  0  0  0  0
  5  6  1  0  0  0  0
M  END
>  <name>
n1[c;biphenyl]cc[c;biphenyl]c1

>  <apo>
2

>  <freq>
1

>  <freq0>
0

>  <freq1>
1

>  <freqA>
0.99887151

>  <a_count>
11

$$$$

  MOE2015           2D

  6  6  0  0  0  0  0  0  0  0999 V2000
   -2.0490    2.0490    0.0000 N   0  0  0  0  0  0  0  0  0  0  0  0
   -2.0490    0.5490    0.0000 C   0  0  0  0  0  0  0  0  0  0  0  0
   -0.7500   -0.2010    0.0000 C   0  0  0  0  0  0  0  0  0  0  0  0
    0.5490    0.5490    0.0000 C   0  0  0  0  0  0  0  0  0  0  0  0
    0.5490    2.0490    0.0000 C   0  0  0  0  0  0  0  0  0  0  0  0
   -0.7500    2.7990    0.0000 C   0  0  0  0  0  0  0  0  0  0  0  0
  1  2  1  0  0  0  0
  1  6  2  0  0  0  0
  2  3  2  0  0  0  0
  3  4  1  0  0  0  0
  4  5  2  0  0  0  0
  5  6  1  0  0  0  0
M  END
>  <name>
n1[c;biphenyl]cccc1

>  <apo>
1

>  <freq>
1

>  <freq0>
0

>  <freq1>
1

>  <freqA>
0.99887151

>  <a_count>
11

$$$$

  MOE2015           2D

  6  6  0  0  0  0  0  0  0  0999 V2000
   -2.0490    2.0490    0.0000 N   0  0  0  0  0  0  0  0  0  0  0  0
   -2.0490    0.5490    0.0000 C   0  0  0  0  0  0  0  0  0  0  0  0
   -0.7500   -0.2010    0.0000 C   0  0  0  0  0  0  0  0  0  0  0  0
    0.5490    0.5490    0.0000 C   0  0  0  0  0  0  0  0  0  0  0  0
    0.5490    2.0490    0.0000 C   0  0  0  0  0  0  0  0  0  0  0  0
   -0.7500    2.7990    0.0000 C   0  0  0  0  0  0  0  0  0  0  0  0
  1  2  1  0  0  0  0
  1  6  2  0  0  0  0
  2  3  2  0  0  0  0
  3  4  1  0  0  0  0
  4  5  2  0  0  0  0
  5  6  1  0  0  0  0
M  END
>  <name>
n1c[c;biphenyl]cc[c;biphenyl]1

>  <apo>
2

>  <freq>
1

>  <freq0>
0

>  <freq1>
1

>  <freqA>
0.99887151

>  <a_count>
11

$$$$

  MOE2015           2D

  6  6  0  0  0  0  0  0  0  0999 V2000
   -2.0490    2.0490    0.0000 N   0  0  0  0  0  0  0  0  0  0  0  0
   -2.0490    0.5490    0.0000 C   0  0  0  0  0  0  0  0  0  0  0  0
   -0.7500   -0.2010    0.0000 C   0  0  0  0  0  0  0  0  0  0  0  0
    0.5490    0.5490    0.0000 C   0  0  0  0  0  0  0  0  0  0  0  0
    0.5490    2.0490    0.0000 C   0  0  0  0  0  0  0  0  0  0  0  0
   -0.7500    2.7990    0.0000 C   0  0  0  0  0  0  0  0  0  0  0  0
  1  2  1  0  0  0  0
  1  6  2  0  0  0  0
  2  3  2  0  0  0  0
  3  4  1  0  0  0  0
  4  5  2  0  0  0  0
  5  6  1  0  0  0  0
M  END
>  <name>
n1cccc[c;biphenyl]1

>  <apo>
1

>  <freq>
1

>  <freq0>
0

>  <freq1>
1

>  <freqA>
0.99887151

>  <a_count>
11

$$$$
