
  MOE2015           2D

  1  0  0  0  0  0  0  0  0  0999 V2000
    0.0000    0.0000    0.0000 O   0  0  0  0  0  0  0  0  0  0  0  0
M  END
>  <name>
[O;ether]

>  <apo>
1

>  <freq>
119

>  <freq0>
0

>  <freq1>
119

>  <freqA>
118.99001

$$$$

  MOE2015           2D

  1  0  0  0  0  0  0  0  0  0999 V2000
    0.0000    0.0000    0.0000 C   0  0  0  0  0  0  0  0  0  0  0  0
M  END
>  <name>
[C;olefin]

>  <apo>
1

>  <freq>
89

>  <freq0>
0

>  <freq1>
89

>  <freqA>
88.990036

$$$$

  MOE2015           2D

  3  2  0  0  0  0  0  0  0  0999 V2000
    0.2500    0.0670    0.0000 C   0  0  0  0  0  0  0  0  0  0  0  0
    1.5490   -0.6830    0.0000 C   0  0  0  0  0  0  0  0  0  0  0  0
   -1.0490   -0.6830    0.0000 C   0  0  0  0  0  0  0  0  0  0  0  0
  1  2  1  0  0  0  0
  1  3  1  0  0  0  0
M  END
>  <name>
[C;olefin](C)C

>  <apo>
1

>  <freq>
66

>  <freq0>
0

>  <freq1>
66

>  <freqA>
65.990074

$$$$

  MOE2015           2D

 11 11  0  0  0  0  0  0  0  0999 V2000
    6.5450   -1.4170    0.0000 O   0  0  0  0  0  0  0  0  0  0  0  0
    5.7950   -2.7160    0.0000 C   0  0  0  0  0  0  0  0  0  0  0  0
    4.2950   -2.7160    0.0000 C   0  0  0  0  0  0  0  0  0  0  0  0
    3.5450   -4.0150    0.0000 C   0  0  0  0  0  0  0  0  0  0  0  0
    2.0450   -4.0150    0.0000 C   0  0  0  0  0  0  0  0  0  0  0  0
    1.2950   -5.3140    0.0000 O   0  0  0  0  0  0  0  0  0  0  0  0
    1.2950   -2.7160    0.0000 C   0  0  0  0  0  0  0  0  0  0  0  0
   -0.2050   -2.7160    0.0000 O   0  0  0  0  0  0  0  0  0  0  0  0
    2.0450   -1.4170    0.0000 C   0  0  0  0  0  0  0  0  0  0  0  0
    1.2950   -0.1180    0.0000 O   0  0  0  0  0  0  0  0  0  0  0  0
    3.5450   -1.4170    0.0000 C   0  0  0  0  0  0  0  0  0  0  0  0
  1  2  2  0  0  0  0
  2  3  1  0  0  0  0
  3  4  1  0  0  0  0
  3 11  2  0  0  0  0
  4  5  2  0  0  0  0
  5  6  1  0  0  0  0
  5  7  1  0  0  0  0
  7  8  1  0  0  0  0
  7  9  2  0  0  0  0
  9 10  1  0  0  0  0
  9 11  1  0  0  0  0
M  END
>  <name>
O=[C;ester]c1cc(O)c(O)c(O)c1

>  <apo>
1

>  <freq>
51

>  <freq0>
0

>  <freq1>
51

>  <freqA>
50.990116

$$$$

  MOE2015           2D

  3  2  0  0  0  0  0  0  0  0999 V2000
   -0.0490    0.1830    0.0000 O   0  0  0  0  0  0  0  0  0  0  0  0
    1.2500    0.9330    0.0000 C   0  0  0  0  0  0  0  0  0  0  0  0
    2.5490    0.1830    0.0000 C   0  0  0  0  0  0  0  0  0  0  0  0
  1  2  2  0  0  0  0
  2  3  1  0  0  0  0
M  END
>  <name>
O=[C;ester][C;olefin]

>  <apo>
2

>  <freq>
43

>  <freq0>
0

>  <freq1>
43

>  <freqA>
42.99015

$$$$

  MOE2015           2D

  8  8  0  0  0  0  0  0  0  0999 V2000
    0.0000    0.0000    0.0000 O   0  0  0  0  0  0  0  0  0  0  0  0
    1.5000    0.0000    0.0000 C   0  0  0  0  0  0  0  0  0  0  0  0
    2.2500   -1.2990    0.0000 C   0  0  0  0  0  0  0  0  0  0  0  0
    3.7500   -1.2990    0.0000 C   0  0  0  0  0  0  0  0  0  0  0  0
    4.5000    0.0000    0.0000 C   0  0  0  0  0  0  0  0  0  0  0  0
    6.0000    0.0000    0.0000 C   0  0  0  0  0  0  0  0  0  0  0  0
    3.7500    1.2990    0.0000 C   0  0  0  0  0  0  0  0  0  0  0  0
    2.2500    1.2990    0.0000 C   0  0  0  0  0  0  0  0  0  0  0  0
  1  2  1  0  0  0  0
  2  3  1  0  0  0  0
  2  8  2  0  0  0  0
  3  4  2  0  0  0  0
  4  5  1  0  0  0  0
  5  6  1  0  0  0  0
  5  7  2  0  0  0  0
  7  8  1  0  0  0  0
M  END
>  <name>
Oc1ccc([C;olefin])cc1

>  <apo>
1

>  <freq>
40

>  <freq0>
0

>  <freq1>
40

>  <freqA>
39.99017

$$$$

  MOE2015           2D

  9  9  0  0  0  0  0  0  0  0999 V2000
    1.3330    2.3090    0.0000 O   0  0  0  0  0  0  0  0  0  0  0  0
    2.0830    1.0100    0.0000 C   0  0  0  0  0  0  0  0  0  0  0  0
    1.3330   -0.2890    0.0000 C   0  0  0  0  0  0  0  0  0  0  0  0
   -0.1670   -0.2890    0.0000 O   0  0  0  0  0  0  0  0  0  0  0  0
    2.0830   -1.5880    0.0000 C   0  0  0  0  0  0  0  0  0  0  0  0
    3.5830   -1.5880    0.0000 C   0  0  0  0  0  0  0  0  0  0  0  0
    4.3330   -0.2890    0.0000 C   0  0  0  0  0  0  0  0  0  0  0  0
    5.8330   -0.2890    0.0000 C   0  0  0  0  0  0  0  0  0  0  0  0
    3.5830    1.0100    0.0000 C   0  0  0  0  0  0  0  0  0  0  0  0
  1  2  1  0  0  0  0
  2  3  1  0  0  0  0
  2  9  2  0  0  0  0
  3  4  1  0  0  0  0
  3  5  2  0  0  0  0
  5  6  1  0  0  0  0
  6  7  2  0  0  0  0
  7  8  1  0  0  0  0
  7  9  1  0  0  0  0
M  END
>  <name>
Oc1c(O)ccc([C;olefin])c1

>  <apo>
1

>  <freq>
36

>  <freq0>
0

>  <freq1>
36

>  <freqA>
35.990196

$$$$

  MOE2015           2D

  3  2  0  0  0  0  0  0  0  0999 V2000
   -0.0490    0.1830    0.0000 O   0  0  0  0  0  0  0  0  0  0  0  0
    1.2500    0.9330    0.0000 C   0  0  0  0  0  0  0  0  0  0  0  0
    2.5490    0.1830    0.0000 C   0  0  0  0  0  0  0  0  0  0  0  0
  1  2  2  0  0  0  0
  2  3  1  0  0  0  0
M  END
>  <name>
O=[C;amide][C;olefin]

>  <apo>
2

>  <freq>
27

>  <freq0>
0

>  <freq1>
27

>  <freqA>
26.990284

$$$$

  MOE2015           2D

 10 10  0  0  1  0  0  0  0  0999 V2000
    1.0500    2.3380    0.0000 O   0  0  0  0  0  0  0  0  0  0  0  0
    1.8000    1.0390    0.0000 C   0  0  2  0  0  0  0  0  0  0  0  0
    3.3000    1.0390    0.0000 C   0  0  2  0  0  0  0  0  0  0  0  0
    4.0500    2.3380    0.0000 O   0  0  0  0  0  0  0  0  0  0  0  0
    4.0500   -0.2600    0.0000 C   0  0  2  0  0  0  0  0  0  0  0  0
    5.5500   -0.2600    0.0000 O   0  0  0  0  0  0  0  0  0  0  0  0
    3.3000   -1.5590    0.0000 C   0  0  0  0  0  0  0  0  0  0  0  0
    1.8000   -1.5590    0.0000 O   0  0  0  0  0  0  0  0  0  0  0  0
    1.0500   -0.2600    0.0000 C   0  0  1  0  0  0  0  0  0  0  0  0
   -0.4500   -0.2600    0.0000 C   0  0  0  0  0  0  0  0  0  0  0  0
  2  1  1  6  0  0  0
  2  3  1  0  0  0  0
  2  9  1  0  0  0  0
  3  4  1  6  0  0  0
  3  5  1  0  0  0  0
  5  6  1  6  0  0  0
  5  7  1  0  0  0  0
  7  8  1  0  0  0  0
  8  9  1  0  0  0  0
  9 10  1  1  0  0  0
M  END
>  <name>
O[C@@H]1[C@H](O)[C@H](O)[C;ether]O[C@H]1C

>  <apo>
1

>  <freq>
27

>  <freq0>
0

>  <freq1>
27

>  <freqA>
26.990284

$$$$

  MOE2015           2D

  2  1  0  0  0  0  0  0  0  0999 V2000
    0.0000    0.0000    0.0000 C   0  0  0  0  0  0  0  0  0  0  0  0
    1.5000    0.0000    0.0000 C   0  0  0  0  0  0  0  0  0  0  0  0
  1  2  1  0  0  0  0
M  END
>  <name>
[C;olefin]C

>  <apo>
1

>  <freq>
25

>  <freq0>
0

>  <freq1>
25

>  <freqA>
24.990311

$$$$

  MOE2015           2D

 10 10  0  0  0  0  0  0  0  0999 V2000
   -3.1280    1.0280    0.0000 O   0  0  0  0  0  0  0  0  0  0  0  0
   -3.1280   -0.4720    0.0000 C   0  0  0  0  0  0  0  0  0  0  0  0
   -1.8290    1.7780    0.0000 C   0  0  0  0  0  0  0  0  0  0  0  0
   -1.8290    3.2780    0.0000 C   0  0  0  0  0  0  0  0  0  0  0  0
   -3.1280    4.0280    0.0000 O   0  0  0  0  0  0  0  0  0  0  0  0
   -0.5300    4.0280    0.0000 C   0  0  0  0  0  0  0  0  0  0  0  0
    0.7690    3.2780    0.0000 C   0  0  0  0  0  0  0  0  0  0  0  0
    0.7690    1.7780    0.0000 C   0  0  0  0  0  0  0  0  0  0  0  0
    2.0680    1.0280    0.0000 C   0  0  0  0  0  0  0  0  0  0  0  0
   -0.5300    1.0280    0.0000 C   0  0  0  0  0  0  0  0  0  0  0  0
  1  2  1  0  0  0  0
  1  3  1  0  0  0  0
  3  4  1  0  0  0  0
  3 10  2  0  0  0  0
  4  5  1  0  0  0  0
  4  6  2  0  0  0  0
  6  7  1  0  0  0  0
  7  8  2  0  0  0  0
  8  9  1  0  0  0  0
  8 10  1  0  0  0  0
M  END
>  <name>
O(C)c1c(O)ccc([C;olefin])c1

>  <apo>
1

>  <freq>
23

>  <freq0>
0

>  <freq1>
23

>  <freqA>
22.990343

$$$$

  MOE2015           2D

  5  4  0  0  0  0  0  0  0  0999 V2000
    0.1500   -0.0400    0.0000 C   0  0  0  0  0  0  0  0  0  0  0  0
    1.4490    0.7100    0.0000 C   0  0  0  0  0  0  0  0  0  0  0  0
    2.7480   -0.0400    0.0000 C   0  0  0  0  0  0  0  0  0  0  0  0
   -1.1490    0.7100    0.0000 C   0  0  0  0  0  0  0  0  0  0  0  0
   -2.4480   -0.0400    0.0000 C   0  0  0  0  0  0  0  0  0  0  0  0
  1  2  1  0  0  0  0
  1  4  1  0  0  0  0
  2  3  1  0  0  0  0
  4  5  1  0  0  0  0
M  END
>  <name>
C([C;olefin]C)C[C;olefin]

>  <apo>
2

>  <freq>
19

>  <freq0>
0

>  <freq1>
19

>  <freqA>
18.990429

$$$$

  MOE2015           2D

  2  1  0  0  0  0  0  0  0  0999 V2000
    0.0000    0.0000    0.0000 O   0  0  0  0  0  0  0  0  0  0  0  0
    1.5000    0.0000    0.0000 C   0  0  0  0  0  0  0  0  0  0  0  0
  1  2  1  0  0  0  0
M  END
>  <name>
[O;ether]C

>  <apo>
1

>  <freq>
19

>  <freq0>
0

>  <freq1>
19

>  <freqA>
18.990429

$$$$

  MOE2015           2D

 20 22  0  0  0  0  0  0  0  0999 V2000
    1.4250    2.4680    0.0000 O   0  0  0  0  0  0  0  0  0  0  0  0
    2.1750    1.1690    0.0000 C   0  0  0  0  0  0  0  0  0  0  0  0
    1.4250   -0.1300    0.0000 C   0  0  0  0  0  0  0  0  0  0  0  0
   -0.0750   -0.1300    0.0000 C   0  0  0  0  0  0  0  0  0  0  0  0
   -0.8250    1.1690    0.0000 O   0  0  0  0  0  0  0  0  0  0  0  0
   -0.8250   -1.4290    0.0000 C   0  0  0  0  0  0  0  0  0  0  0  0
   -0.0750   -2.7280    0.0000 C   0  0  0  0  0  0  0  0  0  0  0  0
   -0.8250   -4.0270    0.0000 O   0  0  0  0  0  0  0  0  0  0  0  0
    1.4250   -2.7280    0.0000 C   0  0  0  0  0  0  0  0  0  0  0  0
    2.1750   -1.4290    0.0000 C   0  0  0  0  0  0  0  0  0  0  0  0
    3.6750   -1.4290    0.0000 O   0  0  0  0  0  0  0  0  0  0  0  0
    4.4250   -0.1300    0.0000 C   0  0  0  0  0  0  0  0  0  0  0  0
    5.9250   -0.1300    0.0000 C   0  0  0  0  0  0  0  0  0  0  0  0
    6.6750    1.1690    0.0000 C   0  0  0  0  0  0  0  0  0  0  0  0
    8.1750    1.1690    0.0000 C   0  0  0  0  0  0  0  0  0  0  0  0
    8.9250   -0.1300    0.0000 C   0  0  0  0  0  0  0  0  0  0  0  0
   10.4250   -0.1300    0.0000 O   0  0  0  0  0  0  0  0  0  0  0  0
    8.1750   -1.4290    0.0000 C   0  0  0  0  0  0  0  0  0  0  0  0
    6.6750   -1.4290    0.0000 C   0  0  0  0  0  0  0  0  0  0  0  0
    3.6750    1.1690    0.0000 C   0  0  0  0  0  0  0  0  0  0  0  0
  1  2  2  0  0  0  0
  2  3  1  0  0  0  0
  2 20  1  0  0  0  0
  3  4  1  0  0  0  0
  3 10  2  0  0  0  0
  4  5  1  0  0  0  0
  4  6  2  0  0  0  0
  6  7  1  0  0  0  0
  7  8  1  0  0  0  0
  7  9  2  0  0  0  0
  9 10  1  0  0  0  0
 10 11  1  0  0  0  0
 11 12  1  0  0  0  0
 12 13  1  0  0  0  0
 12 20  2  0  0  0  0
 13 14  1  0  0  0  0
 13 19  2  0  0  0  0
 14 15  2  0  0  0  0
 15 16  1  0  0  0  0
 16 17  1  0  0  0  0
 16 18  2  0  0  0  0
 18 19  1  0  0  0  0
M  END
>  <name>
O=C1c2c(O)cc([O;ether])cc2OC(c2ccc(O)cc2)=C1

>  <apo>
1

>  <freq>
18

>  <freq0>
0

>  <freq1>
18

>  <freqA>
17.990456

$$$$

  MOE2015           2D

  3  2  0  0  0  0  0  0  0  0999 V2000
   -0.0490    0.1830    0.0000 O   0  0  0  0  0  0  0  0  0  0  0  0
    1.2500    0.9330    0.0000 C   0  0  0  0  0  0  0  0  0  0  0  0
    2.5490    0.1830    0.0000 C   0  0  0  0  0  0  0  0  0  0  0  0
  1  2  2  0  0  0  0
  2  3  1  0  0  0  0
M  END
>  <name>
O=[C;ester]C

>  <apo>
1

>  <freq>
18

>  <freq0>
0

>  <freq1>
18

>  <freqA>
17.990456

$$$$

  MOE2015           2D

  1  0  0  0  0  0  0  0  0  0999 V2000
    0.0000    0.0000    0.0000 C   0  0  0  0  0  0  0  0  0  0  0  0
M  END
>  <name>
[C;ether]

>  <apo>
1

>  <freq>
17

>  <freq0>
0

>  <freq1>
17

>  <freqA>
16.990484

$$$$

  MOE2015           2D

 10 10  0  0  1  0  0  0  0  0999 V2000
    6.5070    1.7440    0.0000 O   0  0  0  0  0  0  0  0  0  0  0  0
    5.2080    0.9940    0.0000 C   0  0  0  0  0  0  0  0  0  0  0  0
    3.9090    1.7440    0.0000 C   0  0  2  0  0  0  0  0  0  0  0  0
    2.6100    0.9940    0.0000 C   0  0  1  0  0  0  0  0  0  0  0  0
    2.6100   -0.5060    0.0000 O   0  0  0  0  0  0  0  0  0  0  0  0
    1.3110    1.7440    0.0000 C   0  0  1  0  0  0  0  0  0  0  0  0
    0.0120    0.9940    0.0000 O   0  0  0  0  0  0  0  0  0  0  0  0
    1.3110    3.2440    0.0000 C   0  0  0  0  0  0  0  0  0  0  0  0
    2.6100    3.9940    0.0000 C   0  0  0  0  0  0  0  0  0  0  0  0
    3.9090    3.2440    0.0000 O   0  0  0  0  0  0  0  0  0  0  0  0
  1  2  1  0  0  0  0
  3  2  1  6  0  0  0
  3  4  1  0  0  0  0
  3 10  1  0  0  0  0
  4  5  1  1  0  0  0
  4  6  1  0  0  0  0
  6  7  1  1  0  0  0
  6  8  1  0  0  0  0
  8  9  1  0  0  0  0
  9 10  1  0  0  0  0
M  END
>  <name>
OC[C@@H]1[C@@H](O)[C@@H](O)[C;ether][C;ether]O1

>  <apo>
2

>  <freq>
16

>  <freq0>
0

>  <freq1>
16

>  <freqA>
15.990519

$$$$

  MOE2015           2D

 11 11  0  0  1  0  0  0  0  0999 V2000
    6.5450    0.4720    0.0000 O   0  0  0  0  0  0  0  0  0  0  0  0
    5.7950    1.7710    0.0000 C   0  0  0  0  0  0  0  0  0  0  0  0
    4.2950    1.7710    0.0000 C   0  0  2  0  0  0  0  0  0  0  0  0
    3.5450    3.0700    0.0000 C   0  0  1  0  0  0  0  0  0  0  0  0
    4.2950    4.3690    0.0000 O   0  0  0  0  0  0  0  0  0  0  0  0
    2.0450    3.0700    0.0000 C   0  0  1  0  0  0  0  0  0  0  0  0
    1.2950    4.3690    0.0000 O   0  0  0  0  0  0  0  0  0  0  0  0
    1.2950    1.7710    0.0000 C   0  0  2  0  0  0  0  0  0  0  0  0
   -0.2050    1.7710    0.0000 O   0  0  0  0  0  0  0  0  0  0  0  0
    2.0450    0.4720    0.0000 C   0  0  0  0  0  0  0  0  0  0  0  0
    3.5450    0.4720    0.0000 O   0  0  0  0  0  0  0  0  0  0  0  0
  1  2  1  0  0  0  0
  3  2  1  1  0  0  0
  3  4  1  0  0  0  0
  3 11  1  0  0  0  0
  4  5  1  6  0  0  0
  4  6  1  0  0  0  0
  6  7  1  6  0  0  0
  6  8  1  0  0  0  0
  8  9  1  1  0  0  0
  8 10  1  0  0  0  0
 10 11  1  0  0  0  0
M  END
>  <name>
OC[C@@H]1[C@@H](O)[C@@H](O)[C@H](O)[C;ether]O1

>  <apo>
1

>  <freq>
15

>  <freq0>
0

>  <freq1>
15

>  <freqA>
14.990556

$$$$

  MOE2015           2D

 11 11  0  0  1  0  0  0  0  0999 V2000
    6.5450    0.4720    0.0000 O   0  0  0  0  0  0  0  0  0  0  0  0
    5.7950    1.7710    0.0000 C   0  0  0  0  0  0  0  0  0  0  0  0
    4.2950    1.7710    0.0000 C   0  0  3  0  0  0  0  0  0  0  0  0
    3.5450    3.0700    0.0000 C   0  0  3  0  0  0  0  0  0  0  0  0
    4.2950    4.3690    0.0000 O   0  0  0  0  0  0  0  0  0  0  0  0
    2.0450    3.0700    0.0000 C   0  0  3  0  0  0  0  0  0  0  0  0
    1.2950    4.3690    0.0000 O   0  0  0  0  0  0  0  0  0  0  0  0
    1.2950    1.7710    0.0000 C   0  0  3  0  0  0  0  0  0  0  0  0
   -0.2050    1.7710    0.0000 O   0  0  0  0  0  0  0  0  0  0  0  0
    2.0450    0.4720    0.0000 C   0  0  0  0  0  0  0  0  0  0  0  0
    3.5450    0.4720    0.0000 O   0  0  0  0  0  0  0  0  0  0  0  0
  1  2  1  0  0  0  0
  2  3  1  0  0  0  0
  3  4  1  0  0  0  0
  3 11  1  0  0  0  0
  4  5  1  0  0  0  0
  4  6  1  0  0  0  0
  6  7  1  0  0  0  0
  6  8  1  0  0  0  0
  8  9  1  0  0  0  0
  8 10  1  0  0  0  0
 10 11  1  0  0  0  0
M  END
>  <name>
OCC1C(O)C(O)C(O)[C;ether]O1

>  <apo>
1

>  <freq>
12

>  <freq0>
0

>  <freq1>
12

>  <freqA>
11.990703

$$$$

  MOE2015           2D

 14 14  0  0  1  0  0  0  0  0999 V2000
    9.0430   -2.4230    0.0000 O   0  0  0  0  0  0  0  0  0  0  0  0
    7.7440   -1.6730    0.0000 C   0  0  0  0  0  0  0  0  0  0  0  0
    7.7440   -0.1730    0.0000 O   0  0  0  0  0  0  0  0  0  0  0  0
    6.4450   -2.4230    0.0000 C   0  0  3  0  0  0  0  0  0  0  0  0
    6.4450   -3.9230    0.0000 O   0  0  0  0  0  0  0  0  0  0  0  0
    5.1460   -1.6730    0.0000 C   0  0  0  0  0  0  0  0  0  0  0  0
    3.8470   -2.4230    0.0000 C   0  0  0  0  0  0  0  0  0  0  0  0
    2.5480   -1.6730    0.0000 C   0  0  0  0  0  0  0  0  0  0  0  0
    1.2490   -2.4230    0.0000 C   0  0  0  0  0  0  0  0  0  0  0  0
   -0.0500   -1.6730    0.0000 O   0  0  0  0  0  0  0  0  0  0  0  0
    1.2490   -3.9230    0.0000 C   0  0  0  0  0  0  0  0  0  0  0  0
   -0.0500   -4.6730    0.0000 O   0  0  0  0  0  0  0  0  0  0  0  0
    2.5480   -4.6730    0.0000 C   0  0  0  0  0  0  0  0  0  0  0  0
    3.8470   -3.9230    0.0000 C   0  0  0  0  0  0  0  0  0  0  0  0
  1  2  2  0  0  0  0
  2  3  1  0  0  0  0
  2  4  1  0  0  0  0
  4  5  1  0  0  0  0
  4  6  1  0  0  0  0
  6  7  1  0  0  0  0
  7  8  1  0  0  0  0
  7 14  2  0  0  0  0
  8  9  2  0  0  0  0
  9 10  1  0  0  0  0
  9 11  1  0  0  0  0
 11 12  1  0  0  0  0
 11 13  2  0  0  0  0
 13 14  1  0  0  0  0
M  END
>  <name>
O=C(O)C([O;ester])Cc1cc(O)c(O)cc1

>  <apo>
1

>  <freq>
11

>  <freq0>
0

>  <freq1>
11

>  <freqA>
10.990767

$$$$

  MOE2015           2D

  4  3  0  0  0  0  0  0  0  0999 V2000
    3.0000    0.0000    0.0000 O   0  0  0  0  0  0  0  0  0  0  0  0
    1.5000    0.0000    0.0000 C   0  0  0  0  0  0  0  0  0  0  0  0
    0.7500   -1.2990    0.0000 O   0  0  0  0  0  0  0  0  0  0  0  0
    0.7500    1.2990    0.0000 C   0  0  0  0  0  0  0  0  0  0  0  0
  1  2  2  0  0  0  0
  2  3  1  0  0  0  0
  2  4  1  0  0  0  0
M  END
>  <name>
O=C(O)[C;olefin]

>  <apo>
1

>  <freq>
10

>  <freq0>
0

>  <freq1>
10

>  <freqA>
9.9908447

$$$$

  MOE2015           2D

 10 10  0  0  1  0  0  0  0  0999 V2000
    1.0500    2.3380    0.0000 O   0  0  0  0  0  0  0  0  0  0  0  0
    1.8000    1.0390    0.0000 C   0  0  3  0  0  0  0  0  0  0  0  0
    3.3000    1.0390    0.0000 C   0  0  3  0  0  0  0  0  0  0  0  0
    4.0500    2.3380    0.0000 O   0  0  0  0  0  0  0  0  0  0  0  0
    4.0500   -0.2600    0.0000 C   0  0  3  0  0  0  0  0  0  0  0  0
    5.5500   -0.2600    0.0000 O   0  0  0  0  0  0  0  0  0  0  0  0
    3.3000   -1.5590    0.0000 C   0  0  0  0  0  0  0  0  0  0  0  0
    1.8000   -1.5590    0.0000 O   0  0  0  0  0  0  0  0  0  0  0  0
    1.0500   -0.2600    0.0000 C   0  0  3  0  0  0  0  0  0  0  0  0
   -0.4500   -0.2600    0.0000 C   0  0  0  0  0  0  0  0  0  0  0  0
  1  2  1  0  0  0  0
  2  3  1  0  0  0  0
  2  9  1  0  0  0  0
  3  4  1  0  0  0  0
  3  5  1  0  0  0  0
  5  6  1  0  0  0  0
  5  7  1  0  0  0  0
  7  8  1  0  0  0  0
  8  9  1  0  0  0  0
  9 10  1  0  0  0  0
M  END
>  <name>
OC1C(O)C(O)[C;ether]OC1C

>  <apo>
1

>  <freq>
9

>  <freq0>
0

>  <freq1>
9

>  <freqA>
8.9909372

$$$$

  MOE2015           2D

 10 10  0  0  0  0  0  0  0  0999 V2000
    0.0000    0.5200    0.0000 O   0  0  0  0  0  0  0  0  0  0  0  0
    1.5000    0.5200    0.0000 C   0  0  0  0  0  0  0  0  0  0  0  0
    2.2500   -0.7790    0.0000 C   0  0  0  0  0  0  0  0  0  0  0  0
    3.7500   -0.7790    0.0000 C   0  0  0  0  0  0  0  0  0  0  0  0
    4.5000    0.5200    0.0000 C   0  0  0  0  0  0  0  0  0  0  0  0
    6.0000    0.5200    0.0000 C   0  0  0  0  0  0  0  0  0  0  0  0
    6.7500   -0.7790    0.0000 C   0  0  0  0  0  0  0  0  0  0  0  0
    8.2500   -0.7790    0.0000 N   0  0  0  0  0  0  0  0  0  0  0  0
    3.7500    1.8190    0.0000 C   0  0  0  0  0  0  0  0  0  0  0  0
    2.2500    1.8190    0.0000 C   0  0  0  0  0  0  0  0  0  0  0  0
  1  2  1  0  0  0  0
  2  3  1  0  0  0  0
  2 10  2  0  0  0  0
  3  4  2  0  0  0  0
  4  5  1  0  0  0  0
  5  6  1  0  0  0  0
  5  9  2  0  0  0  0
  6  7  1  0  0  0  0
  7  8  1  0  0  0  0
  9 10  1  0  0  0  0
M  END
>  <name>
Oc1ccc(CC[N;amide])cc1

>  <apo>
1

>  <freq>
9

>  <freq0>
0

>  <freq1>
9

>  <freqA>
8.9909372

$$$$

  MOE2015           2D

  9  9  0  0  1  0  0  0  0  0999 V2000
    5.0360    1.3690    0.0000 O   0  0  0  0  0  0  0  0  0  0  0  0
    3.7420    0.6100    0.0000 C   0  0  0  0  0  0  0  0  0  0  0  0
    2.4380    1.3500    0.0000 C   0  0  2  0  0  0  0  0  0  0  0  0
    2.3960   -0.1490    0.0000 O   0  0  0  0  0  0  0  0  0  0  0  0
    0.9540    1.5740    0.0000 C   0  0  2  0  0  0  0  0  0  0  0  0
   -0.0980    0.5050    0.0000 O   0  0  0  0  0  0  0  0  0  0  0  0
    0.7090    3.0530    0.0000 C   0  0  0  0  0  0  0  0  0  0  0  0
    2.0400    3.7440    0.0000 O   0  0  0  0  0  0  0  0  0  0  0  0
    3.1090    2.6920    0.0000 C   0  0  0  0  0  0  0  0  0  0  0  0
  1  2  1  0  0  0  0
  3  2  1  6  0  0  0
  3  4  1  1  0  0  0
  3  5  1  0  0  0  0
  3  9  1  0  0  0  0
  5  6  1  6  0  0  0
  5  7  1  0  0  0  0
  7  8  1  0  0  0  0
  8  9  1  0  0  0  0
M  END
>  <name>
OC[C@]1(O)[C@H](O)[C;ether]OC1

>  <apo>
1

>  <freq>
7

>  <freq0>
0

>  <freq1>
7

>  <freqA>
6.9911909

$$$$

  MOE2015           2D

 22 24  0  0  1  0  0  0  0  0999 V2000
   12.3410    0.0000    0.0000 O   0  0  0  0  0  0  0  0  0  0  0  0
   10.8410    0.0000    0.0000 C   0  0  0  0  0  0  0  0  0  0  0  0
   10.0910   -1.2990    0.0000 C   0  0  0  0  0  0  0  0  0  0  0  0
   10.8410   -2.5980    0.0000 O   0  0  0  0  0  0  0  0  0  0  0  0
    8.5910   -1.2990    0.0000 C   0  0  0  0  0  0  0  0  0  0  0  0
    7.8410    0.0000    0.0000 C   0  0  0  0  0  0  0  0  0  0  0  0
    6.3410    0.0000    0.0000 C   0  0  3  0  0  0  0  0  0  0  0  0
    5.5910   -1.2990    0.0000 C   0  0  3  0  0  0  0  0  0  0  0  0
    6.3410   -2.5980    0.0000 O   0  0  0  0  0  0  0  0  0  0  0  0
    4.0910   -1.2990    0.0000 C   0  0  0  0  0  0  0  0  0  0  0  0
    3.3410    0.0000    0.0000 C   0  0  0  0  0  0  0  0  0  0  0  0
    1.8410    0.0000    0.0000 C   0  0  0  0  0  0  0  0  0  0  0  0
    1.0910   -1.2990    0.0000 O   0  0  0  0  0  0  0  0  0  0  0  0
    1.0910    1.2990    0.0000 C   0  0  0  0  0  0  0  0  0  0  0  0
    1.8410    2.5980    0.0000 C   0  0  0  0  0  0  0  0  0  0  0  0
    1.0910    3.8970    0.0000 O   0  0  0  0  0  0  0  0  0  0  0  0
    3.3410    2.5980    0.0000 C   0  0  0  0  0  0  0  0  0  0  0  0
    4.0910    1.2990    0.0000 C   0  0  0  0  0  0  0  0  0  0  0  0
    5.5910    1.2990    0.0000 O   0  0  0  0  0  0  0  0  0  0  0  0
    8.5910    1.2990    0.0000 C   0  0  0  0  0  0  0  0  0  0  0  0
   10.0910    1.2990    0.0000 C   0  0  0  0  0  0  0  0  0  0  0  0
   10.8410    2.5980    0.0000 O   0  0  0  0  0  0  0  0  0  0  0  0
  1  2  1  0  0  0  0
  2  3  1  0  0  0  0
  2 21  2  0  0  0  0
  3  4  1  0  0  0  0
  3  5  2  0  0  0  0
  5  6  1  0  0  0  0
  6  7  1  0  0  0  0
  6 20  2  0  0  0  0
  7  8  1  0  0  0  0
  7 19  1  0  0  0  0
  8  9  1  0  0  0  0
  8 10  1  0  0  0  0
 10 11  1  0  0  0  0
 11 12  1  0  0  0  0
 11 18  2  0  0  0  0
 12 13  1  0  0  0  0
 12 14  2  0  0  0  0
 14 15  1  0  0  0  0
 15 16  1  0  0  0  0
 15 17  2  0  0  0  0
 17 18  1  0  0  0  0
 18 19  1  0  0  0  0
 20 21  1  0  0  0  0
 21 22  1  0  0  0  0
M  END
>  <name>
Oc1c(O)cc(C2C([O;ester])Cc3c(O)cc(O)cc3O2)cc1O

>  <apo>
1

>  <freq>
7

>  <freq0>
0

>  <freq1>
7

>  <freqA>
6.9911909

$$$$

  MOE2015           2D

  7  7  0  0  0  0  0  0  0  0999 V2000
    5.1430    0.0000    0.0000 C   0  0  0  0  0  0  0  0  0  0  0  0
    3.6430    0.0000    0.0000 C   0  0  0  0  0  0  0  0  0  0  0  0
    2.8930    1.2990    0.0000 C   0  0  0  0  0  0  0  0  0  0  0  0
    1.3930    1.2990    0.0000 C   0  0  0  0  0  0  0  0  0  0  0  0
    0.6430    0.0000    0.0000 C   0  0  0  0  0  0  0  0  0  0  0  0
    1.3930   -1.2990    0.0000 C   0  0  0  0  0  0  0  0  0  0  0  0
    2.8930   -1.2990    0.0000 C   0  0  0  0  0  0  0  0  0  0  0  0
  1  2  1  0  0  0  0
  2  3  1  0  0  0  0
  2  7  2  0  0  0  0
  3  4  2  0  0  0  0
  4  5  1  0  0  0  0
  5  6  2  0  0  0  0
  6  7  1  0  0  0  0
M  END
>  <name>
[C;olefin]c1ccccc1

>  <apo>
1

>  <freq>
7

>  <freq0>
0

>  <freq1>
7

>  <freqA>
6.9911909

$$$$

  MOE2015           2D

 21 23  0  0  0  0  0  0  0  0999 V2000
    2.0710   -1.2370    0.0000 O   0  0  0  0  0  0  0  0  0  0  0  0
    2.8210    0.0620    0.0000 C   0  0  0  0  0  0  0  0  0  0  0  0
    2.0710    1.3610    0.0000 C   0  0  0  0  0  0  0  0  0  0  0  0
    0.5710    1.3610    0.0000 C   0  0  0  0  0  0  0  0  0  0  0  0
   -0.1790    2.6600    0.0000 C   0  0  0  0  0  0  0  0  0  0  0  0
   -1.6790    2.6600    0.0000 C   0  0  0  0  0  0  0  0  0  0  0  0
   -2.4290    3.9590    0.0000 C   0  0  0  0  0  0  0  0  0  0  0  0
   -1.6790    5.2580    0.0000 C   0  0  0  0  0  0  0  0  0  0  0  0
   -2.4290    1.3610    0.0000 C   0  0  0  0  0  0  0  0  0  0  0  0
   -3.9290    1.3610    0.0000 O   0  0  0  0  0  0  0  0  0  0  0  0
   -1.6790    0.0620    0.0000 C   0  0  0  0  0  0  0  0  0  0  0  0
   -0.1790    0.0620    0.0000 C   0  0  0  0  0  0  0  0  0  0  0  0
    2.8210    2.6600    0.0000 C   0  0  0  0  0  0  0  0  0  0  0  0
    4.3210    2.6600    0.0000 O   0  0  0  0  0  0  0  0  0  0  0  0
    5.0710    1.3610    0.0000 C   0  0  0  0  0  0  0  0  0  0  0  0
    4.3210    0.0620    0.0000 C   0  0  0  0  0  0  0  0  0  0  0  0
    5.0710   -1.2370    0.0000 C   0  0  0  0  0  0  0  0  0  0  0  0
    6.5710   -1.2370    0.0000 C   0  0  0  0  0  0  0  0  0  0  0  0
    7.3210    0.0620    0.0000 C   0  0  0  0  0  0  0  0  0  0  0  0
    8.8210    0.0620    0.0000 O   0  0  0  0  0  0  0  0  0  0  0  0
    6.5710    1.3610    0.0000 C   0  0  0  0  0  0  0  0  0  0  0  0
  1  2  2  0  0  0  0
  2  3  1  0  0  0  0
  2 16  1  0  0  0  0
  3  4  1  0  0  0  0
  3 13  2  0  0  0  0
  4  5  1  0  0  0  0
  4 12  2  0  0  0  0
  5  6  2  0  0  0  0
  6  7  1  0  0  0  0
  6  9  1  0  0  0  0
  7  8  1  0  0  0  0
  9 10  1  0  0  0  0
  9 11  2  0  0  0  0
 11 12  1  0  0  0  0
 13 14  1  0  0  0  0
 14 15  1  0  0  0  0
 15 16  1  0  0  0  0
 15 21  2  0  0  0  0
 16 17  2  0  0  0  0
 17 18  1  0  0  0  0
 18 19  2  0  0  0  0
 19 20  1  0  0  0  0
 19 21  1  0  0  0  0
M  END
>  <name>
O=C1C(c2cc(C[C;olefin])c(O)cc2)=COc2c1ccc(O)c2

>  <apo>
1

>  <freq>
6

>  <freq0>
0

>  <freq1>
6

>  <freqA>
5.9913721

$$$$

  MOE2015           2D

 20 22  0  0  0  0  0  0  0  0999 V2000
    1.4250    2.4680    0.0000 O   0  0  0  0  0  0  0  0  0  0  0  0
    2.1750    1.1690    0.0000 C   0  0  0  0  0  0  0  0  0  0  0  0
    1.4250   -0.1300    0.0000 C   0  0  0  0  0  0  0  0  0  0  0  0
   -0.0750   -0.1300    0.0000 C   0  0  0  0  0  0  0  0  0  0  0  0
   -0.8250    1.1690    0.0000 O   0  0  0  0  0  0  0  0  0  0  0  0
   -0.8250   -1.4290    0.0000 C   0  0  0  0  0  0  0  0  0  0  0  0
   -0.0750   -2.7280    0.0000 C   0  0  0  0  0  0  0  0  0  0  0  0
   -0.8250   -4.0270    0.0000 O   0  0  0  0  0  0  0  0  0  0  0  0
    1.4250   -2.7280    0.0000 C   0  0  0  0  0  0  0  0  0  0  0  0
    2.1750   -1.4290    0.0000 C   0  0  0  0  0  0  0  0  0  0  0  0
    3.6750   -1.4290    0.0000 O   0  0  0  0  0  0  0  0  0  0  0  0
    4.4250   -0.1300    0.0000 C   0  0  0  0  0  0  0  0  0  0  0  0
    5.9250   -0.1300    0.0000 C   0  0  0  0  0  0  0  0  0  0  0  0
    6.6750    1.1690    0.0000 C   0  0  0  0  0  0  0  0  0  0  0  0
    8.1750    1.1690    0.0000 C   0  0  0  0  0  0  0  0  0  0  0  0
    8.9250   -0.1300    0.0000 C   0  0  0  0  0  0  0  0  0  0  0  0
   10.4250   -0.1300    0.0000 O   0  0  0  0  0  0  0  0  0  0  0  0
    8.1750   -1.4290    0.0000 C   0  0  0  0  0  0  0  0  0  0  0  0
    6.6750   -1.4290    0.0000 C   0  0  0  0  0  0  0  0  0  0  0  0
    3.6750    1.1690    0.0000 C   0  0  0  0  0  0  0  0  0  0  0  0
  1  2  2  0  0  0  0
  2  3  1  0  0  0  0
  2 20  1  0  0  0  0
  3  4  1  0  0  0  0
  3 10  2  0  0  0  0
  4  5  1  0  0  0  0
  4  6  2  0  0  0  0
  6  7  1  0  0  0  0
  7  8  1  0  0  0  0
  7  9  2  0  0  0  0
  9 10  1  0  0  0  0
 10 11  1  0  0  0  0
 11 12  1  0  0  0  0
 12 13  1  0  0  0  0
 12 20  2  0  0  0  0
 13 14  1  0  0  0  0
 13 19  2  0  0  0  0
 14 15  2  0  0  0  0
 15 16  1  0  0  0  0
 16 17  1  0  0  0  0
 16 18  2  0  0  0  0
 18 19  1  0  0  0  0
M  END
>  <name>
O=C1c2c(O)cc(O)[c;biphenyl]c2OC(c2ccc(O)cc2)=C1

>  <apo>
1

>  <freq>
6

>  <freq0>
0

>  <freq1>
6

>  <freqA>
5.9913721

$$$$

  MOE2015           2D

 11 11  0  0  0  0  0  0  0  0999 V2000
    6.5450   -1.4170    0.0000 O   0  0  0  0  0  0  0  0  0  0  0  0
    5.7950   -2.7160    0.0000 C   0  0  0  0  0  0  0  0  0  0  0  0
    4.2950   -2.7160    0.0000 C   0  0  0  0  0  0  0  0  0  0  0  0
    3.5450   -4.0150    0.0000 C   0  0  0  0  0  0  0  0  0  0  0  0
    2.0450   -4.0150    0.0000 C   0  0  0  0  0  0  0  0  0  0  0  0
    1.2950   -5.3140    0.0000 O   0  0  0  0  0  0  0  0  0  0  0  0
    1.2950   -2.7160    0.0000 C   0  0  0  0  0  0  0  0  0  0  0  0
   -0.2050   -2.7160    0.0000 O   0  0  0  0  0  0  0  0  0  0  0  0
    2.0450   -1.4170    0.0000 C   0  0  0  0  0  0  0  0  0  0  0  0
    1.2950   -0.1180    0.0000 O   0  0  0  0  0  0  0  0  0  0  0  0
    3.5450   -1.4170    0.0000 C   0  0  0  0  0  0  0  0  0  0  0  0
  1  2  2  0  0  0  0
  2  3  1  0  0  0  0
  3  4  1  0  0  0  0
  3 11  2  0  0  0  0
  4  5  2  0  0  0  0
  5  6  1  0  0  0  0
  5  7  1  0  0  0  0
  7  8  1  0  0  0  0
  7  9  2  0  0  0  0
  9 10  1  0  0  0  0
  9 11  1  0  0  0  0
M  END
>  <name>
O=[C;ester]c1[c;biphenyl]c(O)c(O)c(O)c1

>  <apo>
2

>  <freq>
6

>  <freq0>
0

>  <freq1>
6

>  <freqA>
5.9913721

$$$$

  MOE2015           2D

  9  9  0  0  1  0  0  0  0  0999 V2000
    0.0690   -0.2560    0.0000 O   0  0  0  0  0  0  0  0  0  0  0  0
    1.3680    0.4940    0.0000 C   0  0  1  0  0  0  0  0  0  0  0  0
    2.6670   -0.2560    0.0000 C   0  0  0  0  0  0  0  0  0  0  0  0
    2.6670   -1.7560    0.0000 O   0  0  0  0  0  0  0  0  0  0  0  0
    3.9660    0.4940    0.0000 C   0  0  1  0  0  0  0  0  0  0  0  0
    5.2650   -0.2560    0.0000 O   0  0  0  0  0  0  0  0  0  0  0  0
    3.9660    1.9940    0.0000 C   0  0  0  0  0  0  0  0  0  0  0  0
    2.6670    2.7440    0.0000 O   0  0  0  0  0  0  0  0  0  0  0  0
    1.3680    1.9940    0.0000 C   0  0  0  0  0  0  0  0  0  0  0  0
  2  1  1  6  0  0  0
  2  3  1  0  0  0  0
  2  9  1  0  0  0  0
  3  4  1  0  0  0  0
  3  5  1  0  0  0  0
  5  6  1  6  0  0  0
  5  7  1  0  0  0  0
  7  8  1  0  0  0  0
  8  9  1  0  0  0  0
M  END
>  <name>
O[C@H]1C(O)[C@@H](O)[C;ether]O[C;ether]1

>  <apo>
2

>  <freq>
6

>  <freq0>
0

>  <freq1>
6

>  <freqA>
5.9913721

$$$$

  MOE2015           2D

 23 24  0  0  0  0  0  0  0  0999 V2000
   -0.6480   -4.7000    0.0000 O   0  0  0  0  0  0  0  0  0  0  0  0
    0.6510   -3.9500    0.0000 C   0  0  0  0  0  0  0  0  0  0  0  0
    0.6510   -2.4500    0.0000 C   0  0  0  0  0  0  0  0  0  0  0  0
   -0.6480   -1.7000    0.0000 O   0  0  0  0  0  0  0  0  0  0  0  0
    1.9500   -1.7000    0.0000 C   0  0  0  0  0  0  0  0  0  0  0  0
    3.2490   -2.4500    0.0000 C   0  0  0  0  0  0  0  0  0  0  0  0
    3.2490   -3.9500    0.0000 C   0  0  0  0  0  0  0  0  0  0  0  0
    4.5490   -4.7000    0.0000 C   0  0  0  0  0  0  0  0  0  0  0  0
    5.8480   -3.9500    0.0000 C   0  0  0  0  0  0  0  0  0  0  0  0
    7.1470   -4.7000    0.0000 C   0  0  0  0  0  0  0  0  0  0  0  0
    8.4460   -3.9500    0.0000 C   0  0  0  0  0  0  0  0  0  0  0  0
    9.7450   -4.7000    0.0000 C   0  0  0  0  0  0  0  0  0  0  0  0
   11.0440   -3.9500    0.0000 C   0  0  0  0  0  0  0  0  0  0  0  0
   12.3430   -4.7000    0.0000 C   0  0  0  0  0  0  0  0  0  0  0  0
   13.6420   -3.9500    0.0000 C   0  0  0  0  0  0  0  0  0  0  0  0
   14.9410   -4.7000    0.0000 C   0  0  0  0  0  0  0  0  0  0  0  0
   16.2400   -3.9500    0.0000 C   0  0  0  0  0  0  0  0  0  0  0  0
   17.5390   -4.7000    0.0000 O   0  0  0  0  0  0  0  0  0  0  0  0
   16.2400   -2.4500    0.0000 C   0  0  0  0  0  0  0  0  0  0  0  0
   17.5390   -1.7000    0.0000 O   0  0  0  0  0  0  0  0  0  0  0  0
   14.9410   -1.7000    0.0000 C   0  0  0  0  0  0  0  0  0  0  0  0
   13.6420   -2.4500    0.0000 C   0  0  0  0  0  0  0  0  0  0  0  0
    1.9500   -4.7000    0.0000 C   0  0  0  0  0  0  0  0  0  0  0  0
  1  2  1  0  0  0  0
  2  3  1  0  0  0  0
  2 23  2  0  0  0  0
  3  4  1  0  0  0  0
  3  5  2  0  0  0  0
  5  6  1  0  0  0  0
  6  7  2  0  0  0  0
  7  8  1  0  0  0  0
  7 23  1  0  0  0  0
  8  9  1  0  0  0  0
  9 10  1  0  0  0  0
 10 11  1  0  0  0  0
 11 12  1  0  0  0  0
 12 13  1  0  0  0  0
 13 14  1  0  0  0  0
 14 15  1  0  0  0  0
 15 16  1  0  0  0  0
 15 22  2  0  0  0  0
 16 17  2  0  0  0  0
 17 18  1  0  0  0  0
 17 19  1  0  0  0  0
 19 20  1  0  0  0  0
 19 21  2  0  0  0  0
 21 22  1  0  0  0  0
M  END
>  <name>
Oc1c(O)ccc(CC[C;ether]CCCCc2cc(O)c(O)cc2)c1

>  <apo>
1

>  <freq>
6

>  <freq0>
0

>  <freq1>
6

>  <freqA>
5.9913721

$$$$

  MOE2015           2D

 10 10  0  0  0  0  0  0  0  0999 V2000
    0.2720    1.0150    0.0000 O   0  0  0  0  0  0  0  0  0  0  0  0
    1.5710    0.2650    0.0000 C   0  0  0  0  0  0  0  0  0  0  0  0
    1.5710   -1.2350    0.0000 C   0  0  0  0  0  0  0  0  0  0  0  0
    0.2720   -1.9850    0.0000 O   0  0  0  0  0  0  0  0  0  0  0  0
    2.8700   -1.9850    0.0000 C   0  0  0  0  0  0  0  0  0  0  0  0
    4.1690   -1.2350    0.0000 C   0  0  0  0  0  0  0  0  0  0  0  0
    4.1690    0.2650    0.0000 C   0  0  0  0  0  0  0  0  0  0  0  0
    5.4680    1.0150    0.0000 C   0  0  0  0  0  0  0  0  0  0  0  0
    6.7670    0.2650    0.0000 C   0  0  0  0  0  0  0  0  0  0  0  0
    2.8700    1.0150    0.0000 C   0  0  0  0  0  0  0  0  0  0  0  0
  1  2  1  0  0  0  0
  2  3  1  0  0  0  0
  2 10  2  0  0  0  0
  3  4  1  0  0  0  0
  3  5  2  0  0  0  0
  5  6  1  0  0  0  0
  6  7  2  0  0  0  0
  7  8  1  0  0  0  0
  7 10  1  0  0  0  0
  8  9  1  0  0  0  0
M  END
>  <name>
Oc1c(O)ccc(C[C;ether])c1

>  <apo>
1

>  <freq>
6

>  <freq0>
0

>  <freq1>
6

>  <freqA>
5.9913721

$$$$

  MOE2015           2D

  9  8  0  0  0  0  0  0  0  0999 V2000
   -0.2690    1.0040    0.0000 N   0  0  0  0  0  0  0  0  0  0  0  0
    1.0300    1.7540    0.0000 C   0  0  0  0  0  0  0  0  0  0  0  0
    2.3290    1.0040    0.0000 N   0  0  0  0  0  0  0  0  0  0  0  0
    3.6280    1.7540    0.0000 C   0  0  0  0  0  0  0  0  0  0  0  0
    4.9270    1.0040    0.0000 C   0  0  0  0  0  0  0  0  0  0  0  0
    6.2260    1.7540    0.0000 C   0  0  0  0  0  0  0  0  0  0  0  0
    7.5250    1.0040    0.0000 C   0  0  0  0  0  0  0  0  0  0  0  0
    8.8240    1.7540    0.0000 N   0  0  0  0  0  0  0  0  0  0  0  0
    1.0300    3.2540    0.0000 N   0  0  0  0  0  0  0  0  0  0  0  0
  1  2  2  0  0  0  0
  2  3  1  0  0  0  0
  2  9  1  0  0  0  0
  3  4  1  0  0  0  0
  4  5  1  0  0  0  0
  5  6  1  0  0  0  0
  6  7  1  0  0  0  0
  7  8  1  0  0  0  0
M  END
>  <name>
N=C(NCCCC[N;amide])N

>  <apo>
1

>  <freq>
5

>  <freq0>
0

>  <freq1>
5

>  <freqA>
4.9916139

$$$$

  MOE2015           2D

  7  6  0  0  0  0  0  0  0  0999 V2000
    0.0800   -1.4140    0.0000 O   0  0  0  0  0  0  0  0  0  0  0  0
    1.3800   -0.6640    0.0000 C   0  0  0  0  0  0  0  0  0  0  0  0
    2.6790   -1.4140    0.0000 C   0  0  0  0  0  0  0  0  0  0  0  0
    3.9780   -0.6640    0.0000 C   0  0  0  0  0  0  0  0  0  0  0  0
    5.2770   -1.4140    0.0000 O   0  0  0  0  0  0  0  0  0  0  0  0
    3.9780    0.8360    0.0000 C   0  0  0  0  0  0  0  0  0  0  0  0
    1.3800    0.8360    0.0000 C   0  0  0  0  0  0  0  0  0  0  0  0
  1  2  2  0  0  0  0
  2  3  1  0  0  0  0
  2  7  1  0  0  0  0
  3  4  1  0  0  0  0
  4  5  2  0  0  0  0
  4  6  1  0  0  0  0
M  END
>  <name>
O=C(CC(=O)[C;olefin])[C;olefin]

>  <apo>
2

>  <freq>
5

>  <freq0>
0

>  <freq1>
5

>  <freqA>
4.9916139

$$$$

  MOE2015           2D

 13 13  0  0  0  0  0  0  0  0999 V2000
    6.7500   -3.8970    0.0000 O   0  0  0  0  0  0  0  0  0  0  0  0
    6.0000   -2.5980    0.0000 C   0  0  0  0  0  0  0  0  0  0  0  0
    6.7500   -1.2990    0.0000 C   0  0  0  0  0  0  0  0  0  0  0  0
    4.5000   -2.5980    0.0000 C   0  0  0  0  0  0  0  0  0  0  0  0
    3.7500   -1.2990    0.0000 C   0  0  0  0  0  0  0  0  0  0  0  0
    4.5000    0.0000    0.0000 O   0  0  0  0  0  0  0  0  0  0  0  0
    2.2500   -1.2990    0.0000 C   0  0  0  0  0  0  0  0  0  0  0  0
    1.5000    0.0000    0.0000 C   0  0  0  0  0  0  0  0  0  0  0  0
    0.0000    0.0000    0.0000 C   0  0  0  0  0  0  0  0  0  0  0  0
    1.5000   -2.5980    0.0000 C   0  0  0  0  0  0  0  0  0  0  0  0
    0.0000   -2.5980    0.0000 O   0  0  0  0  0  0  0  0  0  0  0  0
    2.2500   -3.8970    0.0000 C   0  0  0  0  0  0  0  0  0  0  0  0
    3.7500   -3.8970    0.0000 C   0  0  0  0  0  0  0  0  0  0  0  0
  1  2  2  0  0  0  0
  2  3  1  0  0  0  0
  2  4  1  0  0  0  0
  4  5  1  0  0  0  0
  4 13  2  0  0  0  0
  5  6  1  0  0  0  0
  5  7  2  0  0  0  0
  7  8  1  0  0  0  0
  7 10  1  0  0  0  0
  8  9  1  0  0  0  0
 10 11  1  0  0  0  0
 10 12  2  0  0  0  0
 12 13  1  0  0  0  0
M  END
>  <name>
O=C([C;olefin])c1c(O)c(C[C;olefin])c(O)cc1

>  <apo>
2

>  <freq>
5

>  <freq0>
0

>  <freq1>
5

>  <freqA>
4.9916139

$$$$

  MOE2015           2D

 14 14  0  0  0  0  0  0  0  0999 V2000
    6.2680    3.6190    0.0000 O   0  0  0  0  0  0  0  0  0  0  0  0
    5.5180    2.3200    0.0000 C   0  0  0  0  0  0  0  0  0  0  0  0
    6.2680    1.0210    0.0000 C   0  0  0  0  0  0  0  0  0  0  0  0
    4.0180    2.3200    0.0000 C   0  0  0  0  0  0  0  0  0  0  0  0
    3.2680    1.0210    0.0000 C   0  0  0  0  0  0  0  0  0  0  0  0
    4.0180   -0.2780    0.0000 O   0  0  0  0  0  0  0  0  0  0  0  0
    1.7680    1.0210    0.0000 C   0  0  0  0  0  0  0  0  0  0  0  0
    1.0180    2.3200    0.0000 C   0  0  0  0  0  0  0  0  0  0  0  0
   -0.4820    2.3200    0.0000 O   0  0  0  0  0  0  0  0  0  0  0  0
   -1.2320    1.0210    0.0000 C   0  0  0  0  0  0  0  0  0  0  0  0
    1.7680    3.6190    0.0000 C   0  0  0  0  0  0  0  0  0  0  0  0
    1.0180    4.9180    0.0000 C   0  0  0  0  0  0  0  0  0  0  0  0
    1.7680    6.2170    0.0000 C   0  0  0  0  0  0  0  0  0  0  0  0
    3.2680    3.6190    0.0000 C   0  0  0  0  0  0  0  0  0  0  0  0
  1  2  2  0  0  0  0
  2  3  1  0  0  0  0
  2  4  1  0  0  0  0
  4  5  1  0  0  0  0
  4 14  2  0  0  0  0
  5  6  1  0  0  0  0
  5  7  2  0  0  0  0
  7  8  1  0  0  0  0
  8  9  1  0  0  0  0
  8 11  2  0  0  0  0
  9 10  1  0  0  0  0
 11 12  1  0  0  0  0
 11 14  1  0  0  0  0
 12 13  1  0  0  0  0
M  END
>  <name>
O=C([C;olefin])c1c(O)cc(OC)c(C[C;olefin])c1

>  <apo>
2

>  <freq>
5

>  <freq0>
0

>  <freq1>
5

>  <freqA>
4.9916139

$$$$

  MOE2015           2D

 11 11  0  0  0  0  0  0  0  0999 V2000
    6.5450   -1.4170    0.0000 O   0  0  0  0  0  0  0  0  0  0  0  0
    5.7950   -2.7160    0.0000 C   0  0  0  0  0  0  0  0  0  0  0  0
    4.2950   -2.7160    0.0000 C   0  0  0  0  0  0  0  0  0  0  0  0
    3.5450   -4.0150    0.0000 C   0  0  0  0  0  0  0  0  0  0  0  0
    2.0450   -4.0150    0.0000 C   0  0  0  0  0  0  0  0  0  0  0  0
    1.2950   -5.3140    0.0000 O   0  0  0  0  0  0  0  0  0  0  0  0
    1.2950   -2.7160    0.0000 C   0  0  0  0  0  0  0  0  0  0  0  0
   -0.2050   -2.7160    0.0000 O   0  0  0  0  0  0  0  0  0  0  0  0
    2.0450   -1.4170    0.0000 C   0  0  0  0  0  0  0  0  0  0  0  0
    1.2950   -0.1180    0.0000 O   0  0  0  0  0  0  0  0  0  0  0  0
    3.5450   -1.4170    0.0000 C   0  0  0  0  0  0  0  0  0  0  0  0
  1  2  2  0  0  0  0
  2  3  1  0  0  0  0
  3  4  1  0  0  0  0
  3 11  2  0  0  0  0
  4  5  2  0  0  0  0
  5  6  1  0  0  0  0
  5  7  1  0  0  0  0
  7  8  1  0  0  0  0
  7  9  2  0  0  0  0
  9 10  1  0  0  0  0
  9 11  1  0  0  0  0
M  END
>  <name>
O=[C;ester]c1cc([O;ester])c(O)c(O)c1

>  <apo>
2

>  <freq>
5

>  <freq0>
0

>  <freq1>
5

>  <freqA>
4.9916139

$$$$

  MOE2015           2D

 10 10  0  0  1  0  0  0  0  0999 V2000
    6.5070    1.7440    0.0000 O   0  0  0  0  0  0  0  0  0  0  0  0
    5.2080    0.9940    0.0000 C   0  0  0  0  0  0  0  0  0  0  0  0
    3.9090    1.7440    0.0000 C   0  0  3  0  0  0  0  0  0  0  0  0
    2.6100    0.9940    0.0000 C   0  0  3  0  0  0  0  0  0  0  0  0
    2.6100   -0.5060    0.0000 O   0  0  0  0  0  0  0  0  0  0  0  0
    1.3110    1.7440    0.0000 C   0  0  3  0  0  0  0  0  0  0  0  0
    0.0120    0.9940    0.0000 O   0  0  0  0  0  0  0  0  0  0  0  0
    1.3110    3.2440    0.0000 C   0  0  0  0  0  0  0  0  0  0  0  0
    2.6100    3.9940    0.0000 C   0  0  0  0  0  0  0  0  0  0  0  0
    3.9090    3.2440    0.0000 O   0  0  0  0  0  0  0  0  0  0  0  0
  1  2  1  0  0  0  0
  2  3  1  0  0  0  0
  3  4  1  0  0  0  0
  3 10  1  0  0  0  0
  4  5  1  0  0  0  0
  4  6  1  0  0  0  0
  6  7  1  0  0  0  0
  6  8  1  0  0  0  0
  8  9  1  0  0  0  0
  9 10  1  0  0  0  0
M  END
>  <name>
OCC1C(O)C(O)[C;ether][C;ether]O1

>  <apo>
2

>  <freq>
5

>  <freq0>
0

>  <freq1>
5

>  <freqA>
4.9916139

$$$$

  MOE2015           2D

 13 14  0  0  0  0  0  0  0  0999 V2000
    1.5700    1.5700    0.0000 O   0  0  0  0  0  0  0  0  0  0  0  0
    1.5700    0.0700    0.0000 C   0  0  0  0  0  0  0  0  0  0  0  0
    2.8690   -0.6800    0.0000 C   0  0  0  0  0  0  0  0  0  0  0  0
    2.8690   -2.1800    0.0000 C   0  0  0  0  0  0  0  0  0  0  0  0
    4.1680   -2.9300    0.0000 O   0  3  0  0  0  0  0  0  0  0  0  0
    5.4670   -2.1800    0.0000 C   0  0  0  0  0  0  0  0  0  0  0  0
    5.4670   -0.6800    0.0000 C   0  0  0  0  0  0  0  0  0  0  0  0
    6.7660    0.0700    0.0000 O   0  0  0  0  0  0  0  0  0  0  0  0
    4.1680    0.0700    0.0000 C   0  0  0  0  0  0  0  0  0  0  0  0
    1.5700   -2.9300    0.0000 C   0  0  0  0  0  0  0  0  0  0  0  0
    0.2710   -2.1800    0.0000 C   0  0  0  0  0  0  0  0  0  0  0  0
   -1.0280   -2.9300    0.0000 O   0  0  0  0  0  0  0  0  0  0  0  0
    0.2710   -0.6800    0.0000 C   0  0  0  0  0  0  0  0  0  0  0  0
  1  2  1  0  0  0  0
  2  3  1  0  0  0  0
  2 13  2  0  0  0  0
  3  4  1  0  0  0  0
  3  9  2  0  0  0  0
  4  5  2  0  0  0  0
  4 10  1  0  0  0  0
  5  6  1  0  0  0  0
  6  7  2  0  0  0  0
  7  8  1  0  0  0  0
  7  9  1  0  0  0  0
 10 11  2  0  0  0  0
 11 12  1  0  0  0  0
 11 13  1  0  0  0  0
M  CHG  1   5   1
M  END
>  <name>
Oc1c2c([o+][c;biphenyl]c(O)c2)cc(O)c1

>  <apo>
1

>  <freq>
5

>  <freq0>
0

>  <freq1>
5

>  <freqA>
4.9916139

$$$$

  MOE2015           2D

  1  0  0  0  0  0  0  0  0  0999 V2000
    0.0000    0.0000    0.0000 S   0  0  0  0  0  0  0  0  0  0  0  0
M  END
>  <name>
[S;thioether]

>  <apo>
1

>  <freq>
5

>  <freq0>
0

>  <freq1>
5

>  <freqA>
4.9916139

$$$$

  MOE2015           2D

  9  9  0  0  0  0  0  0  0  0999 V2000
    0.4610   -0.7990    0.0000 C   0  0  0  0  0  0  0  0  0  0  0  0
    1.2110    0.5000    0.0000 C   0  0  0  0  0  0  0  0  0  0  0  0
   -0.2890    0.5000    0.0000 C   0  0  0  0  0  0  0  0  0  0  0  0
    2.5100   -0.2500    0.0000 C   0  0  0  0  0  0  0  0  0  0  0  0
    3.8090    0.5000    0.0000 C   0  0  0  0  0  0  0  0  0  0  0  0
    5.1080   -0.2500    0.0000 C   0  0  0  0  0  0  0  0  0  0  0  0
    3.8090    2.0000    0.0000 C   0  0  0  0  0  0  0  0  0  0  0  0
    2.5100    2.7500    0.0000 C   0  0  0  0  0  0  0  0  0  0  0  0
    1.2110    2.0000    0.0000 C   0  0  0  0  0  0  0  0  0  0  0  0
  1  2  1  0  0  0  0
  2  3  1  0  0  0  0
  2  4  1  0  0  0  0
  2  9  1  0  0  0  0
  4  5  2  0  0  0  0
  5  6  1  0  0  0  0
  5  7  1  0  0  0  0
  7  8  1  0  0  0  0
  8  9  1  0  0  0  0
M  END
>  <name>
CC1(C)[C;olefin]=C(C)CCC1

>  <apo>
1

>  <freq>
4

>  <freq0>
0

>  <freq1>
4

>  <freqA>
3.9919519

$$$$

  MOE2015           2D

 21 23  0  0  0  0  0  0  0  0999 V2000
    3.0000    5.6910    0.0000 O   0  0  0  0  0  0  0  0  0  0  0  0
    3.7500    6.9900    0.0000 C   0  0  0  0  0  0  0  0  0  0  0  0
    1.5000    5.6910    0.0000 C   0  0  0  0  0  0  0  0  0  0  0  0
    0.7500    4.3920    0.0000 C   0  0  0  0  0  0  0  0  0  0  0  0
   -0.7500    4.3920    0.0000 C   0  0  0  0  0  0  0  0  0  0  0  0
   -1.5000    5.6910    0.0000 C   0  0  0  0  0  0  0  0  0  0  0  0
   -3.0000    5.6910    0.0000 C   0  0  0  0  0  0  0  0  0  0  0  0
   -3.7500    4.3920    0.0000 O   0  0  0  0  0  0  0  0  0  0  0  0
   -5.2500    4.3920    0.0000 C   0  0  0  0  0  0  0  0  0  0  0  0
   -6.0000    5.6910    0.0000 C   0  0  0  0  0  0  0  0  0  0  0  0
   -7.5000    5.6910    0.0000 C   0  0  0  0  0  0  0  0  0  0  0  0
   -8.2500    6.9900    0.0000 O   0  0  0  0  0  0  0  0  0  0  0  0
   -8.2500    4.3920    0.0000 C   0  0  0  0  0  0  0  0  0  0  0  0
   -7.5000    3.0930    0.0000 C   0  0  0  0  0  0  0  0  0  0  0  0
   -8.2500    1.7940    0.0000 O   0  0  0  0  0  0  0  0  0  0  0  0
   -6.0000    3.0930    0.0000 C   0  0  0  0  0  0  0  0  0  0  0  0
   -5.2500    6.9900    0.0000 C   0  0  0  0  0  0  0  0  0  0  0  0
   -6.0000    8.2890    0.0000 O   0  0  0  0  0  0  0  0  0  0  0  0
   -3.7500    6.9900    0.0000 C   0  0  0  0  0  0  0  0  0  0  0  0
   -0.7500    6.9900    0.0000 C   0  0  0  0  0  0  0  0  0  0  0  0
    0.7500    6.9900    0.0000 C   0  0  0  0  0  0  0  0  0  0  0  0
  1  2  1  0  0  0  0
  1  3  1  0  0  0  0
  3  4  1  0  0  0  0
  3 21  2  0  0  0  0
  4  5  2  0  0  0  0
  5  6  1  0  0  0  0
  6  7  1  0  0  0  0
  6 20  2  0  0  0  0
  7  8  1  0  0  0  0
  7 19  2  0  0  0  0
  8  9  1  0  0  0  0
  9 10  1  0  0  0  0
  9 16  2  0  0  0  0
 10 11  2  0  0  0  0
 10 17  1  0  0  0  0
 11 12  1  0  0  0  0
 11 13  1  0  0  0  0
 13 14  2  0  0  0  0
 14 15  1  0  0  0  0
 14 16  1  0  0  0  0
 17 18  2  0  0  0  0
 17 19  1  0  0  0  0
 20 21  1  0  0  0  0
M  END
>  <name>
O(C)c1ccc(C=2Oc3c(c(O)cc([O;ether])c3)C(=O)C=2)cc1

>  <apo>
1

>  <freq>
4

>  <freq0>
0

>  <freq1>
4

>  <freqA>
3.9919519

$$$$

  MOE2015           2D

  7  6  0  0  0  0  0  0  0  0999 V2000
    0.0940    0.0940    0.0000 O   0  0  0  0  0  0  0  0  0  0  0  0
    0.0940   -1.4060    0.0000 C   0  0  0  0  0  0  0  0  0  0  0  0
    1.3930   -2.1560    0.0000 C   0  0  0  0  0  0  0  0  0  0  0  0
    2.6920   -1.4060    0.0000 C   0  0  0  0  0  0  0  0  0  0  0  0
    2.6920    0.0940    0.0000 O   0  0  0  0  0  0  0  0  0  0  0  0
    3.9910   -2.1560    0.0000 C   0  0  0  0  0  0  0  0  0  0  0  0
   -1.2050   -2.1560    0.0000 C   0  0  0  0  0  0  0  0  0  0  0  0
  1  2  2  0  0  0  0
  2  3  1  0  0  0  0
  2  7  1  0  0  0  0
  3  4  2  0  0  0  0
  4  5  1  0  0  0  0
  4  6  1  0  0  0  0
M  END
>  <name>
O=C(C=C(O)[C;olefin])[C;olefin]

>  <apo>
2

>  <freq>
4

>  <freq0>
0

>  <freq1>
4

>  <freqA>
3.9919519

$$$$

  MOE2015           2D

 13 13  0  0  0  0  0  0  0  0999 V2000
    9.4230   -2.5250    0.0000 O   0  0  0  0  0  0  0  0  0  0  0  0
    8.1240   -1.7750    0.0000 C   0  0  0  0  0  0  0  0  0  0  0  0
    6.8250   -2.5250    0.0000 C   0  0  0  0  0  0  0  0  0  0  0  0
    5.5260   -1.7750    0.0000 C   0  0  0  0  0  0  0  0  0  0  0  0
    4.2270   -2.5250    0.0000 C   0  0  0  0  0  0  0  0  0  0  0  0
    2.9280   -1.7750    0.0000 C   0  0  0  0  0  0  0  0  0  0  0  0
    1.6290   -2.5250    0.0000 C   0  0  0  0  0  0  0  0  0  0  0  0
    0.3300   -1.7750    0.0000 O   0  0  0  0  0  0  0  0  0  0  0  0
    1.6290   -4.0250    0.0000 C   0  0  0  0  0  0  0  0  0  0  0  0
    0.3300   -4.7750    0.0000 O   0  0  0  0  0  0  0  0  0  0  0  0
    2.9280   -4.7750    0.0000 C   0  0  0  0  0  0  0  0  0  0  0  0
    4.2270   -4.0250    0.0000 C   0  0  0  0  0  0  0  0  0  0  0  0
    8.1240   -0.2750    0.0000 C   0  0  0  0  0  0  0  0  0  0  0  0
  1  2  2  0  0  0  0
  2  3  1  0  0  0  0
  2 13  1  0  0  0  0
  3  4  1  0  0  0  0
  4  5  1  0  0  0  0
  5  6  1  0  0  0  0
  5 12  2  0  0  0  0
  6  7  2  0  0  0  0
  7  8  1  0  0  0  0
  7  9  1  0  0  0  0
  9 10  1  0  0  0  0
  9 11  2  0  0  0  0
 11 12  1  0  0  0  0
M  END
>  <name>
O=C(CCc1cc(O)c(O)cc1)[C;olefin]

>  <apo>
1

>  <freq>
4

>  <freq0>
0

>  <freq1>
4

>  <freqA>
3.9919519

$$$$

  MOE2015           2D

 12 12  0  0  1  0  0  0  0  0999 V2000
    6.1880   -3.5720    0.0000 O   0  0  0  0  0  0  0  0  0  0  0  0
    5.4380   -2.2730    0.0000 C   0  0  0  0  0  0  0  0  0  0  0  0
    6.1880   -0.9740    0.0000 O   0  0  0  0  0  0  0  0  0  0  0  0
    3.9380   -2.2730    0.0000 C   0  0  2  0  0  0  0  0  0  0  0  0
    3.1880   -0.9740    0.0000 C   0  0  1  0  0  0  0  0  0  0  0  0
    3.9380    0.3250    0.0000 O   0  0  0  0  0  0  0  0  0  0  0  0
    1.6880   -0.9740    0.0000 C   0  0  1  0  0  0  0  0  0  0  0  0
    0.9370    0.3250    0.0000 O   0  0  0  0  0  0  0  0  0  0  0  0
    0.9370   -2.2730    0.0000 C   0  0  2  0  0  0  0  0  0  0  0  0
   -0.5630   -2.2730    0.0000 O   0  0  0  0  0  0  0  0  0  0  0  0
    1.6870   -3.5720    0.0000 C   0  0  0  0  0  0  0  0  0  0  0  0
    3.1880   -3.5720    0.0000 O   0  0  0  0  0  0  0  0  0  0  0  0
  1  2  2  0  0  0  0
  2  3  1  0  0  0  0
  4  2  1  1  0  0  0
  4  5  1  0  0  0  0
  4 12  1  0  0  0  0
  5  6  1  6  0  0  0
  5  7  1  0  0  0  0
  7  8  1  6  0  0  0
  7  9  1  0  0  0  0
  9 10  1  1  0  0  0
  9 11  1  0  0  0  0
 11 12  1  0  0  0  0
M  END
>  <name>
O=C(O)[C@@H]1[C@@H](O)[C@@H](O)[C@H](O)[C;ether]O1

>  <apo>
1

>  <freq>
4

>  <freq0>
0

>  <freq1>
4

>  <freqA>
3.9919519

$$$$

  MOE2015           2D

 20 22  0  0  0  0  0  0  0  0999 V2000
    1.4250    2.4680    0.0000 O   0  0  0  0  0  0  0  0  0  0  0  0
    2.1750    1.1690    0.0000 C   0  0  0  0  0  0  0  0  0  0  0  0
    1.4250   -0.1300    0.0000 C   0  0  0  0  0  0  0  0  0  0  0  0
   -0.0750   -0.1300    0.0000 C   0  0  0  0  0  0  0  0  0  0  0  0
   -0.8250    1.1690    0.0000 O   0  0  0  0  0  0  0  0  0  0  0  0
   -0.8250   -1.4290    0.0000 C   0  0  0  0  0  0  0  0  0  0  0  0
   -0.0750   -2.7280    0.0000 C   0  0  0  0  0  0  0  0  0  0  0  0
   -0.8250   -4.0270    0.0000 O   0  0  0  0  0  0  0  0  0  0  0  0
    1.4250   -2.7280    0.0000 C   0  0  0  0  0  0  0  0  0  0  0  0
    2.1750   -1.4290    0.0000 C   0  0  0  0  0  0  0  0  0  0  0  0
    3.6750   -1.4290    0.0000 O   0  0  0  0  0  0  0  0  0  0  0  0
    4.4250   -0.1300    0.0000 C   0  0  0  0  0  0  0  0  0  0  0  0
    5.9250   -0.1300    0.0000 C   0  0  0  0  0  0  0  0  0  0  0  0
    6.6750    1.1690    0.0000 C   0  0  0  0  0  0  0  0  0  0  0  0
    8.1750    1.1690    0.0000 C   0  0  0  0  0  0  0  0  0  0  0  0
    8.9250   -0.1300    0.0000 C   0  0  0  0  0  0  0  0  0  0  0  0
   10.4250   -0.1300    0.0000 O   0  0  0  0  0  0  0  0  0  0  0  0
    8.1750   -1.4290    0.0000 C   0  0  0  0  0  0  0  0  0  0  0  0
    6.6750   -1.4290    0.0000 C   0  0  0  0  0  0  0  0  0  0  0  0
    3.6750    1.1690    0.0000 C   0  0  0  0  0  0  0  0  0  0  0  0
  1  2  2  0  0  0  0
  2  3  1  0  0  0  0
  2 20  1  0  0  0  0
  3  4  1  0  0  0  0
  3 10  2  0  0  0  0
  4  5  1  0  0  0  0
  4  6  2  0  0  0  0
  6  7  1  0  0  0  0
  7  8  1  0  0  0  0
  7  9  2  0  0  0  0
  9 10  1  0  0  0  0
 10 11  1  0  0  0  0
 11 12  1  0  0  0  0
 12 13  1  0  0  0  0
 12 20  2  0  0  0  0
 13 14  1  0  0  0  0
 13 19  2  0  0  0  0
 14 15  2  0  0  0  0
 15 16  1  0  0  0  0
 16 17  1  0  0  0  0
 16 18  2  0  0  0  0
 18 19  1  0  0  0  0
M  END
>  <name>
O=C1c2c(O)cc(O)cc2OC(c2c[c;biphenyl]c(O)cc2)=C1

>  <apo>
1

>  <freq>
4

>  <freq0>
0

>  <freq1>
4

>  <freqA>
3.9919519

$$$$

  MOE2015           2D

 11 11  0  0  0  0  0  0  0  0999 V2000
    0.1520    0.5690    0.0000 O   0  0  0  0  0  0  0  0  0  0  0  0
    1.4510   -0.1810    0.0000 C   0  0  0  0  0  0  0  0  0  0  0  0
    1.4510   -1.6810    0.0000 C   0  0  0  0  0  0  0  0  0  0  0  0
    0.1520   -2.4310    0.0000 O   0  0  0  0  0  0  0  0  0  0  0  0
    2.7500   -2.4310    0.0000 C   0  0  0  0  0  0  0  0  0  0  0  0
    4.0490   -1.6810    0.0000 C   0  0  0  0  0  0  0  0  0  0  0  0
    4.0490   -0.1810    0.0000 C   0  0  0  0  0  0  0  0  0  0  0  0
    5.3490    0.5690    0.0000 C   0  0  0  0  0  0  0  0  0  0  0  0
    6.6480   -0.1810    0.0000 C   0  0  0  0  0  0  0  0  0  0  0  0
    7.9470    0.5690    0.0000 C   0  0  0  0  0  0  0  0  0  0  0  0
    2.7500    0.5690    0.0000 C   0  0  0  0  0  0  0  0  0  0  0  0
  1  2  1  0  0  0  0
  2  3  1  0  0  0  0
  2 11  2  0  0  0  0
  3  4  1  0  0  0  0
  3  5  2  0  0  0  0
  5  6  1  0  0  0  0
  6  7  2  0  0  0  0
  7  8  1  0  0  0  0
  7 11  1  0  0  0  0
  8  9  1  0  0  0  0
  9 10  1  0  0  0  0
M  END
>  <name>
Oc1c(O)ccc(CC[C;olefin])c1

>  <apo>
1

>  <freq>
4

>  <freq0>
0

>  <freq1>
4

>  <freqA>
3.9919519

$$$$

  MOE2015           2D

 13 14  0  0  1  0  0  0  0  0999 V2000
   -0.0580   -0.1000    0.0000 O   0  0  0  0  0  0  0  0  0  0  0  0
    0.6920   -1.3990    0.0000 C   0  0  0  0  0  0  0  0  0  0  0  0
    2.1920   -1.3990    0.0000 C   0  0  0  0  0  0  0  0  0  0  0  0
    2.9420   -0.1000    0.0000 C   0  0  1  0  0  0  0  0  0  0  0  0
    2.1920    1.1990    0.0000 C   0  0  0  0  0  0  0  0  0  0  0  0
    4.4420   -0.1000    0.0000 N   0  0  0  0  0  0  0  0  0  0  0  0
    5.1920   -1.3990    0.0000 C   0  0  2  0  0  0  0  0  0  0  0  0
    6.6920   -1.3990    0.0000 C   0  0  0  0  0  0  0  0  0  0  0  0
    4.4420   -2.6980    0.0000 C   0  0  0  0  0  0  0  0  0  0  0  0
    2.9420   -2.6980    0.0000 C   0  0  0  0  0  0  0  0  0  0  0  0
    2.1920   -3.9970    0.0000 C   0  0  0  0  0  0  0  0  0  0  0  0
    0.6920   -3.9970    0.0000 C   0  0  0  0  0  0  0  0  0  0  0  0
   -0.0580   -2.6980    0.0000 C   0  0  0  0  0  0  0  0  0  0  0  0
  1  2  1  0  0  0  0
  2  3  2  0  0  0  0
  2 13  1  0  0  0  0
  3  4  1  0  0  0  0
  3 10  1  0  0  0  0
  4  5  1  1  0  0  0
  4  6  1  0  0  0  0
  6  7  1  0  0  0  0
  7  8  1  6  0  0  0
  7  9  1  0  0  0  0
  9 10  1  0  0  0  0
 10 11  2  0  0  0  0
 11 12  1  0  0  0  0
 12 13  2  0  0  0  0
M  END
>  <name>
Oc1c2[C@@H](C)N[C@H](C)Cc2cc[c;biphenyl]1

>  <apo>
1

>  <freq>
4

>  <freq0>
0

>  <freq1>
4

>  <freqA>
3.9919519

$$$$

  MOE2015           2D

  8  7  0  0  1  0  0  0  0  0999 V2000
    1.4680   -0.5810    0.0000 C   0  0  2  0  0  0  0  0  0  0  0  0
    0.1690   -1.3310    0.0000 C   0  0  0  0  0  0  0  0  0  0  0  0
   -1.1300   -0.5810    0.0000 C   0  0  0  0  0  0  0  0  0  0  0  0
   -2.4290   -1.3310    0.0000 C   0  0  0  0  0  0  0  0  0  0  0  0
   -1.1300    0.9190    0.0000 C   0  0  0  0  0  0  0  0  0  0  0  0
    2.7670   -1.3310    0.0000 C   0  0  0  0  0  0  0  0  0  0  0  0
    4.0660   -0.5810    0.0000 C   0  0  0  0  0  0  0  0  0  0  0  0
    1.4680    0.9190    0.0000 C   0  0  0  0  0  0  0  0  0  0  0  0
  1  2  1  0  0  0  0
  1  6  1  0  0  0  0
  1  8  1  1  0  0  0
  2  3  1  0  0  0  0
  3  4  1  0  0  0  0
  3  5  1  0  0  0  0
  6  7  1  0  0  0  0
M  END
>  <name>
[C@@H](CC([C;olefin])C)(CC)C

>  <apo>
1

>  <freq>
4

>  <freq0>
0

>  <freq1>
4

>  <freqA>
3.9919519

$$$$

  MOE2015           2D

  3  2  0  0  0  0  0  0  0  0999 V2000
    0.2500    0.0670    0.0000 N   0  0  0  0  0  0  0  0  0  0  0  0
    1.5490   -0.6830    0.0000 C   0  0  0  0  0  0  0  0  0  0  0  0
   -1.0490   -0.6830    0.0000 C   0  0  0  0  0  0  0  0  0  0  0  0
  1  2  1  0  0  0  0
  1  3  1  0  0  0  0
M  END
>  <name>
[N;amine](C)C

>  <apo>
1

>  <freq>
4

>  <freq0>
0

>  <freq1>
4

>  <freqA>
3.9919519

$$$$

  MOE2015           2D

 12 12  0  0  1  0  0  0  0  0999 V2000
    6.5630    0.9740    0.0000 O   0  0  0  0  0  0  0  0  0  0  0  0
    5.8120    2.2730    0.0000 C   0  0  0  0  0  0  0  0  0  0  0  0
    4.3130    2.2730    0.0000 C   0  0  2  0  0  0  0  0  0  0  0  0
    3.5630    3.5720    0.0000 C   0  0  2  0  0  0  0  0  0  0  0  0
    4.3130    4.8710    0.0000 O   0  0  0  0  0  0  0  0  0  0  0  0
    2.0620    3.5720    0.0000 C   0  0  2  0  0  0  0  0  0  0  0  0
    1.3130    4.8710    0.0000 O   0  0  0  0  0  0  0  0  0  0  0  0
    1.3120    2.2730    0.0000 C   0  0  1  0  0  0  0  0  0  0  0  0
   -0.1880    2.2730    0.0000 O   0  0  0  0  0  0  0  0  0  0  0  0
    2.0620    0.9740    0.0000 C   0  0  1  0  0  0  0  0  0  0  0  0
    1.3120   -0.3250    0.0000 O   0  0  0  0  0  0  0  0  0  0  0  0
    3.5620    0.9740    0.0000 O   0  0  0  0  0  0  0  0  0  0  0  0
  1  2  1  0  0  0  0
  3  2  1  1  0  0  0
  3  4  1  0  0  0  0
  3 12  1  0  0  0  0
  4  5  1  1  0  0  0
  4  6  1  0  0  0  0
  6  7  1  1  0  0  0
  6  8  1  0  0  0  0
  8  9  1  6  0  0  0
  8 10  1  0  0  0  0
 10 11  1  6  0  0  0
 10 12  1  0  0  0  0
M  END
>  <name>
[O;ester]C[C@@H]1[C@H]([O;ester])[C@H]([O;ester])[C@@H]([O;ester])[C@@H]([O;ester])O1

>  <apo>
5

>  <freq>
4

>  <freq0>
0

>  <freq1>
4

>  <freqA>
3.9919519

$$$$

  MOE2015           2D

  3  2  0  0  0  0  0  0  0  0999 V2000
    0.2500    0.0670    0.0000 C   0  0  0  0  0  0  0  0  0  0  0  0
   -1.0490   -0.6830    0.0000 C   0  0  0  0  0  0  0  0  0  0  0  0
    1.5490   -0.6830    0.0000 C   0  0  0  0  0  0  0  0  0  0  0  0
  1  2  2  0  0  0  0
  1  3  1  0  0  0  0
M  END
>  <name>
C(=C)[C;thioether]

>  <apo>
1

>  <freq>
3

>  <freq0>
0

>  <freq1>
3

>  <freqA>
2.9924588

$$$$

  MOE2015           2D

  5  4  0  0  0  0  0  0  0  0999 V2000
    0.1500   -0.0400    0.0000 C   0  0  0  0  0  0  0  0  0  0  0  0
    1.4490    0.7100    0.0000 C   0  0  0  0  0  0  0  0  0  0  0  0
    2.7480   -0.0400    0.0000 C   0  0  0  0  0  0  0  0  0  0  0  0
   -1.1490    0.7100    0.0000 C   0  0  0  0  0  0  0  0  0  0  0  0
   -2.4480   -0.0400    0.0000 C   0  0  0  0  0  0  0  0  0  0  0  0
  1  2  1  0  0  0  0
  1  4  1  0  0  0  0
  2  3  1  0  0  0  0
  4  5  1  0  0  0  0
M  END
>  <name>
C(C[C;olefin])[C;olefin]C

>  <apo>
2

>  <freq>
3

>  <freq0>
0

>  <freq1>
3

>  <freqA>
2.9924588

$$$$

  MOE2015           2D

 23 25  0  0  0  0  0  0  0  0999 V2000
   -9.3910    3.6150    0.0000 O   0  0  0  0  0  0  0  0  0  0  0  0
  -10.1410    2.3160    0.0000 C   0  0  0  0  0  0  0  0  0  0  0  0
   -7.8910    3.6150    0.0000 C   0  0  0  0  0  0  0  0  0  0  0  0
   -7.1410    4.9140    0.0000 C   0  0  0  0  0  0  0  0  0  0  0  0
   -7.8910    6.2130    0.0000 O   0  0  0  0  0  0  0  0  0  0  0  0
   -5.6410    4.9140    0.0000 C   0  0  0  0  0  0  0  0  0  0  0  0
   -4.8910    6.2130    0.0000 C   0  0  0  0  0  0  0  0  0  0  0  0
   -5.6410    7.5120    0.0000 O   0  0  0  0  0  0  0  0  0  0  0  0
   -3.3910    6.2130    0.0000 C   0  0  0  0  0  0  0  0  0  0  0  0
   -2.6410    4.9140    0.0000 C   0  0  0  0  0  0  0  0  0  0  0  0
   -1.1410    4.9140    0.0000 C   0  0  0  0  0  0  0  0  0  0  0  0
   -0.3910    6.2130    0.0000 C   0  0  0  0  0  0  0  0  0  0  0  0
    1.1090    6.2130    0.0000 C   0  0  0  0  0  0  0  0  0  0  0  0
    1.8590    4.9140    0.0000 C   0  0  0  0  0  0  0  0  0  0  0  0
    3.3590    4.9140    0.0000 O   0  0  0  0  0  0  0  0  0  0  0  0
    4.1090    6.2130    0.0000 C   0  0  0  0  0  0  0  0  0  0  0  0
    1.1090    3.6150    0.0000 C   0  0  0  0  0  0  0  0  0  0  0  0
   -0.3910    3.6150    0.0000 C   0  0  0  0  0  0  0  0  0  0  0  0
   -3.3910    3.6150    0.0000 O   0  0  0  0  0  0  0  0  0  0  0  0
   -4.8910    3.6150    0.0000 C   0  0  0  0  0  0  0  0  0  0  0  0
   -5.6410    2.3160    0.0000 C   0  0  0  0  0  0  0  0  0  0  0  0
   -7.1410    2.3160    0.0000 C   0  0  0  0  0  0  0  0  0  0  0  0
   -7.8910    1.0170    0.0000 O   0  0  0  0  0  0  0  0  0  0  0  0
  1  2  1  0  0  0  0
  1  3  1  0  0  0  0
  3  4  1  0  0  0  0
  3 22  2  0  0  0  0
  4  5  1  0  0  0  0
  4  6  2  0  0  0  0
  6  7  1  0  0  0  0
  6 20  1  0  0  0  0
  7  8  2  0  0  0  0
  7  9  1  0  0  0  0
  9 10  2  0  0  0  0
 10 11  1  0  0  0  0
 10 19  1  0  0  0  0
 11 12  1  0  0  0  0
 11 18  2  0  0  0  0
 12 13  2  0  0  0  0
 13 14  1  0  0  0  0
 14 15  1  0  0  0  0
 14 17  2  0  0  0  0
 15 16  1  0  0  0  0
 17 18  1  0  0  0  0
 19 20  1  0  0  0  0
 20 21  2  0  0  0  0
 21 22  1  0  0  0  0
 22 23  1  0  0  0  0
M  END
>  <name>
O(C)c1c(O)c2C(=O)C=C(c3ccc(OC)cc3)Oc2cc1[O;ether]

>  <apo>
1

>  <freq>
3

>  <freq0>
0

>  <freq1>
3

>  <freqA>
2.9924588

$$$$

  MOE2015           2D

 21 23  0  0  0  0  0  0  0  0999 V2000
    3.0000    5.6910    0.0000 O   0  0  0  0  0  0  0  0  0  0  0  0
    3.7500    6.9900    0.0000 C   0  0  0  0  0  0  0  0  0  0  0  0
    1.5000    5.6910    0.0000 C   0  0  0  0  0  0  0  0  0  0  0  0
    0.7500    4.3920    0.0000 C   0  0  0  0  0  0  0  0  0  0  0  0
   -0.7500    4.3920    0.0000 C   0  0  0  0  0  0  0  0  0  0  0  0
   -1.5000    5.6910    0.0000 C   0  0  0  0  0  0  0  0  0  0  0  0
   -3.0000    5.6910    0.0000 C   0  0  0  0  0  0  0  0  0  0  0  0
   -3.7500    4.3920    0.0000 O   0  0  0  0  0  0  0  0  0  0  0  0
   -5.2500    4.3920    0.0000 C   0  0  0  0  0  0  0  0  0  0  0  0
   -6.0000    5.6910    0.0000 C   0  0  0  0  0  0  0  0  0  0  0  0
   -7.5000    5.6910    0.0000 C   0  0  0  0  0  0  0  0  0  0  0  0
   -8.2500    6.9900    0.0000 O   0  0  0  0  0  0  0  0  0  0  0  0
   -8.2500    4.3920    0.0000 C   0  0  0  0  0  0  0  0  0  0  0  0
   -7.5000    3.0930    0.0000 C   0  0  0  0  0  0  0  0  0  0  0  0
   -8.2500    1.7940    0.0000 O   0  0  0  0  0  0  0  0  0  0  0  0
   -6.0000    3.0930    0.0000 C   0  0  0  0  0  0  0  0  0  0  0  0
   -5.2500    6.9900    0.0000 C   0  0  0  0  0  0  0  0  0  0  0  0
   -6.0000    8.2890    0.0000 O   0  0  0  0  0  0  0  0  0  0  0  0
   -3.7500    6.9900    0.0000 C   0  0  0  0  0  0  0  0  0  0  0  0
   -0.7500    6.9900    0.0000 C   0  0  0  0  0  0  0  0  0  0  0  0
    0.7500    6.9900    0.0000 C   0  0  0  0  0  0  0  0  0  0  0  0
  1  2  1  0  0  0  0
  1  3  1  0  0  0  0
  3  4  1  0  0  0  0
  3 21  2  0  0  0  0
  4  5  2  0  0  0  0
  5  6  1  0  0  0  0
  6  7  1  0  0  0  0
  6 20  2  0  0  0  0
  7  8  1  0  0  0  0
  7 19  2  0  0  0  0
  8  9  1  0  0  0  0
  9 10  1  0  0  0  0
  9 16  2  0  0  0  0
 10 11  2  0  0  0  0
 10 17  1  0  0  0  0
 11 12  1  0  0  0  0
 11 13  1  0  0  0  0
 13 14  2  0  0  0  0
 14 15  1  0  0  0  0
 14 16  1  0  0  0  0
 17 18  2  0  0  0  0
 17 19  1  0  0  0  0
 20 21  1  0  0  0  0
M  END
>  <name>
O(C)c1ccc(C=2Oc3c(c(O)cc(O)[c;biphenyl]3)C(=O)C=2)cc1

>  <apo>
1

>  <freq>
3

>  <freq0>
0

>  <freq1>
3

>  <freqA>
2.9924588

$$$$

  MOE2015           2D

 33 37  0  0  1  0  0  0  0  0999 V2000
    9.9540   -2.3620    0.0000 O   0  0  0  0  0  0  0  0  0  0  0  0
    9.9540   -3.8620    0.0000 C   0  0  0  0  0  0  0  0  0  0  0  0
   11.2530   -4.6120    0.0000 O   0  0  0  0  0  0  0  0  0  0  0  0
    8.6550   -4.6120    0.0000 C   0  0  3  0  0  0  0  0  0  0  0  0
    8.6550   -3.1120    0.0000 C   0  0  0  0  0  0  0  0  0  0  0  0
    7.1550   -4.6120    0.0000 C   0  0  0  0  0  0  0  0  0  0  0  0
    6.4050   -5.9110    0.0000 C   0  0  3  0  0  0  0  0  0  0  0  0
    7.1550   -7.2110    0.0000 C   0  0  3  0  0  0  0  0  0  0  0  0
    7.9050   -8.5100    0.0000 C   0  0  0  0  0  0  0  0  0  0  0  0
    6.4050   -8.5100    0.0000 C   0  0  0  0  0  0  0  0  0  0  0  0
    4.9050   -8.5100    0.0000 C   0  0  0  0  0  0  0  0  0  0  0  0
    4.1550   -7.2110    0.0000 C   0  0  3  0  0  0  0  0  0  0  0  0
    3.4050   -8.5100    0.0000 C   0  0  0  0  0  0  0  0  0  0  0  0
    2.6550   -7.2110    0.0000 C   0  0  3  0  0  0  0  0  0  0  0  0
    1.1550   -7.2110    0.0000 C   0  0  0  0  0  0  0  0  0  0  0  0
    1.9050   -5.9110    0.0000 C   0  0  3  0  0  0  0  0  0  0  0  0
    2.6550   -4.6120    0.0000 C   0  0  0  0  0  0  0  0  0  0  0  0
    1.9050   -3.3130    0.0000 O   0  0  0  0  0  0  0  0  0  0  0  0
    4.1550   -4.6120    0.0000 C   0  0  0  0  0  0  0  0  0  0  0  0
    4.9050   -5.9110    0.0000 C   0  0  0  0  0  0  0  0  0  0  0  0
    0.4050   -5.9110    0.0000 C   0  0  3  0  0  0  0  0  0  0  0  0
    1.1550   -4.6120    0.0000 C   0  0  0  0  0  0  0  0  0  0  0  0
   -0.3450   -7.2110    0.0000 C   0  0  3  0  0  0  0  0  0  0  0  0
   -1.8450   -7.2110    0.0000 C   0  0  0  0  0  0  0  0  0  0  0  0
   -3.1440   -7.9610    0.0000 C   0  0  0  0  0  0  0  0  0  0  0  0
   -1.8450   -8.7110    0.0000 C   0  0  0  0  0  0  0  0  0  0  0  0
   -2.5950   -5.9110    0.0000 C   0  0  0  0  0  0  0  0  0  0  0  0
   -1.8450   -4.6120    0.0000 C   0  0  0  0  0  0  0  0  0  0  0  0
   -0.3450   -4.6120    0.0000 C   0  0  0  0  0  0  0  0  0  0  0  0
    0.4050   -8.5100    0.0000 C   0  0  0  0  0  0  0  0  0  0  0  0
    1.9050   -8.5100    0.0000 C   0  0  0  0  0  0  0  0  0  0  0  0
    8.6550   -7.2110    0.0000 C   0  0  0  0  0  0  0  0  0  0  0  0
    9.4050   -5.9110    0.0000 C   0  0  0  0  0  0  0  0  0  0  0  0
  1  2  2  0  0  0  0
  2  3  1  0  0  0  0
  2  4  1  0  0  0  0
  4  5  1  0  0  0  0
  4  6  1  0  0  0  0
  4 33  1  0  0  0  0
  6  7  1  0  0  0  0
  7  8  1  0  0  0  0
  7 20  1  0  0  0  0
  8  9  1  0  0  0  0
  8 10  1  0  0  0  0
  8 32  1  0  0  0  0
 10 11  1  0  0  0  0
 11 12  1  0  0  0  0
 12 13  1  0  0  0  0
 12 14  1  0  0  0  0
 12 20  1  0  0  0  0
 14 15  1  0  0  0  0
 14 16  1  0  0  0  0
 14 31  1  0  0  0  0
 16 17  1  0  0  0  0
 16 21  1  0  0  0  0
 17 18  2  0  0  0  0
 17 19  1  0  0  0  0
 19 20  2  0  0  0  0
 21 22  1  0  0  0  0
 21 23  1  0  0  0  0
 21 29  1  0  0  0  0
 23 24  1  0  0  0  0
 23 30  1  0  0  0  0
 24 25  1  0  0  0  0
 24 26  1  0  0  0  0
 24 27  1  0  0  0  0
 27 28  1  0  0  0  0
 28 29  1  0  0  0  0
 30 31  1  0  0  0  0
 32 33  1  0  0  0  0
M  END
>  <name>
O=C(O)C1(C)CC2C(C)(CCC3(C)C4(C)C(C(=O)C=C23)C2(C)C(C(C)(C)[C;ether]CC2)CC4)CC1

>  <apo>
1

>  <freq>
3

>  <freq0>
0

>  <freq1>
3

>  <freqA>
2.9924588

$$$$

  MOE2015           2D

 12 12  0  0  1  0  0  0  0  0999 V2000
    6.1880   -3.5720    0.0000 O   0  0  0  0  0  0  0  0  0  0  0  0
    5.4380   -2.2730    0.0000 C   0  0  0  0  0  0  0  0  0  0  0  0
    6.1880   -0.9740    0.0000 O   0  0  0  0  0  0  0  0  0  0  0  0
    3.9380   -2.2730    0.0000 C   0  0  3  0  0  0  0  0  0  0  0  0
    3.1880   -0.9740    0.0000 C   0  0  3  0  0  0  0  0  0  0  0  0
    3.9380    0.3250    0.0000 O   0  0  0  0  0  0  0  0  0  0  0  0
    1.6880   -0.9740    0.0000 C   0  0  3  0  0  0  0  0  0  0  0  0
    0.9370    0.3250    0.0000 O   0  0  0  0  0  0  0  0  0  0  0  0
    0.9370   -2.2730    0.0000 C   0  0  3  0  0  0  0  0  0  0  0  0
   -0.5630   -2.2730    0.0000 O   0  0  0  0  0  0  0  0  0  0  0  0
    1.6870   -3.5720    0.0000 C   0  0  0  0  0  0  0  0  0  0  0  0
    3.1880   -3.5720    0.0000 O   0  0  0  0  0  0  0  0  0  0  0  0
  1  2  2  0  0  0  0
  2  3  1  0  0  0  0
  2  4  1  0  0  0  0
  4  5  1  0  0  0  0
  4 12  1  0  0  0  0
  5  6  1  0  0  0  0
  5  7  1  0  0  0  0
  7  8  1  0  0  0  0
  7  9  1  0  0  0  0
  9 10  1  0  0  0  0
  9 11  1  0  0  0  0
 11 12  1  0  0  0  0
M  END
>  <name>
O=C(O)C1C(O)C(O)C(O)[C;ether]O1

>  <apo>
1

>  <freq>
3

>  <freq0>
0

>  <freq1>
3

>  <freqA>
2.9924588

$$$$

  MOE2015           2D

 11 11  0  0  1  0  0  0  0  0999 V2000
    5.7270    3.3070    0.0000 O   0  0  0  0  0  0  0  0  0  0  0  0
    4.9770    2.0080    0.0000 C   0  0  0  0  0  0  0  0  0  0  0  0
    5.7270    0.7090    0.0000 O   0  0  0  0  0  0  0  0  0  0  0  0
    3.4770    2.0080    0.0000 C   0  0  2  0  0  0  0  0  0  0  0  0
    2.7270    0.7090    0.0000 C   0  0  1  0  0  0  0  0  0  0  0  0
    3.4770   -0.5900    0.0000 O   0  0  0  0  0  0  0  0  0  0  0  0
    1.2270    0.7090    0.0000 C   0  0  1  0  0  0  0  0  0  0  0  0
    0.4770   -0.5900    0.0000 O   0  0  0  0  0  0  0  0  0  0  0  0
    0.4770    2.0080    0.0000 C   0  0  0  0  0  0  0  0  0  0  0  0
    1.2270    3.3070    0.0000 C   0  0  0  0  0  0  0  0  0  0  0  0
    2.7270    3.3070    0.0000 O   0  0  0  0  0  0  0  0  0  0  0  0
  1  2  2  0  0  0  0
  2  3  1  0  0  0  0
  4  2  1  6  0  0  0
  4  5  1  0  0  0  0
  4 11  1  0  0  0  0
  5  6  1  1  0  0  0
  5  7  1  0  0  0  0
  7  8  1  1  0  0  0
  7  9  1  0  0  0  0
  9 10  1  0  0  0  0
 10 11  1  0  0  0  0
M  END
>  <name>
O=C(O)[C@@H]1[C@@H](O)[C@@H](O)[C;ether][C;ether]O1

>  <apo>
2

>  <freq>
3

>  <freq0>
0

>  <freq1>
3

>  <freqA>
2.9924588

$$$$

  MOE2015           2D

 14 14  0  0  0  0  0  0  0  0999 V2000
    6.9110   -3.9900    0.0000 O   0  0  0  0  0  0  0  0  0  0  0  0
    6.1610   -2.6910    0.0000 C   0  0  0  0  0  0  0  0  0  0  0  0
    6.9110   -1.3920    0.0000 C   0  0  0  0  0  0  0  0  0  0  0  0
    4.6610   -2.6910    0.0000 C   0  0  0  0  0  0  0  0  0  0  0  0
    3.9110   -1.3920    0.0000 C   0  0  0  0  0  0  0  0  0  0  0  0
    4.6610   -0.0930    0.0000 O   0  0  0  0  0  0  0  0  0  0  0  0
    2.4110   -1.3920    0.0000 C   0  0  0  0  0  0  0  0  0  0  0  0
    1.6610   -0.0930    0.0000 C   0  0  0  0  0  0  0  0  0  0  0  0
    2.4110    1.2060    0.0000 C   0  0  0  0  0  0  0  0  0  0  0  0
    1.6610   -2.6910    0.0000 C   0  0  0  0  0  0  0  0  0  0  0  0
    0.1610   -2.6910    0.0000 O   0  0  0  0  0  0  0  0  0  0  0  0
   -0.5890   -3.9900    0.0000 C   0  0  0  0  0  0  0  0  0  0  0  0
    2.4110   -3.9900    0.0000 C   0  0  0  0  0  0  0  0  0  0  0  0
    3.9110   -3.9900    0.0000 C   0  0  0  0  0  0  0  0  0  0  0  0
  1  2  2  0  0  0  0
  2  3  1  0  0  0  0
  2  4  1  0  0  0  0
  4  5  1  0  0  0  0
  4 14  2  0  0  0  0
  5  6  1  0  0  0  0
  5  7  2  0  0  0  0
  7  8  1  0  0  0  0
  7 10  1  0  0  0  0
  8  9  1  0  0  0  0
 10 11  1  0  0  0  0
 10 13  2  0  0  0  0
 11 12  1  0  0  0  0
 13 14  1  0  0  0  0
M  END
>  <name>
O=C([C;olefin])c1c(O)c(C[C;olefin])c(OC)cc1

>  <apo>
2

>  <freq>
3

>  <freq0>
0

>  <freq1>
3

>  <freqA>
2.9924588

$$$$

  MOE2015           2D

 22 25  0  0  0  0  0  0  0  0999 V2000
    4.6800    4.7460    0.0000 O   0  0  0  0  0  0  0  0  0  0  0  0
    3.8900    3.4710    0.0000 C   0  0  0  0  0  0  0  0  0  0  0  0
    2.3910    3.5170    0.0000 O   0  0  0  0  0  0  0  0  0  0  0  0
    1.6010    2.2420    0.0000 C   0  0  0  0  0  0  0  0  0  0  0  0
    2.3110    0.9210    0.0000 C   0  0  0  0  0  0  0  0  0  0  0  0
    3.8100    0.8740    0.0000 C   0  0  0  0  0  0  0  0  0  0  0  0
    4.7790   -0.2710    0.0000 O   0  0  0  0  0  0  0  0  0  0  0  0
    6.1670    0.2970    0.0000 C   0  0  0  0  0  0  0  0  0  0  0  0
    6.0570    1.7930    0.0000 C   0  0  0  0  0  0  0  0  0  0  0  0
    4.6000    2.1500    0.0000 C   0  0  0  0  0  0  0  0  0  0  0  0
    7.2970    2.6370    0.0000 C   0  0  0  0  0  0  0  0  0  0  0  0
    8.6480    1.9840    0.0000 C   0  0  0  0  0  0  0  0  0  0  0  0
    8.7580    0.4890    0.0000 C   0  0  0  0  0  0  0  0  0  0  0  0
   10.1090   -0.1640    0.0000 O   0  0  0  0  0  0  0  0  0  0  0  0
    7.5180   -0.3550    0.0000 C   0  0  0  0  0  0  0  0  0  0  0  0
    1.5210   -0.3550    0.0000 C   0  0  0  0  0  0  0  0  0  0  0  0
    0.0220   -0.3080    0.0000 C   0  0  0  0  0  0  0  0  0  0  0  0
   -0.7680   -1.5840    0.0000 C   0  0  0  0  0  0  0  0  0  0  0  0
   -0.0580   -2.9050    0.0000 C   0  0  0  0  0  0  0  0  0  0  0  0
   -0.6880    1.0130    0.0000 C   0  0  0  0  0  0  0  0  0  0  0  0
   -2.1870    1.0590    0.0000 O   0  0  0  0  0  0  0  0  0  0  0  0
    0.1020    2.2880    0.0000 C   0  0  0  0  0  0  0  0  0  0  0  0
  1  2  2  0  0  0  0
  2  3  1  0  0  0  0
  2 10  1  0  0  0  0
  3  4  1  0  0  0  0
  4  5  1  0  0  0  0
  4 22  2  0  0  0  0
  5  6  1  0  0  0  0
  5 16  2  0  0  0  0
  6  7  1  0  0  0  0
  6 10  2  0  0  0  0
  7  8  1  0  0  0  0
  8  9  1  0  0  0  0
  8 15  2  0  0  0  0
  9 10  1  0  0  0  0
  9 11  2  0  0  0  0
 11 12  1  0  0  0  0
 12 13  2  0  0  0  0
 13 14  1  0  0  0  0
 13 15  1  0  0  0  0
 16 17  1  0  0  0  0
 17 18  1  0  0  0  0
 17 20  2  0  0  0  0
 18 19  1  0  0  0  0
 20 21  1  0  0  0  0
 20 22  1  0  0  0  0
M  END
>  <name>
O=C1Oc2c(-c3oc4c(c13)ccc(O)c4)cc(C[C;olefin])c(O)c2

>  <apo>
1

>  <freq>
3

>  <freq0>
0

>  <freq1>
3

>  <freqA>
2.9924588

$$$$

  MOE2015           2D

 11 11  0  0  1  0  0  0  0  0999 V2000
    8.1690   -3.0070    0.0000 O   0  0  0  0  0  0  0  0  0  0  0  0
    6.8700   -3.7570    0.0000 C   0  0  0  0  0  0  0  0  0  0  0  0
    5.5710   -3.0070    0.0000 C   0  0  3  0  0  0  0  0  0  0  0  0
    5.5710   -1.5070    0.0000 N   0  0  0  0  0  0  0  0  0  0  0  0
    4.2720   -3.7570    0.0000 C   0  0  0  0  0  0  0  0  0  0  0  0
    2.9730   -3.0070    0.0000 C   0  0  0  0  0  0  0  0  0  0  0  0
    1.6740   -3.7570    0.0000 C   0  0  0  0  0  0  0  0  0  0  0  0
    0.3750   -3.0070    0.0000 C   0  0  0  0  0  0  0  0  0  0  0  0
    0.3750   -1.5070    0.0000 C   0  0  0  0  0  0  0  0  0  0  0  0
    1.6740   -0.7570    0.0000 C   0  0  0  0  0  0  0  0  0  0  0  0
    2.9730   -1.5070    0.0000 C   0  0  0  0  0  0  0  0  0  0  0  0
  1  2  2  0  0  0  0
  2  3  1  0  0  0  0
  3  4  1  0  0  0  0
  3  5  1  0  0  0  0
  5  6  1  0  0  0  0
  6  7  1  0  0  0  0
  6 11  2  0  0  0  0
  7  8  2  0  0  0  0
  8  9  1  0  0  0  0
  9 10  2  0  0  0  0
 10 11  1  0  0  0  0
M  END
>  <name>
O=[C;amide]C([N;amide])Cc1ccccc1

>  <apo>
2

>  <freq>
3

>  <freq0>
0

>  <freq1>
3

>  <freqA>
2.9924588

$$$$

  MOE2015           2D

 15 16  0  0  1  0  0  0  0  0999 V2000
    6.2700   -6.9110    0.0000 O   0  0  0  0  0  0  0  0  0  0  0  0
    6.4150   -5.4180    0.0000 C   0  0  0  0  0  0  0  0  0  0  0  0
    5.1950   -4.5450    0.0000 C   0  0  3  0  0  0  0  0  0  0  0  0
    5.1840   -3.0460    0.0000 C   0  0  3  0  0  0  0  0  0  0  0  0
    6.3910   -2.1550    0.0000 C   0  0  0  0  0  0  0  0  0  0  0  0
    3.7540   -2.5930    0.0000 O   0  0  0  0  0  0  0  0  0  0  0  0
    2.8810   -3.8130    0.0000 C   0  0  0  0  0  0  0  0  0  0  0  0
    1.3810   -3.8240    0.0000 C   0  0  0  0  0  0  0  0  0  0  0  0
    0.6220   -2.5310    0.0000 C   0  0  0  0  0  0  0  0  0  0  0  0
    1.3620   -1.2260    0.0000 O   0  0  0  0  0  0  0  0  0  0  0  0
   -0.8780   -2.5420    0.0000 C   0  0  0  0  0  0  0  0  0  0  0  0
   -1.6180   -3.8470    0.0000 C   0  0  0  0  0  0  0  0  0  0  0  0
   -0.8590   -5.1400    0.0000 C   0  0  0  0  0  0  0  0  0  0  0  0
    0.6410   -5.1290    0.0000 C   0  0  0  0  0  0  0  0  0  0  0  0
    3.7720   -5.0200    0.0000 N   0  0  0  0  0  0  0  0  0  0  0  0
  1  2  2  0  0  0  0
  2  3  1  0  0  0  0
  3  4  1  0  0  0  0
  3 15  1  0  0  0  0
  4  5  1  0  0  0  0
  4  6  1  0  0  0  0
  6  7  1  0  0  0  0
  7  8  1  0  0  0  0
  7 15  2  0  0  0  0
  8  9  1  0  0  0  0
  8 14  2  0  0  0  0
  9 10  1  0  0  0  0
  9 11  2  0  0  0  0
 11 12  1  0  0  0  0
 12 13  2  0  0  0  0
 13 14  1  0  0  0  0
M  END
>  <name>
O=[C;amide]C1C(C)OC(c2c(O)cccc2)=N1

>  <apo>
1

>  <freq>
3

>  <freq0>
0

>  <freq1>
3

>  <freqA>
2.9924588

$$$$

  MOE2015           2D

  7  7  0  0  1  0  0  0  0  0999 V2000
    4.9030   -0.6040    0.0000 O   0  0  0  0  0  0  0  0  0  0  0  0
    4.1530   -1.9030    0.0000 C   0  0  0  0  0  0  0  0  0  0  0  0
    2.6530   -1.9030    0.0000 C   0  0  3  0  0  0  0  0  0  0  0  0
    1.7710   -3.1160    0.0000 N   0  0  0  0  0  0  0  0  0  0  0  0
    0.3450   -2.6530    0.0000 C   0  0  0  0  0  0  0  0  0  0  0  0
    0.3450   -1.1530    0.0000 C   0  0  0  0  0  0  0  0  0  0  0  0
    1.7710   -0.6890    0.0000 C   0  0  0  0  0  0  0  0  0  0  0  0
  1  2  2  0  0  0  0
  2  3  1  0  0  0  0
  3  4  1  0  0  0  0
  3  7  1  0  0  0  0
  4  5  1  0  0  0  0
  5  6  1  0  0  0  0
  6  7  1  0  0  0  0
M  END
>  <name>
O=[C;amide]C1[N;amide]CC[C;ether]1

>  <apo>
3

>  <freq>
3

>  <freq0>
0

>  <freq1>
3

>  <freqA>
2.9924588

$$$$

  MOE2015           2D

  8  8  0  0  0  0  0  0  0  0999 V2000
    5.3440   -0.8120    0.0000 O   0  0  0  0  0  0  0  0  0  0  0  0
    4.5940   -2.1110    0.0000 C   0  0  0  0  0  0  0  0  0  0  0  0
    3.0940   -2.1110    0.0000 C   0  0  0  0  0  0  0  0  0  0  0  0
    2.3440   -3.4100    0.0000 C   0  0  0  0  0  0  0  0  0  0  0  0
    0.8440   -3.4100    0.0000 C   0  0  0  0  0  0  0  0  0  0  0  0
    0.0940   -2.1110    0.0000 C   0  0  0  0  0  0  0  0  0  0  0  0
    0.8440   -0.8120    0.0000 C   0  0  0  0  0  0  0  0  0  0  0  0
    2.3440   -0.8120    0.0000 C   0  0  0  0  0  0  0  0  0  0  0  0
  1  2  2  0  0  0  0
  2  3  1  0  0  0  0
  3  4  1  0  0  0  0
  3  8  2  0  0  0  0
  4  5  2  0  0  0  0
  5  6  1  0  0  0  0
  6  7  2  0  0  0  0
  7  8  1  0  0  0  0
M  END
>  <name>
O=[C;amide]c1ccccc1

>  <apo>
1

>  <freq>
3

>  <freq0>
0

>  <freq1>
3

>  <freqA>
2.9924588

$$$$

  MOE2015           2D

  8  8  0  0  0  0  0  0  0  0999 V2000
    5.3440   -0.8120    0.0000 O   0  0  0  0  0  0  0  0  0  0  0  0
    4.5940   -2.1110    0.0000 C   0  0  0  0  0  0  0  0  0  0  0  0
    3.0940   -2.1110    0.0000 C   0  0  0  0  0  0  0  0  0  0  0  0
    2.3440   -3.4100    0.0000 C   0  0  0  0  0  0  0  0  0  0  0  0
    0.8440   -3.4100    0.0000 C   0  0  0  0  0  0  0  0  0  0  0  0
    0.0940   -2.1110    0.0000 C   0  0  0  0  0  0  0  0  0  0  0  0
    0.8440   -0.8120    0.0000 C   0  0  0  0  0  0  0  0  0  0  0  0
    2.3440   -0.8120    0.0000 C   0  0  0  0  0  0  0  0  0  0  0  0
  1  2  2  0  0  0  0
  2  3  1  0  0  0  0
  3  4  1  0  0  0  0
  3  8  2  0  0  0  0
  4  5  2  0  0  0  0
  5  6  1  0  0  0  0
  6  7  2  0  0  0  0
  7  8  1  0  0  0  0
M  END
>  <name>
O=[C;ester]c1ccccc1

>  <apo>
1

>  <freq>
3

>  <freq0>
0

>  <freq1>
3

>  <freqA>
2.9924588

$$$$

  MOE2015           2D

  9  9  0  0  1  0  0  0  0  0999 V2000
    1.3330    2.3090    0.0000 O   0  0  0  0  0  0  0  0  0  0  0  0
    2.0830    1.0100    0.0000 C   0  0  3  0  0  0  0  0  0  0  0  0
    1.3330   -0.2890    0.0000 C   0  0  3  0  0  0  0  0  0  0  0  0
   -0.1670   -0.2890    0.0000 C   0  0  0  0  0  0  0  0  0  0  0  0
    2.0830   -1.5880    0.0000 O   0  0  0  0  0  0  0  0  0  0  0  0
    3.5830   -1.5880    0.0000 C   0  0  0  0  0  0  0  0  0  0  0  0
    4.3330   -0.2890    0.0000 C   0  0  3  0  0  0  0  0  0  0  0  0
    5.8330   -0.2890    0.0000 O   0  0  0  0  0  0  0  0  0  0  0  0
    3.5830    1.0100    0.0000 C   0  0  0  0  0  0  0  0  0  0  0  0
  1  2  1  0  0  0  0
  2  3  1  0  0  0  0
  2  9  1  0  0  0  0
  3  4  1  0  0  0  0
  3  5  1  0  0  0  0
  5  6  1  0  0  0  0
  6  7  1  0  0  0  0
  7  8  1  0  0  0  0
  7  9  1  0  0  0  0
M  END
>  <name>
OC1C(C)O[C;ether]C(O)[C;ether]1

>  <apo>
2

>  <freq>
3

>  <freq0>
0

>  <freq1>
3

>  <freqA>
2.9924588

$$$$

  MOE2015           2D

 33 38  0  0  1  0  0  0  0  0999 V2000
   14.0550   -4.9180    0.0000 O   0  0  0  0  0  0  0  0  0  0  0  0
   12.7660   -5.6860    0.0000 C   0  0  0  0  0  0  0  0  0  0  0  0
   11.4570   -4.9550    0.0000 C   0  0  3  0  0  0  0  0  0  0  0  0
   11.4910   -6.4540    0.0000 C   0  0  0  0  0  0  0  0  0  0  0  0
    9.9570   -4.9560    0.0000 C   0  0  3  0  0  0  0  0  0  0  0  0
    9.2060   -3.6570    0.0000 C   0  0  3  0  0  0  0  0  0  0  0  0
   10.7060   -3.6300    0.0000 C   0  0  0  0  0  0  0  0  0  0  0  0
    7.7060   -3.6590    0.0000 C   0  0  3  0  0  0  0  0  0  0  0  0
    6.9570   -4.9580    0.0000 C   0  0  3  0  0  0  0  0  0  0  0  0
    6.7240   -6.4400    0.0000 C   0  0  0  0  0  0  0  0  0  0  0  0
    5.4560   -4.9570    0.0000 C   0  0  3  0  0  0  0  0  0  0  0  0
    5.7430   -6.4290    0.0000 C   0  0  0  0  0  0  0  0  0  0  0  0
    4.7070   -3.6640    0.0000 C   0  0  3  0  0  0  0  0  0  0  0  0
    4.9430   -5.1760    0.0000 O   0  0  0  0  0  0  0  0  0  0  0  0
    3.6320   -5.9000    0.0000 C   0  0  0  0  0  0  0  0  0  0  0  0
    2.4770   -4.8980    0.0000 C   0  0  3  0  0  0  0  0  0  0  0  0
    3.1740   -6.2160    0.0000 C   0  0  3  0  0  0  0  0  0  0  0  0
    2.3890   -7.4950    0.0000 O   0  0  0  0  0  0  0  0  0  0  0  0
    4.6760   -6.2410    0.0000 C   0  0  0  0  0  0  0  0  0  0  0  0
    3.2150   -3.5970    0.0000 C   0  0  3  0  0  0  0  0  0  0  0  0
    2.4560   -2.3020    0.0000 C   0  0  0  0  0  0  0  0  0  0  0  0
    0.9560   -2.3130    0.0000 C   0  0  0  0  0  0  0  0  0  0  0  0
   -0.3540   -1.5840    0.0000 C   0  0  0  0  0  0  0  0  0  0  0  0
    0.9250   -0.8140    0.0000 C   0  0  0  0  0  0  0  0  0  0  0  0
    0.2150   -3.6160    0.0000 C   0  0  0  0  0  0  0  0  0  0  0  0
    0.9760   -4.9090    0.0000 C   0  0  0  0  0  0  0  0  0  0  0  0
    5.4550   -2.3610    0.0000 C   0  0  0  0  0  0  0  0  0  0  0  0
    6.9550   -2.3600    0.0000 C   0  0  0  0  0  0  0  0  0  0  0  0
    7.7080   -6.2570    0.0000 C   0  0  0  0  0  0  0  0  0  0  0  0
    9.2080   -6.2560    0.0000 C   0  0  0  0  0  0  0  0  0  0  0  0
    9.9550   -2.3580    0.0000 C   0  0  0  0  0  0  0  0  0  0  0  0
   11.4550   -2.3570    0.0000 C   0  0  0  0  0  0  0  0  0  0  0  0
   12.2060   -3.6550    0.0000 C   0  0  0  0  0  0  0  0  0  0  0  0
  1  2  1  0  0  0  0
  2  3  1  0  0  0  0
  3  4  1  0  0  0  0
  3  5  1  0  0  0  0
  3 33  1  0  0  0  0
  5  6  1  0  0  0  0
  5 30  1  0  0  0  0
  6  7  1  0  0  0  0
  6  8  1  0  0  0  0
  6 31  1  0  0  0  0
  8  9  1  0  0  0  0
  8 28  1  0  0  0  0
  9 10  1  0  0  0  0
  9 11  1  0  0  0  0
  9 29  1  0  0  0  0
 11 12  1  0  0  0  0
 11 13  1  0  0  0  0
 11 19  1  0  0  0  0
 13 14  1  0  0  0  0
 13 20  1  0  0  0  0
 13 27  1  0  0  0  0
 14 15  1  0  0  0  0
 15 16  1  0  0  0  0
 16 17  1  0  0  0  0
 16 20  1  0  0  0  0
 16 26  1  0  0  0  0
 17 18  1  0  0  0  0
 17 19  1  0  0  0  0
 20 21  1  0  0  0  0
 21 22  1  0  0  0  0
 22 23  1  0  0  0  0
 22 24  1  0  0  0  0
 22 25  1  0  0  0  0
 25 26  1  0  0  0  0
 27 28  2  0  0  0  0
 29 30  1  0  0  0  0
 31 32  1  0  0  0  0
 32 33  1  0  0  0  0
M  END
>  <name>
OCC1(C)C2C(C)(C3C(C)(C4(C)C5(OCC6(C(O)C4)C5CC(C)(C)CC6)C=C3)CC2)CC[C;ether]1

>  <apo>
1

>  <freq>
3

>  <freq0>
0

>  <freq1>
3

>  <freqA>
2.9924588

$$$$

  MOE2015           2D

  3  2  0  0  0  0  0  0  0  0999 V2000
   -0.0490    0.1830    0.0000 O   0  0  0  0  0  0  0  0  0  0  0  0
    1.2500    0.9330    0.0000 C   0  0  0  0  0  0  0  0  0  0  0  0
    2.5490    0.1830    0.0000 C   0  0  0  0  0  0  0  0  0  0  0  0
  1  2  1  0  0  0  0
  2  3  1  0  0  0  0
M  END
>  <name>
OC[C;olefin]

>  <apo>
1

>  <freq>
3

>  <freq0>
0

>  <freq1>
3

>  <freqA>
2.9924588

$$$$

  MOE2015           2D

  4  3  0  0  0  0  0  0  0  0999 V2000
   -0.0740   -0.2750    0.0000 O   0  0  0  0  0  0  0  0  0  0  0  0
    1.2250   -1.0250    0.0000 C   0  0  0  0  0  0  0  0  0  0  0  0
    2.5250   -0.2750    0.0000 C   0  0  0  0  0  0  0  0  0  0  0  0
    3.8240   -1.0250    0.0000 C   0  0  0  0  0  0  0  0  0  0  0  0
  1  2  1  0  0  0  0
  2  3  1  0  0  0  0
  3  4  1  0  0  0  0
M  END
>  <name>
OC[C;olefin]C

>  <apo>
1

>  <freq>
3

>  <freq0>
0

>  <freq1>
3

>  <freqA>
2.9924588

$$$$

  MOE2015           2D

  9  9  0  0  1  0  0  0  0  0999 V2000
    1.3330    2.3090    0.0000 O   0  0  0  0  0  0  0  0  0  0  0  0
    2.0830    1.0100    0.0000 C   0  0  2  0  0  0  0  0  0  0  0  0
    1.3330   -0.2890    0.0000 C   0  0  1  0  0  0  0  0  0  0  0  0
   -0.1670   -0.2890    0.0000 C   0  0  0  0  0  0  0  0  0  0  0  0
    2.0830   -1.5880    0.0000 O   0  0  0  0  0  0  0  0  0  0  0  0
    3.5830   -1.5880    0.0000 C   0  0  0  0  0  0  0  0  0  0  0  0
    4.3330   -0.2890    0.0000 C   0  0  2  0  0  0  0  0  0  0  0  0
    5.8330   -0.2890    0.0000 O   0  0  0  0  0  0  0  0  0  0  0  0
    3.5830    1.0100    0.0000 C   0  0  0  0  0  0  0  0  0  0  0  0
  2  1  1  1  0  0  0
  2  3  1  0  0  0  0
  2  9  1  0  0  0  0
  3  4  1  6  0  0  0
  3  5  1  0  0  0  0
  5  6  1  0  0  0  0
  6  7  1  0  0  0  0
  7  8  1  1  0  0  0
  7  9  1  0  0  0  0
M  END
>  <name>
O[C@@H]1[C@@H](C)O[C;ether][C@H](O)[C;ether]1

>  <apo>
2

>  <freq>
3

>  <freq0>
0

>  <freq1>
3

>  <freqA>
2.9924588

$$$$

  MOE2015           2D

 10 10  0  0  0  0  0  0  0  0999 V2000
    0.0000    0.5200    0.0000 O   0  0  0  0  0  0  0  0  0  0  0  0
    1.5000    0.5200    0.0000 C   0  0  0  0  0  0  0  0  0  0  0  0
    2.2500   -0.7790    0.0000 C   0  0  0  0  0  0  0  0  0  0  0  0
    3.7500   -0.7790    0.0000 C   0  0  0  0  0  0  0  0  0  0  0  0
    4.5000    0.5200    0.0000 C   0  0  0  0  0  0  0  0  0  0  0  0
    6.0000    0.5200    0.0000 C   0  0  0  0  0  0  0  0  0  0  0  0
    6.7500   -0.7790    0.0000 C   0  0  0  0  0  0  0  0  0  0  0  0
    8.2500   -0.7790    0.0000 C   0  0  0  0  0  0  0  0  0  0  0  0
    3.7500    1.8190    0.0000 C   0  0  0  0  0  0  0  0  0  0  0  0
    2.2500    1.8190    0.0000 C   0  0  0  0  0  0  0  0  0  0  0  0
  1  2  1  0  0  0  0
  2  3  1  0  0  0  0
  2 10  2  0  0  0  0
  3  4  2  0  0  0  0
  4  5  1  0  0  0  0
  5  6  1  0  0  0  0
  5  9  2  0  0  0  0
  6  7  1  0  0  0  0
  7  8  2  0  0  0  0
  9 10  1  0  0  0  0
M  END
>  <name>
Oc1[c;biphenyl]cc(CC=C)cc1

>  <apo>
1

>  <freq>
3

>  <freq0>
0

>  <freq1>
3

>  <freqA>
2.9924588

$$$$

  MOE2015           2D

  9  9  0  0  0  0  0  0  0  0999 V2000
    5.5980   -1.5000    0.0000 O   0  0  0  0  0  0  0  0  0  0  0  0
    4.2990   -0.7500    0.0000 C   0  0  0  0  0  0  0  0  0  0  0  0
    4.2990    0.7500    0.0000 C   0  0  0  0  0  0  0  0  0  0  0  0
    3.0000    1.5000    0.0000 C   0  0  0  0  0  0  0  0  0  0  0  0
    3.0000    3.0000    0.0000 O   0  0  0  0  0  0  0  0  0  0  0  0
    1.7010    0.7500    0.0000 C   0  0  0  0  0  0  0  0  0  0  0  0
    1.7010   -0.7500    0.0000 C   0  0  0  0  0  0  0  0  0  0  0  0
    0.4020   -1.5000    0.0000 C   0  0  0  0  0  0  0  0  0  0  0  0
    3.0000   -1.5000    0.0000 C   0  0  0  0  0  0  0  0  0  0  0  0
  1  2  1  0  0  0  0
  2  3  1  0  0  0  0
  2  9  2  0  0  0  0
  3  4  2  0  0  0  0
  4  5  1  0  0  0  0
  4  6  1  0  0  0  0
  6  7  2  0  0  0  0
  7  8  1  0  0  0  0
  7  9  1  0  0  0  0
M  END
>  <name>
Oc1cc(O)cc([C;olefin])c1

>  <apo>
1

>  <freq>
3

>  <freq0>
0

>  <freq1>
3

>  <freqA>
2.9924588

$$$$

  MOE2015           2D

  2  1  0  0  0  0  0  0  0  0999 V2000
    0.0000    0.0000    0.0000 C   0  0  0  0  0  0  0  0  0  0  0  0
    1.5000    0.0000    0.0000 C   0  0  0  0  0  0  0  0  0  0  0  0
  1  2  1  0  0  0  0
M  END
>  <name>
[C;lactam]C

>  <apo>
1

>  <freq>
3

>  <freq0>
0

>  <freq1>
3

>  <freqA>
2.9924588

$$$$

  MOE2015           2D

 10 11  0  0  0  0  0  0  0  0999 V2000
    6.7290   -0.8970    0.0000 C   0  0  0  0  0  0  0  0  0  0  0  0
    5.4300   -0.1470    0.0000 C   0  0  0  0  0  0  0  0  0  0  0  0
    4.1310   -0.8970    0.0000 C   0  0  0  0  0  0  0  0  0  0  0  0
    2.8320   -0.1470    0.0000 C   0  0  0  0  0  0  0  0  0  0  0  0
    1.4050   -0.6110    0.0000 O   0  0  0  0  0  0  0  0  0  0  0  0
    0.5230    0.6030    0.0000 C   0  0  0  0  0  0  0  0  0  0  0  0
    1.4050    1.8160    0.0000 O   0  0  0  0  0  0  0  0  0  0  0  0
    2.8320    1.3530    0.0000 C   0  0  0  0  0  0  0  0  0  0  0  0
    4.1310    2.1030    0.0000 C   0  0  0  0  0  0  0  0  0  0  0  0
    5.4300    1.3530    0.0000 C   0  0  0  0  0  0  0  0  0  0  0  0
  1  2  1  0  0  0  0
  2  3  1  0  0  0  0
  2 10  2  0  0  0  0
  3  4  2  0  0  0  0
  4  5  1  0  0  0  0
  4  8  1  0  0  0  0
  5  6  1  0  0  0  0
  6  7  1  0  0  0  0
  7  8  1  0  0  0  0
  8  9  2  0  0  0  0
  9 10  1  0  0  0  0
M  END
>  <name>
[C;olefin]c1cc2OCOc2cc1

>  <apo>
1

>  <freq>
3

>  <freq0>
0

>  <freq1>
3

>  <freqA>
2.9924588

$$$$

  MOE2015           2D

  4  3  0  0  0  0  0  0  0  0999 V2000
   -0.0740   -0.2750    0.0000 N   0  0  0  0  0  0  0  0  0  0  0  0
    1.2250   -1.0250    0.0000 C   0  0  0  0  0  0  0  0  0  0  0  0
    2.5250   -0.2750    0.0000 C   0  0  0  0  0  0  0  0  0  0  0  0
    3.8240   -1.0250    0.0000 C   0  0  0  0  0  0  0  0  0  0  0  0
  1  2  1  0  0  0  0
  2  3  1  0  0  0  0
  3  4  1  0  0  0  0
M  END
>  <name>
[N;amide]CC[C;amine]

>  <apo>
2

>  <freq>
3

>  <freq0>
0

>  <freq1>
3

>  <freqA>
2.9924588

$$$$

  MOE2015           2D

  3  2  0  0  0  0  0  0  0  0999 V2000
   -0.0490    0.1830    0.0000 N   0  0  0  0  0  0  0  0  0  0  0  0
    1.2500    0.9330    0.0000 C   0  0  0  0  0  0  0  0  0  0  0  0
    2.5490    0.1830    0.0000 C   0  0  0  0  0  0  0  0  0  0  0  0
  1  2  1  0  0  0  0
  2  3  1  0  0  0  0
M  END
>  <name>
[N;amide]C[C;olefin]

>  <apo>
2

>  <freq>
3

>  <freq0>
0

>  <freq1>
3

>  <freqA>
2.9924588

$$$$

  MOE2015           2D

  5  4  0  0  0  0  0  0  0  0999 V2000
   -0.0700   -0.2600    0.0000 C   0  0  0  0  0  0  0  0  0  0  0  0
    1.2290   -1.0100    0.0000 C   0  0  0  0  0  0  0  0  0  0  0  0
    2.5280   -0.2600    0.0000 C   0  0  0  0  0  0  0  0  0  0  0  0
   -0.0700    1.2400    0.0000 C   0  0  0  0  0  0  0  0  0  0  0  0
   -1.3690   -1.0100    0.0000 C   0  0  0  0  0  0  0  0  0  0  0  0
  1  2  1  0  0  0  0
  1  4  1  0  0  0  0
  1  5  1  0  0  0  0
  2  3  1  0  0  0  0
M  END
>  <name>
C(CC)([C;olefin])C

>  <apo>
1

>  <freq>
2

>  <freq0>
0

>  <freq1>
2

>  <freqA>
1.9933023

$$$$

  MOE2015           2D

 12 11  0  0  0  0  0  0  0  0999 V2000
    0.1000   -0.3750    0.0000 C   0  0  0  0  0  0  0  0  0  0  0  0
    1.4000    0.3750    0.0000 C   0  0  0  0  0  0  0  0  0  0  0  0
    2.6990   -0.3750    0.0000 C   0  0  0  0  0  0  0  0  0  0  0  0
    3.9980    0.3750    0.0000 C   0  0  0  0  0  0  0  0  0  0  0  0
    5.2970   -0.3750    0.0000 C   0  0  0  0  0  0  0  0  0  0  0  0
    6.5960    0.3750    0.0000 C   0  0  0  0  0  0  0  0  0  0  0  0
    7.8950   -0.3750    0.0000 C   0  0  0  0  0  0  0  0  0  0  0  0
   -1.1990    0.3750    0.0000 C   0  0  0  0  0  0  0  0  0  0  0  0
   -2.4980   -0.3750    0.0000 C   0  0  0  0  0  0  0  0  0  0  0  0
   -3.7970    0.3750    0.0000 C   0  0  0  0  0  0  0  0  0  0  0  0
   -5.0960   -0.3750    0.0000 C   0  0  0  0  0  0  0  0  0  0  0  0
   -6.3950    0.3750    0.0000 C   0  0  0  0  0  0  0  0  0  0  0  0
  1  2  1  0  0  0  0
  1  8  1  0  0  0  0
  2  3  1  0  0  0  0
  3  4  1  0  0  0  0
  4  5  1  0  0  0  0
  5  6  1  0  0  0  0
  6  7  1  0  0  0  0
  8  9  1  0  0  0  0
  9 10  1  0  0  0  0
 10 11  1  0  0  0  0
 11 12  1  0  0  0  0
M  END
>  <name>
C(CCCCCC)CCCC[C;olefin]

>  <apo>
1

>  <freq>
2

>  <freq0>
0

>  <freq1>
2

>  <freqA>
1.9933023

$$$$

  MOE2015           2D

  4  3  0  0  0  0  0  0  0  0999 V2000
    0.0000    0.0000    0.0000 C   0  0  0  0  0  0  0  0  0  0  0  0
   -1.2990   -0.7500    0.0000 C   0  0  0  0  0  0  0  0  0  0  0  0
    0.0000    1.5000    0.0000 C   0  0  0  0  0  0  0  0  0  0  0  0
    1.2990   -0.7500    0.0000 C   0  0  0  0  0  0  0  0  0  0  0  0
  1  2  1  0  0  0  0
  1  3  1  0  0  0  0
  1  4  1  0  0  0  0
M  END
>  <name>
C([C;olefin])(C)C

>  <apo>
1

>  <freq>
2

>  <freq0>
0

>  <freq1>
2

>  <freqA>
1.9933023

$$$$

  MOE2015           2D

 10 11  0  0  0  0  0  0  0  0999 V2000
    0.5660    0.9790    0.0000 N   0  0  0  0  0  0  0  0  0  0  0  0
    1.3160   -0.3200    0.0000 C   0  0  0  0  0  0  0  0  0  0  0  0
    0.5660   -1.6190    0.0000 N   0  0  0  0  0  0  0  0  0  0  0  0
    1.3160   -2.9180    0.0000 C   0  0  0  0  0  0  0  0  0  0  0  0
    2.8160   -2.9180    0.0000 N   0  0  0  0  0  0  0  0  0  0  0  0
    3.5660   -1.6190    0.0000 C   0  0  0  0  0  0  0  0  0  0  0  0
    5.0330   -1.3070    0.0000 N   0  0  0  0  0  0  0  0  0  0  0  0
    5.1900    0.1850    0.0000 C   0  0  0  0  0  0  0  0  0  0  0  0
    3.8190    0.7950    0.0000 N   0  0  0  0  0  0  0  0  0  0  0  0
    2.8160   -0.3200    0.0000 C   0  0  0  0  0  0  0  0  0  0  0  0
  1  2  1  0  0  0  0
  2  3  1  0  0  0  0
  2 10  2  0  0  0  0
  3  4  2  0  0  0  0
  4  5  1  0  0  0  0
  5  6  2  0  0  0  0
  6  7  1  0  0  0  0
  6 10  1  0  0  0  0
  7  8  1  0  0  0  0
  8  9  2  0  0  0  0
  9 10  1  0  0  0  0
M  END
>  <name>
Nc1ncnc2[nH;NaroC]cnc12

>  <apo>
1

>  <freq>
2

>  <freq0>
0

>  <freq1>
2

>  <freqA>
1.9933023

$$$$

  MOE2015           2D

 21 23  0  0  0  0  0  0  0  0999 V2000
    3.0000    5.6910    0.0000 O   0  0  0  0  0  0  0  0  0  0  0  0
    3.7500    6.9900    0.0000 C   0  0  0  0  0  0  0  0  0  0  0  0
    1.5000    5.6910    0.0000 C   0  0  0  0  0  0  0  0  0  0  0  0
    0.7500    4.3920    0.0000 C   0  0  0  0  0  0  0  0  0  0  0  0
   -0.7500    4.3920    0.0000 C   0  0  0  0  0  0  0  0  0  0  0  0
   -1.5000    5.6910    0.0000 C   0  0  0  0  0  0  0  0  0  0  0  0
   -3.0000    5.6910    0.0000 C   0  0  0  0  0  0  0  0  0  0  0  0
   -3.7500    4.3920    0.0000 O   0  0  0  0  0  0  0  0  0  0  0  0
   -5.2500    4.3920    0.0000 C   0  0  0  0  0  0  0  0  0  0  0  0
   -6.0000    5.6910    0.0000 C   0  0  0  0  0  0  0  0  0  0  0  0
   -7.5000    5.6910    0.0000 C   0  0  0  0  0  0  0  0  0  0  0  0
   -8.2500    6.9900    0.0000 O   0  0  0  0  0  0  0  0  0  0  0  0
   -8.2500    4.3920    0.0000 C   0  0  0  0  0  0  0  0  0  0  0  0
   -7.5000    3.0930    0.0000 C   0  0  0  0  0  0  0  0  0  0  0  0
   -8.2500    1.7940    0.0000 O   0  0  0  0  0  0  0  0  0  0  0  0
   -6.0000    3.0930    0.0000 C   0  0  0  0  0  0  0  0  0  0  0  0
   -5.2500    6.9900    0.0000 C   0  0  0  0  0  0  0  0  0  0  0  0
   -6.0000    8.2890    0.0000 O   0  0  0  0  0  0  0  0  0  0  0  0
   -3.7500    6.9900    0.0000 C   0  0  0  0  0  0  0  0  0  0  0  0
   -0.7500    6.9900    0.0000 C   0  0  0  0  0  0  0  0  0  0  0  0
    0.7500    6.9900    0.0000 C   0  0  0  0  0  0  0  0  0  0  0  0
  1  2  1  0  0  0  0
  1  3  1  0  0  0  0
  3  4  1  0  0  0  0
  3 21  2  0  0  0  0
  4  5  2  0  0  0  0
  5  6  1  0  0  0  0
  6  7  1  0  0  0  0
  6 20  2  0  0  0  0
  7  8  1  0  0  0  0
  7 19  2  0  0  0  0
  8  9  1  0  0  0  0
  9 10  1  0  0  0  0
  9 16  2  0  0  0  0
 10 11  2  0  0  0  0
 10 17  1  0  0  0  0
 11 12  1  0  0  0  0
 11 13  1  0  0  0  0
 13 14  2  0  0  0  0
 14 15  1  0  0  0  0
 14 16  1  0  0  0  0
 17 18  2  0  0  0  0
 17 19  1  0  0  0  0
 20 21  1  0  0  0  0
M  END
>  <name>
O(C)c1[c;biphenyl]cc(C=2Oc3c(c(O)cc(O)c3)C(=O)C=2)cc1

>  <apo>
1

>  <freq>
2

>  <freq0>
0

>  <freq1>
2

>  <freqA>
1.9933023

$$$$

  MOE2015           2D

 12 12  0  0  0  0  0  0  0  0999 V2000
   -1.5000    4.1140    0.0000 O   0  0  0  0  0  0  0  0  0  0  0  0
   -2.2500    5.4130    0.0000 C   0  0  0  0  0  0  0  0  0  0  0  0
   -2.2500    2.8150    0.0000 C   0  0  0  0  0  0  0  0  0  0  0  0
   -1.5000    1.5160    0.0000 C   0  0  0  0  0  0  0  0  0  0  0  0
    0.0000    1.5160    0.0000 C   0  0  0  0  0  0  0  0  0  0  0  0
    0.7500    0.2170    0.0000 C   0  0  0  0  0  0  0  0  0  0  0  0
    2.2500    0.2170    0.0000 N   0  0  0  0  0  0  0  0  0  0  0  0
   -2.2500    0.2170    0.0000 C   0  0  0  0  0  0  0  0  0  0  0  0
   -3.7500    0.2170    0.0000 C   0  0  0  0  0  0  0  0  0  0  0  0
   -4.5000   -1.0830    0.0000 O   0  0  0  0  0  0  0  0  0  0  0  0
   -4.5000    1.5160    0.0000 C   0  0  0  0  0  0  0  0  0  0  0  0
   -3.7500    2.8150    0.0000 C   0  0  0  0  0  0  0  0  0  0  0  0
  1  2  1  0  0  0  0
  1  3  1  0  0  0  0
  3  4  1  0  0  0  0
  3 12  2  0  0  0  0
  4  5  1  0  0  0  0
  4  8  2  0  0  0  0
  5  6  2  0  0  0  0
  6  7  1  0  0  0  0
  8  9  1  0  0  0  0
  9 10  1  0  0  0  0
  9 11  2  0  0  0  0
 11 12  1  0  0  0  0
M  END
>  <name>
O(C)c1c(/C=C/[N;amide])cc([O;ether])cc1

>  <apo>
2

>  <freq>
2

>  <freq0>
0

>  <freq1>
2

>  <freqA>
1.9933023

$$$$

  MOE2015           2D

 22 24  0  0  1  0  0  0  0  0999 V2000
   -4.7730    8.2670    0.0000 O   0  0  0  0  0  0  0  0  0  0  0  0
   -4.0230    9.5660    0.0000 C   0  0  0  0  0  0  0  0  0  0  0  0
   -4.0230    6.9680    0.0000 C   0  0  0  0  0  0  0  0  0  0  0  0
   -4.7730    5.6690    0.0000 C   0  0  0  0  0  0  0  0  0  0  0  0
   -6.2730    5.6690    0.0000 C   0  0  0  0  0  0  0  0  0  0  0  0
   -7.0230    4.3690    0.0000 C   0  0  0  0  0  0  0  0  0  0  0  0
   -4.0230    4.3690    0.0000 C   0  0  0  0  0  0  0  0  0  0  0  0
   -2.5230    4.3690    0.0000 C   0  0  0  0  0  0  0  0  0  0  0  0
   -1.7730    3.0700    0.0000 C   0  0  0  0  0  0  0  0  0  0  0  0
   -2.5230    1.7710    0.0000 O   0  0  0  0  0  0  0  0  0  0  0  0
   -0.2730    3.0700    0.0000 C   0  0  0  0  0  0  0  0  0  0  0  0
    0.4770    4.3690    0.0000 C   0  0  3  0  0  0  0  0  0  0  0  0
    1.9770    4.3690    0.0000 C   0  0  0  0  0  0  0  0  0  0  0  0
    2.7270    5.6690    0.0000 C   0  0  0  0  0  0  0  0  0  0  0  0
    4.2270    5.6690    0.0000 C   0  0  0  0  0  0  0  0  0  0  0  0
    4.9770    4.3690    0.0000 C   0  0  0  0  0  0  0  0  0  0  0  0
    6.4770    4.3690    0.0000 O   0  0  0  0  0  0  0  0  0  0  0  0
    4.2270    3.0700    0.0000 C   0  0  0  0  0  0  0  0  0  0  0  0
    2.7270    3.0700    0.0000 C   0  0  0  0  0  0  0  0  0  0  0  0
   -0.2730    5.6690    0.0000 O   0  0  0  0  0  0  0  0  0  0  0  0
   -1.7730    5.6690    0.0000 C   0  0  0  0  0  0  0  0  0  0  0  0
   -2.5230    6.9680    0.0000 C   0  0  0  0  0  0  0  0  0  0  0  0
  1  2  1  0  0  0  0
  1  3  1  0  0  0  0
  3  4  1  0  0  0  0
  3 22  2  0  0  0  0
  4  5  1  0  0  0  0
  4  7  2  0  0  0  0
  5  6  1  0  0  0  0
  7  8  1  0  0  0  0
  8  9  1  0  0  0  0
  8 21  2  0  0  0  0
  9 10  2  0  0  0  0
  9 11  1  0  0  0  0
 11 12  1  0  0  0  0
 12 13  1  0  0  0  0
 12 20  1  0  0  0  0
 13 14  1  0  0  0  0
 13 19  2  0  0  0  0
 14 15  2  0  0  0  0
 15 16  1  0  0  0  0
 16 17  1  0  0  0  0
 16 18  2  0  0  0  0
 18 19  1  0  0  0  0
 20 21  1  0  0  0  0
 21 22  1  0  0  0  0
M  END
>  <name>
O(C)c1c(C[C;olefin])cc2C(=O)CC(c3ccc(O)cc3)Oc2c1

>  <apo>
1

>  <freq>
2

>  <freq0>
0

>  <freq1>
2

>  <freqA>
1.9933023

$$$$

  MOE2015           2D

 22 24  0  0  1  0  0  0  0  0999 V2000
   -4.7730    8.2670    0.0000 O   0  0  0  0  0  0  0  0  0  0  0  0
   -4.0230    9.5660    0.0000 C   0  0  0  0  0  0  0  0  0  0  0  0
   -4.0230    6.9680    0.0000 C   0  0  0  0  0  0  0  0  0  0  0  0
   -4.7730    5.6690    0.0000 C   0  0  0  0  0  0  0  0  0  0  0  0
   -6.2730    5.6690    0.0000 C   0  0  0  0  0  0  0  0  0  0  0  0
   -7.0230    4.3690    0.0000 C   0  0  0  0  0  0  0  0  0  0  0  0
   -4.0230    4.3690    0.0000 C   0  0  0  0  0  0  0  0  0  0  0  0
   -2.5230    4.3690    0.0000 C   0  0  0  0  0  0  0  0  0  0  0  0
   -1.7730    3.0700    0.0000 C   0  0  0  0  0  0  0  0  0  0  0  0
   -2.5230    1.7710    0.0000 O   0  0  0  0  0  0  0  0  0  0  0  0
   -0.2730    3.0700    0.0000 C   0  0  0  0  0  0  0  0  0  0  0  0
    0.4770    4.3690    0.0000 C   0  0  1  0  0  0  0  0  0  0  0  0
    1.9770    4.3690    0.0000 C   0  0  0  0  0  0  0  0  0  0  0  0
    2.7270    5.6690    0.0000 C   0  0  0  0  0  0  0  0  0  0  0  0
    4.2270    5.6690    0.0000 C   0  0  0  0  0  0  0  0  0  0  0  0
    4.9770    4.3690    0.0000 C   0  0  0  0  0  0  0  0  0  0  0  0
    6.4770    4.3690    0.0000 O   0  0  0  0  0  0  0  0  0  0  0  0
    4.2270    3.0700    0.0000 C   0  0  0  0  0  0  0  0  0  0  0  0
    2.7270    3.0700    0.0000 C   0  0  0  0  0  0  0  0  0  0  0  0
   -0.2730    5.6690    0.0000 O   0  0  0  0  0  0  0  0  0  0  0  0
   -1.7730    5.6690    0.0000 C   0  0  0  0  0  0  0  0  0  0  0  0
   -2.5230    6.9680    0.0000 C   0  0  0  0  0  0  0  0  0  0  0  0
  1  2  1  0  0  0  0
  1  3  1  0  0  0  0
  3  4  2  0  0  0  0
  3 22  1  0  0  0  0
  4  5  1  0  0  0  0
  4  7  1  0  0  0  0
  5  6  1  0  0  0  0
  7  8  2  0  0  0  0
  8  9  1  0  0  0  0
  8 21  1  0  0  0  0
  9 10  2  0  0  0  0
  9 11  1  0  0  0  0
 11 12  1  0  0  0  0
 12 13  1  6  0  0  0
 12 20  1  0  0  0  0
 13 14  1  0  0  0  0
 13 19  2  0  0  0  0
 14 15  2  0  0  0  0
 15 16  1  0  0  0  0
 16 17  1  0  0  0  0
 16 18  2  0  0  0  0
 18 19  1  0  0  0  0
 20 21  1  0  0  0  0
 21 22  2  0  0  0  0
M  END
>  <name>
O(C)c1c(C[C;olefin])cc2C(=O)C[C@@H](c3ccc(O)cc3)Oc2c1

>  <apo>
1

>  <freq>
2

>  <freq0>
0

>  <freq1>
2

>  <freqA>
1.9933023

$$$$

  MOE2015           2D

 12 12  0  0  0  0  0  0  0  0999 V2000
    0.9110    1.1480    0.0000 O   0  0  0  0  0  0  0  0  0  0  0  0
    2.2100    1.8980    0.0000 C   0  0  0  0  0  0  0  0  0  0  0  0
   -0.3880    1.8980    0.0000 C   0  0  0  0  0  0  0  0  0  0  0  0
   -1.6870    1.1480    0.0000 C   0  0  0  0  0  0  0  0  0  0  0  0
   -1.6870   -0.3520    0.0000 O   0  0  0  0  0  0  0  0  0  0  0  0
   -2.9870    1.8980    0.0000 C   0  0  0  0  0  0  0  0  0  0  0  0
   -4.2860    1.1480    0.0000 O   0  0  0  0  0  0  0  0  0  0  0  0
   -5.5850    1.8980    0.0000 C   0  0  0  0  0  0  0  0  0  0  0  0
   -2.9870    3.3980    0.0000 C   0  0  0  0  0  0  0  0  0  0  0  0
   -1.6870    4.1480    0.0000 C   0  0  0  0  0  0  0  0  0  0  0  0
   -1.6870    5.6480    0.0000 C   0  0  0  0  0  0  0  0  0  0  0  0
   -0.3880    3.3980    0.0000 C   0  0  0  0  0  0  0  0  0  0  0  0
  1  2  1  0  0  0  0
  1  3  1  0  0  0  0
  3  4  1  0  0  0  0
  3 12  2  0  0  0  0
  4  5  1  0  0  0  0
  4  6  2  0  0  0  0
  6  7  1  0  0  0  0
  6  9  1  0  0  0  0
  7  8  1  0  0  0  0
  9 10  2  0  0  0  0
 10 11  1  0  0  0  0
 10 12  1  0  0  0  0
M  END
>  <name>
O(C)c1c(O)c(OC)cc([C;olefin])c1

>  <apo>
1

>  <freq>
2

>  <freq0>
0

>  <freq1>
2

>  <freqA>
1.9933023

$$$$

  MOE2015           2D

 25 27  0  0  1  0  0  0  0  0999 V2000
    3.0600    6.0280    0.0000 O   0  0  0  0  0  0  0  0  0  0  0  0
    3.8100    7.3270    0.0000 C   0  0  0  0  0  0  0  0  0  0  0  0
    1.5600    6.0280    0.0000 C   0  0  0  0  0  0  0  0  0  0  0  0
    0.8100    4.7280    0.0000 C   0  0  0  0  0  0  0  0  0  0  0  0
    1.5600    3.4290    0.0000 O   0  0  0  0  0  0  0  0  0  0  0  0
   -0.6900    4.7280    0.0000 C   0  0  0  0  0  0  0  0  0  0  0  0
   -1.4400    6.0280    0.0000 C   0  0  0  0  0  0  0  0  0  0  0  0
   -2.9400    6.0280    0.0000 C   0  0  2  0  0  0  0  0  0  0  0  0
   -3.6900    7.3270    0.0000 C   0  0  1  0  0  0  0  0  0  0  0  0
   -2.9400    8.6260    0.0000 O   0  0  0  0  0  0  0  0  0  0  0  0
   -5.1900    7.3270    0.0000 C   0  0  0  0  0  0  0  0  0  0  0  0
   -5.9400    8.6260    0.0000 O   0  0  0  0  0  0  0  0  0  0  0  0
   -5.9400    6.0280    0.0000 C   0  0  0  0  0  0  0  0  0  0  0  0
   -7.4400    6.0280    0.0000 C   0  0  0  0  0  0  0  0  0  0  0  0
   -8.1900    7.3270    0.0000 O   0  0  0  0  0  0  0  0  0  0  0  0
   -8.1900    4.7280    0.0000 C   0  0  0  0  0  0  0  0  0  0  0  0
   -9.6900    4.7280    0.0000 C   0  0  0  0  0  0  0  0  0  0  0  0
  -10.4400    3.4290    0.0000 C   0  0  0  0  0  0  0  0  0  0  0  0
   -7.4400    3.4290    0.0000 C   0  0  0  0  0  0  0  0  0  0  0  0
   -8.1900    2.1300    0.0000 O   0  0  0  0  0  0  0  0  0  0  0  0
   -5.9400    3.4290    0.0000 C   0  0  0  0  0  0  0  0  0  0  0  0
   -5.1900    4.7280    0.0000 C   0  0  0  0  0  0  0  0  0  0  0  0
   -3.6900    4.7280    0.0000 O   0  0  0  0  0  0  0  0  0  0  0  0
   -0.6900    7.3270    0.0000 C   0  0  0  0  0  0  0  0  0  0  0  0
    0.8100    7.3270    0.0000 C   0  0  0  0  0  0  0  0  0  0  0  0
  1  2  1  0  0  0  0
  1  3  1  0  0  0  0
  3  4  2  0  0  0  0
  3 25  1  0  0  0  0
  4  5  1  0  0  0  0
  4  6  1  0  0  0  0
  6  7  2  0  0  0  0
  8  7  1  1  0  0  0
  7 24  1  0  0  0  0
  8  9  1  0  0  0  0
  8 23  1  0  0  0  0
  9 10  1  6  0  0  0
  9 11  1  0  0  0  0
 11 12  2  0  0  0  0
 11 13  1  0  0  0  0
 13 14  2  0  0  0  0
 13 22  1  0  0  0  0
 14 15  1  0  0  0  0
 14 16  1  0  0  0  0
 16 17  1  0  0  0  0
 16 19  2  0  0  0  0
 17 18  1  0  0  0  0
 19 20  1  0  0  0  0
 19 21  1  0  0  0  0
 21 22  2  0  0  0  0
 22 23  1  0  0  0  0
 24 25  2  0  0  0  0
M  END
>  <name>
O(C)c1c(O)cc([C@@H]2[C@@H](O)C(=O)c3c(O)c(C[C;olefin])c(O)cc3O2)cc1

>  <apo>
1

>  <freq>
2

>  <freq0>
0

>  <freq1>
2

>  <freqA>
1.9933023

$$$$

  MOE2015           2D

 10 10  0  0  0  0  0  0  0  0999 V2000
   -3.1280    1.0280    0.0000 O   0  0  0  0  0  0  0  0  0  0  0  0
   -3.1280   -0.4720    0.0000 C   0  0  0  0  0  0  0  0  0  0  0  0
   -1.8290    1.7780    0.0000 C   0  0  0  0  0  0  0  0  0  0  0  0
   -1.8290    3.2780    0.0000 C   0  0  0  0  0  0  0  0  0  0  0  0
   -3.1280    4.0280    0.0000 O   0  0  0  0  0  0  0  0  0  0  0  0
   -0.5300    4.0280    0.0000 C   0  0  0  0  0  0  0  0  0  0  0  0
    0.7690    3.2780    0.0000 C   0  0  0  0  0  0  0  0  0  0  0  0
    0.7690    1.7780    0.0000 C   0  0  0  0  0  0  0  0  0  0  0  0
    2.0680    1.0280    0.0000 C   0  0  0  0  0  0  0  0  0  0  0  0
   -0.5300    1.0280    0.0000 C   0  0  0  0  0  0  0  0  0  0  0  0
  1  2  1  0  0  0  0
  1  3  1  0  0  0  0
  3  4  1  0  0  0  0
  3 10  2  0  0  0  0
  4  5  1  0  0  0  0
  4  6  2  0  0  0  0
  6  7  1  0  0  0  0
  7  8  2  0  0  0  0
  8  9  1  0  0  0  0
  8 10  1  0  0  0  0
M  END
>  <name>
O(C)c1c([O;ester])ccc([C;olefin])c1

>  <apo>
2

>  <freq>
2

>  <freq0>
0

>  <freq1>
2

>  <freqA>
1.9933023

$$$$

  MOE2015           2D

 15 16  0  0  0  0  0  0  0  0999 V2000
   -2.6500    4.5900    0.0000 O   0  0  0  0  0  0  0  0  0  0  0  0
   -1.9000    5.8890    0.0000 C   0  0  0  0  0  0  0  0  0  0  0  0
   -1.9000    3.2910    0.0000 C   0  0  0  0  0  0  0  0  0  0  0  0
   -2.6500    1.9920    0.0000 C   0  0  0  0  0  0  0  0  0  0  0  0
   -4.1500    1.9920    0.0000 C   0  0  0  0  0  0  0  0  0  0  0  0
   -4.9000    3.2910    0.0000 O   0  0  0  0  0  0  0  0  0  0  0  0
   -4.9000    0.6930    0.0000 C   0  0  0  0  0  0  0  0  0  0  0  0
   -4.1500   -0.6060    0.0000 C   0  0  0  0  0  0  0  0  0  0  0  0
   -2.6500   -0.6060    0.0000 C   0  0  0  0  0  0  0  0  0  0  0  0
   -1.9000    0.6930    0.0000 C   0  0  0  0  0  0  0  0  0  0  0  0
   -0.4000    0.6930    0.0000 C   0  0  0  0  0  0  0  0  0  0  0  0
    0.3500    1.9920    0.0000 C   0  0  0  0  0  0  0  0  0  0  0  0
    1.8500    1.9920    0.0000 C   0  0  0  0  0  0  0  0  0  0  0  0
    2.6000    0.6930    0.0000 O   0  0  0  0  0  0  0  0  0  0  0  0
   -0.4000    3.2910    0.0000 C   0  0  0  0  0  0  0  0  0  0  0  0
  1  2  1  0  0  0  0
  1  3  1  0  0  0  0
  3  4  1  0  0  0  0
  3 15  2  0  0  0  0
  4  5  1  0  0  0  0
  4 10  2  0  0  0  0
  5  6  1  0  0  0  0
  5  7  2  0  0  0  0
  7  8  1  0  0  0  0
  8  9  2  0  0  0  0
  9 10  1  0  0  0  0
 10 11  1  0  0  0  0
 11 12  2  0  0  0  0
 12 13  1  0  0  0  0
 12 15  1  0  0  0  0
 13 14  1  0  0  0  0
M  END
>  <name>
O(C)c1c2c(O)[c;biphenyl]ccc2[c;biphenyl]c(CO)c1

>  <apo>
2

>  <freq>
2

>  <freq0>
0

>  <freq1>
2

>  <freqA>
1.9933023

$$$$

  MOE2015           2D

 22 24  0  0  0  0  0  0  0  0999 V2000
   -9.0680    0.0000    0.0000 O   0  0  0  0  0  0  0  0  0  0  0  0
  -10.5680    0.0000    0.0000 C   0  0  0  0  0  0  0  0  0  0  0  0
   -8.3180    1.2990    0.0000 C   0  0  0  0  0  0  0  0  0  0  0  0
   -9.0680    2.5980    0.0000 C   0  0  0  0  0  0  0  0  0  0  0  0
   -8.3180    3.8970    0.0000 C   0  0  0  0  0  0  0  0  0  0  0  0
   -9.0680    5.1960    0.0000 O   0  0  0  0  0  0  0  0  0  0  0  0
   -6.8180    3.8970    0.0000 C   0  0  0  0  0  0  0  0  0  0  0  0
   -6.0680    5.1960    0.0000 C   0  0  0  0  0  0  0  0  0  0  0  0
   -6.8180    6.4950    0.0000 O   0  0  0  0  0  0  0  0  0  0  0  0
   -4.5680    5.1960    0.0000 C   0  0  0  0  0  0  0  0  0  0  0  0
   -3.8180    3.8970    0.0000 C   0  0  0  0  0  0  0  0  0  0  0  0
   -2.3180    3.8970    0.0000 C   0  0  0  0  0  0  0  0  0  0  0  0
   -1.5680    2.5980    0.0000 C   0  0  0  0  0  0  0  0  0  0  0  0
   -0.0680    2.5980    0.0000 C   0  0  0  0  0  0  0  0  0  0  0  0
    0.6820    3.8970    0.0000 C   0  0  0  0  0  0  0  0  0  0  0  0
    2.1820    3.8970    0.0000 O   0  0  0  0  0  0  0  0  0  0  0  0
    2.9320    5.1960    0.0000 C   0  0  0  0  0  0  0  0  0  0  0  0
   -0.0680    5.1960    0.0000 C   0  0  0  0  0  0  0  0  0  0  0  0
   -1.5680    5.1960    0.0000 C   0  0  0  0  0  0  0  0  0  0  0  0
   -4.5680    2.5980    0.0000 O   0  0  0  0  0  0  0  0  0  0  0  0
   -6.0680    2.5980    0.0000 C   0  0  0  0  0  0  0  0  0  0  0  0
   -6.8180    1.2990    0.0000 C   0  0  0  0  0  0  0  0  0  0  0  0
  1  2  1  0  0  0  0
  1  3  1  0  0  0  0
  3  4  1  0  0  0  0
  3 22  2  0  0  0  0
  4  5  2  0  0  0  0
  5  6  1  0  0  0  0
  5  7  1  0  0  0  0
  7  8  1  0  0  0  0
  7 21  2  0  0  0  0
  8  9  2  0  0  0  0
  8 10  1  0  0  0  0
 10 11  2  0  0  0  0
 11 12  1  0  0  0  0
 11 20  1  0  0  0  0
 12 13  1  0  0  0  0
 12 19  2  0  0  0  0
 13 14  2  0  0  0  0
 14 15  1  0  0  0  0
 15 16  1  0  0  0  0
 15 18  2  0  0  0  0
 16 17  1  0  0  0  0
 18 19  1  0  0  0  0
 20 21  1  0  0  0  0
 21 22  1  0  0  0  0
M  END
>  <name>
O(C)c1cc(O)c2C(=O)C=C(c3c[c;biphenyl]c(OC)cc3)Oc2c1

>  <apo>
1

>  <freq>
2

>  <freq0>
0

>  <freq1>
2

>  <freqA>
1.9933023

$$$$

  MOE2015           2D

 17 17  0  0  0  0  0  0  0  0999 V2000
    0.7360   -2.2640    0.0000 O   0  0  0  0  0  0  0  0  0  0  0  0
    0.7360   -0.7640    0.0000 C   0  0  0  0  0  0  0  0  0  0  0  0
    2.0350   -0.0140    0.0000 N   0  0  0  0  0  0  0  0  0  0  0  0
    2.0350    1.4860    0.0000 O   0  0  0  0  0  0  0  0  0  0  0  0
    3.3340   -0.7640    0.0000 C   0  0  0  0  0  0  0  0  0  0  0  0
    4.6330   -0.0140    0.0000 C   0  0  0  0  0  0  0  0  0  0  0  0
    5.9320   -0.7640    0.0000 C   0  0  0  0  0  0  0  0  0  0  0  0
    7.2310   -0.0140    0.0000 C   0  0  0  0  0  0  0  0  0  0  0  0
    8.5300   -0.7640    0.0000 C   0  0  0  0  0  0  0  0  0  0  0  0
    9.8290   -0.0140    0.0000 N   0  0  0  0  0  0  0  0  0  0  0  0
   -0.5630   -0.0140    0.0000 C   0  0  0  0  0  0  0  0  0  0  0  0
   -1.8620   -0.7640    0.0000 C   0  0  0  0  0  0  0  0  0  0  0  0
   -1.8620   -2.2640    0.0000 C   0  0  0  0  0  0  0  0  0  0  0  0
   -3.1610   -3.0140    0.0000 C   0  0  0  0  0  0  0  0  0  0  0  0
   -4.4600   -2.2640    0.0000 C   0  0  0  0  0  0  0  0  0  0  0  0
   -4.4600   -0.7640    0.0000 C   0  0  0  0  0  0  0  0  0  0  0  0
   -3.1610   -0.0140    0.0000 C   0  0  0  0  0  0  0  0  0  0  0  0
  1  2  2  0  0  0  0
  2  3  1  0  0  0  0
  2 11  1  0  0  0  0
  3  4  1  0  0  0  0
  3  5  1  0  0  0  0
  5  6  1  0  0  0  0
  6  7  1  0  0  0  0
  7  8  1  0  0  0  0
  8  9  1  0  0  0  0
  9 10  1  0  0  0  0
 11 12  1  0  0  0  0
 12 13  1  0  0  0  0
 12 17  2  0  0  0  0
 13 14  2  0  0  0  0
 14 15  1  0  0  0  0
 15 16  2  0  0  0  0
 16 17  1  0  0  0  0
M  END
>  <name>
O=C(N(O)CCCCC[N;amide])Cc1ccccc1

>  <apo>
1

>  <freq>
2

>  <freq0>
0

>  <freq1>
2

>  <freqA>
1.9933023

$$$$

  MOE2015           2D

 22 23  0  0  0  0  0  0  0  0999 V2000
    4.0910    2.3620    0.0000 O   0  0  0  0  0  0  0  0  0  0  0  0
    3.3410    1.0630    0.0000 C   0  0  0  0  0  0  0  0  0  0  0  0
    1.8410    1.0630    0.0000 O   0  0  0  0  0  0  0  0  0  0  0  0
    4.0910   -0.2360    0.0000 C   0  0  0  0  0  0  0  0  0  0  0  0
    5.5910   -0.2360    0.0000 O   0  0  0  0  0  0  0  0  0  0  0  0
    6.3410   -1.5350    0.0000 C   0  0  0  0  0  0  0  0  0  0  0  0
    7.8410   -1.5350    0.0000 C   0  0  0  0  0  0  0  0  0  0  0  0
    8.5910   -0.2360    0.0000 O   0  0  0  0  0  0  0  0  0  0  0  0
    8.5910   -2.8340    0.0000 C   0  0  0  0  0  0  0  0  0  0  0  0
    7.8410   -4.1330    0.0000 C   0  0  0  0  0  0  0  0  0  0  0  0
    8.5910   -5.4320    0.0000 C   0  0  0  0  0  0  0  0  0  0  0  0
    6.3410   -4.1330    0.0000 C   0  0  0  0  0  0  0  0  0  0  0  0
    5.5910   -2.8340    0.0000 C   0  0  0  0  0  0  0  0  0  0  0  0
    3.3410   -1.5350    0.0000 C   0  0  0  0  0  0  0  0  0  0  0  0
    1.8410   -1.5350    0.0000 C   0  0  0  0  0  0  0  0  0  0  0  0
    1.0910   -2.8340    0.0000 C   0  0  0  0  0  0  0  0  0  0  0  0
   -0.4090   -2.8340    0.0000 C   0  0  0  0  0  0  0  0  0  0  0  0
   -1.1590   -4.1330    0.0000 O   0  0  0  0  0  0  0  0  0  0  0  0
   -1.1590   -1.5350    0.0000 C   0  0  0  0  0  0  0  0  0  0  0  0
   -2.6590   -1.5350    0.0000 O   0  0  0  0  0  0  0  0  0  0  0  0
   -0.4090   -0.2360    0.0000 C   0  0  0  0  0  0  0  0  0  0  0  0
    1.0910   -0.2360    0.0000 C   0  0  0  0  0  0  0  0  0  0  0  0
  1  2  2  0  0  0  0
  2  3  1  0  0  0  0
  2  4  1  0  0  0  0
  4  5  1  0  0  0  0
  4 14  2  0  0  0  0
  5  6  1  0  0  0  0
  6  7  1  0  0  0  0
  6 13  2  0  0  0  0
  7  8  1  0  0  0  0
  7  9  2  0  0  0  0
  9 10  1  0  0  0  0
 10 11  1  0  0  0  0
 10 12  2  0  0  0  0
 12 13  1  0  0  0  0
 14 15  1  0  0  0  0
 15 16  1  0  0  0  0
 15 22  2  0  0  0  0
 16 17  2  0  0  0  0
 17 18  1  0  0  0  0
 17 19  1  0  0  0  0
 19 20  1  0  0  0  0
 19 21  2  0  0  0  0
 21 22  1  0  0  0  0
M  END
>  <name>
O=C(O)C(Oc1c(O)cc([C;olefin])cc1)=Cc1cc(O)c(O)cc1

>  <apo>
1

>  <freq>
2

>  <freq0>
0

>  <freq1>
2

>  <freqA>
1.9933023

$$$$

  MOE2015           2D

 13 13  0  0  1  0  0  0  0  0999 V2000
    4.3760   -0.2220    0.0000 O   0  0  0  0  0  0  0  0  0  0  0  0
    4.3760   -1.7220    0.0000 C   0  0  0  0  0  0  0  0  0  0  0  0
    5.6750   -2.4720    0.0000 O   0  0  0  0  0  0  0  0  0  0  0  0
    3.0770   -2.4720    0.0000 C   0  0  0  0  0  0  0  0  0  0  0  0
    4.3760   -3.2220    0.0000 O   0  0  0  0  0  0  0  0  0  0  0  0
    2.3270   -3.7720    0.0000 C   0  0  0  0  0  0  0  0  0  0  0  0
    0.8270   -3.7720    0.0000 C   0  0  1  0  0  0  0  0  0  0  0  0
    0.0770   -5.0710    0.0000 O   0  0  0  0  0  0  0  0  0  0  0  0
    0.0770   -2.4720    0.0000 C   0  0  0  0  0  0  0  0  0  0  0  0
   -1.4230   -2.4720    0.0000 O   0  0  0  0  0  0  0  0  0  0  0  0
    0.8270   -1.1730    0.0000 C   0  0  2  0  0  0  0  0  0  0  0  0
    0.0770    0.1260    0.0000 O   0  0  0  0  0  0  0  0  0  0  0  0
    2.3270   -1.1730    0.0000 C   0  0  0  0  0  0  0  0  0  0  0  0
  1  2  2  0  0  0  0
  2  3  1  0  0  0  0
  2  4  1  0  0  0  0
  4  5  1  0  0  0  0
  4  6  1  0  0  0  0
  4 13  1  0  0  0  0
  6  7  1  0  0  0  0
  7  8  1  1  0  0  0
  7  9  1  0  0  0  0
  9 10  1  0  0  0  0
  9 11  1  0  0  0  0
 11 12  1  6  0  0  0
 11 13  1  0  0  0  0
M  END
>  <name>
O=C(O)C1(O)C[C@@H]([O;ester])C(O)[C@H](O)C1

>  <apo>
1

>  <freq>
2

>  <freq0>
0

>  <freq1>
2

>  <freqA>
1.9933023

$$$$

  MOE2015           2D

 11 11  0  0  1  0  0  0  0  0999 V2000
    5.7270    3.3070    0.0000 O   0  0  0  0  0  0  0  0  0  0  0  0
    4.9770    2.0080    0.0000 C   0  0  0  0  0  0  0  0  0  0  0  0
    5.7270    0.7090    0.0000 O   0  0  0  0  0  0  0  0  0  0  0  0
    3.4770    2.0080    0.0000 C   0  0  3  0  0  0  0  0  0  0  0  0
    2.7270    0.7090    0.0000 C   0  0  3  0  0  0  0  0  0  0  0  0
    3.4770   -0.5900    0.0000 O   0  0  0  0  0  0  0  0  0  0  0  0
    1.2270    0.7090    0.0000 C   0  0  3  0  0  0  0  0  0  0  0  0
    0.4770   -0.5900    0.0000 O   0  0  0  0  0  0  0  0  0  0  0  0
    0.4770    2.0080    0.0000 C   0  0  0  0  0  0  0  0  0  0  0  0
    1.2270    3.3070    0.0000 C   0  0  0  0  0  0  0  0  0  0  0  0
    2.7270    3.3070    0.0000 O   0  0  0  0  0  0  0  0  0  0  0  0
  1  2  2  0  0  0  0
  2  3  1  0  0  0  0
  2  4  1  0  0  0  0
  4  5  1  0  0  0  0
  4 11  1  0  0  0  0
  5  6  1  0  0  0  0
  5  7  1  0  0  0  0
  7  8  1  0  0  0  0
  7  9  1  0  0  0  0
  9 10  1  0  0  0  0
 10 11  1  0  0  0  0
M  END
>  <name>
O=C(O)C1C(O)C(O)[C;ether][C;ether]O1

>  <apo>
2

>  <freq>
2

>  <freq0>
0

>  <freq1>
2

>  <freqA>
1.9933023

$$$$

  MOE2015           2D

  5  4  0  0  0  0  0  0  0  0999 V2000
    0.1310   -1.0100    0.0000 O   0  0  0  0  0  0  0  0  0  0  0  0
    1.4300   -0.2600    0.0000 C   0  0  0  0  0  0  0  0  0  0  0  0
    1.4300    1.2400    0.0000 O   0  0  0  0  0  0  0  0  0  0  0  0
    2.7290   -1.0100    0.0000 C   0  0  0  0  0  0  0  0  0  0  0  0
    4.0280   -0.2600    0.0000 C   0  0  0  0  0  0  0  0  0  0  0  0
  1  2  2  0  0  0  0
  2  3  1  0  0  0  0
  2  4  1  0  0  0  0
  4  5  1  0  0  0  0
M  END
>  <name>
O=C(O)[C;olefin]C

>  <apo>
1

>  <freq>
2

>  <freq0>
0

>  <freq1>
2

>  <freqA>
1.9933023

$$$$

  MOE2015           2D

 14 14  0  0  1  0  0  0  0  0999 V2000
    9.0430   -2.4230    0.0000 O   0  0  0  0  0  0  0  0  0  0  0  0
    7.7440   -1.6730    0.0000 C   0  0  0  0  0  0  0  0  0  0  0  0
    7.7440   -0.1730    0.0000 O   0  0  0  0  0  0  0  0  0  0  0  0
    6.4450   -2.4230    0.0000 C   0  0  2  0  0  0  0  0  0  0  0  0
    6.4450   -3.9230    0.0000 O   0  0  0  0  0  0  0  0  0  0  0  0
    5.1460   -1.6730    0.0000 C   0  0  0  0  0  0  0  0  0  0  0  0
    3.8470   -2.4230    0.0000 C   0  0  0  0  0  0  0  0  0  0  0  0
    2.5480   -1.6730    0.0000 C   0  0  0  0  0  0  0  0  0  0  0  0
    1.2490   -2.4230    0.0000 C   0  0  0  0  0  0  0  0  0  0  0  0
   -0.0500   -1.6730    0.0000 O   0  0  0  0  0  0  0  0  0  0  0  0
    1.2490   -3.9230    0.0000 C   0  0  0  0  0  0  0  0  0  0  0  0
   -0.0500   -4.6730    0.0000 O   0  0  0  0  0  0  0  0  0  0  0  0
    2.5480   -4.6730    0.0000 C   0  0  0  0  0  0  0  0  0  0  0  0
    3.8470   -3.9230    0.0000 C   0  0  0  0  0  0  0  0  0  0  0  0
  1  2  2  0  0  0  0
  2  3  1  0  0  0  0
  2  4  1  0  0  0  0
  4  5  1  6  0  0  0
  4  6  1  0  0  0  0
  6  7  1  0  0  0  0
  7  8  1  0  0  0  0
  7 14  2  0  0  0  0
  8  9  2  0  0  0  0
  9 10  1  0  0  0  0
  9 11  1  0  0  0  0
 11 12  1  0  0  0  0
 11 13  2  0  0  0  0
 13 14  1  0  0  0  0
M  END
>  <name>
O=C(O)[C@H]([O;ester])Cc1cc(O)c(O)cc1

>  <apo>
1

>  <freq>
2

>  <freq0>
0

>  <freq1>
2

>  <freqA>
1.9933023

$$$$

  MOE2015           2D

 33 37  0  0  1  0  0  0  0  0999 V2000
    9.9540   -2.3620    0.0000 O   0  0  0  0  0  0  0  0  0  0  0  0
    9.9540   -3.8620    0.0000 C   0  0  0  0  0  0  0  0  0  0  0  0
   11.2530   -4.6120    0.0000 O   0  0  0  0  0  0  0  0  0  0  0  0
    8.6550   -4.6120    0.0000 C   0  0  2  0  0  0  0  0  0  0  0  0
    8.6550   -3.1120    0.0000 C   0  0  0  0  0  0  0  0  0  0  0  0
    7.1550   -4.6120    0.0000 C   0  0  0  0  0  0  0  0  0  0  0  0
    6.4050   -5.9110    0.0000 C   0  0  2  0  0  0  0  0  0  0  0  0
    7.1550   -7.2110    0.0000 C   0  0  1  0  0  0  0  0  0  0  0  0
    7.9050   -8.5100    0.0000 C   0  0  0  0  0  0  0  0  0  0  0  0
    6.4050   -8.5100    0.0000 C   0  0  0  0  0  0  0  0  0  0  0  0
    4.9050   -8.5100    0.0000 C   0  0  0  0  0  0  0  0  0  0  0  0
    4.1550   -7.2110    0.0000 C   0  0  1  0  0  0  0  0  0  0  0  0
    3.4050   -8.5100    0.0000 C   0  0  0  0  0  0  0  0  0  0  0  0
    2.6550   -7.2110    0.0000 C   0  0  1  0  0  0  0  0  0  0  0  0
    1.1550   -7.2110    0.0000 C   0  0  0  0  0  0  0  0  0  0  0  0
    1.9050   -5.9110    0.0000 C   0  0  2  0  0  0  0  0  0  0  0  0
    2.6550   -4.6120    0.0000 C   0  0  0  0  0  0  0  0  0  0  0  0
    1.9050   -3.3130    0.0000 O   0  0  0  0  0  0  0  0  0  0  0  0
    4.1550   -4.6120    0.0000 C   0  0  0  0  0  0  0  0  0  0  0  0
    4.9050   -5.9110    0.0000 C   0  0  0  0  0  0  0  0  0  0  0  0
    0.4050   -5.9110    0.0000 C   0  0  2  0  0  0  0  0  0  0  0  0
    1.1550   -4.6120    0.0000 C   0  0  0  0  0  0  0  0  0  0  0  0
   -0.3450   -7.2110    0.0000 C   0  0  1  0  0  0  0  0  0  0  0  0
   -1.8450   -7.2110    0.0000 C   0  0  0  0  0  0  0  0  0  0  0  0
   -3.1440   -7.9610    0.0000 C   0  0  0  0  0  0  0  0  0  0  0  0
   -1.8450   -8.7110    0.0000 C   0  0  0  0  0  0  0  0  0  0  0  0
   -2.5950   -5.9110    0.0000 C   0  0  0  0  0  0  0  0  0  0  0  0
   -1.8450   -4.6120    0.0000 C   0  0  0  0  0  0  0  0  0  0  0  0
   -0.3450   -4.6120    0.0000 C   0  0  0  0  0  0  0  0  0  0  0  0
    0.4050   -8.5100    0.0000 C   0  0  0  0  0  0  0  0  0  0  0  0
    1.9050   -8.5100    0.0000 C   0  0  0  0  0  0  0  0  0  0  0  0
    8.6550   -7.2110    0.0000 C   0  0  0  0  0  0  0  0  0  0  0  0
    9.4050   -5.9110    0.0000 C   0  0  0  0  0  0  0  0  0  0  0  0
  1  2  2  0  0  0  0
  2  3  1  0  0  0  0
  4  2  1  1  0  0  0
  4  5  1  6  0  0  0
  4  6  1  0  0  0  0
  4 33  1  0  0  0  0
  7  6  1  6  0  0  0
  7  8  1  0  0  0  0
  7 20  1  0  0  0  0
  8  9  1  1  0  0  0
  8 10  1  0  0  0  0
  8 32  1  0  0  0  0
 10 11  1  0  0  0  0
 11 12  1  0  0  0  0
 12 13  1  6  0  0  0
 12 14  1  0  0  0  0
 12 20  1  0  0  0  0
 14 15  1  1  0  0  0
 14 16  1  0  0  0  0
 14 31  1  0  0  0  0
 16 17  1  1  0  0  0
 16 21  1  0  0  0  0
 17 18  2  0  0  0  0
 17 19  1  0  0  0  0
 19 20  2  0  0  0  0
 21 22  1  1  0  0  0
 21 23  1  0  0  0  0
 21 29  1  0  0  0  0
 23 24  1  6  0  0  0
 23 30  1  0  0  0  0
 24 25  1  0  0  0  0
 24 26  1  0  0  0  0
 24 27  1  0  0  0  0
 27 28  1  0  0  0  0
 28 29  1  0  0  0  0
 30 31  1  0  0  0  0
 32 33  1  0  0  0  0
M  END
>  <name>
O=C(O)[C@]1(C)C[C@@H]2[C@@](C)(CC[C@@]3(C)[C@@]4(C)[C@H](C(=O)C=C23)[C@]2(C)[C@@H](C(C)(C)[C;ether]CC2)CC4)CC1

>  <apo>
1

>  <freq>
2

>  <freq0>
0

>  <freq1>
2

>  <freqA>
1.9933023

$$$$

  MOE2015           2D

 18 19  0  0  1  0  0  0  0  0999 V2000
   -1.3180    3.9870    0.0000 O   0  0  0  0  0  0  0  0  0  0  0  0
   -0.5680    2.6880    0.0000 C   0  0  0  0  0  0  0  0  0  0  0  0
   -1.3180    1.3890    0.0000 O   0  0  0  0  0  0  0  0  0  0  0  0
    0.9320    2.6880    0.0000 C   0  0  2  0  0  0  0  0  0  0  0  0
    0.1820    3.9870    0.0000 C   0  0  0  0  0  0  0  0  0  0  0  0
    2.2310    3.4380    0.0000 C   0  0  2  0  0  0  0  0  0  0  0  0
    3.5300    2.6880    0.0000 C   0  0  2  0  0  0  0  0  0  0  0  0
    4.8290    1.9380    0.0000 C   0  0  0  0  0  0  0  0  0  0  0  0
    4.8290    3.4380    0.0000 C   0  0  2  0  0  0  0  0  0  0  0  0
    6.1280    2.6880    0.0000 C   0  0  0  0  0  0  0  0  0  0  0  0
    7.4270    3.4380    0.0000 C   0  0  0  0  0  0  0  0  0  0  0  0
    4.8290    4.9380    0.0000 C   0  0  0  0  0  0  0  0  0  0  0  0
    6.1280    5.6880    0.0000 C   0  0  0  0  0  0  0  0  0  0  0  0
    3.5300    5.6880    0.0000 C   0  0  0  0  0  0  0  0  0  0  0  0
    2.2310    4.9380    0.0000 C   0  0  0  0  0  0  0  0  0  0  0  0
    3.5300    1.1880    0.0000 C   0  0  0  0  0  0  0  0  0  0  0  0
    2.2310    0.4380    0.0000 C   0  0  0  0  0  0  0  0  0  0  0  0
    0.9320    1.1880    0.0000 C   0  0  0  0  0  0  0  0  0  0  0  0
  1  2  2  0  0  0  0
  2  3  1  0  0  0  0
  4  2  1  6  0  0  0
  4  5  1  1  0  0  0
  4  6  1  0  0  0  0
  4 18  1  0  0  0  0
  6  7  1  0  0  0  0
  6 15  1  1  0  0  0
  7  8  1  1  0  0  0
  7  9  1  0  0  0  0
  7 16  1  0  0  0  0
  9 10  1  1  0  0  0
  9 12  1  0  0  0  0
 10 11  1  0  0  0  0
 12 13  2  0  0  0  0
 12 14  1  0  0  0  0
 14 15  1  0  0  0  0
 16 17  1  0  0  0  0
 17 18  1  0  0  0  0
M  END
>  <name>
O=C(O)[C@]1(C)[C@@H]2[C@](C)([C@H](C[C;olefin])C(=C)CC2)CCC1

>  <apo>
1

>  <freq>
2

>  <freq0>
0

>  <freq1>
2

>  <freqA>
1.9933023

$$$$

  MOE2015           2D

 34 38  0  0  1  0  0  0  0  0999 V2000
    9.6290   -9.6290    0.0000 O   0  0  0  0  0  0  0  0  0  0  0  0
    9.6290   -8.1290    0.0000 C   0  0  0  0  0  0  0  0  0  0  0  0
   10.9280   -7.3790    0.0000 O   0  0  0  0  0  0  0  0  0  0  0  0
   12.2270   -8.1290    0.0000 C   0  0  0  0  0  0  0  0  0  0  0  0
    8.3300   -7.3790    0.0000 C   0  0  3  0  0  0  0  0  0  0  0  0
    8.3300   -8.8790    0.0000 C   0  0  0  0  0  0  0  0  0  0  0  0
    6.8300   -7.3790    0.0000 C   0  0  0  0  0  0  0  0  0  0  0  0
    6.0800   -6.0800    0.0000 C   0  0  3  0  0  0  0  0  0  0  0  0
    6.8300   -4.7810    0.0000 C   0  0  3  0  0  0  0  0  0  0  0  0
    7.5800   -3.4820    0.0000 C   0  0  0  0  0  0  0  0  0  0  0  0
    6.0800   -3.4820    0.0000 C   0  0  0  0  0  0  0  0  0  0  0  0
    4.5800   -3.4820    0.0000 C   0  0  0  0  0  0  0  0  0  0  0  0
    3.8300   -4.7810    0.0000 C   0  0  3  0  0  0  0  0  0  0  0  0
    3.0800   -3.4820    0.0000 C   0  0  0  0  0  0  0  0  0  0  0  0
    2.3300   -4.7810    0.0000 C   0  0  3  0  0  0  0  0  0  0  0  0
    0.8300   -4.7810    0.0000 C   0  0  0  0  0  0  0  0  0  0  0  0
    1.5800   -6.0800    0.0000 C   0  0  3  0  0  0  0  0  0  0  0  0
    2.3300   -7.3790    0.0000 C   0  0  0  0  0  0  0  0  0  0  0  0
    1.5800   -8.6780    0.0000 O   0  0  0  0  0  0  0  0  0  0  0  0
    3.8300   -7.3790    0.0000 C   0  0  0  0  0  0  0  0  0  0  0  0
    4.5800   -6.0800    0.0000 C   0  0  0  0  0  0  0  0  0  0  0  0
    0.0800   -6.0800    0.0000 C   0  0  3  0  0  0  0  0  0  0  0  0
    0.8300   -7.3790    0.0000 C   0  0  0  0  0  0  0  0  0  0  0  0
   -0.6700   -4.7810    0.0000 C   0  0  3  0  0  0  0  0  0  0  0  0
   -2.1700   -4.7810    0.0000 C   0  0  0  0  0  0  0  0  0  0  0  0
   -3.4690   -4.0310    0.0000 C   0  0  0  0  0  0  0  0  0  0  0  0
   -2.1700   -3.2810    0.0000 C   0  0  0  0  0  0  0  0  0  0  0  0
   -2.9200   -6.0800    0.0000 C   0  0  0  0  0  0  0  0  0  0  0  0
   -2.1700   -7.3790    0.0000 C   0  0  0  0  0  0  0  0  0  0  0  0
   -0.6700   -7.3790    0.0000 C   0  0  0  0  0  0  0  0  0  0  0  0
    0.0800   -3.4820    0.0000 C   0  0  0  0  0  0  0  0  0  0  0  0
    1.5800   -3.4820    0.0000 C   0  0  0  0  0  0  0  0  0  0  0  0
    8.3300   -4.7810    0.0000 C   0  0  0  0  0  0  0  0  0  0  0  0
    9.0800   -6.0800    0.0000 C   0  0  0  0  0  0  0  0  0  0  0  0
  1  2  2  0  0  0  0
  2  3  1  0  0  0  0
  2  5  1  0  0  0  0
  3  4  1  0  0  0  0
  5  6  1  0  0  0  0
  5  7  1  0  0  0  0
  5 34  1  0  0  0  0
  7  8  1  0  0  0  0
  8  9  1  0  0  0  0
  8 21  1  0  0  0  0
  9 10  1  0  0  0  0
  9 11  1  0  0  0  0
  9 33  1  0  0  0  0
 11 12  1  0  0  0  0
 12 13  1  0  0  0  0
 13 14  1  0  0  0  0
 13 15  1  0  0  0  0
 13 21  1  0  0  0  0
 15 16  1  0  0  0  0
 15 17  1  0  0  0  0
 15 32  1  0  0  0  0
 17 18  1  0  0  0  0
 17 22  1  0  0  0  0
 18 19  2  0  0  0  0
 18 20  1  0  0  0  0
 20 21  2  0  0  0  0
 22 23  1  0  0  0  0
 22 24  1  0  0  0  0
 22 30  1  0  0  0  0
 24 25  1  0  0  0  0
 24 31  1  0  0  0  0
 25 26  1  0  0  0  0
 25 27  1  0  0  0  0
 25 28  1  0  0  0  0
 28 29  1  0  0  0  0
 29 30  1  0  0  0  0
 31 32  1  0  0  0  0
 33 34  1  0  0  0  0
M  END
>  <name>
O=C(OC)C1(C)CC2C(C)(CCC3(C)C4(C)C(C(=O)C=C23)C2(C)C(C(C)(C)[C;ether]CC2)CC4)CC1

>  <apo>
1

>  <freq>
2

>  <freq0>
0

>  <freq1>
2

>  <freqA>
1.9933023

$$$$

  MOE2015           2D

 18 18  0  0  1  0  0  0  0  0999 V2000
    0.4580   -1.6600    0.0000 O   0  0  0  0  0  0  0  0  0  0  0  0
    1.2080   -0.3610    0.0000 C   0  0  0  0  0  0  0  0  0  0  0  0
    2.7080   -0.3610    0.0000 O   0  0  0  0  0  0  0  0  0  0  0  0
    3.4580   -1.6600    0.0000 C   0  0  0  0  0  0  0  0  0  0  0  0
    4.9580   -1.6600    0.0000 C   0  0  0  0  0  0  0  0  0  0  0  0
    5.7080   -0.3610    0.0000 C   0  0  0  0  0  0  0  0  0  0  0  0
    7.2080   -0.3610    0.0000 C   0  0  0  0  0  0  0  0  0  0  0  0
    7.9580   -1.6600    0.0000 C   0  0  0  0  0  0  0  0  0  0  0  0
    7.2080   -2.9590    0.0000 C   0  0  0  0  0  0  0  0  0  0  0  0
    5.7080   -2.9590    0.0000 C   0  0  0  0  0  0  0  0  0  0  0  0
    0.4580    0.9380    0.0000 N   0  0  0  0  0  0  0  0  0  0  0  0
   -1.0420    0.9380    0.0000 C   0  0  2  0  0  0  0  0  0  0  0  0
   -1.7920    2.2370    0.0000 C   0  0  0  0  0  0  0  0  0  0  0  0
   -1.0420    3.5360    0.0000 O   0  0  0  0  0  0  0  0  0  0  0  0
   -1.7920   -0.3610    0.0000 C   0  0  0  0  0  0  0  0  0  0  0  0
   -3.2920   -0.3610    0.0000 C   0  0  0  0  0  0  0  0  0  0  0  0
   -4.0420   -1.6600    0.0000 C   0  0  0  0  0  0  0  0  0  0  0  0
   -4.0420    0.9380    0.0000 C   0  0  0  0  0  0  0  0  0  0  0  0
  1  2  2  0  0  0  0
  2  3  1  0  0  0  0
  2 11  1  0  0  0  0
  3  4  1  0  0  0  0
  4  5  1  0  0  0  0
  5  6  1  0  0  0  0
  5 10  2  0  0  0  0
  6  7  2  0  0  0  0
  7  8  1  0  0  0  0
  8  9  2  0  0  0  0
  9 10  1  0  0  0  0
 12 11  1  1  0  0  0
 12 13  1  0  0  0  0
 12 15  1  0  0  0  0
 13 14  2  0  0  0  0
 15 16  1  0  0  0  0
 16 17  1  0  0  0  0
 16 18  1  0  0  0  0
M  END
>  <name>
O=C(OCc1ccccc1)N[C@H]([C;amide]=O)CC(C)C

>  <apo>
1

>  <freq>
2

>  <freq0>
0

>  <freq1>
2

>  <freqA>
1.9933023

$$$$

  MOE2015           2D

 19 19  0  0  1  0  0  0  0  0999 V2000
   -0.8290   -6.4950    0.0000 O   0  0  0  0  0  0  0  0  0  0  0  0
   -1.5790   -5.1960    0.0000 C   0  0  0  0  0  0  0  0  0  0  0  0
   -3.0790   -5.1960    0.0000 C   0  0  0  0  0  0  0  0  0  0  0  0
   -0.8290   -3.8970    0.0000 C   0  0  0  0  0  0  0  0  0  0  0  0
    0.6710   -3.8970    0.0000 C   0  0  0  0  0  0  0  0  0  0  0  0
    1.4210   -5.1960    0.0000 O   0  0  0  0  0  0  0  0  0  0  0  0
    1.4210   -2.5980    0.0000 C   0  0  0  0  0  0  0  0  0  0  0  0
    2.9210   -2.5980    0.0000 C   0  0  0  0  0  0  0  0  0  0  0  0
    3.6710   -3.8970    0.0000 C   0  0  3  0  0  0  0  0  0  0  0  0
    2.9210   -5.1960    0.0000 O   0  0  0  0  0  0  0  0  0  0  0  0
    3.6710   -6.4950    0.0000 O   0  0  0  0  0  0  0  0  0  0  0  0
    5.1710   -3.8970    0.0000 C   0  0  0  0  0  0  0  0  0  0  0  0
    5.9210   -5.1960    0.0000 C   0  0  0  0  0  0  0  0  0  0  0  0
    5.9210   -2.5980    0.0000 C   0  0  0  0  0  0  0  0  0  0  0  0
    0.6710   -1.2990    0.0000 C   0  0  0  0  0  0  0  0  0  0  0  0
    1.4210    0.0000    0.0000 O   0  0  0  0  0  0  0  0  0  0  0  0
    0.6710    1.2990    0.0000 C   0  0  0  0  0  0  0  0  0  0  0  0
   -0.8290   -1.2990    0.0000 C   0  0  0  0  0  0  0  0  0  0  0  0
   -1.5790   -2.5980    0.0000 C   0  0  0  0  0  0  0  0  0  0  0  0
  1  2  2  0  0  0  0
  2  3  1  0  0  0  0
  2  4  1  0  0  0  0
  4  5  1  0  0  0  0
  4 19  2  0  0  0  0
  5  6  1  0  0  0  0
  5  7  2  0  0  0  0
  7  8  1  0  0  0  0
  7 15  1  0  0  0  0
  8  9  1  0  0  0  0
  9 10  1  0  0  0  0
  9 12  1  0  0  0  0
 10 11  1  0  0  0  0
 12 13  2  0  0  0  0
 12 14  1  0  0  0  0
 15 16  1  0  0  0  0
 15 18  2  0  0  0  0
 16 17  1  0  0  0  0
 18 19  1  0  0  0  0
M  END
>  <name>
O=C([C;olefin])c1c(O)c(CC(OO)C(=C)C)c(OC)cc1

>  <apo>
1

>  <freq>
2

>  <freq0>
0

>  <freq1>
2

>  <freqA>
1.9933023

$$$$

  MOE2015           2D

 12 12  0  0  0  0  0  0  0  0999 V2000
    0.1250   -3.4640    0.0000 O   0  0  0  0  0  0  0  0  0  0  0  0
    0.8750   -2.1650    0.0000 C   0  0  0  0  0  0  0  0  0  0  0  0
    0.1250   -0.8660    0.0000 C   0  0  0  0  0  0  0  0  0  0  0  0
    2.3750   -2.1650    0.0000 C   0  0  0  0  0  0  0  0  0  0  0  0
    3.1250   -0.8660    0.0000 C   0  0  0  0  0  0  0  0  0  0  0  0
    2.3750    0.4330    0.0000 O   0  0  0  0  0  0  0  0  0  0  0  0
    3.1250    1.7320    0.0000 C   0  0  0  0  0  0  0  0  0  0  0  0
    4.6250   -0.8660    0.0000 C   0  0  0  0  0  0  0  0  0  0  0  0
    5.3750   -2.1650    0.0000 C   0  0  0  0  0  0  0  0  0  0  0  0
    6.8750   -2.1650    0.0000 O   0  0  0  0  0  0  0  0  0  0  0  0
    4.6250   -3.4640    0.0000 C   0  0  0  0  0  0  0  0  0  0  0  0
    3.1250   -3.4640    0.0000 C   0  0  0  0  0  0  0  0  0  0  0  0
  1  2  2  0  0  0  0
  2  3  1  0  0  0  0
  2  4  1  0  0  0  0
  4  5  1  0  0  0  0
  4 12  2  0  0  0  0
  5  6  1  0  0  0  0
  5  8  2  0  0  0  0
  6  7  1  0  0  0  0
  8  9  1  0  0  0  0
  9 10  1  0  0  0  0
  9 11  2  0  0  0  0
 11 12  1  0  0  0  0
M  END
>  <name>
O=C([C;olefin])c1c(OC)cc(O)cc1

>  <apo>
1

>  <freq>
2

>  <freq0>
0

>  <freq1>
2

>  <freqA>
1.9933023

$$$$

  MOE2015           2D

 13 13  0  0  0  0  0  0  0  0999 V2000
   -0.0580   -3.2980    0.0000 O   0  0  0  0  0  0  0  0  0  0  0  0
    0.6920   -1.9990    0.0000 C   0  0  0  0  0  0  0  0  0  0  0  0
   -0.0580   -0.6990    0.0000 C   0  0  0  0  0  0  0  0  0  0  0  0
    2.1920   -1.9990    0.0000 C   0  0  0  0  0  0  0  0  0  0  0  0
    2.9420   -0.6990    0.0000 C   0  0  0  0  0  0  0  0  0  0  0  0
    2.1920    0.6000    0.0000 O   0  0  0  0  0  0  0  0  0  0  0  0
    2.9420    1.8990    0.0000 C   0  0  0  0  0  0  0  0  0  0  0  0
    4.4420   -0.6990    0.0000 C   0  0  0  0  0  0  0  0  0  0  0  0
    5.1920   -1.9990    0.0000 C   0  0  0  0  0  0  0  0  0  0  0  0
    6.6920   -1.9990    0.0000 O   0  0  0  0  0  0  0  0  0  0  0  0
    4.4420   -3.2980    0.0000 C   0  0  0  0  0  0  0  0  0  0  0  0
    2.9420   -3.2980    0.0000 C   0  0  0  0  0  0  0  0  0  0  0  0
    2.1920   -4.5970    0.0000 O   0  0  0  0  0  0  0  0  0  0  0  0
  1  2  2  0  0  0  0
  2  3  1  0  0  0  0
  2  4  1  0  0  0  0
  4  5  1  0  0  0  0
  4 12  2  0  0  0  0
  5  6  1  0  0  0  0
  5  8  2  0  0  0  0
  6  7  1  0  0  0  0
  8  9  1  0  0  0  0
  9 10  1  0  0  0  0
  9 11  2  0  0  0  0
 11 12  1  0  0  0  0
 12 13  1  0  0  0  0
M  END
>  <name>
O=C([C;olefin])c1c(OC)cc(O)cc1O

>  <apo>
1

>  <freq>
2

>  <freq0>
0

>  <freq1>
2

>  <freqA>
1.9933023

$$$$

  MOE2015           2D

 13 13  0  0  0  0  0  0  0  0999 V2000
    3.7490   -0.7510    0.0000 O   0  0  0  0  0  0  0  0  0  0  0  0
    3.7490    0.7490    0.0000 C   0  0  0  0  0  0  0  0  0  0  0  0
    5.0480    1.4990    0.0000 C   0  0  0  0  0  0  0  0  0  0  0  0
    6.3470    0.7490    0.0000 C   0  0  0  0  0  0  0  0  0  0  0  0
    2.4500    1.4990    0.0000 C   0  0  0  0  0  0  0  0  0  0  0  0
    1.1510    0.7490    0.0000 C   0  0  0  0  0  0  0  0  0  0  0  0
    1.1510   -0.7510    0.0000 O   0  0  0  0  0  0  0  0  0  0  0  0
   -0.1480    1.4990    0.0000 N   0  0  0  0  0  0  0  0  0  0  0  0
   -1.4470    0.7490    0.0000 C   0  0  0  0  0  0  0  0  0  0  0  0
   -0.1480    2.9990    0.0000 C   0  0  0  0  0  0  0  0  0  0  0  0
    1.1510    3.7490    0.0000 C   0  0  0  0  0  0  0  0  0  0  0  0
    2.4500    2.9990    0.0000 C   0  0  0  0  0  0  0  0  0  0  0  0
    3.7490    3.7490    0.0000 O   0  0  0  0  0  0  0  0  0  0  0  0
  1  2  2  0  0  0  0
  2  3  1  0  0  0  0
  2  5  1  0  0  0  0
  3  4  1  0  0  0  0
  5  6  1  0  0  0  0
  5 12  2  0  0  0  0
  6  7  2  0  0  0  0
  6  8  1  0  0  0  0
  8  9  1  0  0  0  0
  8 10  1  0  0  0  0
 10 11  2  0  0  0  0
 11 12  1  0  0  0  0
 12 13  1  0  0  0  0
M  END
>  <name>
O=C([C;olefin]C)C=1C(=O)N(C)C=CC=1O

>  <apo>
1

>  <freq>
2

>  <freq0>
0

>  <freq1>
2

>  <freqA>
1.9933023

$$$$

  MOE2015           2D

 26 28  0  0  0  0  0  0  0  0999 V2000
    6.1440   -2.5480    0.0000 O   0  0  0  0  0  0  0  0  0  0  0  0
    5.3940   -1.2490    0.0000 C   0  0  0  0  0  0  0  0  0  0  0  0
    3.8940   -1.2490    0.0000 C   0  0  0  0  0  0  0  0  0  0  0  0
    3.1440   -2.5480    0.0000 O   0  0  0  0  0  0  0  0  0  0  0  0
    3.1440    0.0500    0.0000 C   0  0  0  0  0  0  0  0  0  0  0  0
    1.6440    0.0500    0.0000 C   0  0  0  0  0  0  0  0  0  0  0  0
    0.8940   -1.2490    0.0000 C   0  0  0  0  0  0  0  0  0  0  0  0
   -0.6060   -1.2490    0.0000 C   0  0  0  0  0  0  0  0  0  0  0  0
   -1.3560   -2.5480    0.0000 O   0  0  0  0  0  0  0  0  0  0  0  0
   -1.3560    0.0500    0.0000 C   0  0  0  0  0  0  0  0  0  0  0  0
   -2.8560    0.0500    0.0000 O   0  0  0  0  0  0  0  0  0  0  0  0
   -0.6060    1.3490    0.0000 C   0  0  0  0  0  0  0  0  0  0  0  0
   -1.3560    2.6480    0.0000 C   0  0  0  0  0  0  0  0  0  0  0  0
   -0.6060    3.9470    0.0000 C   0  0  0  0  0  0  0  0  0  0  0  0
    0.8940    1.3490    0.0000 C   0  0  0  0  0  0  0  0  0  0  0  0
    3.8940    1.3490    0.0000 O   0  0  0  0  0  0  0  0  0  0  0  0
    5.3940    1.3490    0.0000 C   0  0  0  0  0  0  0  0  0  0  0  0
    6.1440    0.0500    0.0000 C   0  0  0  0  0  0  0  0  0  0  0  0
    7.6440    0.0500    0.0000 C   0  0  0  0  0  0  0  0  0  0  0  0
    8.3940   -1.2490    0.0000 O   0  0  0  0  0  0  0  0  0  0  0  0
    8.3940    1.3490    0.0000 C   0  0  0  0  0  0  0  0  0  0  0  0
    9.8940    1.3490    0.0000 C   0  0  0  0  0  0  0  0  0  0  0  0
   10.6440    2.6480    0.0000 C   0  0  0  0  0  0  0  0  0  0  0  0
    7.6440    2.6480    0.0000 C   0  0  0  0  0  0  0  0  0  0  0  0
    8.3940    3.9470    0.0000 O   0  0  0  0  0  0  0  0  0  0  0  0
    6.1440    2.6480    0.0000 C   0  0  0  0  0  0  0  0  0  0  0  0
  1  2  2  0  0  0  0
  2  3  1  0  0  0  0
  2 18  1  0  0  0  0
  3  4  1  0  0  0  0
  3  5  2  0  0  0  0
  5  6  1  0  0  0  0
  5 16  1  0  0  0  0
  6  7  1  0  0  0  0
  6 15  2  0  0  0  0
  7  8  2  0  0  0  0
  8  9  1  0  0  0  0
  8 10  1  0  0  0  0
 10 11  1  0  0  0  0
 10 12  2  0  0  0  0
 12 13  1  0  0  0  0
 12 15  1  0  0  0  0
 13 14  1  0  0  0  0
 16 17  1  0  0  0  0
 17 18  1  0  0  0  0
 17 26  2  0  0  0  0
 18 19  2  0  0  0  0
 19 20  1  0  0  0  0
 19 21  1  0  0  0  0
 21 22  1  0  0  0  0
 21 24  2  0  0  0  0
 22 23  1  0  0  0  0
 24 25  1  0  0  0  0
 24 26  1  0  0  0  0
M  END
>  <name>
O=C1C(O)=C(c2cc(O)c(O)c(C[C;olefin])c2)Oc2c1c(O)c(C[C;olefin])c(O)c2

>  <apo>
2

>  <freq>
2

>  <freq0>
0

>  <freq1>
2

>  <freqA>
1.9933023

$$$$

  MOE2015           2D

 25 27  0  0  0  0  0  0  0  0999 V2000
    2.4020    1.2580    0.0000 O   0  0  0  0  0  0  0  0  0  0  0  0
    2.4020   -0.2420    0.0000 C   0  0  0  0  0  0  0  0  0  0  0  0
    1.1030   -0.9920    0.0000 C   0  0  0  0  0  0  0  0  0  0  0  0
   -0.1960   -0.2420    0.0000 C   0  0  0  0  0  0  0  0  0  0  0  0
   -0.1960    1.2580    0.0000 C   0  0  0  0  0  0  0  0  0  0  0  0
   -1.4960    2.0080    0.0000 C   0  0  0  0  0  0  0  0  0  0  0  0
   -1.4960    3.5080    0.0000 O   0  0  0  0  0  0  0  0  0  0  0  0
   -2.7950    1.2580    0.0000 C   0  0  0  0  0  0  0  0  0  0  0  0
   -4.0940    2.0080    0.0000 O   0  0  0  0  0  0  0  0  0  0  0  0
   -2.7950   -0.2420    0.0000 C   0  0  0  0  0  0  0  0  0  0  0  0
   -4.0940   -0.9920    0.0000 C   0  0  0  0  0  0  0  0  0  0  0  0
   -4.0940   -2.4920    0.0000 C   0  0  0  0  0  0  0  0  0  0  0  0
   -1.4960   -0.9920    0.0000 C   0  0  0  0  0  0  0  0  0  0  0  0
    1.1030   -2.4920    0.0000 C   0  0  0  0  0  0  0  0  0  0  0  0
    2.4020   -3.2420    0.0000 O   0  0  0  0  0  0  0  0  0  0  0  0
    3.7010   -2.4920    0.0000 C   0  0  0  0  0  0  0  0  0  0  0  0
    3.7010   -0.9920    0.0000 C   0  0  0  0  0  0  0  0  0  0  0  0
    5.0000   -0.2420    0.0000 C   0  0  0  0  0  0  0  0  0  0  0  0
    5.0000    1.2580    0.0000 O   0  0  0  0  0  0  0  0  0  0  0  0
    6.2990   -0.9920    0.0000 C   0  0  0  0  0  0  0  0  0  0  0  0
    7.5980   -0.2420    0.0000 C   0  0  0  0  0  0  0  0  0  0  0  0
    8.8970   -0.9920    0.0000 C   0  0  0  0  0  0  0  0  0  0  0  0
    6.2990   -2.4920    0.0000 C   0  0  0  0  0  0  0  0  0  0  0  0
    7.5980   -3.2420    0.0000 O   0  0  0  0  0  0  0  0  0  0  0  0
    5.0000   -3.2420    0.0000 C   0  0  0  0  0  0  0  0  0  0  0  0
  1  2  2  0  0  0  0
  2  3  1  0  0  0  0
  2 17  1  0  0  0  0
  3  4  1  0  0  0  0
  3 14  2  0  0  0  0
  4  5  1  0  0  0  0
  4 13  2  0  0  0  0
  5  6  2  0  0  0  0
  6  7  1  0  0  0  0
  6  8  1  0  0  0  0
  8  9  1  0  0  0  0
  8 10  2  0  0  0  0
 10 11  1  0  0  0  0
 10 13  1  0  0  0  0
 11 12  1  0  0  0  0
 14 15  1  0  0  0  0
 15 16  1  0  0  0  0
 16 17  1  0  0  0  0
 16 25  2  0  0  0  0
 17 18  2  0  0  0  0
 18 19  1  0  0  0  0
 18 20  1  0  0  0  0
 20 21  1  0  0  0  0
 20 23  2  0  0  0  0
 21 22  1  0  0  0  0
 23 24  1  0  0  0  0
 23 25  1  0  0  0  0
M  END
>  <name>
O=C1C(c2cc(O)c(O)c(C[C;olefin])c2)=COc2c1c(O)c(C[C;olefin])c(O)c2

>  <apo>
2

>  <freq>
2

>  <freq0>
0

>  <freq1>
2

>  <freqA>
1.9933023

$$$$

  MOE2015           2D

 27 30  0  0  1  0  0  0  0  0999 V2000
    1.4700    5.2660    0.0000 O   0  0  0  0  0  0  0  0  0  0  0  0
    2.7530    4.4900    0.0000 C   0  0  0  0  0  0  0  0  0  0  0  0
    4.0670    5.2130    0.0000 N   0  0  0  0  0  0  0  0  0  0  0  0
    4.0980    6.7120    0.0000 C   0  0  0  0  0  0  0  0  0  0  0  0
    5.3510    4.4360    0.0000 C   0  0  0  0  0  0  0  0  0  0  0  0
    5.3190    2.9360    0.0000 C   0  0  0  0  0  0  0  0  0  0  0  0
    6.4130    1.9100    0.0000 C   0  0  1  0  0  0  0  0  0  0  0  0
    5.7750    0.5520    0.0000 C   0  0  2  0  0  0  0  0  0  0  0  0
    4.2870    0.7400    0.0000 O   0  0  0  0  0  0  0  0  0  0  0  0
    4.0050    2.2130    0.0000 C   0  0  0  0  0  0  0  0  0  0  0  0
    2.7220    2.9900    0.0000 C   0  0  0  0  0  0  0  0  0  0  0  0
    1.4080    2.2670    0.0000 C   0  0  2  0  0  0  0  0  0  0  0  0
    2.6910    1.4900    0.0000 C   0  0  0  0  0  0  0  0  0  0  0  0
    0.6310    0.9840    0.0000 O   0  0  0  0  0  0  0  0  0  0  0  0
   -0.8690    1.0150    0.0000 C   0  0  2  0  0  0  0  0  0  0  0  0
   -0.9000   -0.4850    0.0000 C   0  0  0  0  0  0  0  0  0  0  0  0
    0.3830   -1.2610    0.0000 C   0  0  0  0  0  0  0  0  0  0  0  0
   -2.1830    0.2920    0.0000 C   0  0  0  0  0  0  0  0  0  0  0  0
   -1.5920    2.3290    0.0000 C   0  0  2  0  0  0  0  0  0  0  0  0
   -3.0910    2.3600    0.0000 C   0  0  0  0  0  0  0  0  0  0  0  0
   -0.8150    3.6120    0.0000 C   0  0  0  0  0  0  0  0  0  0  0  0
    0.6850    3.5810    0.0000 C   0  0  0  0  0  0  0  0  0  0  0  0
    6.6310   -0.6790    0.0000 C   0  0  0  0  0  0  0  0  0  0  0  0
    8.1260   -0.5530    0.0000 C   0  0  0  0  0  0  0  0  0  0  0  0
    8.9820   -1.7850    0.0000 O   0  0  0  0  0  0  0  0  0  0  0  0
    8.7640    0.8040    0.0000 C   0  0  0  0  0  0  0  0  0  0  0  0
    7.9080    2.0350    0.0000 C   0  0  0  0  0  0  0  0  0  0  0  0
  1  2  2  0  0  0  0
  2  3  1  0  0  0  0
  2 11  1  0  0  0  0
  3  4  1  0  0  0  0
  3  5  1  0  0  0  0
  5  6  2  0  0  0  0
  7  6  1  6  0  0  0
  6 10  1  0  0  0  0
  7  8  1  0  0  0  0
  7 27  1  0  0  0  0
  8  9  1  1  0  0  0
  8 23  1  0  0  0  0
  9 10  1  0  0  0  0
 10 11  2  0  0  0  0
 12 11  1  6  0  0  0
 12 13  1  1  0  0  0
 12 14  1  0  0  0  0
 12 22  1  0  0  0  0
 14 15  1  0  0  0  0
 15 16  1  1  0  0  0
 15 18  1  6  0  0  0
 15 19  1  0  0  0  0
 16 17  1  0  0  0  0
 19 20  1  6  0  0  0
 19 21  1  0  0  0  0
 21 22  1  0  0  0  0
 23 24  1  0  0  0  0
 24 25  2  0  0  0  0
 24 26  1  0  0  0  0
 26 27  1  0  0  0  0
M  END
>  <name>
O=C1N(C)C=C2[C@H;ether]3[C@H](OC2=C1[C@]1(C)O[C@]([C;olefin]C)(C)[C@H](C)CC1)CC(=O)CC3

>  <apo>
2

>  <freq>
2

>  <freq0>
0

>  <freq1>
2

>  <freqA>
1.9933023

$$$$

  MOE2015           2D

  8  8  0  0  1  0  0  0  0  0999 V2000
    5.9810    0.0000    0.0000 O   0  0  0  0  0  0  0  0  0  0  0  0
    4.4810    0.0000    0.0000 C   0  0  0  0  0  0  0  0  0  0  0  0
    3.5990   -1.2140    0.0000 O   0  0  0  0  0  0  0  0  0  0  0  0
    2.1730   -0.7500    0.0000 C   0  0  3  0  0  0  0  0  0  0  0  0
    0.9590   -1.6320    0.0000 C   0  0  0  0  0  0  0  0  0  0  0  0
    2.1730    0.7500    0.0000 C   0  0  3  0  0  0  0  0  0  0  0  0
    0.9590    1.6320    0.0000 O   0  0  0  0  0  0  0  0  0  0  0  0
    3.5990    1.2140    0.0000 C   0  0  0  0  0  0  0  0  0  0  0  0
  1  2  2  0  0  0  0
  2  3  1  0  0  0  0
  2  8  1  0  0  0  0
  3  4  1  0  0  0  0
  4  5  1  0  0  0  0
  4  6  1  0  0  0  0
  6  7  1  0  0  0  0
  6  8  1  0  0  0  0
M  END
>  <name>
O=C1OC(C)C(O)[C;olefin]1

>  <apo>
1

>  <freq>
2

>  <freq0>
0

>  <freq1>
2

>  <freqA>
1.9933023

$$$$

  MOE2015           2D

 23 25  0  0  1  0  0  0  0  0999 V2000
    1.5980    2.7680    0.0000 O   0  0  0  0  0  0  0  0  0  0  0  0
    2.3480    1.4680    0.0000 C   0  0  0  0  0  0  0  0  0  0  0  0
    1.5980    0.1690    0.0000 C   0  0  0  0  0  0  0  0  0  0  0  0
    0.0980    0.1690    0.0000 C   0  0  0  0  0  0  0  0  0  0  0  0
   -0.6520    1.4680    0.0000 O   0  0  0  0  0  0  0  0  0  0  0  0
   -0.6520   -1.1300    0.0000 C   0  0  0  0  0  0  0  0  0  0  0  0
   -2.1520   -1.1300    0.0000 C   0  0  0  0  0  0  0  0  0  0  0  0
   -2.9020   -2.4290    0.0000 C   0  0  0  0  0  0  0  0  0  0  0  0
    0.0980   -2.4290    0.0000 C   0  0  0  0  0  0  0  0  0  0  0  0
   -0.6520   -3.7280    0.0000 O   0  0  0  0  0  0  0  0  0  0  0  0
    1.5980   -2.4290    0.0000 C   0  0  0  0  0  0  0  0  0  0  0  0
    2.3480   -1.1300    0.0000 C   0  0  0  0  0  0  0  0  0  0  0  0
    3.8480   -1.1300    0.0000 O   0  0  0  0  0  0  0  0  0  0  0  0
    4.5980    0.1690    0.0000 C   0  0  3  0  0  0  0  0  0  0  0  0
    6.0980    0.1690    0.0000 C   0  0  0  0  0  0  0  0  0  0  0  0
    6.8480    1.4680    0.0000 C   0  0  0  0  0  0  0  0  0  0  0  0
    8.3480    1.4680    0.0000 C   0  0  0  0  0  0  0  0  0  0  0  0
    9.0980    2.7680    0.0000 O   0  0  0  0  0  0  0  0  0  0  0  0
    9.0980    0.1690    0.0000 C   0  0  0  0  0  0  0  0  0  0  0  0
   10.5980    0.1690    0.0000 O   0  0  0  0  0  0  0  0  0  0  0  0
    8.3480   -1.1300    0.0000 C   0  0  0  0  0  0  0  0  0  0  0  0
    6.8480   -1.1300    0.0000 C   0  0  0  0  0  0  0  0  0  0  0  0
    3.8480    1.4680    0.0000 C   0  0  0  0  0  0  0  0  0  0  0  0
  1  2  2  0  0  0  0
  2  3  1  0  0  0  0
  2 23  1  0  0  0  0
  3  4  1  0  0  0  0
  3 12  2  0  0  0  0
  4  5  1  0  0  0  0
  4  6  2  0  0  0  0
  6  7  1  0  0  0  0
  6  9  1  0  0  0  0
  7  8  1  0  0  0  0
  9 10  1  0  0  0  0
  9 11  2  0  0  0  0
 11 12  1  0  0  0  0
 12 13  1  0  0  0  0
 13 14  1  0  0  0  0
 14 15  1  0  0  0  0
 14 23  1  0  0  0  0
 15 16  1  0  0  0  0
 15 22  2  0  0  0  0
 16 17  2  0  0  0  0
 17 18  1  0  0  0  0
 17 19  1  0  0  0  0
 19 20  1  0  0  0  0
 19 21  2  0  0  0  0
 21 22  1  0  0  0  0
M  END
>  <name>
O=C1c2c(O)c(C[C;olefin])c(O)cc2OC(c2cc(O)c(O)cc2)C1

>  <apo>
1

>  <freq>
2

>  <freq0>
0

>  <freq1>
2

>  <freqA>
1.9933023

$$$$

  MOE2015           2D

 20 22  0  0  0  0  0  0  0  0999 V2000
    1.8000    3.1180    0.0000 O   0  0  0  0  0  0  0  0  0  0  0  0
    2.5500    1.8190    0.0000 C   0  0  0  0  0  0  0  0  0  0  0  0
    1.8000    0.5200    0.0000 C   0  0  0  0  0  0  0  0  0  0  0  0
    0.3000    0.5200    0.0000 C   0  0  0  0  0  0  0  0  0  0  0  0
   -0.4500    1.8190    0.0000 O   0  0  0  0  0  0  0  0  0  0  0  0
   -0.4500   -0.7790    0.0000 C   0  0  0  0  0  0  0  0  0  0  0  0
   -1.9500   -0.7790    0.0000 O   0  0  0  0  0  0  0  0  0  0  0  0
    0.3000   -2.0780    0.0000 C   0  0  0  0  0  0  0  0  0  0  0  0
   -0.4500   -3.3770    0.0000 O   0  0  0  0  0  0  0  0  0  0  0  0
    1.8000   -2.0780    0.0000 C   0  0  0  0  0  0  0  0  0  0  0  0
    2.5500   -0.7790    0.0000 C   0  0  0  0  0  0  0  0  0  0  0  0
    4.0500   -0.7790    0.0000 O   0  0  0  0  0  0  0  0  0  0  0  0
    4.8000    0.5200    0.0000 C   0  0  0  0  0  0  0  0  0  0  0  0
    6.3000    0.5200    0.0000 C   0  0  0  0  0  0  0  0  0  0  0  0
    7.0500    1.8190    0.0000 C   0  0  0  0  0  0  0  0  0  0  0  0
    8.5500    1.8190    0.0000 C   0  0  0  0  0  0  0  0  0  0  0  0
    9.3000    0.5200    0.0000 C   0  0  0  0  0  0  0  0  0  0  0  0
    8.5500   -0.7790    0.0000 C   0  0  0  0  0  0  0  0  0  0  0  0
    7.0500   -0.7790    0.0000 C   0  0  0  0  0  0  0  0  0  0  0  0
    4.0500    1.8190    0.0000 C   0  0  0  0  0  0  0  0  0  0  0  0
  1  2  2  0  0  0  0
  2  3  1  0  0  0  0
  2 20  1  0  0  0  0
  3  4  1  0  0  0  0
  3 11  2  0  0  0  0
  4  5  1  0  0  0  0
  4  6  2  0  0  0  0
  6  7  1  0  0  0  0
  6  8  1  0  0  0  0
  8  9  1  0  0  0  0
  8 10  2  0  0  0  0
 10 11  1  0  0  0  0
 11 12  1  0  0  0  0
 12 13  1  0  0  0  0
 13 14  1  0  0  0  0
 13 20  2  0  0  0  0
 14 15  1  0  0  0  0
 14 19  2  0  0  0  0
 15 16  2  0  0  0  0
 16 17  1  0  0  0  0
 17 18  2  0  0  0  0
 18 19  1  0  0  0  0
M  END
>  <name>
O=C1c2c(O)c(O)c([O;ether])cc2OC(c2ccccc2)=C1

>  <apo>
1

>  <freq>
2

>  <freq0>
0

>  <freq1>
2

>  <freqA>
1.9933023

$$$$

  MOE2015           2D

 14 14  0  0  1  0  0  0  0  0999 V2000
    9.5360    0.0000    0.0000 O   0  0  0  0  0  0  0  0  0  0  0  0
    8.0360    0.0000    0.0000 C   0  0  0  0  0  0  0  0  0  0  0  0
    7.2860    1.2990    0.0000 N   0  0  0  0  0  0  0  0  0  0  0  0
    5.7860    1.2990    0.0000 C   0  0  3  0  0  0  0  0  0  0  0  0
    5.0360    2.5980    0.0000 C   0  0  3  0  0  0  0  0  0  0  0  0
    5.7860    3.8970    0.0000 O   0  0  0  0  0  0  0  0  0  0  0  0
    3.5360    2.5980    0.0000 C   0  0  3  0  0  0  0  0  0  0  0  0
    2.7860    3.8970    0.0000 O   0  0  0  0  0  0  0  0  0  0  0  0
    2.7860    1.2990    0.0000 C   0  0  3  0  0  0  0  0  0  0  0  0
    1.2860    1.2990    0.0000 C   0  0  0  0  0  0  0  0  0  0  0  0
    0.5360    0.0000    0.0000 O   0  0  0  0  0  0  0  0  0  0  0  0
    3.5360    0.0000    0.0000 O   0  0  0  0  0  0  0  0  0  0  0  0
    5.0360    0.0000    0.0000 C   0  0  3  0  0  0  0  0  0  0  0  0
    5.7860   -1.2990    0.0000 N   0  0  0  0  0  0  0  0  0  0  0  0
  1  2  2  0  0  0  0
  2  3  1  0  0  0  0
  3  4  1  0  0  0  0
  4  5  1  0  0  0  0
  4 13  1  0  0  0  0
  5  6  1  0  0  0  0
  5  7  1  0  0  0  0
  7  8  1  0  0  0  0
  7  9  1  0  0  0  0
  9 10  1  0  0  0  0
  9 12  1  0  0  0  0
 10 11  1  0  0  0  0
 12 13  1  0  0  0  0
 13 14  1  0  0  0  0
M  END
>  <name>
O=CNC1C(O)C(O)C(CO)OC1[N;amide]

>  <apo>
1

>  <freq>
2

>  <freq0>
0

>  <freq1>
2

>  <freqA>
1.9933023

$$$$

  MOE2015           2D

  3  2  0  0  0  0  0  0  0  0999 V2000
   -0.0490    0.1830    0.0000 O   0  0  0  0  0  0  0  0  0  0  0  0
    1.2500    0.9330    0.0000 C   0  0  0  0  0  0  0  0  0  0  0  0
    2.5490    0.1830    0.0000 C   0  0  0  0  0  0  0  0  0  0  0  0
  1  2  2  0  0  0  0
  2  3  1  0  0  0  0
M  END
>  <name>
O=[C;amide]C

>  <apo>
1

>  <freq>
2

>  <freq0>
0

>  <freq1>
2

>  <freqA>
1.9933023

$$$$

  MOE2015           2D

 11 11  0  0  1  0  0  0  0  0999 V2000
    6.5450    0.4720    0.0000 O   0  0  0  0  0  0  0  0  0  0  0  0
    5.7950    1.7710    0.0000 C   0  0  0  0  0  0  0  0  0  0  0  0
    4.2950    1.7710    0.0000 C   0  0  3  0  0  0  0  0  0  0  0  0
    3.5450    3.0700    0.0000 C   0  0  3  0  0  0  0  0  0  0  0  0
    4.2950    4.3690    0.0000 O   0  0  0  0  0  0  0  0  0  0  0  0
    2.0450    3.0700    0.0000 C   0  0  3  0  0  0  0  0  0  0  0  0
    1.2950    4.3690    0.0000 O   0  0  0  0  0  0  0  0  0  0  0  0
    1.2950    1.7710    0.0000 C   0  0  3  0  0  0  0  0  0  0  0  0
   -0.2050    1.7710    0.0000 O   0  0  0  0  0  0  0  0  0  0  0  0
    2.0450    0.4720    0.0000 C   0  0  0  0  0  0  0  0  0  0  0  0
    3.5450    0.4720    0.0000 O   0  0  0  0  0  0  0  0  0  0  0  0
  1  2  2  0  0  0  0
  2  3  1  0  0  0  0
  3  4  1  0  0  0  0
  3 11  1  0  0  0  0
  4  5  1  0  0  0  0
  4  6  1  0  0  0  0
  6  7  1  0  0  0  0
  6  8  1  0  0  0  0
  8  9  1  0  0  0  0
  8 10  1  0  0  0  0
 10 11  1  0  0  0  0
M  END
>  <name>
O=[C;amide]C1C(O)C(O)C(O)[C;ether]O1

>  <apo>
2

>  <freq>
2

>  <freq0>
0

>  <freq1>
2

>  <freqA>
1.9933023

$$$$

  MOE2015           2D

 10 10  0  0  1  0  0  0  0  0999 V2000
    6.5070    1.7440    0.0000 O   0  0  0  0  0  0  0  0  0  0  0  0
    5.2080    0.9940    0.0000 C   0  0  0  0  0  0  0  0  0  0  0  0
    3.9090    1.7440    0.0000 C   0  0  3  0  0  0  0  0  0  0  0  0
    2.6100    0.9940    0.0000 C   0  0  3  0  0  0  0  0  0  0  0  0
    2.6100   -0.5060    0.0000 O   0  0  0  0  0  0  0  0  0  0  0  0
    1.3110    1.7440    0.0000 C   0  0  3  0  0  0  0  0  0  0  0  0
    0.0120    0.9940    0.0000 O   0  0  0  0  0  0  0  0  0  0  0  0
    1.3110    3.2440    0.0000 C   0  0  0  0  0  0  0  0  0  0  0  0
    2.6100    3.9940    0.0000 C   0  0  0  0  0  0  0  0  0  0  0  0
    3.9090    3.2440    0.0000 O   0  0  0  0  0  0  0  0  0  0  0  0
  1  2  2  0  0  0  0
  2  3  1  0  0  0  0
  3  4  1  0  0  0  0
  3 10  1  0  0  0  0
  4  5  1  0  0  0  0
  4  6  1  0  0  0  0
  6  7  1  0  0  0  0
  6  8  1  0  0  0  0
  8  9  1  0  0  0  0
  9 10  1  0  0  0  0
M  END
>  <name>
O=[C;amide]C1C(O)C(O)[C;ether][C;ether]O1

>  <apo>
3

>  <freq>
2

>  <freq0>
0

>  <freq1>
2

>  <freqA>
1.9933023

$$$$

  MOE2015           2D

  4  3  0  0  0  0  0  0  0  0999 V2000
   -0.0740   -0.2750    0.0000 O   0  0  0  0  0  0  0  0  0  0  0  0
    1.2250   -1.0250    0.0000 C   0  0  0  0  0  0  0  0  0  0  0  0
    2.5250   -0.2750    0.0000 C   0  0  0  0  0  0  0  0  0  0  0  0
    3.8240   -1.0250    0.0000 C   0  0  0  0  0  0  0  0  0  0  0  0
  1  2  2  0  0  0  0
  2  3  1  0  0  0  0
  3  4  1  0  0  0  0
M  END
>  <name>
O=[C;amide][C;amine]C

>  <apo>
2

>  <freq>
2

>  <freq0>
0

>  <freq1>
2

>  <freqA>
1.9933023

$$$$

  MOE2015           2D

  8  7  0  0  1  0  0  0  0  0999 V2000
    6.3160   -1.8800    0.0000 O   0  0  0  0  0  0  0  0  0  0  0  0
    5.0170   -2.6300    0.0000 C   0  0  0  0  0  0  0  0  0  0  0  0
    3.7180   -1.8800    0.0000 C   0  0  1  0  0  0  0  0  0  0  0  0
    3.7180   -0.3800    0.0000 N   0  0  0  0  0  0  0  0  0  0  0  0
    2.4190   -2.6300    0.0000 C   0  0  0  0  0  0  0  0  0  0  0  0
    1.1200   -1.8800    0.0000 C   0  0  0  0  0  0  0  0  0  0  0  0
   -0.1790   -2.6300    0.0000 C   0  0  0  0  0  0  0  0  0  0  0  0
    1.1200   -0.3800    0.0000 C   0  0  0  0  0  0  0  0  0  0  0  0
  1  2  2  0  0  0  0
  2  3  1  0  0  0  0
  3  4  1  6  0  0  0
  3  5  1  0  0  0  0
  5  6  1  0  0  0  0
  6  7  1  0  0  0  0
  6  8  1  0  0  0  0
M  END
>  <name>
O=[C;amide][C@@H]([N;amide])CC(C)C

>  <apo>
2

>  <freq>
2

>  <freq0>
0

>  <freq1>
2

>  <freqA>
1.9933023

$$$$

  MOE2015           2D

 17 17  0  0  1  0  0  0  0  0999 V2000
    8.7110   -1.2340    0.0000 O   0  0  0  0  0  0  0  0  0  0  0  0
    7.4120   -1.9840    0.0000 C   0  0  0  0  0  0  0  0  0  0  0  0
    6.1130   -1.2340    0.0000 C   0  0  2  0  0  0  0  0  0  0  0  0
    6.1130    0.2660    0.0000 C   0  0  0  0  0  0  0  0  0  0  0  0
    7.4120    1.0160    0.0000 C   0  0  0  0  0  0  0  0  0  0  0  0
    4.8140   -1.9840    0.0000 C   0  0  2  0  0  0  0  0  0  0  0  0
    6.1130   -2.7340    0.0000 O   0  0  0  0  0  0  0  0  0  0  0  0
    4.0640   -3.2830    0.0000 C   0  0  2  0  0  0  0  0  0  0  0  0
    4.8140   -4.5830    0.0000 O   0  0  0  0  0  0  0  0  0  0  0  0
    2.5640   -3.2830    0.0000 C   0  0  2  0  0  0  0  0  0  0  0  0
    1.8140   -4.5830    0.0000 O   0  0  0  0  0  0  0  0  0  0  0  0
    1.8140   -1.9840    0.0000 C   0  0  0  0  0  0  0  0  0  0  0  0
    0.5150   -1.2340    0.0000 C   0  0  0  0  0  0  0  0  0  0  0  0
    0.5150   -2.7340    0.0000 C   0  0  0  0  0  0  0  0  0  0  0  0
    2.5640   -0.6850    0.0000 C   0  0  2  0  0  0  0  0  0  0  0  0
    1.8140    0.6140    0.0000 C   0  0  0  0  0  0  0  0  0  0  0  0
    4.0640   -0.6850    0.0000 O   0  0  0  0  0  0  0  0  0  0  0  0
  1  2  2  0  0  0  0
  3  2  1  1  0  0  0
  3  4  1  0  0  0  0
  6  3  1  6  0  0  0
  4  5  1  0  0  0  0
  6  7  1  1  0  0  0
  6  8  1  0  0  0  0
  6 17  1  0  0  0  0
  8  9  1  6  0  0  0
  8 10  1  0  0  0  0
 10 11  1  6  0  0  0
 10 12  1  0  0  0  0
 12 13  1  0  0  0  0
 12 14  1  0  0  0  0
 12 15  1  0  0  0  0
 15 16  1  6  0  0  0
 15 17  1  0  0  0  0
M  END
>  <name>
O=[C;amide][C@H](CC)[C@]1(O)[C@H](O)[C@H](O)C(C)(C)[C@H]([C;olefin])O1

>  <apo>
2

>  <freq>
2

>  <freq0>
0

>  <freq1>
2

>  <freqA>
1.9933023

$$$$

  MOE2015           2D

  7  7  0  0  1  0  0  0  0  0999 V2000
    4.9030   -0.6040    0.0000 O   0  0  0  0  0  0  0  0  0  0  0  0
    4.1530   -1.9030    0.0000 C   0  0  0  0  0  0  0  0  0  0  0  0
    2.6530   -1.9030    0.0000 C   0  0  1  0  0  0  0  0  0  0  0  0
    1.7710   -3.1160    0.0000 N   0  0  0  0  0  0  0  0  0  0  0  0
    0.3450   -2.6530    0.0000 C   0  0  0  0  0  0  0  0  0  0  0  0
    0.3450   -1.1530    0.0000 C   0  0  0  0  0  0  0  0  0  0  0  0
    1.7710   -0.6890    0.0000 C   0  0  0  0  0  0  0  0  0  0  0  0
  1  2  2  0  0  0  0
  3  2  1  1  0  0  0
  3  4  1  0  0  0  0
  3  7  1  0  0  0  0
  4  5  1  0  0  0  0
  5  6  1  0  0  0  0
  6  7  1  0  0  0  0
M  END
>  <name>
O=[C;amide][C@H]1[N;amide]CCC1

>  <apo>
2

>  <freq>
2

>  <freq0>
0

>  <freq1>
2

>  <freqA>
1.9933023

$$$$

  MOE2015           2D

 10 10  0  0  0  0  0  0  0  0999 V2000
    6.5070    1.7440    0.0000 O   0  0  0  0  0  0  0  0  0  0  0  0
    5.2080    0.9940    0.0000 C   0  0  0  0  0  0  0  0  0  0  0  0
    3.9090    1.7440    0.0000 C   0  0  0  0  0  0  0  0  0  0  0  0
    2.6100    0.9940    0.0000 C   0  0  0  0  0  0  0  0  0  0  0  0
    2.6100   -0.5060    0.0000 O   0  0  0  0  0  0  0  0  0  0  0  0
    1.3110    1.7440    0.0000 C   0  0  0  0  0  0  0  0  0  0  0  0
    0.0120    0.9940    0.0000 O   0  0  0  0  0  0  0  0  0  0  0  0
    1.3110    3.2440    0.0000 C   0  0  0  0  0  0  0  0  0  0  0  0
    2.6100    3.9940    0.0000 C   0  0  0  0  0  0  0  0  0  0  0  0
    3.9090    3.2440    0.0000 C   0  0  0  0  0  0  0  0  0  0  0  0
  1  2  2  0  0  0  0
  2  3  1  0  0  0  0
  3  4  1  0  0  0  0
  3 10  2  0  0  0  0
  4  5  1  0  0  0  0
  4  6  2  0  0  0  0
  6  7  1  0  0  0  0
  6  8  1  0  0  0  0
  8  9  2  0  0  0  0
  9 10  1  0  0  0  0
M  END
>  <name>
O=[C;amide]c1c(O)c(O)ccc1

>  <apo>
1

>  <freq>
2

>  <freq0>
0

>  <freq1>
2

>  <freqA>
1.9933023

$$$$

  MOE2015           2D

 10 10  0  0  0  0  0  0  0  0999 V2000
    6.7670   -1.8130    0.0000 O   0  0  0  0  0  0  0  0  0  0  0  0
    5.4680   -1.0630    0.0000 C   0  0  0  0  0  0  0  0  0  0  0  0
    4.1690   -1.8130    0.0000 C   0  0  0  0  0  0  0  0  0  0  0  0
    2.8700   -1.0630    0.0000 C   0  0  0  0  0  0  0  0  0  0  0  0
    1.5710   -1.8130    0.0000 C   0  0  0  0  0  0  0  0  0  0  0  0
    0.2720   -1.0630    0.0000 N   0  0  0  0  0  0  0  0  0  0  0  0
    1.5710   -3.3130    0.0000 C   0  0  0  0  0  0  0  0  0  0  0  0
    0.2720   -4.0630    0.0000 C   0  0  0  0  0  0  0  0  0  0  0  0
    2.8700   -4.0630    0.0000 C   0  0  0  0  0  0  0  0  0  0  0  0
    4.1690   -3.3130    0.0000 C   0  0  0  0  0  0  0  0  0  0  0  0
  1  2  2  0  0  0  0
  2  3  1  0  0  0  0
  3  4  1  0  0  0  0
  3 10  2  0  0  0  0
  4  5  2  0  0  0  0
  5  6  1  0  0  0  0
  5  7  1  0  0  0  0
  7  8  1  0  0  0  0
  7  9  2  0  0  0  0
  9 10  1  0  0  0  0
M  END
>  <name>
O=[C;amide]c1cc([N;amide])c(C)cc1

>  <apo>
2

>  <freq>
2

>  <freq0>
0

>  <freq1>
2

>  <freqA>
1.9933023

$$$$

  MOE2015           2D

  9  9  0  0  0  0  0  0  0  0999 V2000
    6.2970   -2.3540    0.0000 O   0  0  0  0  0  0  0  0  0  0  0  0
    4.9980   -3.1040    0.0000 C   0  0  0  0  0  0  0  0  0  0  0  0
    3.6990   -2.3540    0.0000 C   0  0  0  0  0  0  0  0  0  0  0  0
    2.4000   -3.1040    0.0000 C   0  0  0  0  0  0  0  0  0  0  0  0
    1.1010   -2.3540    0.0000 C   0  0  0  0  0  0  0  0  0  0  0  0
   -0.1980   -3.1040    0.0000 N   0  0  0  0  0  0  0  0  0  0  0  0
    1.1010   -0.8540    0.0000 C   0  0  0  0  0  0  0  0  0  0  0  0
    2.4000   -0.1040    0.0000 C   0  0  0  0  0  0  0  0  0  0  0  0
    3.6990   -0.8540    0.0000 C   0  0  0  0  0  0  0  0  0  0  0  0
  1  2  2  0  0  0  0
  2  3  1  0  0  0  0
  3  4  1  0  0  0  0
  3  9  2  0  0  0  0
  4  5  2  0  0  0  0
  5  6  1  0  0  0  0
  5  7  1  0  0  0  0
  7  8  2  0  0  0  0
  8  9  1  0  0  0  0
M  END
>  <name>
O=[C;amide]c1cc([N;urea])ccc1

>  <apo>
2

>  <freq>
2

>  <freq0>
0

>  <freq1>
2

>  <freqA>
1.9933023

$$$$

  MOE2015           2D

  9  8  0  0  1  0  0  0  0  0999 V2000
    0.9670    0.9670    0.0000 O   0  0  0  0  0  0  0  0  0  0  0  0
    0.9670   -0.5330    0.0000 C   0  0  3  0  0  0  0  0  0  0  0  0
   -0.3320   -1.2830    0.0000 C   0  0  0  0  0  0  0  0  0  0  0  0
   -1.6310   -0.5330    0.0000 C   0  0  0  0  0  0  0  0  0  0  0  0
   -0.3320   -2.7830    0.0000 C   0  0  0  0  0  0  0  0  0  0  0  0
    2.2660   -1.2830    0.0000 C   0  0  0  0  0  0  0  0  0  0  0  0
    3.5650   -0.5330    0.0000 C   0  0  0  0  0  0  0  0  0  0  0  0
    4.8640   -1.2830    0.0000 C   0  0  0  0  0  0  0  0  0  0  0  0
    6.1630   -0.5330    0.0000 C   0  0  0  0  0  0  0  0  0  0  0  0
  1  2  1  0  0  0  0
  2  3  1  0  0  0  0
  2  6  1  0  0  0  0
  3  4  2  0  0  0  0
  3  5  1  0  0  0  0
  6  7  1  0  0  0  0
  7  8  1  0  0  0  0
  8  9  1  0  0  0  0
M  END
>  <name>
OC(C(=C)C)CC[C;olefin]C

>  <apo>
1

>  <freq>
2

>  <freq0>
0

>  <freq1>
2

>  <freqA>
1.9933023

$$$$

  MOE2015           2D

  9  9  0  0  1  0  0  0  0  0999 V2000
    2.3330   -2.3330    0.0000 O   0  0  0  0  0  0  0  0  0  0  0  0
    2.3330   -0.8330    0.0000 C   0  0  0  0  0  0  0  0  0  0  0  0
    3.6320   -0.0830    0.0000 C   0  0  3  0  0  0  0  0  0  0  0  0
    4.9310   -0.8330    0.0000 O   0  0  0  0  0  0  0  0  0  0  0  0
    3.6320    1.4170    0.0000 C   0  0  0  0  0  0  0  0  0  0  0  0
    2.3330    2.1670    0.0000 O   0  0  0  0  0  0  0  0  0  0  0  0
    1.0340    1.4170    0.0000 C   0  0  0  0  0  0  0  0  0  0  0  0
    1.0340   -0.0830    0.0000 C   0  0  3  0  0  0  0  0  0  0  0  0
   -0.2650   -0.8330    0.0000 O   0  0  0  0  0  0  0  0  0  0  0  0
  1  2  1  0  0  0  0
  2  3  1  0  0  0  0
  2  8  1  0  0  0  0
  3  4  1  0  0  0  0
  3  5  1  0  0  0  0
  5  6  1  0  0  0  0
  6  7  1  0  0  0  0
  7  8  1  0  0  0  0
  8  9  1  0  0  0  0
M  END
>  <name>
OC1C(O)[C;ether]O[C;ether]C1O

>  <apo>
2

>  <freq>
2

>  <freq0>
0

>  <freq1>
2

>  <freqA>
1.9933023

$$$$

  MOE2015           2D

 23 26  0  0  1  0  0  0  0  0999 V2000
   13.4710    0.0420    0.0000 O   0  0  0  0  0  0  0  0  0  0  0  0
   11.9710    0.0330    0.0000 C   0  0  2  0  0  0  0  0  0  0  0  0
   11.2130    1.3270    0.0000 C   0  0  0  0  0  0  0  0  0  0  0  0
    9.7130    1.3180    0.0000 C   0  0  0  0  0  0  0  0  0  0  0  0
    8.9710    0.0140    0.0000 C   0  0  1  0  0  0  0  0  0  0  0  0
    8.1840   -1.2630    0.0000 C   0  0  0  0  0  0  0  0  0  0  0  0
    7.4710    0.0050    0.0000 C   0  0  2  0  0  0  0  0  0  0  0  0
    6.7130    1.2990    0.0000 C   0  0  2  0  0  0  0  0  0  0  0  0
    5.2130    1.2900    0.0000 C   0  0  1  0  0  0  0  0  0  0  0  0
    4.4710   -0.0140    0.0000 C   0  0  1  0  0  0  0  0  0  0  0  0
    3.5760   -1.2180    0.0000 C   0  0  0  0  0  0  0  0  0  0  0  0
    3.0020    0.2890    0.0000 C   0  0  1  0  0  0  0  0  0  0  0  0
    1.8930   -0.7220    0.0000 C   0  0  0  0  0  0  0  0  0  0  0  0
    2.2140   -2.1870    0.0000 C   0  0  0  0  0  0  0  0  0  0  0  0
    0.4640   -0.2680    0.0000 C   0  0  0  0  0  0  0  0  0  0  0  0
    2.8360    1.7790    0.0000 C   0  0  0  0  0  0  0  0  0  0  0  0
    4.2020    2.3980    0.0000 C   0  0  0  0  0  0  0  0  0  0  0  0
    5.2290   -1.3080    0.0000 C   0  0  0  0  0  0  0  0  0  0  0  0
    6.7290   -1.2990    0.0000 C   0  0  0  0  0  0  0  0  0  0  0  0
    7.4550    2.6030    0.0000 C   0  0  0  0  0  0  0  0  0  0  0  0
    8.9550    2.6120    0.0000 C   0  0  0  0  0  0  0  0  0  0  0  0
    9.7290   -1.2800    0.0000 C   0  0  0  0  0  0  0  0  0  0  0  0
   11.2290   -1.2710    0.0000 C   0  0  0  0  0  0  0  0  0  0  0  0
  2  1  1  1  0  0  0
  2  3  1  0  0  0  0
  2 23  1  0  0  0  0
  3  4  1  0  0  0  0
  4  5  1  0  0  0  0
  4 21  2  0  0  0  0
  5  6  1  1  0  0  0
  5  7  1  0  0  0  0
  5 22  1  0  0  0  0
  7  8  1  0  0  0  0
  7 19  1  1  0  0  0
  8  9  1  0  0  0  0
  8 20  1  6  0  0  0
  9 10  1  0  0  0  0
  9 17  1  1  0  0  0
 10 11  1  1  0  0  0
 10 12  1  0  0  0  0
 10 18  1  0  0  0  0
 12 13  1  1  0  0  0
 12 16  1  0  0  0  0
 13 14  1  0  0  0  0
 13 15  1  0  0  0  0
 16 17  1  0  0  0  0
 18 19  1  0  0  0  0
 20 21  1  0  0  0  0
 22 23  1  0  0  0  0
M  END
>  <name>
O[C@@H]1CC=2[C@@](C)([C@@H]3[C@H]([C@H]4[C@@](C)([C@@H](C(C)[C;olefin])CC4)CC3)CC=2)CC1

>  <apo>
1

>  <freq>
2

>  <freq0>
0

>  <freq1>
2

>  <freqA>
1.9933023

$$$$

  MOE2015           2D

  8  8  0  0  1  0  0  0  0  0999 V2000
    5.4110   -0.8000    0.0000 O   0  0  0  0  0  0  0  0  0  0  0  0
    4.1120   -0.0500    0.0000 C   0  0  2  0  0  0  0  0  0  0  0  0
    2.8120   -0.8000    0.0000 C   0  0  0  0  0  0  0  0  0  0  0  0
    1.5130   -0.0500    0.0000 C   0  0  1  0  0  0  0  0  0  0  0  0
    0.2140   -0.8000    0.0000 C   0  0  0  0  0  0  0  0  0  0  0  0
    1.5130    1.4500    0.0000 O   0  0  0  0  0  0  0  0  0  0  0  0
    2.8120    2.2000    0.0000 C   0  0  0  0  0  0  0  0  0  0  0  0
    4.1120    1.4500    0.0000 C   0  0  0  0  0  0  0  0  0  0  0  0
  2  1  1  6  0  0  0
  2  3  1  0  0  0  0
  2  8  1  0  0  0  0
  3  4  1  0  0  0  0
  4  5  1  1  0  0  0
  4  6  1  0  0  0  0
  6  7  1  0  0  0  0
  7  8  1  0  0  0  0
M  END
>  <name>
O[C@@H]1[C;ether][C@@H](C)O[C;ether]C1

>  <apo>
2

>  <freq>
2

>  <freq0>
0

>  <freq1>
2

>  <freqA>
1.9933023

$$$$

  MOE2015           2D

  8  8  0  0  1  0  0  0  0  0999 V2000
    0.4890   -1.1750    0.0000 O   0  0  0  0  0  0  0  0  0  0  0  0
    1.7880   -0.4250    0.0000 C   0  0  2  0  0  0  0  0  0  0  0  0
    1.7880    1.0750    0.0000 C   0  0  2  0  0  0  0  0  0  0  0  0
    0.4890    1.8250    0.0000 C   0  0  0  0  0  0  0  0  0  0  0  0
    3.0870    1.8250    0.0000 O   0  0  0  0  0  0  0  0  0  0  0  0
    4.3860    1.0750    0.0000 C   0  0  0  0  0  0  0  0  0  0  0  0
    4.3860   -0.4250    0.0000 C   0  0  0  0  0  0  0  0  0  0  0  0
    3.0870   -1.1750    0.0000 C   0  0  0  0  0  0  0  0  0  0  0  0
  2  1  1  6  0  0  0
  2  3  1  0  0  0  0
  2  8  1  0  0  0  0
  3  4  1  6  0  0  0
  3  5  1  0  0  0  0
  5  6  1  0  0  0  0
  6  7  1  0  0  0  0
  7  8  1  0  0  0  0
M  END
>  <name>
O[C@@H]1[C@H](C)O[C;ether]C[C;ether]1

>  <apo>
2

>  <freq>
2

>  <freq0>
0

>  <freq1>
2

>  <freqA>
1.9933023

$$$$

  MOE2015           2D

  9  9  0  0  1  0  0  0  0  0999 V2000
    0.0690   -0.2560    0.0000 O   0  0  0  0  0  0  0  0  0  0  0  0
    1.3680    0.4940    0.0000 C   0  0  1  0  0  0  0  0  0  0  0  0
    2.6670   -0.2560    0.0000 C   0  0  0  0  0  0  0  0  0  0  0  0
    2.6670   -1.7560    0.0000 O   0  0  0  0  0  0  0  0  0  0  0  0
    3.9660    0.4940    0.0000 C   0  0  2  0  0  0  0  0  0  0  0  0
    5.2650   -0.2560    0.0000 O   0  0  0  0  0  0  0  0  0  0  0  0
    3.9660    1.9940    0.0000 C   0  0  0  0  0  0  0  0  0  0  0  0
    2.6670    2.7440    0.0000 O   0  0  0  0  0  0  0  0  0  0  0  0
    1.3680    1.9940    0.0000 C   0  0  0  0  0  0  0  0  0  0  0  0
  2  1  1  6  0  0  0
  2  3  1  0  0  0  0
  2  9  1  0  0  0  0
  3  4  1  0  0  0  0
  3  5  1  0  0  0  0
  5  6  1  1  0  0  0
  5  7  1  0  0  0  0
  7  8  1  0  0  0  0
  8  9  1  0  0  0  0
M  END
>  <name>
O[C@H]1C(O)[C@H](O)CO[C;ether]1

>  <apo>
1

>  <freq>
2

>  <freq0>
0

>  <freq1>
2

>  <freqA>
1.9933023

$$$$

  MOE2015           2D

 13 13  0  0  1  0  0  0  0  0999 V2000
    0.7060    0.8720    0.0000 O   0  0  0  0  0  0  0  0  0  0  0  0
    1.0180   -0.5950    0.0000 C   0  0  1  0  0  0  0  0  0  0  0  0
    0.0140   -1.7100    0.0000 C   0  0  1  0  0  0  0  0  0  0  0  0
   -1.4770   -1.5530    0.0000 O   0  0  0  0  0  0  0  0  0  0  0  0
    0.7640   -3.0090    0.0000 C   0  0  1  0  0  0  0  0  0  0  0  0
    0.1540   -4.3790    0.0000 C   0  0  0  0  0  0  0  0  0  0  0  0
    2.2320   -2.6970    0.0000 O   0  0  0  0  0  0  0  0  0  0  0  0
    2.3880   -1.2050    0.0000 C   0  0  1  0  0  0  0  0  0  0  0  0
    3.6870   -0.4550    0.0000 C   0  0  1  0  0  0  0  0  0  0  0  0
    4.9860   -1.2050    0.0000 C   0  0  0  0  0  0  0  0  0  0  0  0
    6.2850   -0.4550    0.0000 C   0  0  0  0  0  0  0  0  0  0  0  0
    7.5850   -1.2050    0.0000 C   0  0  0  0  0  0  0  0  0  0  0  0
    3.6870    1.0450    0.0000 C   0  0  0  0  0  0  0  0  0  0  0  0
  2  1  1  6  0  0  0
  2  3  1  0  0  0  0
  2  8  1  0  0  0  0
  3  4  1  6  0  0  0
  3  5  1  0  0  0  0
  5  6  1  6  0  0  0
  5  7  1  0  0  0  0
  8  7  1  6  0  0  0
  8  9  1  0  0  0  0
  9 10  1  0  0  0  0
  9 13  1  6  0  0  0
 10 11  1  0  0  0  0
 11 12  1  0  0  0  0
M  END
>  <name>
O[C@H]1[C@@H](O)[C@@H]([C;olefin])O[C@H]1[C@@H]([C;ether][C;olefin]C)C

>  <apo>
3

>  <freq>
2

>  <freq0>
0

>  <freq1>
2

>  <freqA>
1.9933023

$$$$

  MOE2015           2D

 10 10  0  0  0  0  0  0  0  0999 V2000
    0.0000    0.0000    0.0000 O   0  0  0  0  0  0  0  0  0  0  0  0
    1.5000    0.0000    0.0000 C   0  0  0  0  0  0  0  0  0  0  0  0
    2.2500    1.2990    0.0000 C   0  0  0  0  0  0  0  0  0  0  0  0
    1.5000    2.5980    0.0000 O   0  0  0  0  0  0  0  0  0  0  0  0
    3.7500    1.2990    0.0000 C   0  0  0  0  0  0  0  0  0  0  0  0
    4.5000    0.0000    0.0000 C   0  0  0  0  0  0  0  0  0  0  0  0
    6.0000    0.0000    0.0000 C   0  0  0  0  0  0  0  0  0  0  0  0
    3.7500   -1.2990    0.0000 C   0  0  0  0  0  0  0  0  0  0  0  0
    2.2500   -1.2990    0.0000 C   0  0  0  0  0  0  0  0  0  0  0  0
    1.5000   -2.5980    0.0000 O   0  0  0  0  0  0  0  0  0  0  0  0
  1  2  1  0  0  0  0
  2  3  1  0  0  0  0
  2  9  2  0  0  0  0
  3  4  1  0  0  0  0
  3  5  2  0  0  0  0
  5  6  1  0  0  0  0
  6  7  1  0  0  0  0
  6  8  2  0  0  0  0
  8  9  1  0  0  0  0
  9 10  1  0  0  0  0
M  END
>  <name>
Oc1c(O)cc([C;olefin])cc1O

>  <apo>
1

>  <freq>
2

>  <freq0>
0

>  <freq1>
2

>  <freqA>
1.9933023

$$$$

  MOE2015           2D

 21 23  0  0  1  0  0  0  0  0999 V2000
    9.2140   -0.9900    0.0000 O   0  0  0  0  0  0  0  0  0  0  0  0
    8.4640   -2.2890    0.0000 C   0  0  0  0  0  0  0  0  0  0  0  0
    9.2140   -3.5880    0.0000 C   0  0  0  0  0  0  0  0  0  0  0  0
   10.7140   -3.5880    0.0000 O   0  0  0  0  0  0  0  0  0  0  0  0
    8.4640   -4.8870    0.0000 C   0  0  0  0  0  0  0  0  0  0  0  0
    6.9640   -4.8870    0.0000 C   0  0  0  0  0  0  0  0  0  0  0  0
    6.2140   -3.5880    0.0000 C   0  0  0  0  0  0  0  0  0  0  0  0
    4.7140   -3.5880    0.0000 C   0  0  3  0  0  0  0  0  0  0  0  0
    3.9640   -4.8870    0.0000 C   0  0  3  0  0  0  0  0  0  0  0  0
    4.7140   -6.1860    0.0000 O   0  0  0  0  0  0  0  0  0  0  0  0
    2.4640   -4.8870    0.0000 C   0  0  0  0  0  0  0  0  0  0  0  0
    1.7140   -3.5880    0.0000 C   0  0  0  0  0  0  0  0  0  0  0  0
    0.2140   -3.5880    0.0000 C   0  0  0  0  0  0  0  0  0  0  0  0
   -0.5360   -4.8870    0.0000 O   0  0  0  0  0  0  0  0  0  0  0  0
   -0.5360   -2.2890    0.0000 C   0  0  0  0  0  0  0  0  0  0  0  0
    0.2140   -0.9900    0.0000 C   0  0  0  0  0  0  0  0  0  0  0  0
   -0.5360    0.3090    0.0000 O   0  0  0  0  0  0  0  0  0  0  0  0
    1.7140   -0.9900    0.0000 C   0  0  0  0  0  0  0  0  0  0  0  0
    2.4640   -2.2890    0.0000 C   0  0  0  0  0  0  0  0  0  0  0  0
    3.9640   -2.2890    0.0000 O   0  0  0  0  0  0  0  0  0  0  0  0
    6.9640   -2.2890    0.0000 C   0  0  0  0  0  0  0  0  0  0  0  0
  1  2  1  0  0  0  0
  2  3  1  0  0  0  0
  2 21  2  0  0  0  0
  3  4  1  0  0  0  0
  3  5  2  0  0  0  0
  5  6  1  0  0  0  0
  6  7  2  0  0  0  0
  7  8  1  0  0  0  0
  7 21  1  0  0  0  0
  8  9  1  0  0  0  0
  8 20  1  0  0  0  0
  9 10  1  0  0  0  0
  9 11  1  0  0  0  0
 11 12  1  0  0  0  0
 12 13  1  0  0  0  0
 12 19  2  0  0  0  0
 13 14  1  0  0  0  0
 13 15  2  0  0  0  0
 15 16  1  0  0  0  0
 16 17  1  0  0  0  0
 16 18  2  0  0  0  0
 18 19  1  0  0  0  0
 19 20  1  0  0  0  0
M  END
>  <name>
Oc1c(O)ccc(C2C([O;ester])Cc3c(O)cc(O)cc3O2)c1

>  <apo>
1

>  <freq>
2

>  <freq0>
0

>  <freq1>
2

>  <freqA>
1.9933023

$$$$

  MOE2015           2D

 23 24  0  0  0  0  0  0  0  0999 V2000
   -3.6710    2.1200    0.0000 S   0  0  0  0  0  0  0  0  0  0  0  0
   -4.4210    3.4190    0.0000 O   0  0  0  0  0  0  0  0  0  0  0  0
   -2.9210    0.8210    0.0000 O   0  0  0  0  0  0  0  0  0  0  0  0
   -4.9700    1.3700    0.0000 O   0  0  0  0  0  0  0  0  0  0  0  0
   -2.3720    2.8700    0.0000 C   0  0  0  0  0  0  0  0  0  0  0  0
   -1.0730    2.1200    0.0000 C   0  0  0  0  0  0  0  0  0  0  0  0
   -1.0730    0.6200    0.0000 C   0  0  0  0  0  0  0  0  0  0  0  0
   -2.3720   -0.1300    0.0000 N   0  0  0  0  0  0  0  0  0  0  0  0
    0.2260   -0.1300    0.0000 C   0  0  0  0  0  0  0  0  0  0  0  0
    1.5250    0.6200    0.0000 C   0  0  0  0  0  0  0  0  0  0  0  0
    1.5250    2.1200    0.0000 C   0  0  0  0  0  0  0  0  0  0  0  0
    2.8240    2.8700    0.0000 S   0  0  0  0  0  0  0  0  0  0  0  0
    2.0740    4.1690    0.0000 O   0  0  0  0  0  0  0  0  0  0  0  0
    3.5740    1.5710    0.0000 O   0  0  0  0  0  0  0  0  0  0  0  0
    4.1230    3.6200    0.0000 O   0  0  0  0  0  0  0  0  0  0  0  0
    0.2260    2.8700    0.0000 C   0  0  0  0  0  0  0  0  0  0  0  0
    0.2260    4.3700    0.0000 C   0  0  0  0  0  0  0  0  0  0  0  0
   -1.0730    5.1200    0.0000 C   0  0  0  0  0  0  0  0  0  0  0  0
   -1.0730    6.6200    0.0000 S   0  0  0  0  0  0  0  0  0  0  0  0
    0.4270    6.6200    0.0000 O   0  0  0  0  0  0  0  0  0  0  0  0
   -2.5730    6.6200    0.0000 O   0  0  0  0  0  0  0  0  0  0  0  0
   -1.0730    8.1200    0.0000 O   0  0  0  0  0  0  0  0  0  0  0  0
   -2.3720    4.3700    0.0000 C   0  0  0  0  0  0  0  0  0  0  0  0
  1  2  2  0  0  0  0
  1  3  2  0  0  0  0
  1  4  1  0  0  0  0
  1  5  1  0  0  0  0
  5  6  1  0  0  0  0
  5 23  2  0  0  0  0
  6  7  1  0  0  0  0
  6 16  2  0  0  0  0
  7  8  1  0  0  0  0
  7  9  2  0  0  0  0
  9 10  1  0  0  0  0
 10 11  2  0  0  0  0
 11 12  1  0  0  0  0
 11 16  1  0  0  0  0
 12 13  2  0  0  0  0
 12 14  2  0  0  0  0
 12 15  1  0  0  0  0
 16 17  1  0  0  0  0
 17 18  2  0  0  0  0
 18 19  1  0  0  0  0
 18 23  1  0  0  0  0
 19 20  2  0  0  0  0
 19 21  2  0  0  0  0
 19 22  1  0  0  0  0
M  END
>  <name>
S(=O)(=O)(O)c1c2c([N;amide])ccc(S(=O)(=O)O)c2cc(S(=O)(=O)O)c1

>  <apo>
1

>  <freq>
2

>  <freq0>
0

>  <freq1>
2

>  <freqA>
1.9933023

$$$$

  MOE2015           2D

  7  7  0  0  0  0  0  0  0  0999 V2000
    5.1430    0.0000    0.0000 C   0  0  0  0  0  0  0  0  0  0  0  0
    3.6430    0.0000    0.0000 C   0  0  0  0  0  0  0  0  0  0  0  0
    2.8930    1.2990    0.0000 C   0  0  0  0  0  0  0  0  0  0  0  0
    1.3930    1.2990    0.0000 C   0  0  0  0  0  0  0  0  0  0  0  0
    0.6430    0.0000    0.0000 C   0  0  0  0  0  0  0  0  0  0  0  0
    1.3930   -1.2990    0.0000 C   0  0  0  0  0  0  0  0  0  0  0  0
    2.8930   -1.2990    0.0000 C   0  0  0  0  0  0  0  0  0  0  0  0
  1  2  1  0  0  0  0
  2  3  1  0  0  0  0
  2  7  2  0  0  0  0
  3  4  2  0  0  0  0
  4  5  1  0  0  0  0
  5  6  2  0  0  0  0
  6  7  1  0  0  0  0
M  END
>  <name>
[C;thioether]c1ccccc1

>  <apo>
1

>  <freq>
2

>  <freq0>
0

>  <freq1>
2

>  <freqA>
1.9933023

$$$$

  MOE2015           2D

  1  0  0  0  0  0  0  0  0  0999 V2000
    0.0000    0.0000    0.0000 N   0  0  0  0  0  0  0  0  0  0  0  0
M  END
>  <name>
[N;amine]

>  <apo>
1

>  <freq>
2

>  <freq0>
0

>  <freq1>
2

>  <freqA>
1.9933023

$$$$

  MOE2015           2D

  2  1  0  0  0  0  0  0  0  0999 V2000
    0.0000    0.0000    0.0000 N   0  0  0  0  0  0  0  0  0  0  0  0
    1.5000    0.0000    0.0000 C   0  0  0  0  0  0  0  0  0  0  0  0
  1  2  1  0  0  0  0
M  END
>  <name>
[N;amine]C

>  <apo>
1

>  <freq>
2

>  <freq0>
0

>  <freq1>
2

>  <freqA>
1.9933023

$$$$

  MOE2015           2D

  8  8  0  0  1  0  0  0  0  0999 V2000
    1.6410    2.1390    0.0000 O   0  0  0  0  0  0  0  0  0  0  0  0
    2.0300    0.6900    0.0000 C   0  0  0  0  0  0  0  0  0  0  0  0
    3.4300    0.1530    0.0000 C   0  0  3  0  0  0  0  0  0  0  0  0
    4.6880    0.9700    0.0000 O   0  0  0  0  0  0  0  0  0  0  0  0
    3.3510   -1.3450    0.0000 C   0  0  0  0  0  0  0  0  0  0  0  0
    1.9030   -1.7340    0.0000 C   0  0  0  0  0  0  0  0  0  0  0  0
    1.0860   -0.4760    0.0000 C   0  0  3  0  0  0  0  0  0  0  0  0
   -0.4120   -0.3970    0.0000 O   0  0  0  0  0  0  0  0  0  0  0  0
  1  2  1  0  0  0  0
  2  3  1  0  0  0  0
  2  7  1  0  0  0  0
  3  4  1  0  0  0  0
  3  5  1  0  0  0  0
  5  6  1  0  0  0  0
  6  7  1  0  0  0  0
  7  8  1  0  0  0  0
M  END
>  <name>
[O;ester]C1C([O;ester])CCC1O

>  <apo>
2

>  <freq>
2

>  <freq0>
0

>  <freq1>
2

>  <freqA>
1.9933023

$$$$

  MOE2015           2D

  3  2  0  0  0  0  0  0  0  0999 V2000
   -0.0490    0.1830    0.0000 O   0  0  0  0  0  0  0  0  0  0  0  0
    1.2500    0.9330    0.0000 C   0  0  0  0  0  0  0  0  0  0  0  0
    2.5490    0.1830    0.0000 C   0  0  0  0  0  0  0  0  0  0  0  0
  1  2  1  0  0  0  0
  2  3  1  0  0  0  0
M  END
>  <name>
[O;ester]CC

>  <apo>
1

>  <freq>
2

>  <freq0>
0

>  <freq1>
2

>  <freqA>
1.9933023

$$$$

  MOE2015           2D

  5  4  0  0  0  0  0  0  0  0999 V2000
    4.9980    0.7390    0.0000 O   0  0  0  0  0  0  0  0  0  0  0  0
    3.6990    1.4890    0.0000 C   0  0  0  0  0  0  0  0  0  0  0  0
    2.4000    0.7390    0.0000 C   0  0  0  0  0  0  0  0  0  0  0  0
    1.1010    1.4890    0.0000 C   0  0  0  0  0  0  0  0  0  0  0  0
   -0.1980    0.7390    0.0000 C   0  0  0  0  0  0  0  0  0  0  0  0
  1  2  1  0  0  0  0
  2  3  1  0  0  0  0
  3  4  1  0  0  0  0
  4  5  1  0  0  0  0
M  END
>  <name>
[O;ester]CCCC

>  <apo>
1

>  <freq>
2

>  <freq0>
0

>  <freq1>
2

>  <freqA>
1.9933023

$$$$

  MOE2015           2D

 11 11  0  0  1  0  0  0  0  0999 V2000
    6.5450    0.4720    0.0000 O   0  0  0  0  0  0  0  0  0  0  0  0
    5.7950    1.7710    0.0000 C   0  0  0  0  0  0  0  0  0  0  0  0
    4.2950    1.7710    0.0000 C   0  0  2  0  0  0  0  0  0  0  0  0
    3.5450    3.0700    0.0000 C   0  0  1  0  0  0  0  0  0  0  0  0
    4.2950    4.3690    0.0000 O   0  0  0  0  0  0  0  0  0  0  0  0
    2.0450    3.0700    0.0000 C   0  0  1  0  0  0  0  0  0  0  0  0
    1.2950    4.3690    0.0000 O   0  0  0  0  0  0  0  0  0  0  0  0
    1.2950    1.7710    0.0000 C   0  0  2  0  0  0  0  0  0  0  0  0
   -0.2050    1.7710    0.0000 O   0  0  0  0  0  0  0  0  0  0  0  0
    2.0450    0.4720    0.0000 C   0  0  0  0  0  0  0  0  0  0  0  0
    3.5450    0.4720    0.0000 O   0  0  0  0  0  0  0  0  0  0  0  0
  1  2  1  0  0  0  0
  3  2  1  1  0  0  0
  3  4  1  0  0  0  0
  3 11  1  0  0  0  0
  4  5  1  6  0  0  0
  4  6  1  0  0  0  0
  6  7  1  6  0  0  0
  6  8  1  0  0  0  0
  8  9  1  1  0  0  0
  8 10  1  0  0  0  0
 10 11  1  0  0  0  0
M  END
>  <name>
[O;ester]C[C@@H]1[C@@H](O)[C@@H](O)[C@H](O)[C;ether]O1

>  <apo>
2

>  <freq>
2

>  <freq0>
0

>  <freq1>
2

>  <freqA>
1.9933023

$$$$

  MOE2015           2D

  9  9  0  0  0  0  0  0  0  0999 V2000
    5.5000   -3.1750    0.0000 O   0  0  0  0  0  0  0  0  0  0  0  0
    4.7500   -1.8760    0.0000 C   0  0  0  0  0  0  0  0  0  0  0  0
    3.2500   -1.8760    0.0000 C   0  0  0  0  0  0  0  0  0  0  0  0
    2.5000   -0.5770    0.0000 C   0  0  0  0  0  0  0  0  0  0  0  0
    3.2500    0.7220    0.0000 O   0  0  0  0  0  0  0  0  0  0  0  0
    1.0000   -0.5770    0.0000 C   0  0  0  0  0  0  0  0  0  0  0  0
    0.2500   -1.8760    0.0000 C   0  0  0  0  0  0  0  0  0  0  0  0
    1.0000   -3.1750    0.0000 C   0  0  0  0  0  0  0  0  0  0  0  0
    2.5000   -3.1750    0.0000 C   0  0  0  0  0  0  0  0  0  0  0  0
  1  2  1  0  0  0  0
  2  3  1  0  0  0  0
  3  4  1  0  0  0  0
  3  9  2  0  0  0  0
  4  5  1  0  0  0  0
  4  6  2  0  0  0  0
  6  7  1  0  0  0  0
  7  8  2  0  0  0  0
  8  9  1  0  0  0  0
M  END
>  <name>
[O;ester]Cc1c([O;ether])cccc1

>  <apo>
2

>  <freq>
2

>  <freq0>
0

>  <freq1>
2

>  <freqA>
1.9933023

$$$$

  MOE2015           2D

 22 24  0  0  1  0  0  0  0  0999 V2000
    2.7610   -4.1920    0.0000 O   0  0  0  0  0  0  0  0  0  0  0  0
    2.0110   -2.8930    0.0000 C   0  0  1  0  0  0  0  0  0  0  0  0
    2.7610   -1.5940    0.0000 C   0  0  1  0  0  0  0  0  0  0  0  0
    4.2610   -1.5940    0.0000 C   0  0  0  0  0  0  0  0  0  0  0  0
    5.0110   -0.2950    0.0000 C   0  0  0  0  0  0  0  0  0  0  0  0
    6.5110   -0.2950    0.0000 C   0  0  0  0  0  0  0  0  0  0  0  0
    7.2610    1.0040    0.0000 O   0  0  0  0  0  0  0  0  0  0  0  0
    7.2610   -1.5940    0.0000 C   0  0  0  0  0  0  0  0  0  0  0  0
    8.7610   -1.5940    0.0000 O   0  0  0  0  0  0  0  0  0  0  0  0
    6.5110   -2.8930    0.0000 C   0  0  0  0  0  0  0  0  0  0  0  0
    7.2610   -4.1920    0.0000 O   0  0  0  0  0  0  0  0  0  0  0  0
    5.0110   -2.8930    0.0000 C   0  0  0  0  0  0  0  0  0  0  0  0
    2.0110   -0.2950    0.0000 O   0  0  0  0  0  0  0  0  0  0  0  0
    0.5110   -0.2950    0.0000 C   0  0  0  0  0  0  0  0  0  0  0  0
   -0.2390   -1.5940    0.0000 C   0  0  0  0  0  0  0  0  0  0  0  0
   -1.7390   -1.5940    0.0000 C   0  0  0  0  0  0  0  0  0  0  0  0
   -2.4890   -2.8930    0.0000 O   0  0  0  0  0  0  0  0  0  0  0  0
   -2.4890   -0.2950    0.0000 C   0  0  0  0  0  0  0  0  0  0  0  0
   -1.7390    1.0040    0.0000 C   0  0  0  0  0  0  0  0  0  0  0  0
   -2.4890    2.3030    0.0000 O   0  0  0  0  0  0  0  0  0  0  0  0
   -0.2390    1.0040    0.0000 C   0  0  0  0  0  0  0  0  0  0  0  0
    0.5110   -2.8930    0.0000 C   0  0  0  0  0  0  0  0  0  0  0  0
  2  1  1  6  0  0  0
  2  3  1  0  0  0  0
  2 22  1  0  0  0  0
  3  4  1  6  0  0  0
  3 13  1  0  0  0  0
  4  5  2  0  0  0  0
  4 12  1  0  0  0  0
  5  6  1  0  0  0  0
  6  7  1  0  0  0  0
  6  8  2  0  0  0  0
  8  9  1  0  0  0  0
  8 10  1  0  0  0  0
 10 11  1  0  0  0  0
 10 12  2  0  0  0  0
 13 14  1  0  0  0  0
 14 15  2  0  0  0  0
 14 21  1  0  0  0  0
 15 16  1  0  0  0  0
 15 22  1  0  0  0  0
 16 17  1  0  0  0  0
 16 18  2  0  0  0  0
 18 19  1  0  0  0  0
 19 20  1  0  0  0  0
 19 21  2  0  0  0  0
M  END
>  <name>
[O;ester][C@H]1[C@@H](c2cc(O)c(O)c(O)c2)Oc2c(c(O)cc(O)c2)C1

>  <apo>
1

>  <freq>
2

>  <freq0>
0

>  <freq1>
2

>  <freqA>
1.9933023

$$$$

  MOE2015           2D

 21 23  0  0  1  0  0  0  0  0999 V2000
    3.2140   -4.2060    0.0000 O   0  0  0  0  0  0  0  0  0  0  0  0
    2.4640   -2.9070    0.0000 C   0  0  1  0  0  0  0  0  0  0  0  0
    3.2140   -1.6080    0.0000 C   0  0  1  0  0  0  0  0  0  0  0  0
    4.7140   -1.6080    0.0000 C   0  0  0  0  0  0  0  0  0  0  0  0
    5.4640   -0.3090    0.0000 C   0  0  0  0  0  0  0  0  0  0  0  0
    6.9640   -0.3090    0.0000 C   0  0  0  0  0  0  0  0  0  0  0  0
    7.7140    0.9900    0.0000 O   0  0  0  0  0  0  0  0  0  0  0  0
    7.7140   -1.6080    0.0000 C   0  0  0  0  0  0  0  0  0  0  0  0
    9.2140   -1.6080    0.0000 O   0  0  0  0  0  0  0  0  0  0  0  0
    6.9640   -2.9070    0.0000 C   0  0  0  0  0  0  0  0  0  0  0  0
    5.4640   -2.9070    0.0000 C   0  0  0  0  0  0  0  0  0  0  0  0
    2.4640   -0.3090    0.0000 O   0  0  0  0  0  0  0  0  0  0  0  0
    0.9640   -0.3090    0.0000 C   0  0  0  0  0  0  0  0  0  0  0  0
    0.2140   -1.6080    0.0000 C   0  0  0  0  0  0  0  0  0  0  0  0
   -1.2860   -1.6080    0.0000 C   0  0  0  0  0  0  0  0  0  0  0  0
   -2.0360   -2.9070    0.0000 O   0  0  0  0  0  0  0  0  0  0  0  0
   -2.0360   -0.3090    0.0000 C   0  0  0  0  0  0  0  0  0  0  0  0
   -1.2860    0.9900    0.0000 C   0  0  0  0  0  0  0  0  0  0  0  0
   -2.0360    2.2890    0.0000 O   0  0  0  0  0  0  0  0  0  0  0  0
    0.2140    0.9900    0.0000 C   0  0  0  0  0  0  0  0  0  0  0  0
    0.9640   -2.9070    0.0000 C   0  0  0  0  0  0  0  0  0  0  0  0
  2  1  1  6  0  0  0
  2  3  1  0  0  0  0
  2 21  1  0  0  0  0
  3  4  1  6  0  0  0
  3 12  1  0  0  0  0
  4  5  1  0  0  0  0
  4 11  2  0  0  0  0
  5  6  2  0  0  0  0
  6  7  1  0  0  0  0
  6  8  1  0  0  0  0
  8  9  1  0  0  0  0
  8 10  2  0  0  0  0
 10 11  1  0  0  0  0
 12 13  1  0  0  0  0
 13 14  2  0  0  0  0
 13 20  1  0  0  0  0
 14 15  1  0  0  0  0
 14 21  1  0  0  0  0
 15 16  1  0  0  0  0
 15 17  2  0  0  0  0
 17 18  1  0  0  0  0
 18 19  1  0  0  0  0
 18 20  2  0  0  0  0
M  END
>  <name>
[O;ester][C@H]1[C@@H](c2cc(O)c(O)cc2)Oc2c(c(O)cc(O)c2)C1

>  <apo>
1

>  <freq>
2

>  <freq0>
0

>  <freq1>
2

>  <freqA>
1.9933023

$$$$

  MOE2015           2D

  4  3  0  0  0  0  0  0  0  0999 V2000
   -0.0740   -1.0250    0.0000 S   0  0  0  0  0  0  0  0  0  0  0  0
    1.2250   -0.2750    0.0000 C   0  0  0  0  0  0  0  0  0  0  0  0
    2.5250   -1.0250    0.0000 C   0  0  0  0  0  0  0  0  0  0  0  0
    3.8240   -0.2750    0.0000 C   0  0  0  0  0  0  0  0  0  0  0  0
  1  2  1  0  0  0  0
  2  3  1  0  0  0  0
  3  4  2  0  0  0  0
M  END
>  <name>
[S;disulfide]CC=C

>  <apo>
1

>  <freq>
2

>  <freq0>
0

>  <freq1>
2

>  <freqA>
1.9933023

$$$$

  MOE2015           2D

  4  3  0  0  0  0  0  0  0  0999 V2000
   -0.0740   -0.2750    0.0000 S   0  0  0  0  0  0  0  0  0  0  0  0
    1.2250   -1.0250    0.0000 C   0  0  0  0  0  0  0  0  0  0  0  0
    2.5250   -0.2750    0.0000 C   0  0  0  0  0  0  0  0  0  0  0  0
    3.8240   -1.0250    0.0000 C   0  0  0  0  0  0  0  0  0  0  0  0
  1  2  1  0  0  0  0
  2  3  1  0  0  0  0
  3  4  1  0  0  0  0
M  END
>  <name>
[S;disulfide]CCC

>  <apo>
1

>  <freq>
2

>  <freq0>
0

>  <freq1>
2

>  <freqA>
1.9933023

$$$$

  MOE2015           2D

 34 35  0  0  1  0  0  0  0  0999 V2000
    4.7830    4.7830    0.0000 Br  0  0  0  0  0  0  0  0  0  0  0  0
    4.7830    3.2830    0.0000 C   0  0  1  0  0  0  0  0  0  0  0  0
    6.0820    2.5330    0.0000 C   0  0  1  0  0  0  0  0  0  0  0  0
    6.8320    3.8320    0.0000 O   0  0  0  0  0  0  0  0  0  0  0  0
    7.3810    1.7830    0.0000 C   0  0  0  0  0  0  0  0  0  0  0  0
    8.6800    2.5330    0.0000 C   0  0  0  0  0  0  0  0  0  0  0  0
    9.9790    1.7830    0.0000 C   0  0  2  0  0  0  0  0  0  0  0  0
    9.9790    0.2830    0.0000 O   0  0  0  0  0  0  0  0  0  0  0  0
   11.2780    2.5330    0.0000 C   0  0  0  0  0  0  0  0  0  0  0  0
   10.5280    3.8320    0.0000 Br  0  0  0  0  0  0  0  0  0  0  0  0
   12.0280    1.2340    0.0000 C   0  0  0  0  0  0  0  0  0  0  0  0
   12.5770    3.2830    0.0000 C   0  0  0  0  0  0  0  0  0  0  0  0
    5.3320    1.2340    0.0000 C   0  0  0  0  0  0  0  0  0  0  0  0
    3.4840    2.5330    0.0000 C   0  0  0  0  0  0  0  0  0  0  0  0
    2.1850    3.2830    0.0000 C   0  0  0  0  0  0  0  0  0  0  0  0
    0.8860    2.5330    0.0000 C   0  0  2  0  0  0  0  0  0  0  0  0
    0.8860    4.0330    0.0000 C   0  0  0  0  0  0  0  0  0  0  0  0
    1.6360    1.2340    0.0000 C   0  0  1  0  0  0  0  0  0  0  0  0
    3.1360    1.2340    0.0000 Br  0  0  0  0  0  0  0  0  0  0  0  0
    0.8860   -0.0650    0.0000 C   0  0  0  0  0  0  0  0  0  0  0  0
   -0.6140   -0.0650    0.0000 C   0  0  0  0  0  0  0  0  0  0  0  0
   -1.3640    1.2340    0.0000 C   0  0  0  0  0  0  0  0  0  0  0  0
   -2.8640    1.2340    0.0000 C   0  0  0  0  0  0  0  0  0  0  0  0
   -0.6140    2.5330    0.0000 C   0  0  0  0  0  0  0  0  0  0  0  0
   -1.3640    3.8320    0.0000 C   0  0  0  0  0  0  0  0  0  0  0  0
   -2.8640    3.8320    0.0000 C   0  0  0  0  0  0  0  0  0  0  0  0
   -3.6140    5.1310    0.0000 C   0  0  0  0  0  0  0  0  0  0  0  0
   -2.8640    6.4300    0.0000 O   0  0  0  0  0  0  0  0  0  0  0  0
   -5.1140    5.1310    0.0000 C   0  0  0  0  0  0  0  0  0  0  0  0
   -5.8640    3.8320    0.0000 C   0  0  0  0  0  0  0  0  0  0  0  0
   -5.1140    2.5330    0.0000 C   0  0  0  0  0  0  0  0  0  0  0  0
   -5.8640    1.2340    0.0000 C   0  0  0  0  0  0  0  0  0  0  0  0
   -7.3640    1.2340    0.0000 O   0  0  0  0  0  0  0  0  0  0  0  0
   -3.6140    2.5330    0.0000 C   0  0  0  0  0  0  0  0  0  0  0  0
  2  1  1  1  0  0  0
  2  3  1  0  0  0  0
  2 14  1  0  0  0  0
  3  4  1  0  0  0  0
  3  5  1  1  0  0  0
  3 13  1  6  0  0  0
  5  6  1  0  0  0  0
  6  7  1  0  0  0  0
  7  8  1  1  0  0  0
  7  9  1  0  0  0  0
  9 10  1  0  0  0  0
  9 11  1  0  0  0  0
  9 12  1  0  0  0  0
 14 15  1  0  0  0  0
 16 15  1  6  0  0  0
 16 17  1  1  0  0  0
 16 18  1  0  0  0  0
 16 24  1  0  0  0  0
 18 19  1  1  0  0  0
 18 20  1  0  0  0  0
 20 21  1  0  0  0  0
 21 22  1  0  0  0  0
 22 23  1  0  0  0  0
 22 24  2  0  0  0  0
 24 25  1  0  0  0  0
 25 26  1  0  0  0  0
 26 27  2  0  0  0  0
 26 34  1  0  0  0  0
 27 28  1  0  0  0  0
 27 29  1  0  0  0  0
 29 30  2  0  0  0  0
 30 31  1  0  0  0  0
 31 32  1  0  0  0  0
 31 34  2  0  0  0  0
 32 33  2  0  0  0  0
M  END
>  <name>
Br[C@@H]([C@@](O)(CC[C@H]([O;ester])C(Br)(C)C)C)CC[C@]1(C)[C@@H](Br)CCC(C)=C1Cc1c(O)ccc([C;ester]=O)c1

>  <apo>
2

>  <freq>
1

>  <freq0>
0

>  <freq1>
1

>  <freqA>
0.9949851

$$$$

  MOE2015           2D

 15 15  0  0  1  0  0  0  0  0999 V2000
    0.3980   -1.4870    0.0000 C   0  0  0  0  0  0  0  0  0  0  0  0
    0.3980   -2.9870    0.0000 C   0  0  0  0  0  0  0  0  0  0  0  0
    1.6970   -0.7370    0.0000 C   0  0  0  0  0  0  0  0  0  0  0  0
    2.9960   -1.4870    0.0000 C   0  0  0  0  0  0  0  0  0  0  0  0
    4.2950   -0.7370    0.0000 C   0  0  0  0  0  0  0  0  0  0  0  0
   -0.9010   -0.7370    0.0000 C   0  0  2  0  0  0  0  0  0  0  0  0
   -2.3500   -1.1250    0.0000 C   0  0  1  0  0  0  0  0  0  0  0  0
   -3.1000   -2.4240    0.0000 C   0  0  0  0  0  0  0  0  0  0  0  0
   -4.6000   -2.4240    0.0000 C   0  0  0  0  0  0  0  0  0  0  0  0
   -5.3500   -3.7230    0.0000 C   0  0  0  0  0  0  0  0  0  0  0  0
   -6.8500   -3.7230    0.0000 C   0  0  0  0  0  0  0  0  0  0  0  0
   -2.7380    0.3240    0.0000 C   0  0  0  0  0  0  0  0  0  0  0  0
   -4.2350    0.2260    0.0000 C   0  0  0  0  0  0  0  0  0  0  0  0
   -3.4010    1.6690    0.0000 C   0  0  0  0  0  0  0  0  0  0  0  0
   -1.2890    0.7120    0.0000 C   0  0  0  0  0  0  0  0  0  0  0  0
  1  2  2  0  0  0  0
  1  3  1  0  0  0  0
  6  1  1  6  0  0  0
  3  4  1  0  0  0  0
  4  5  1  0  0  0  0
  6  7  1  0  0  0  0
  6 15  1  0  0  0  0
  7  8  1  1  0  0  0
  7 12  1  0  0  0  0
  8  9  1  0  0  0  0
  9 10  1  0  0  0  0
 10 11  1  0  0  0  0
 12 13  1  0  0  0  0
 12 14  1  0  0  0  0
 12 15  1  0  0  0  0
M  END
>  <name>
C(=C)(CC[C;olefin])[C@@H]1[C@@H](CC[C;olefin]C)C(C)(C)C1

>  <apo>
2

>  <freq>
1

>  <freq0>
0

>  <freq1>
1

>  <freqA>
0.9949851

$$$$

  MOE2015           2D

  6  5  0  0  0  0  0  0  0  0999 V2000
    0.0000    0.0000    0.0000 C   0  0  0  0  0  0  0  0  0  0  0  0
    1.5000    0.0000    0.0000 C   0  0  0  0  0  0  0  0  0  0  0  0
    2.2500   -1.2990    0.0000 C   0  0  0  0  0  0  0  0  0  0  0  0
    2.2500    1.2990    0.0000 C   0  0  0  0  0  0  0  0  0  0  0  0
   -0.7500    1.2990    0.0000 C   0  0  0  0  0  0  0  0  0  0  0  0
   -0.7500   -1.2990    0.0000 C   0  0  0  0  0  0  0  0  0  0  0  0
  1  2  1  0  0  0  0
  1  5  1  0  0  0  0
  1  6  1  0  0  0  0
  2  3  1  0  0  0  0
  2  4  1  0  0  0  0
M  END
>  <name>
C(C(C)C)([C;olefin])C

>  <apo>
1

>  <freq>
1

>  <freq0>
0

>  <freq1>
1

>  <freqA>
0.9949851

$$$$

  MOE2015           2D

  3  2  0  0  0  0  0  0  0  0999 V2000
    0.2500    0.0670    0.0000 C   0  0  0  0  0  0  0  0  0  0  0  0
    1.5490   -0.6830    0.0000 C   0  0  0  0  0  0  0  0  0  0  0  0
   -1.0490   -0.6830    0.0000 C   0  0  0  0  0  0  0  0  0  0  0  0
  1  2  1  0  0  0  0
  1  3  1  0  0  0  0
M  END
>  <name>
C(C)[C;thioether]

>  <apo>
1

>  <freq>
1

>  <freq0>
0

>  <freq1>
1

>  <freqA>
0.9949851

$$$$

  MOE2015           2D

  6  5  0  0  0  0  0  0  0  0999 V2000
    0.1000   -0.3750    0.0000 C   0  0  0  0  0  0  0  0  0  0  0  0
    1.4000    0.3750    0.0000 C   0  0  0  0  0  0  0  0  0  0  0  0
    2.6990   -0.3750    0.0000 C   0  0  0  0  0  0  0  0  0  0  0  0
    3.9980    0.3750    0.0000 C   0  0  0  0  0  0  0  0  0  0  0  0
   -1.1990    0.3750    0.0000 C   0  0  0  0  0  0  0  0  0  0  0  0
   -2.4980   -0.3750    0.0000 C   0  0  0  0  0  0  0  0  0  0  0  0
  1  2  1  0  0  0  0
  1  5  1  0  0  0  0
  2  3  1  0  0  0  0
  3  4  1  0  0  0  0
  5  6  1  0  0  0  0
M  END
>  <name>
C(CCC)C[C;olefin]

>  <apo>
1

>  <freq>
1

>  <freq0>
0

>  <freq1>
1

>  <freqA>
0.9949851

$$$$

  MOE2015           2D

  7  6  0  0  0  0  0  0  0  0999 V2000
    0.2140    0.0570    0.0000 C   0  0  0  0  0  0  0  0  0  0  0  0
   -1.0850   -0.6930    0.0000 C   0  0  0  0  0  0  0  0  0  0  0  0
   -2.3840    0.0570    0.0000 C   0  0  0  0  0  0  0  0  0  0  0  0
   -3.6830   -0.6930    0.0000 C   0  0  0  0  0  0  0  0  0  0  0  0
    1.5130   -0.6930    0.0000 C   0  0  0  0  0  0  0  0  0  0  0  0
    2.8120    0.0570    0.0000 C   0  0  0  0  0  0  0  0  0  0  0  0
    4.1110   -0.6930    0.0000 C   0  0  0  0  0  0  0  0  0  0  0  0
  1  2  1  0  0  0  0
  1  5  1  0  0  0  0
  2  3  1  0  0  0  0
  3  4  1  0  0  0  0
  5  6  1  0  0  0  0
  6  7  1  0  0  0  0
M  END
>  <name>
C(CC[C;olefin])CCC

>  <apo>
1

>  <freq>
1

>  <freq0>
0

>  <freq1>
1

>  <freqA>
0.9949851

$$$$

  MOE2015           2D

  5  4  0  0  0  0  0  0  0  0999 V2000
    0.1500   -0.0400    0.0000 C   0  0  0  0  0  0  0  0  0  0  0  0
    1.4490    0.7100    0.0000 C   0  0  0  0  0  0  0  0  0  0  0  0
    2.7480   -0.0400    0.0000 C   0  0  0  0  0  0  0  0  0  0  0  0
   -1.1490    0.7100    0.0000 C   0  0  0  0  0  0  0  0  0  0  0  0
   -2.4480   -0.0400    0.0000 C   0  0  0  0  0  0  0  0  0  0  0  0
  1  2  1  0  0  0  0
  1  4  1  0  0  0  0
  2  3  1  0  0  0  0
  4  5  1  0  0  0  0
M  END
>  <name>
C(C[C;ether])[C;olefin]C

>  <apo>
2

>  <freq>
1

>  <freq0>
0

>  <freq1>
1

>  <freqA>
0.9949851

$$$$

  MOE2015           2D

  5  4  0  0  0  0  0  0  0  0999 V2000
   -0.0700   -0.2600    0.0000 C   0  0  0  0  0  0  0  0  0  0  0  0
    1.2290   -1.0100    0.0000 C   0  0  0  0  0  0  0  0  0  0  0  0
    2.5280   -0.2600    0.0000 C   0  0  0  0  0  0  0  0  0  0  0  0
   -0.0700    1.2400    0.0000 C   0  0  0  0  0  0  0  0  0  0  0  0
   -1.3690   -1.0100    0.0000 C   0  0  0  0  0  0  0  0  0  0  0  0
  1  2  1  0  0  0  0
  1  4  1  0  0  0  0
  1  5  1  0  0  0  0
  2  3  1  0  0  0  0
M  END
>  <name>
C(C[C;olefin])(C)C

>  <apo>
1

>  <freq>
1

>  <freq0>
0

>  <freq1>
1

>  <freqA>
0.9949851

$$$$

  MOE2015           2D

 12 13  0  0  1  0  0  0  0  0999 V2000
    5.7190   -1.8740    0.0000 C   0  0  0  0  0  0  0  0  0  0  0  0
    4.5100   -0.9860    0.0000 C   0  0  0  0  0  0  0  0  0  0  0  0
    3.1370   -1.5900    0.0000 C   0  0  1  0  0  0  0  0  0  0  0  0
    3.9550   -2.8470    0.0000 C   0  0  0  0  0  0  0  0  0  0  0  0
    1.8820   -1.6350    0.0000 C   0  0  0  0  0  0  0  0  0  0  0  0
    1.5970   -3.1080    0.0000 C   0  0  0  0  0  0  0  0  0  0  0  0
    0.6900   -1.1040    0.0000 C   0  0  2  0  0  0  0  0  0  0  0  0
   -0.3390   -2.0270    0.0000 C   0  0  0  0  0  0  0  0  0  0  0  0
    1.9160   -0.8210    0.0000 C   0  0  1  0  0  0  0  0  0  0  0  0
    1.8260    0.5450    0.0000 C   0  0  0  0  0  0  0  0  0  0  0  0
    0.6750    0.4310    0.0000 C   0  0  0  0  0  0  0  0  0  0  0  0
    7.0920   -1.2710    0.0000 C   0  0  0  0  0  0  0  0  0  0  0  0
  1  2  1  0  0  0  0
  1 12  1  0  0  0  0
  3  2  1  1  0  0  0
  3  4  1  6  0  0  0
  3  5  1  0  0  0  0
  3  9  1  0  0  0  0
  5  6  2  0  0  0  0
  5  7  1  0  0  0  0
  7  8  1  0  0  0  0
  7 11  1  6  0  0  0
  8  9  1  0  0  0  0
  9 10  1  1  0  0  0
 10 11  1  0  0  0  0
M  END
>  <name>
C(C[C@@]1(C)C(=C)[C@@H]2C[C@H]1CC2)[C;olefin]

>  <apo>
1

>  <freq>
1

>  <freq0>
0

>  <freq1>
1

>  <freqA>
0.9949851

$$$$

  MOE2015           2D

 12 14  0  0  1  0  0  0  0  0999 V2000
    4.9140    1.2330    0.0000 C   0  0  0  0  0  0  0  0  0  0  0  0
    3.6590    2.0560    0.0000 C   0  0  0  0  0  0  0  0  0  0  0  0
    2.3200    1.3810    0.0000 C   0  0  2  0  0  0  0  0  0  0  0  0
    3.4230    0.3640    0.0000 C   0  0  0  0  0  0  0  0  0  0  0  0
    1.6080    2.2040    0.0000 C   0  0  0  0  0  0  0  0  0  0  0  0
    1.9440    3.6660    0.0000 C   0  0  0  0  0  0  0  0  0  0  0  0
    0.5280    0.1690    0.0000 C   0  0  1  0  0  0  0  0  0  0  0  0
    0.5830    1.7170    0.0000 C   0  0  2  0  0  0  0  0  0  0  0  0
   -0.5950    1.6440    0.0000 C   0  0  0  0  0  0  0  0  0  0  0  0
    1.3420    0.7520    0.0000 C   0  0  0  0  0  0  0  0  0  0  0  0
    1.2940   -0.8900    0.0000 C   0  0  0  0  0  0  0  0  0  0  0  0
    6.2530    1.9080    0.0000 C   0  0  0  0  0  0  0  0  0  0  0  0
  1  2  1  0  0  0  0
  1 12  1  0  0  0  0
  3  2  1  1  0  0  0
  3  4  1  6  0  0  0
  3  5  1  0  0  0  0
  3 10  1  0  0  0  0
  5  6  1  0  0  0  0
  5  7  1  0  0  0  0
  5  8  1  0  0  0  0
  7  8  1  0  0  0  0
  7 11  1  6  0  0  0
  8  9  1  6  0  0  0
  9 10  1  0  0  0  0
 10 11  1  0  0  0  0
M  END
>  <name>
C(C[C@]1(C)C2(C)[C@H]3[C@@H]2CC1C3)[C;olefin]

>  <apo>
1

>  <freq>
1

>  <freq0>
0

>  <freq1>
1

>  <freqA>
0.9949851

$$$$

  MOE2015           2D

  4  3  0  0  0  0  0  0  0  0999 V2000
    0.0000    0.0000    0.0000 C   0  0  0  0  0  0  0  0  0  0  0  0
   -1.2990   -0.7500    0.0000 C   0  0  0  0  0  0  0  0  0  0  0  0
    0.0000    1.5000    0.0000 C   0  0  0  0  0  0  0  0  0  0  0  0
    1.2990   -0.7500    0.0000 C   0  0  0  0  0  0  0  0  0  0  0  0
  1  2  1  0  0  0  0
  1  3  1  0  0  0  0
  1  4  1  0  0  0  0
M  END
>  <name>
C([C;ether])(C)C

>  <apo>
1

>  <freq>
1

>  <freq0>
0

>  <freq1>
1

>  <freqA>
0.9949851

$$$$

  MOE2015           2D

  6  5  0  0  0  0  0  0  0  0999 V2000
   -0.0830   -0.3080    0.0000 C   0  0  0  0  0  0  0  0  0  0  0  0
    1.2170   -1.0580    0.0000 C   0  0  0  0  0  0  0  0  0  0  0  0
    2.5160   -0.3080    0.0000 C   0  0  0  0  0  0  0  0  0  0  0  0
    3.8150   -1.0580    0.0000 C   0  0  0  0  0  0  0  0  0  0  0  0
   -1.3820   -1.0580    0.0000 C   0  0  0  0  0  0  0  0  0  0  0  0
   -0.0830    1.1920    0.0000 C   0  0  0  0  0  0  0  0  0  0  0  0
  1  2  1  0  0  0  0
  1  5  1  0  0  0  0
  1  6  1  0  0  0  0
  2  3  1  0  0  0  0
  3  4  1  0  0  0  0
M  END
>  <name>
C([C;ether][C;olefin]C)([C;olefin])C

>  <apo>
3

>  <freq>
1

>  <freq0>
0

>  <freq1>
1

>  <freqA>
0.9949851

$$$$

  MOE2015           2D

 13 13  0  0  0  0  0  0  0  0999 V2000
    0.2640   -1.1610    0.0000 C   0  0  0  0  0  0  0  0  0  0  0  0
    1.5630   -1.9110    0.0000 C   0  0  0  0  0  0  0  0  0  0  0  0
    2.8620   -1.1610    0.0000 C   0  0  0  0  0  0  0  0  0  0  0  0
   -1.0350   -1.9110    0.0000 C   0  0  0  0  0  0  0  0  0  0  0  0
   -2.3340   -1.1610    0.0000 C   0  0  0  0  0  0  0  0  0  0  0  0
   -3.6340   -1.9110    0.0000 C   0  0  0  0  0  0  0  0  0  0  0  0
   -4.3840   -3.2100    0.0000 C   0  0  0  0  0  0  0  0  0  0  0  0
   -2.8840   -3.2100    0.0000 C   0  0  0  0  0  0  0  0  0  0  0  0
   -4.9330   -1.1610    0.0000 C   0  0  0  0  0  0  0  0  0  0  0  0
   -4.9330    0.3390    0.0000 C   0  0  0  0  0  0  0  0  0  0  0  0
   -3.6340    1.0890    0.0000 C   0  0  0  0  0  0  0  0  0  0  0  0
   -2.3340    0.3390    0.0000 C   0  0  0  0  0  0  0  0  0  0  0  0
   -1.0350    1.0890    0.0000 C   0  0  0  0  0  0  0  0  0  0  0  0
  1  2  1  0  0  0  0
  1  4  1  0  0  0  0
  2  3  1  0  0  0  0
  4  5  1  0  0  0  0
  5  6  1  0  0  0  0
  5 12  2  0  0  0  0
  6  7  1  0  0  0  0
  6  8  1  0  0  0  0
  6  9  1  0  0  0  0
  9 10  1  0  0  0  0
 10 11  1  0  0  0  0
 11 12  1  0  0  0  0
 12 13  1  0  0  0  0
M  END
>  <name>
C([C;olefin]C)CC=1C(C)(C)CCCC=1C

>  <apo>
1

>  <freq>
1

>  <freq0>
0

>  <freq1>
1

>  <freqA>
0.9949851

$$$$

  MOE2015           2D

  3  2  0  0  0  0  0  0  0  0999 V2000
    0.2500    0.0670    0.0000 C   0  0  0  0  0  0  0  0  0  0  0  0
    1.5490   -0.6830    0.0000 C   0  0  0  0  0  0  0  0  0  0  0  0
   -1.0490   -0.6830    0.0000 C   0  0  0  0  0  0  0  0  0  0  0  0
  1  2  1  0  0  0  0
  1  3  1  0  0  0  0
M  END
>  <name>
C([C;thioether])C

>  <apo>
1

>  <freq>
1

>  <freq0>
0

>  <freq1>
1

>  <freqA>
0.9949851

$$$$

  MOE2015           2D

  7  7  0  0  0  0  0  0  0  0999 V2000
    5.1430    0.0000    0.0000 C   0  0  0  0  0  0  0  0  0  0  0  0
    3.6430    0.0000    0.0000 C   0  0  0  0  0  0  0  0  0  0  0  0
    2.8930    1.2990    0.0000 C   0  0  0  0  0  0  0  0  0  0  0  0
    1.3930    1.2990    0.0000 C   0  0  0  0  0  0  0  0  0  0  0  0
    0.6430    0.0000    0.0000 C   0  0  0  0  0  0  0  0  0  0  0  0
    1.3930   -1.2990    0.0000 C   0  0  0  0  0  0  0  0  0  0  0  0
    2.8930   -1.2990    0.0000 C   0  0  0  0  0  0  0  0  0  0  0  0
  1  2  1  0  0  0  0
  2  3  2  0  0  0  0
  2  7  1  0  0  0  0
  3  4  1  0  0  0  0
  4  5  1  0  0  0  0
  5  6  1  0  0  0  0
  6  7  1  0  0  0  0
M  END
>  <name>
CC1=CC[C;olefin]CC1

>  <apo>
1

>  <freq>
1

>  <freq0>
0

>  <freq1>
1

>  <freqA>
0.9949851

$$$$

  MOE2015           2D

 14 16  0  0  0  0  0  0  0  0999 V2000
   -0.1750   -3.6840    0.0000 C   0  0  0  0  0  0  0  0  0  0  0  0
    0.6360   -2.4220    0.0000 C   0  0  0  0  0  0  0  0  0  0  0  0
   -0.0510   -1.0890    0.0000 N   0  0  0  0  0  0  0  0  0  0  0  0
    0.7600    0.1730    0.0000 C   0  0  0  0  0  0  0  0  0  0  0  0
    2.2580    0.1010    0.0000 C   0  0  0  0  0  0  0  0  0  0  0  0
    2.9460   -1.2320    0.0000 C   0  0  0  0  0  0  0  0  0  0  0  0
    2.1340   -2.4940    0.0000 C   0  0  0  0  0  0  0  0  0  0  0  0
    3.0840   -3.6550    0.0000 N   0  0  0  0  0  0  0  0  0  0  0  0
    4.4820   -3.1110    0.0000 C   0  0  0  0  0  0  0  0  0  0  0  0
    4.3960   -1.6130    0.0000 C   0  0  0  0  0  0  0  0  0  0  0  0
    5.6500   -0.7910    0.0000 C   0  0  0  0  0  0  0  0  0  0  0  0
    6.9900   -1.4650    0.0000 C   0  0  0  0  0  0  0  0  0  0  0  0
    7.0760   -2.9630    0.0000 C   0  0  0  0  0  0  0  0  0  0  0  0
    5.8210   -3.7860    0.0000 C   0  0  0  0  0  0  0  0  0  0  0  0
  1  2  1  0  0  0  0
  2  3  2  0  0  0  0
  2  7  1  0  0  0  0
  3  4  1  0  0  0  0
  4  5  1  0  0  0  0
  5  6  1  0  0  0  0
  6  7  2  0  0  0  0
  6 10  1  0  0  0  0
  7  8  1  0  0  0  0
  8  9  2  0  0  0  0
  9 10  1  0  0  0  0
  9 14  1  0  0  0  0
 10 11  2  0  0  0  0
 11 12  1  0  0  0  0
 12 13  1  0  0  0  0
 13 14  2  0  0  0  0
M  END
>  <name>
CC1=NCCC2=C1N=C1C2=C[C;ether]C=C1

>  <apo>
1

>  <freq>
1

>  <freq0>
0

>  <freq1>
1

>  <freqA>
0.9949851

$$$$

  MOE2015           2D

  7  7  0  0  1  0  0  0  0  0999 V2000
    5.1430    0.0000    0.0000 C   0  0  0  0  0  0  0  0  0  0  0  0
    3.6430    0.0000    0.0000 C   0  0  2  0  0  0  0  0  0  0  0  0
    2.8930    1.2990    0.0000 O   0  0  0  0  0  0  0  0  0  0  0  0
    1.3930    1.2990    0.0000 C   0  0  0  0  0  0  0  0  0  0  0  0
    0.6430    0.0000    0.0000 C   0  0  0  0  0  0  0  0  0  0  0  0
    1.3930   -1.2990    0.0000 C   0  0  0  0  0  0  0  0  0  0  0  0
    2.8930   -1.2990    0.0000 C   0  0  0  0  0  0  0  0  0  0  0  0
  2  1  1  1  0  0  0
  2  3  1  0  0  0  0
  2  7  1  0  0  0  0
  3  4  1  0  0  0  0
  4  5  1  0  0  0  0
  5  6  1  0  0  0  0
  6  7  1  0  0  0  0
M  END
>  <name>
C[C@@H]1O[C;ether]C[C;amine][C;ether]1

>  <apo>
3

>  <freq>
1

>  <freq0>
0

>  <freq1>
1

>  <freqA>
0.9949851

$$$$

  MOE2015           2D

  7  7  0  0  1  0  0  0  0  0999 V2000
    5.1430    0.0000    0.0000 C   0  0  0  0  0  0  0  0  0  0  0  0
    3.6430    0.0000    0.0000 C   0  0  2  0  0  0  0  0  0  0  0  0
    2.8930    1.2990    0.0000 O   0  0  0  0  0  0  0  0  0  0  0  0
    1.3930    1.2990    0.0000 C   0  0  0  0  0  0  0  0  0  0  0  0
    0.6430    0.0000    0.0000 C   0  0  0  0  0  0  0  0  0  0  0  0
    1.3930   -1.2990    0.0000 C   0  0  0  0  0  0  0  0  0  0  0  0
    2.8930   -1.2990    0.0000 C   0  0  0  0  0  0  0  0  0  0  0  0
  2  1  1  1  0  0  0
  2  3  1  0  0  0  0
  2  7  1  0  0  0  0
  3  4  1  0  0  0  0
  4  5  1  0  0  0  0
  5  6  1  0  0  0  0
  6  7  1  0  0  0  0
M  END
>  <name>
C[C@@H]1O[C;ether]C[C;ether][C;ether]1

>  <apo>
3

>  <freq>
1

>  <freq0>
0

>  <freq1>
1

>  <freqA>
0.9949851

$$$$

  MOE2015           2D

 28 31  0  0  1  0  0  0  0  0999 V2000
    0.1830   -1.0880    0.0000 Cl  0  0  0  0  0  0  0  0  0  0  0  0
    1.6640   -0.8480    0.0000 C   0  0  0  0  0  0  0  0  0  0  0  0
    2.1970    0.5550    0.0000 C   0  0  0  0  0  0  0  0  0  0  0  0
    1.2480    1.7170    0.0000 O   0  0  0  0  0  0  0  0  0  0  0  0
    3.6770    0.7950    0.0000 C   0  0  1  0  0  0  0  0  0  0  0  0
    3.1940   -0.6250    0.0000 O   0  0  0  0  0  0  0  0  0  0  0  0
    3.5150    2.2860    0.0000 C   0  0  1  0  0  0  0  0  0  0  0  0
    2.2130    3.0310    0.0000 C   0  0  0  0  0  0  0  0  0  0  0  0
    4.8830    2.9010    0.0000 C   0  0  0  0  0  0  0  0  0  0  0  0
    5.8910    1.7900    0.0000 C   0  0  2  0  0  0  0  0  0  0  0  0
    5.1460    0.4880    0.0000 C   0  0  1  0  0  0  0  0  0  0  0  0
    4.2900   -0.7440    0.0000 C   0  0  0  0  0  0  0  0  0  0  0  0
    5.9000   -0.8080    0.0000 C   0  0  0  0  0  0  0  0  0  0  0  0
    7.4000   -0.8030    0.0000 C   0  0  2  0  0  0  0  0  0  0  0  0
    8.1550   -2.0990    0.0000 O   0  0  0  0  0  0  0  0  0  0  0  0
    8.1460    0.4990    0.0000 C   0  0  2  0  0  0  0  0  0  0  0  0
    8.4110   -0.9770    0.0000 F   0  0  0  0  0  0  0  0  0  0  0  0
    9.6460    0.5040    0.0000 C   0  0  2  0  0  0  0  0  0  0  0  0
    9.3900   -0.9740    0.0000 C   0  0  0  0  0  0  0  0  0  0  0  0
   10.3910    1.8060    0.0000 C   0  0  0  0  0  0  0  0  0  0  0  0
   11.8910    1.8110    0.0000 C   0  0  0  0  0  0  0  0  0  0  0  0
   12.6460    0.5150    0.0000 C   0  0  0  0  0  0  0  0  0  0  0  0
   14.1460    0.5200    0.0000 O   0  0  0  0  0  0  0  0  0  0  0  0
   11.9000   -0.7870    0.0000 C   0  0  0  0  0  0  0  0  0  0  0  0
   10.4000   -0.7920    0.0000 C   0  0  0  0  0  0  0  0  0  0  0  0
    9.6360    3.1020    0.0000 C   0  0  0  0  0  0  0  0  0  0  0  0
    8.1360    3.0970    0.0000 C   0  0  0  0  0  0  0  0  0  0  0  0
    7.3910    1.7950    0.0000 C   0  0  1  0  0  0  0  0  0  0  0  0
  1  2  1  0  0  0  0
  2  3  1  0  0  0  0
  3  4  2  0  0  0  0
  5  3  1  1  0  0  0
  5  6  1  6  0  0  0
  5  7  1  0  0  0  0
  5 11  1  0  0  0  0
  7  8  1  1  0  0  0
  7  9  1  0  0  0  0
 10  9  1  1  0  0  0
 10 11  1  0  0  0  0
 10 28  1  0  0  0  0
 11 12  1  1  0  0  0
 11 13  1  0  0  0  0
 13 14  1  0  0  0  0
 14 15  1  1  0  0  0
 14 16  1  0  0  0  0
 16 17  1  6  0  0  0
 16 18  1  0  0  0  0
 16 28  1  0  0  0  0
 18 19  1  1  0  0  0
 18 20  1  0  0  0  0
 18 25  1  0  0  0  0
 20 21  2  0  0  0  0
 20 26  1  0  0  0  0
 21 22  1  0  0  0  0
 22 23  2  0  0  0  0
 22 24  1  0  0  0  0
 24 25  2  0  0  0  0
 26 27  1  0  0  0  0
 28 27  1  6  0  0  0
M  END
>  <name>
ClCC(=O)[C@@]1([O;ester])[C@@H](C)C[C@@H]2[C@]1(C)C[C@H](O)[C@]1(F)[C@]3(C)C(=CC(=O)C=C3)CC[C@@H]21

>  <apo>
1

>  <freq>
1

>  <freq0>
0

>  <freq1>
1

>  <freqA>
0.9949851

$$$$

  MOE2015           2D

  6  5  0  0  0  0  0  0  0  0999 V2000
    0.5330   -0.9240    0.0000 F   0  0  0  0  0  0  0  0  0  0  0  0
    1.2830    0.3750    0.0000 C   0  0  0  0  0  0  0  0  0  0  0  0
   -0.0160    1.1250    0.0000 F   0  0  0  0  0  0  0  0  0  0  0  0
    2.0330    1.6740    0.0000 F   0  0  0  0  0  0  0  0  0  0  0  0
    2.5830   -0.3750    0.0000 C   0  0  0  0  0  0  0  0  0  0  0  0
    3.8820    0.3750    0.0000 O   0  0  0  0  0  0  0  0  0  0  0  0
  1  2  1  0  0  0  0
  2  3  1  0  0  0  0
  2  4  1  0  0  0  0
  2  5  1  0  0  0  0
  5  6  2  0  0  0  0
M  END
>  <name>
FC(F)(F)[C;ester]=O

>  <apo>
1

>  <freq>
1

>  <freq0>
0

>  <freq1>
1

>  <freqA>
0.9949851

$$$$

  MOE2015           2D

 23 27  0  0  1  0  0  0  0  0999 V2000
   -6.8740   -5.5860    0.0000 O   0  0  0  0  0  0  0  0  0  0  0  0
   -8.3350   -5.2450    0.0000 C   0  0  0  0  0  0  0  0  0  0  0  0
   -5.8800   -4.3940    0.0000 C   0  0  0  0  0  0  0  0  0  0  0  0
   -4.3820   -4.6430    0.0000 C   0  0  1  0  0  0  0  0  0  0  0  0
   -3.7280   -5.9890    0.0000 O   0  0  0  0  0  0  0  0  0  0  0  0
   -3.6880   -3.3220    0.0000 C   0  0  1  0  0  0  0  0  0  0  0  0
   -2.1910   -3.1740    0.0000 C   0  0  0  0  0  0  0  0  0  0  0  0
   -1.3830   -1.9110    0.0000 C   0  0  0  0  0  0  0  0  0  0  0  0
    0.1150   -1.9840    0.0000 C   0  0  0  0  0  0  0  0  0  0  0  0
    0.8010   -3.3180    0.0000 C   0  0  0  0  0  0  0  0  0  0  0  0
    2.2520   -3.7000    0.0000 O   0  0  0  0  0  0  0  0  0  0  0  0
    2.3380   -5.1970    0.0000 C   0  0  0  0  0  0  0  0  0  0  0  0
    0.9380   -5.7410    0.0000 O   0  0  0  0  0  0  0  0  0  0  0  0
   -0.0090   -4.5800    0.0000 C   0  0  0  0  0  0  0  0  0  0  0  0
   -1.5100   -4.5080    0.0000 C   0  0  0  0  0  0  0  0  0  0  0  0
   -1.8710   -0.4920    0.0000 C   0  0  0  0  0  0  0  0  0  0  0  0
   -3.2830    0.0160    0.0000 C   0  0  0  0  0  0  0  0  0  0  0  0
   -4.5600   -0.7800    0.0000 N   0  0  0  0  0  0  0  0  0  0  0  0
   -4.7320   -2.2630    0.0000 C   0  0  1  0  0  0  0  0  0  0  0  0
   -6.0120   -3.0680    0.0000 C   0  0  0  0  0  0  0  0  0  0  0  0
   -6.2480   -2.4170    0.0000 C   0  0  0  0  0  0  0  0  0  0  0  0
   -6.9400   -1.2930    0.0000 C   0  0  0  0  0  0  0  0  0  0  0  0
   -5.9200   -0.1680    0.0000 C   0  0  0  0  0  0  0  0  0  0  0  0
  1  2  1  0  0  0  0
  1  3  1  0  0  0  0
  3  4  1  0  0  0  0
  3 20  2  0  0  0  0
  4  5  1  6  0  0  0
  4  6  1  0  0  0  0
  6  7  1  6  0  0  0
  6 19  1  0  0  0  0
  7  8  2  0  0  0  0
  7 15  1  0  0  0  0
  8  9  1  0  0  0  0
  8 16  1  0  0  0  0
  9 10  2  0  0  0  0
 10 11  1  0  0  0  0
 10 14  1  0  0  0  0
 11 12  1  0  0  0  0
 12 13  1  0  0  0  0
 13 14  1  0  0  0  0
 14 15  2  0  0  0  0
 16 17  1  0  0  0  0
 17 18  1  0  0  0  0
 19 18  1  6  0  0  0
 18 23  1  0  0  0  0
 19 20  1  0  0  0  0
 19 21  1  1  0  0  0
 21 22  1  0  0  0  0
 22 23  1  0  0  0  0
M  END
>  <name>
O(C)C=1[C@@H]([O;ester])[C@H]2c3c(cc4OCOc4c3)CCN3[C@]2(C=1)CCC3

>  <apo>
1

>  <freq>
1

>  <freq0>
0

>  <freq1>
1

>  <freqA>
0.9949851

$$$$

  MOE2015           2D

  9  9  0  0  1  0  0  0  0  0999 V2000
   -3.3160    1.8900    0.0000 O   0  0  0  0  0  0  0  0  0  0  0  0
   -4.0140    0.5610    0.0000 C   0  0  0  0  0  0  0  0  0  0  0  0
   -1.8180    1.9500    0.0000 C   0  0  0  0  0  0  0  0  0  0  0  0
   -0.9860    3.1980    0.0000 C   0  0  2  0  0  0  0  0  0  0  0  0
   -1.5060    4.6050    0.0000 C   0  0  0  0  0  0  0  0  0  0  0  0
    0.4580    2.7930    0.0000 N   0  0  0  0  0  0  0  0  0  0  0  0
    0.5190    1.2940    0.0000 C   0  0  0  0  0  0  0  0  0  0  0  0
    1.7670    0.4620    0.0000 O   0  0  0  0  0  0  0  0  0  0  0  0
   -0.8880    0.7730    0.0000 C   0  0  0  0  0  0  0  0  0  0  0  0
  1  2  1  0  0  0  0
  1  3  1  0  0  0  0
  3  4  1  0  0  0  0
  3  9  2  0  0  0  0
  4  5  1  6  0  0  0
  4  6  1  0  0  0  0
  6  7  1  0  0  0  0
  7  8  2  0  0  0  0
  7  9  1  0  0  0  0
M  END
>  <name>
O(C)C=1[C@H](C)[N;amide]C(=O)C=1

>  <apo>
1

>  <freq>
1

>  <freq0>
0

>  <freq1>
1

>  <freqA>
0.9949851

$$$$

  MOE2015           2D

 15 15  0  0  1  0  0  0  0  0999 V2000
   -2.9000    0.0000    0.0000 O   0  0  0  0  0  0  0  0  0  0  0  0
   -2.1500    1.2990    0.0000 C   0  0  0  0  0  0  0  0  0  0  0  0
   -2.1500   -1.2990    0.0000 C   0  0  0  0  0  0  0  0  0  0  0  0
   -0.6500   -1.2990    0.0000 C   0  0  2  0  0  0  0  0  0  0  0  0
    0.1000    0.0000    0.0000 O   0  0  0  0  0  0  0  0  0  0  0  0
    0.1000   -2.5980    0.0000 C   0  0  2  0  0  0  0  0  0  0  0  0
    1.6000   -2.5980    0.0000 C   0  0  0  0  0  0  0  0  0  0  0  0
    2.3500   -3.8970    0.0000 C   0  0  0  0  0  0  0  0  0  0  0  0
   -0.6500   -3.8970    0.0000 C   0  0  1  0  0  0  0  0  0  0  0  0
    0.1000   -5.1960    0.0000 C   0  0  0  0  0  0  0  0  0  0  0  0
   -2.1500   -3.8970    0.0000 C   0  0  0  0  0  0  0  0  0  0  0  0
   -2.9000   -5.1960    0.0000 O   0  0  0  0  0  0  0  0  0  0  0  0
   -2.9000   -2.5980    0.0000 C   0  0  0  0  0  0  0  0  0  0  0  0
   -4.4000   -2.5980    0.0000 O   0  0  0  0  0  0  0  0  0  0  0  0
   -5.1500   -3.8970    0.0000 C   0  0  0  0  0  0  0  0  0  0  0  0
  1  2  1  0  0  0  0
  1  3  1  0  0  0  0
  3  4  1  0  0  0  0
  3 13  2  0  0  0  0
  4  5  1  6  0  0  0
  4  6  1  0  0  0  0
  6  7  1  6  0  0  0
  6  9  1  0  0  0  0
  7  8  1  0  0  0  0
  9 10  1  1  0  0  0
  9 11  1  0  0  0  0
 11 12  2  0  0  0  0
 11 13  1  0  0  0  0
 13 14  1  0  0  0  0
 14 15  1  0  0  0  0
M  END
>  <name>
O(C)C=1[C@H](O)[C@H](C[C;olefin])[C@@H](C)C(=O)C=1OC

>  <apo>
1

>  <freq>
1

>  <freq0>
0

>  <freq1>
1

>  <freqA>
0.9949851

$$$$

  MOE2015           2D

 25 28  0  0  1  0  0  0  0  0999 V2000
   -2.0580    7.6810    0.0000 O   0  0  0  0  0  0  0  0  0  0  0  0
   -0.7590    8.4310    0.0000 C   0  0  0  0  0  0  0  0  0  0  0  0
   -2.0580    6.1810    0.0000 N   0  0  0  0  0  0  0  0  0  0  0  0
   -3.3570    5.4310    0.0000 C   0  0  0  0  0  0  0  0  0  0  0  0
   -4.6560    6.1810    0.0000 O   0  0  0  0  0  0  0  0  0  0  0  0
   -3.3570    3.9310    0.0000 C   0  0  0  0  0  0  0  0  0  0  0  0
   -4.6560    3.1810    0.0000 C   0  0  1  0  0  0  0  0  0  0  0  0
   -5.9550    3.9310    0.0000 C   0  0  2  0  0  0  0  0  0  0  0  0
   -5.9550    5.4310    0.0000 C   0  0  0  0  0  0  0  0  0  0  0  0
   -7.2540    3.1810    0.0000 C   0  0  0  0  0  0  0  0  0  0  0  0
   -7.2540    1.6810    0.0000 C   0  0  0  0  0  0  0  0  0  0  0  0
   -5.9550    0.9310    0.0000 C   0  0  0  0  0  0  0  0  0  0  0  0
   -4.6560    1.6810    0.0000 C   0  0  1  0  0  0  0  0  0  0  0  0
   -3.3570    0.9310    0.0000 C   0  0  2  0  0  0  0  0  0  0  0  0
   -3.3570   -0.5690    0.0000 C   0  0  0  0  0  0  0  0  0  0  0  0
   -2.0580    1.6810    0.0000 O   0  0  0  0  0  0  0  0  0  0  0  0
   -2.0580    3.1810    0.0000 C   0  0  0  0  0  0  0  0  0  0  0  0
   -0.7590    3.9310    0.0000 C   0  0  0  0  0  0  0  0  0  0  0  0
    0.5400    3.1810    0.0000 C   0  0  0  0  0  0  0  0  0  0  0  0
    0.5400    1.6810    0.0000 C   0  0  0  0  0  0  0  0  0  0  0  0
    1.8390    0.9310    0.0000 C   0  0  0  0  0  0  0  0  0  0  0  0
    3.1380    1.6810    0.0000 C   0  0  0  0  0  0  0  0  0  0  0  0
    3.1380    3.1810    0.0000 C   0  0  0  0  0  0  0  0  0  0  0  0
    1.8390    3.9310    0.0000 C   0  0  0  0  0  0  0  0  0  0  0  0
   -0.7590    5.4310    0.0000 C   0  0  0  0  0  0  0  0  0  0  0  0
  1  2  1  0  0  0  0
  1  3  1  0  0  0  0
  3  4  1  0  0  0  0
  3 25  1  0  0  0  0
  4  5  2  0  0  0  0
  4  6  1  0  0  0  0
  7  6  1  6  0  0  0
  6 17  2  0  0  0  0
  7  8  1  0  0  0  0
  7 13  1  0  0  0  0
  8  9  1  1  0  0  0
  8 10  1  0  0  0  0
 10 11  1  0  0  0  0
 11 12  1  0  0  0  0
 13 12  1  6  0  0  0
 13 14  1  0  0  0  0
 14 15  1  1  0  0  0
 14 16  1  0  0  0  0
 16 17  1  0  0  0  0
 17 18  1  0  0  0  0
 18 19  1  0  0  0  0
 18 25  2  0  0  0  0
 19 20  1  0  0  0  0
 19 24  2  0  0  0  0
 20 21  2  0  0  0  0
 21 22  1  0  0  0  0
 22 23  2  0  0  0  0
 23 24  1  0  0  0  0
M  END
>  <name>
O(C)N1C(=O)C=2[C@H]3[C@H](C)CCC[C@H]3[C@H]([C;olefin])OC=2C(c2ccccc2)=C1

>  <apo>
1

>  <freq>
1

>  <freq0>
0

>  <freq1>
1

>  <freqA>
0.9949851

$$$$

  MOE2015           2D

 29 31  0  0  1  0  0  0  0  0999 V2000
   -5.0400   -5.0400    0.0000 O   0  0  0  0  0  0  0  0  0  0  0  0
   -5.0400   -6.5400    0.0000 C   0  0  0  0  0  0  0  0  0  0  0  0
   -3.7410   -4.2900    0.0000 C   0  0  0  0  0  0  0  0  0  0  0  0
   -3.7410   -2.7900    0.0000 C   0  0  0  0  0  0  0  0  0  0  0  0
   -5.0400   -2.0400    0.0000 C   0  0  3  0  0  0  0  0  0  0  0  0
   -6.3390   -2.7900    0.0000 C   0  0  3  0  0  0  0  0  0  0  0  0
   -6.3390   -4.2900    0.0000 O   0  0  0  0  0  0  0  0  0  0  0  0
   -7.6380   -2.0400    0.0000 C   0  0  3  0  0  0  0  0  0  0  0  0
   -8.9370   -2.7900    0.0000 O   0  0  0  0  0  0  0  0  0  0  0  0
   -7.6380   -0.5400    0.0000 C   0  0  3  0  0  0  0  0  0  0  0  0
   -8.9370    0.2100    0.0000 C   0  0  0  0  0  0  0  0  0  0  0  0
   -6.3390    0.2100    0.0000 C   0  0  3  0  0  0  0  0  0  0  0  0
   -6.3390    1.7100    0.0000 C   0  0  0  0  0  0  0  0  0  0  0  0
   -7.6380    2.4600    0.0000 O   0  0  0  0  0  0  0  0  0  0  0  0
   -5.0400   -0.5400    0.0000 O   0  0  0  0  0  0  0  0  0  0  0  0
   -2.4420   -2.0400    0.0000 C   0  0  0  0  0  0  0  0  0  0  0  0
   -2.4420   -0.5400    0.0000 O   0  0  0  0  0  0  0  0  0  0  0  0
   -1.1430    0.2100    0.0000 C   0  0  0  0  0  0  0  0  0  0  0  0
   -1.1430    1.7100    0.0000 C   0  0  0  0  0  0  0  0  0  0  0  0
    0.1560    2.4600    0.0000 C   0  0  3  0  0  0  0  0  0  0  0  0
    1.4550    1.7100    0.0000 O   0  0  0  0  0  0  0  0  0  0  0  0
    0.1560    3.9600    0.0000 C   0  0  0  0  0  0  0  0  0  0  0  0
    0.1560   -0.5400    0.0000 C   0  0  0  0  0  0  0  0  0  0  0  0
    0.1560   -2.0400    0.0000 C   0  0  0  0  0  0  0  0  0  0  0  0
    1.4550   -2.7900    0.0000 O   0  0  0  0  0  0  0  0  0  0  0  0
   -1.1430   -2.7900    0.0000 C   0  0  0  0  0  0  0  0  0  0  0  0
   -1.1430   -4.2900    0.0000 C   0  0  0  0  0  0  0  0  0  0  0  0
    0.1560   -5.0400    0.0000 C   0  0  0  0  0  0  0  0  0  0  0  0
   -2.4420   -5.0400    0.0000 C   0  0  0  0  0  0  0  0  0  0  0  0
  1  2  1  0  0  0  0
  1  3  1  0  0  0  0
  3  4  1  0  0  0  0
  3 29  2  0  0  0  0
  4  5  1  0  0  0  0
  4 16  2  0  0  0  0
  5  6  1  0  0  0  0
  5 15  1  0  0  0  0
  6  7  1  0  0  0  0
  6  8  1  0  0  0  0
  8  9  1  0  0  0  0
  8 10  1  0  0  0  0
 10 11  1  0  0  0  0
 10 12  1  0  0  0  0
 12 13  1  0  0  0  0
 12 15  1  0  0  0  0
 13 14  1  0  0  0  0
 16 17  1  0  0  0  0
 16 26  1  0  0  0  0
 17 18  1  0  0  0  0
 18 19  1  0  0  0  0
 18 23  2  0  0  0  0
 19 20  1  0  0  0  0
 20 21  1  0  0  0  0
 20 22  1  0  0  0  0
 23 24  1  0  0  0  0
 24 25  2  0  0  0  0
 24 26  1  0  0  0  0
 26 27  2  0  0  0  0
 27 28  1  0  0  0  0
 27 29  1  0  0  0  0
M  END
>  <name>
O(C)c1c(C2C([O;ester])C(O)C(C)C(CO)O2)c2OC(CC(O)C)=CC(=O)c2c(C)c1

>  <apo>
1

>  <freq>
1

>  <freq0>
0

>  <freq1>
1

>  <freqA>
0.9949851

$$$$

  MOE2015           2D

 29 31  0  0  1  0  0  0  0  0999 V2000
   -5.0400   -5.0400    0.0000 O   0  0  0  0  0  0  0  0  0  0  0  0
   -5.0400   -6.5400    0.0000 C   0  0  0  0  0  0  0  0  0  0  0  0
   -3.7410   -4.2900    0.0000 C   0  0  0  0  0  0  0  0  0  0  0  0
   -3.7410   -2.7900    0.0000 C   0  0  0  0  0  0  0  0  0  0  0  0
   -5.0400   -2.0400    0.0000 C   0  0  3  0  0  0  0  0  0  0  0  0
   -6.3390   -2.7900    0.0000 C   0  0  3  0  0  0  0  0  0  0  0  0
   -6.3390   -4.2900    0.0000 O   0  0  0  0  0  0  0  0  0  0  0  0
   -7.6380   -2.0400    0.0000 C   0  0  3  0  0  0  0  0  0  0  0  0
   -8.9370   -2.7900    0.0000 O   0  0  0  0  0  0  0  0  0  0  0  0
   -7.6380   -0.5400    0.0000 C   0  0  3  0  0  0  0  0  0  0  0  0
   -8.9370    0.2100    0.0000 O   0  0  0  0  0  0  0  0  0  0  0  0
   -6.3390    0.2100    0.0000 C   0  0  3  0  0  0  0  0  0  0  0  0
   -6.3390    1.7100    0.0000 C   0  0  0  0  0  0  0  0  0  0  0  0
   -7.6380    2.4600    0.0000 O   0  0  0  0  0  0  0  0  0  0  0  0
   -5.0400   -0.5400    0.0000 O   0  0  0  0  0  0  0  0  0  0  0  0
   -2.4420   -2.0400    0.0000 C   0  0  0  0  0  0  0  0  0  0  0  0
   -2.4420   -0.5400    0.0000 O   0  0  0  0  0  0  0  0  0  0  0  0
   -1.1430    0.2100    0.0000 C   0  0  0  0  0  0  0  0  0  0  0  0
   -1.1430    1.7100    0.0000 C   0  0  0  0  0  0  0  0  0  0  0  0
    0.1560    2.4600    0.0000 C   0  0  3  0  0  0  0  0  0  0  0  0
    1.4550    1.7100    0.0000 O   0  0  0  0  0  0  0  0  0  0  0  0
    0.1560    3.9600    0.0000 C   0  0  0  0  0  0  0  0  0  0  0  0
    0.1560   -0.5400    0.0000 C   0  0  0  0  0  0  0  0  0  0  0  0
    0.1560   -2.0400    0.0000 C   0  0  0  0  0  0  0  0  0  0  0  0
    1.4550   -2.7900    0.0000 O   0  0  0  0  0  0  0  0  0  0  0  0
   -1.1430   -2.7900    0.0000 C   0  0  0  0  0  0  0  0  0  0  0  0
   -1.1430   -4.2900    0.0000 C   0  0  0  0  0  0  0  0  0  0  0  0
    0.1560   -5.0400    0.0000 C   0  0  0  0  0  0  0  0  0  0  0  0
   -2.4420   -5.0400    0.0000 C   0  0  0  0  0  0  0  0  0  0  0  0
  1  2  1  0  0  0  0
  1  3  1  0  0  0  0
  3  4  1  0  0  0  0
  3 29  2  0  0  0  0
  4  5  1  0  0  0  0
  4 16  2  0  0  0  0
  5  6  1  0  0  0  0
  5 15  1  0  0  0  0
  6  7  1  0  0  0  0
  6  8  1  0  0  0  0
  8  9  1  0  0  0  0
  8 10  1  0  0  0  0
 10 11  1  0  0  0  0
 10 12  1  0  0  0  0
 12 13  1  0  0  0  0
 12 15  1  0  0  0  0
 13 14  1  0  0  0  0
 16 17  1  0  0  0  0
 16 26  1  0  0  0  0
 17 18  1  0  0  0  0
 18 19  1  0  0  0  0
 18 23  2  0  0  0  0
 19 20  1  0  0  0  0
 20 21  1  0  0  0  0
 20 22  1  0  0  0  0
 23 24  1  0  0  0  0
 24 25  2  0  0  0  0
 24 26  1  0  0  0  0
 26 27  2  0  0  0  0
 27 28  1  0  0  0  0
 27 29  1  0  0  0  0
M  END
>  <name>
O(C)c1c(C2C([O;ester])C(O)C(O)C(CO)O2)c2OC(CC(O)C)=CC(=O)c2c(C)c1

>  <apo>
1

>  <freq>
1

>  <freq0>
0

>  <freq1>
1

>  <freqA>
0.9949851

$$$$

  MOE2015           2D

 12 12  0  0  0  0  0  0  0  0999 V2000
   -1.5000    4.1140    0.0000 O   0  0  0  0  0  0  0  0  0  0  0  0
   -2.2500    5.4130    0.0000 C   0  0  0  0  0  0  0  0  0  0  0  0
   -2.2500    2.8150    0.0000 C   0  0  0  0  0  0  0  0  0  0  0  0
   -1.5000    1.5160    0.0000 C   0  0  0  0  0  0  0  0  0  0  0  0
    0.0000    1.5160    0.0000 C   0  0  0  0  0  0  0  0  0  0  0  0
    0.7500    0.2170    0.0000 C   0  0  0  0  0  0  0  0  0  0  0  0
    2.2500    0.2170    0.0000 N   0  0  0  0  0  0  0  0  0  0  0  0
   -2.2500    0.2170    0.0000 C   0  0  0  0  0  0  0  0  0  0  0  0
   -3.7500    0.2170    0.0000 C   0  0  0  0  0  0  0  0  0  0  0  0
   -4.5000   -1.0830    0.0000 O   0  0  0  0  0  0  0  0  0  0  0  0
   -4.5000    1.5160    0.0000 C   0  0  0  0  0  0  0  0  0  0  0  0
   -3.7500    2.8150    0.0000 C   0  0  0  0  0  0  0  0  0  0  0  0
  1  2  1  0  0  0  0
  1  3  1  0  0  0  0
  3  4  1  0  0  0  0
  3 12  2  0  0  0  0
  4  5  1  0  0  0  0
  4  8  2  0  0  0  0
  5  6  1  0  0  0  0
  6  7  1  0  0  0  0
  8  9  1  0  0  0  0
  9 10  1  0  0  0  0
  9 11  2  0  0  0  0
 11 12  1  0  0  0  0
M  END
>  <name>
O(C)c1c(CC[N;amide])cc([O;ether])cc1

>  <apo>
2

>  <freq>
1

>  <freq0>
0

>  <freq1>
1

>  <freqA>
0.9949851

$$$$

  MOE2015           2D

 24 26  0  0  0  0  0  0  0  0999 V2000
   -5.5840   -1.4960    0.0000 O   0  0  0  0  0  0  0  0  0  0  0  0
   -6.8830   -2.2460    0.0000 C   0  0  0  0  0  0  0  0  0  0  0  0
   -5.5840    0.0040    0.0000 C   0  0  0  0  0  0  0  0  0  0  0  0
   -6.8830    0.7540    0.0000 C   0  0  0  0  0  0  0  0  0  0  0  0
   -8.1820    0.0040    0.0000 C   0  0  0  0  0  0  0  0  0  0  0  0
   -9.4810    0.7540    0.0000 C   0  0  0  0  0  0  0  0  0  0  0  0
   -6.8830    2.2540    0.0000 C   0  0  0  0  0  0  0  0  0  0  0  0
   -8.1820    3.0040    0.0000 O   0  0  0  0  0  0  0  0  0  0  0  0
   -5.5840    3.0040    0.0000 C   0  0  0  0  0  0  0  0  0  0  0  0
   -4.2850    2.2540    0.0000 C   0  0  0  0  0  0  0  0  0  0  0  0
   -2.9850    3.0040    0.0000 O   0  0  0  0  0  0  0  0  0  0  0  0
   -1.6860    2.2540    0.0000 C   0  0  0  0  0  0  0  0  0  0  0  0
   -0.3870    3.0040    0.0000 O   0  0  0  0  0  0  0  0  0  0  0  0
   -1.6860    0.7540    0.0000 C   0  0  0  0  0  0  0  0  0  0  0  0
   -0.3870    0.0040    0.0000 C   0  0  0  0  0  0  0  0  0  0  0  0
   -0.3870   -1.4960    0.0000 C   0  0  0  0  0  0  0  0  0  0  0  0
   -1.6860   -2.2460    0.0000 O   0  0  0  0  0  0  0  0  0  0  0  0
    0.9120   -2.2460    0.0000 C   0  0  0  0  0  0  0  0  0  0  0  0
    2.2110   -1.4960    0.0000 C   0  0  0  0  0  0  0  0  0  0  0  0
    3.5100   -2.2460    0.0000 O   0  0  0  0  0  0  0  0  0  0  0  0
    2.2110    0.0040    0.0000 C   0  0  0  0  0  0  0  0  0  0  0  0
    0.9120    0.7540    0.0000 C   0  0  0  0  0  0  0  0  0  0  0  0
   -2.9850    0.0040    0.0000 C   0  0  0  0  0  0  0  0  0  0  0  0
   -4.2850    0.7540    0.0000 C   0  0  0  0  0  0  0  0  0  0  0  0
  1  2  1  0  0  0  0
  1  3  1  0  0  0  0
  3  4  1  0  0  0  0
  3 24  2  0  0  0  0
  4  5  1  0  0  0  0
  4  7  2  0  0  0  0
  5  6  1  0  0  0  0
  7  8  1  0  0  0  0
  7  9  1  0  0  0  0
  9 10  2  0  0  0  0
 10 11  1  0  0  0  0
 10 24  1  0  0  0  0
 11 12  1  0  0  0  0
 12 13  2  0  0  0  0
 12 14  1  0  0  0  0
 14 15  1  0  0  0  0
 14 23  2  0  0  0  0
 15 16  1  0  0  0  0
 15 22  2  0  0  0  0
 16 17  1  0  0  0  0
 16 18  2  0  0  0  0
 18 19  1  0  0  0  0
 19 20  1  0  0  0  0
 19 21  2  0  0  0  0
 21 22  1  0  0  0  0
 23 24  1  0  0  0  0
M  END
>  <name>
O(C)c1c(C[C;olefin])c(O)cc2OC(=O)C(c3c(O)cc(O)cc3)=Cc12

>  <apo>
1

>  <freq>
1

>  <freq0>
0

>  <freq1>
1

>  <freqA>
0.9949851

$$$$

  MOE2015           2D

 23 25  0  0  1  0  0  0  0  0999 V2000
   -9.3380    2.5020    0.0000 O   0  0  0  0  0  0  0  0  0  0  0  0
  -10.6370    3.2520    0.0000 C   0  0  0  0  0  0  0  0  0  0  0  0
   -8.0390    3.2520    0.0000 C   0  0  0  0  0  0  0  0  0  0  0  0
   -6.7400    2.5020    0.0000 C   0  0  0  0  0  0  0  0  0  0  0  0
   -6.7400    1.0020    0.0000 O   0  0  0  0  0  0  0  0  0  0  0  0
   -5.4410    3.2520    0.0000 C   0  0  0  0  0  0  0  0  0  0  0  0
   -4.1420    2.5020    0.0000 C   0  0  3  0  0  0  0  0  0  0  0  0
   -2.6930    2.8900    0.0000 C   0  0  3  0  0  0  0  0  0  0  0  0
   -1.9430    4.1890    0.0000 C   0  0  0  0  0  0  0  0  0  0  0  0
   -0.4430    4.1890    0.0000 C   0  0  0  0  0  0  0  0  0  0  0  0
    0.3070    5.4890    0.0000 C   0  0  0  0  0  0  0  0  0  0  0  0
    1.8070    5.4890    0.0000 O   0  0  0  0  0  0  0  0  0  0  0  0
    2.5570    4.1890    0.0000 C   0  0  0  0  0  0  0  0  0  0  0  0
   -0.4430    6.7880    0.0000 C   0  0  0  0  0  0  0  0  0  0  0  0
    0.3070    8.0870    0.0000 O   0  0  0  0  0  0  0  0  0  0  0  0
   -1.9430    6.7880    0.0000 C   0  0  0  0  0  0  0  0  0  0  0  0
   -2.6930    5.4890    0.0000 C   0  0  0  0  0  0  0  0  0  0  0  0
   -2.3050    1.4420    0.0000 O   0  0  0  0  0  0  0  0  0  0  0  0
   -3.7540    1.0530    0.0000 C   0  0  0  0  0  0  0  0  0  0  0  0
   -5.4410    4.7520    0.0000 C   0  0  0  0  0  0  0  0  0  0  0  0
   -6.7400    5.5020    0.0000 C   0  0  0  0  0  0  0  0  0  0  0  0
   -6.7400    7.0020    0.0000 C   0  0  0  0  0  0  0  0  0  0  0  0
   -8.0390    4.7520    0.0000 C   0  0  0  0  0  0  0  0  0  0  0  0
  1  2  1  0  0  0  0
  1  3  1  0  0  0  0
  3  4  1  0  0  0  0
  3 23  2  0  0  0  0
  4  5  1  0  0  0  0
  4  6  2  0  0  0  0
  6  7  1  0  0  0  0
  6 20  1  0  0  0  0
  7  8  1  0  0  0  0
  7 19  1  0  0  0  0
  8  9  1  0  0  0  0
  8 18  1  0  0  0  0
  9 10  1  0  0  0  0
  9 17  2  0  0  0  0
 10 11  2  0  0  0  0
 11 12  1  0  0  0  0
 11 14  1  0  0  0  0
 12 13  1  0  0  0  0
 14 15  1  0  0  0  0
 14 16  2  0  0  0  0
 16 17  1  0  0  0  0
 18 19  1  0  0  0  0
 20 21  2  0  0  0  0
 21 22  1  0  0  0  0
 21 23  1  0  0  0  0
M  END
>  <name>
O(C)c1c(O)c(C2C(c3cc(OC)c(O)cc3)OC2)cc([C;olefin])c1

>  <apo>
1

>  <freq>
1

>  <freq0>
0

>  <freq1>
1

>  <freqA>
0.9949851

$$$$

  MOE2015           2D

 33 36  0  0  1  0  0  0  0  0999 V2000
    4.9090    3.9360    0.0000 O   0  0  0  0  0  0  0  0  0  0  0  0
    5.6590    5.2360    0.0000 C   0  0  0  0  0  0  0  0  0  0  0  0
    3.4090    3.9360    0.0000 C   0  0  0  0  0  0  0  0  0  0  0  0
    2.6590    2.6370    0.0000 C   0  0  0  0  0  0  0  0  0  0  0  0
    3.4090    1.3380    0.0000 O   0  0  0  0  0  0  0  0  0  0  0  0
    1.1590    2.6370    0.0000 C   0  0  0  0  0  0  0  0  0  0  0  0
    0.4090    1.3380    0.0000 O   0  0  0  0  0  0  0  0  0  0  0  0
    0.4090    3.9360    0.0000 C   0  0  0  0  0  0  0  0  0  0  0  0
    1.1590    5.2360    0.0000 C   0  0  0  0  0  0  0  0  0  0  0  0
    0.4090    6.5350    0.0000 C   0  0  0  0  0  0  0  0  0  0  0  0
   -1.0910    6.5350    0.0000 C   0  0  0  0  0  0  0  0  0  0  0  0
   -1.8410    5.2360    0.0000 O   0  0  0  0  0  0  0  0  0  0  0  0
   -3.3410    5.2360    0.0000 C   0  0  1  0  0  0  0  0  0  0  0  0
   -4.0910    3.9360    0.0000 C   0  0  2  0  0  0  0  0  0  0  0  0
   -3.3410    2.6370    0.0000 O   0  0  0  0  0  0  0  0  0  0  0  0
   -5.5910    3.9360    0.0000 C   0  0  1  0  0  0  0  0  0  0  0  0
   -6.3410    2.6370    0.0000 O   0  0  0  0  0  0  0  0  0  0  0  0
   -6.3410    5.2360    0.0000 C   0  0  1  0  0  0  0  0  0  0  0  0
   -7.8410    5.2360    0.0000 O   0  0  0  0  0  0  0  0  0  0  0  0
   -5.5910    6.5350    0.0000 C   0  0  0  0  0  0  0  0  0  0  0  0
   -4.0910    6.5350    0.0000 O   0  0  0  0  0  0  0  0  0  0  0  0
   -1.8410    7.8340    0.0000 C   0  0  0  0  0  0  0  0  0  0  0  0
   -3.3410    7.8340    0.0000 O   0  0  0  0  0  0  0  0  0  0  0  0
   -1.0910    9.1330    0.0000 C   0  0  0  0  0  0  0  0  0  0  0  0
   -1.8410   10.4320    0.0000 C   0  0  0  0  0  0  0  0  0  0  0  0
   -3.3410   10.4320    0.0000 O   0  0  0  0  0  0  0  0  0  0  0  0
   -1.0910   11.7310    0.0000 C   0  0  0  0  0  0  0  0  0  0  0  0
    0.4090   11.7310    0.0000 C   0  0  0  0  0  0  0  0  0  0  0  0
    1.1590   13.0300    0.0000 O   0  0  0  0  0  0  0  0  0  0  0  0
    1.1590   10.4320    0.0000 C   0  0  0  0  0  0  0  0  0  0  0  0
    0.4090    9.1330    0.0000 C   0  0  0  0  0  0  0  0  0  0  0  0
    1.1590    7.8340    0.0000 O   0  0  0  0  0  0  0  0  0  0  0  0
    2.6590    5.2360    0.0000 C   0  0  0  0  0  0  0  0  0  0  0  0
  1  2  1  0  0  0  0
  1  3  1  0  0  0  0
  3  4  2  0  0  0  0
  3 33  1  0  0  0  0
  4  5  1  0  0  0  0
  4  6  1  0  0  0  0
  6  7  1  0  0  0  0
  6  8  2  0  0  0  0
  8  9  1  0  0  0  0
  9 10  1  0  0  0  0
  9 33  2  0  0  0  0
 10 11  2  0  0  0  0
 10 32  1  0  0  0  0
 11 12  1  0  0  0  0
 11 22  1  0  0  0  0
 13 12  1  1  0  0  0
 13 14  1  0  0  0  0
 13 21  1  0  0  0  0
 14 15  1  6  0  0  0
 14 16  1  0  0  0  0
 16 17  1  1  0  0  0
 16 18  1  0  0  0  0
 18 19  1  1  0  0  0
 18 20  1  0  0  0  0
 20 21  1  0  0  0  0
 22 23  2  0  0  0  0
 22 24  1  0  0  0  0
 24 25  1  0  0  0  0
 24 31  2  0  0  0  0
 25 26  1  0  0  0  0
 25 27  2  0  0  0  0
 27 28  1  0  0  0  0
 28 29  1  0  0  0  0
 28 30  2  0  0  0  0
 30 31  1  0  0  0  0
 31 32  1  0  0  0  0
M  END
>  <name>
O(C)c1c(O)c(O)cc(C2=C(O[C@H]3[C@H](O)[C@@H](O)[C@@H](O)[C;ether]O3)C(=O)c3c(O)cc(O)cc3O2)c1

>  <apo>
1

>  <freq>
1

>  <freq0>
0

>  <freq1>
1

>  <freqA>
0.9949851

$$$$

  MOE2015           2D

 11 11  0  0  0  0  0  0  0  0999 V2000
    0.7570    1.1890    0.0000 O   0  0  0  0  0  0  0  0  0  0  0  0
    2.0560    1.9390    0.0000 C   0  0  0  0  0  0  0  0  0  0  0  0
   -0.5420    1.9390    0.0000 C   0  0  0  0  0  0  0  0  0  0  0  0
   -1.8410    1.1890    0.0000 C   0  0  0  0  0  0  0  0  0  0  0  0
   -1.8410   -0.3110    0.0000 O   0  0  0  0  0  0  0  0  0  0  0  0
   -3.1400    1.9390    0.0000 C   0  0  0  0  0  0  0  0  0  0  0  0
   -4.4390    1.1890    0.0000 O   0  0  0  0  0  0  0  0  0  0  0  0
   -5.7380    1.9390    0.0000 C   0  0  0  0  0  0  0  0  0  0  0  0
   -3.1400    3.4390    0.0000 C   0  0  0  0  0  0  0  0  0  0  0  0
   -1.8410    4.1890    0.0000 C   0  0  0  0  0  0  0  0  0  0  0  0
   -0.5420    3.4390    0.0000 C   0  0  0  0  0  0  0  0  0  0  0  0
  1  2  1  0  0  0  0
  1  3  1  0  0  0  0
  3  4  1  0  0  0  0
  3 11  2  0  0  0  0
  4  5  1  0  0  0  0
  4  6  2  0  0  0  0
  6  7  1  0  0  0  0
  6  9  1  0  0  0  0
  7  8  1  0  0  0  0
  9 10  2  0  0  0  0
 10 11  1  0  0  0  0
M  END
>  <name>
O(C)c1c(O)c(OC)c[c;biphenyl]c1

>  <apo>
1

>  <freq>
1

>  <freq0>
0

>  <freq1>
1

>  <freqA>
0.9949851

$$$$

  MOE2015           2D

 26 28  0  0  1  0  0  0  0  0999 V2000
   -4.4130   -3.2480    0.0000 O   0  0  0  0  0  0  0  0  0  0  0  0
   -3.6630   -1.9490    0.0000 C   0  0  0  0  0  0  0  0  0  0  0  0
   -3.6630   -4.5470    0.0000 C   0  0  0  0  0  0  0  0  0  0  0  0
   -4.4130   -5.8460    0.0000 C   0  0  0  0  0  0  0  0  0  0  0  0
   -5.9130   -5.8460    0.0000 O   0  0  0  0  0  0  0  0  0  0  0  0
   -3.6630   -7.1450    0.0000 C   0  0  0  0  0  0  0  0  0  0  0  0
   -4.4130   -8.4440    0.0000 O   0  0  0  0  0  0  0  0  0  0  0  0
   -3.6630   -9.7430    0.0000 C   0  0  0  0  0  0  0  0  0  0  0  0
   -2.1630   -7.1450    0.0000 C   0  0  0  0  0  0  0  0  0  0  0  0
   -1.4130   -5.8460    0.0000 C   0  0  0  0  0  0  0  0  0  0  0  0
    0.0870   -5.8460    0.0000 C   0  0  3  0  0  0  0  0  0  0  0  0
    0.8370   -4.5470    0.0000 O   0  0  0  0  0  0  0  0  0  0  0  0
    2.3370   -4.5470    0.0000 C   0  0  0  0  0  0  0  0  0  0  0  0
    3.0870   -5.8460    0.0000 C   0  0  0  0  0  0  0  0  0  0  0  0
    4.5870   -5.8460    0.0000 C   0  0  0  0  0  0  0  0  0  0  0  0
    5.3370   -7.1450    0.0000 O   0  0  0  0  0  0  0  0  0  0  0  0
    5.3370   -4.5470    0.0000 C   0  0  0  0  0  0  0  0  0  0  0  0
    6.8370   -4.5470    0.0000 C   0  0  0  0  0  0  0  0  0  0  0  0
    7.5870   -3.2480    0.0000 C   0  0  0  0  0  0  0  0  0  0  0  0
    4.5870   -3.2480    0.0000 C   0  0  0  0  0  0  0  0  0  0  0  0
    5.3370   -1.9490    0.0000 O   0  0  0  0  0  0  0  0  0  0  0  0
    3.0870   -3.2480    0.0000 C   0  0  0  0  0  0  0  0  0  0  0  0
    2.3370   -7.1450    0.0000 C   0  0  0  0  0  0  0  0  0  0  0  0
    3.0870   -8.4440    0.0000 O   0  0  0  0  0  0  0  0  0  0  0  0
    0.8370   -7.1450    0.0000 C   0  0  0  0  0  0  0  0  0  0  0  0
   -2.1630   -4.5470    0.0000 C   0  0  0  0  0  0  0  0  0  0  0  0
  1  2  1  0  0  0  0
  1  3  1  0  0  0  0
  3  4  1  0  0  0  0
  3 26  2  0  0  0  0
  4  5  1  0  0  0  0
  4  6  2  0  0  0  0
  6  7  1  0  0  0  0
  6  9  1  0  0  0  0
  7  8  1  0  0  0  0
  9 10  2  0  0  0  0
 10 11  1  0  0  0  0
 10 26  1  0  0  0  0
 11 12  1  0  0  0  0
 11 25  1  0  0  0  0
 12 13  1  0  0  0  0
 13 14  1  0  0  0  0
 13 22  2  0  0  0  0
 14 15  2  0  0  0  0
 14 23  1  0  0  0  0
 15 16  1  0  0  0  0
 15 17  1  0  0  0  0
 17 18  1  0  0  0  0
 17 20  2  0  0  0  0
 18 19  1  0  0  0  0
 20 21  1  0  0  0  0
 20 22  1  0  0  0  0
 23 24  2  0  0  0  0
 23 25  1  0  0  0  0
M  END
>  <name>
O(C)c1c(O)c(OC)cc(C2Oc3c(c(O)c(C[C;olefin])c(O)c3)C(=O)C2)c1

>  <apo>
1

>  <freq>
1

>  <freq0>
0

>  <freq1>
1

>  <freqA>
0.9949851

$$$$

  MOE2015           2D

 26 28  0  0  1  0  0  0  0  0999 V2000
   -4.4130   -3.2480    0.0000 O   0  0  0  0  0  0  0  0  0  0  0  0
   -3.6630   -1.9490    0.0000 C   0  0  0  0  0  0  0  0  0  0  0  0
   -3.6630   -4.5470    0.0000 C   0  0  0  0  0  0  0  0  0  0  0  0
   -4.4130   -5.8460    0.0000 C   0  0  0  0  0  0  0  0  0  0  0  0
   -5.9130   -5.8460    0.0000 O   0  0  0  0  0  0  0  0  0  0  0  0
   -3.6630   -7.1450    0.0000 C   0  0  0  0  0  0  0  0  0  0  0  0
   -4.4130   -8.4440    0.0000 O   0  0  0  0  0  0  0  0  0  0  0  0
   -3.6630   -9.7430    0.0000 C   0  0  0  0  0  0  0  0  0  0  0  0
   -2.1630   -7.1450    0.0000 C   0  0  0  0  0  0  0  0  0  0  0  0
   -1.4130   -5.8460    0.0000 C   0  0  0  0  0  0  0  0  0  0  0  0
    0.0870   -5.8460    0.0000 C   0  0  1  0  0  0  0  0  0  0  0  0
    0.8370   -4.5470    0.0000 O   0  0  0  0  0  0  0  0  0  0  0  0
    2.3370   -4.5470    0.0000 C   0  0  0  0  0  0  0  0  0  0  0  0
    3.0870   -5.8460    0.0000 C   0  0  0  0  0  0  0  0  0  0  0  0
    4.5870   -5.8460    0.0000 C   0  0  0  0  0  0  0  0  0  0  0  0
    5.3370   -7.1450    0.0000 O   0  0  0  0  0  0  0  0  0  0  0  0
    5.3370   -4.5470    0.0000 C   0  0  0  0  0  0  0  0  0  0  0  0
    6.8370   -4.5470    0.0000 C   0  0  0  0  0  0  0  0  0  0  0  0
    7.5870   -3.2480    0.0000 C   0  0  0  0  0  0  0  0  0  0  0  0
    4.5870   -3.2480    0.0000 C   0  0  0  0  0  0  0  0  0  0  0  0
    5.3370   -1.9490    0.0000 O   0  0  0  0  0  0  0  0  0  0  0  0
    3.0870   -3.2480    0.0000 C   0  0  0  0  0  0  0  0  0  0  0  0
    2.3370   -7.1450    0.0000 C   0  0  0  0  0  0  0  0  0  0  0  0
    3.0870   -8.4440    0.0000 O   0  0  0  0  0  0  0  0  0  0  0  0
    0.8370   -7.1450    0.0000 C   0  0  0  0  0  0  0  0  0  0  0  0
   -2.1630   -4.5470    0.0000 C   0  0  0  0  0  0  0  0  0  0  0  0
  1  2  1  0  0  0  0
  1  3  1  0  0  0  0
  3  4  2  0  0  0  0
  3 26  1  0  0  0  0
  4  5  1  0  0  0  0
  4  6  1  0  0  0  0
  6  7  1  0  0  0  0
  6  9  2  0  0  0  0
  7  8  1  0  0  0  0
  9 10  1  0  0  0  0
 11 10  1  1  0  0  0
 10 26  2  0  0  0  0
 11 12  1  0  0  0  0
 11 25  1  0  0  0  0
 12 13  1  0  0  0  0
 13 14  2  0  0  0  0
 13 22  1  0  0  0  0
 14 15  1  0  0  0  0
 14 23  1  0  0  0  0
 15 16  1  0  0  0  0
 15 17  2  0  0  0  0
 17 18  1  0  0  0  0
 17 20  1  0  0  0  0
 18 19  1  0  0  0  0
 20 21  1  0  0  0  0
 20 22  2  0  0  0  0
 23 24  2  0  0  0  0
 23 25  1  0  0  0  0
M  END
>  <name>
O(C)c1c(O)c(OC)cc([C@H]2Oc3c(c(O)c(C[C;olefin])c(O)c3)C(=O)C2)c1

>  <apo>
1

>  <freq>
1

>  <freq0>
0

>  <freq1>
1

>  <freqA>
0.9949851

$$$$

  MOE2015           2D

 24 26  0  0  1  0  0  0  0  0999 V2000
    3.7190    6.4410    0.0000 O   0  0  0  0  0  0  0  0  0  0  0  0
    4.4690    5.1420    0.0000 C   0  0  0  0  0  0  0  0  0  0  0  0
    2.2190    6.4410    0.0000 C   0  0  0  0  0  0  0  0  0  0  0  0
    1.4690    7.7400    0.0000 C   0  0  0  0  0  0  0  0  0  0  0  0
    2.2190    9.0390    0.0000 O   0  0  0  0  0  0  0  0  0  0  0  0
   -0.0310    7.7400    0.0000 C   0  0  0  0  0  0  0  0  0  0  0  0
   -0.7810    6.4410    0.0000 C   0  0  0  0  0  0  0  0  0  0  0  0
   -2.2810    6.4410    0.0000 C   0  0  3  0  0  0  0  0  0  0  0  0
   -3.0310    5.1420    0.0000 O   0  0  0  0  0  0  0  0  0  0  0  0
   -4.5310    5.1420    0.0000 C   0  0  0  0  0  0  0  0  0  0  0  0
   -5.2810    6.4410    0.0000 C   0  0  0  0  0  0  0  0  0  0  0  0
   -6.7810    6.4410    0.0000 C   0  0  0  0  0  0  0  0  0  0  0  0
   -7.5310    7.7400    0.0000 O   0  0  0  0  0  0  0  0  0  0  0  0
   -7.5310    5.1420    0.0000 C   0  0  0  0  0  0  0  0  0  0  0  0
   -9.0310    5.1420    0.0000 C   0  0  0  0  0  0  0  0  0  0  0  0
   -9.7810    3.8430    0.0000 C   0  0  0  0  0  0  0  0  0  0  0  0
   -6.7810    3.8430    0.0000 C   0  0  0  0  0  0  0  0  0  0  0  0
   -7.5310    2.5440    0.0000 O   0  0  0  0  0  0  0  0  0  0  0  0
   -5.2810    3.8430    0.0000 C   0  0  0  0  0  0  0  0  0  0  0  0
   -4.5310    7.7400    0.0000 C   0  0  0  0  0  0  0  0  0  0  0  0
   -5.2810    9.0390    0.0000 O   0  0  0  0  0  0  0  0  0  0  0  0
   -3.0310    7.7400    0.0000 C   0  0  0  0  0  0  0  0  0  0  0  0
   -0.0310    5.1420    0.0000 C   0  0  0  0  0  0  0  0  0  0  0  0
    1.4690    5.1420    0.0000 C   0  0  0  0  0  0  0  0  0  0  0  0
  1  2  1  0  0  0  0
  1  3  1  0  0  0  0
  3  4  1  0  0  0  0
  3 24  2  0  0  0  0
  4  5  1  0  0  0  0
  4  6  2  0  0  0  0
  6  7  1  0  0  0  0
  7  8  1  0  0  0  0
  7 23  2  0  0  0  0
  8  9  1  0  0  0  0
  8 22  1  0  0  0  0
  9 10  1  0  0  0  0
 10 11  1  0  0  0  0
 10 19  2  0  0  0  0
 11 12  2  0  0  0  0
 11 20  1  0  0  0  0
 12 13  1  0  0  0  0
 12 14  1  0  0  0  0
 14 15  1  0  0  0  0
 14 17  2  0  0  0  0
 15 16  1  0  0  0  0
 17 18  1  0  0  0  0
 17 19  1  0  0  0  0
 20 21  2  0  0  0  0
 20 22  1  0  0  0  0
 23 24  1  0  0  0  0
M  END
>  <name>
O(C)c1c(O)cc(C2Oc3c(c(O)c(C[C;olefin])c(O)c3)C(=O)C2)cc1

>  <apo>
1

>  <freq>
1

>  <freq0>
0

>  <freq1>
1

>  <freqA>
0.9949851

$$$$

  MOE2015           2D

 22 24  0  0  1  0  0  0  0  0999 V2000
    3.3070    5.7280    0.0000 O   0  0  0  0  0  0  0  0  0  0  0  0
    4.0570    4.4290    0.0000 C   0  0  0  0  0  0  0  0  0  0  0  0
    1.8070    5.7280    0.0000 C   0  0  0  0  0  0  0  0  0  0  0  0
    1.0570    7.0270    0.0000 C   0  0  0  0  0  0  0  0  0  0  0  0
    1.8070    8.3260    0.0000 O   0  0  0  0  0  0  0  0  0  0  0  0
   -0.4430    7.0270    0.0000 C   0  0  0  0  0  0  0  0  0  0  0  0
   -1.1930    5.7280    0.0000 C   0  0  0  0  0  0  0  0  0  0  0  0
   -2.6930    5.7280    0.0000 C   0  0  3  0  0  0  0  0  0  0  0  0
   -3.4430    4.4290    0.0000 O   0  0  0  0  0  0  0  0  0  0  0  0
   -4.9430    4.4290    0.0000 C   0  0  0  0  0  0  0  0  0  0  0  0
   -5.6930    5.7280    0.0000 C   0  0  0  0  0  0  0  0  0  0  0  0
   -7.1930    5.7280    0.0000 C   0  0  0  0  0  0  0  0  0  0  0  0
   -7.9430    7.0270    0.0000 O   0  0  0  0  0  0  0  0  0  0  0  0
   -7.9430    4.4290    0.0000 C   0  0  0  0  0  0  0  0  0  0  0  0
   -7.1930    3.1300    0.0000 C   0  0  0  0  0  0  0  0  0  0  0  0
   -7.9430    1.8300    0.0000 O   0  0  0  0  0  0  0  0  0  0  0  0
   -5.6930    3.1300    0.0000 C   0  0  0  0  0  0  0  0  0  0  0  0
   -4.9430    7.0270    0.0000 C   0  0  0  0  0  0  0  0  0  0  0  0
   -5.6930    8.3260    0.0000 O   0  0  0  0  0  0  0  0  0  0  0  0
   -3.4430    7.0270    0.0000 C   0  0  0  0  0  0  0  0  0  0  0  0
   -0.4430    4.4290    0.0000 C   0  0  0  0  0  0  0  0  0  0  0  0
    1.0570    4.4290    0.0000 C   0  0  0  0  0  0  0  0  0  0  0  0
  1  2  1  0  0  0  0
  1  3  1  0  0  0  0
  3  4  1  0  0  0  0
  3 22  2  0  0  0  0
  4  5  1  0  0  0  0
  4  6  2  0  0  0  0
  6  7  1  0  0  0  0
  7  8  1  0  0  0  0
  7 21  2  0  0  0  0
  8  9  1  0  0  0  0
  8 20  1  0  0  0  0
  9 10  1  0  0  0  0
 10 11  1  0  0  0  0
 10 17  2  0  0  0  0
 11 12  2  0  0  0  0
 11 18  1  0  0  0  0
 12 13  1  0  0  0  0
 12 14  1  0  0  0  0
 14 15  2  0  0  0  0
 15 16  1  0  0  0  0
 15 17  1  0  0  0  0
 18 19  2  0  0  0  0
 18 20  1  0  0  0  0
 21 22  1  0  0  0  0
M  END
>  <name>
O(C)c1c(O)cc(C2Oc3c(c(O)cc([O;ether])c3)C(=O)C2)cc1

>  <apo>
1

>  <freq>
1

>  <freq0>
0

>  <freq1>
1

>  <freqA>
0.9949851

$$$$

  MOE2015           2D

 10 10  0  0  0  0  0  0  0  0999 V2000
   -3.8250    1.9490    0.0000 O   0  0  0  0  0  0  0  0  0  0  0  0
   -4.5750    0.6500    0.0000 C   0  0  0  0  0  0  0  0  0  0  0  0
   -2.3250    1.9490    0.0000 C   0  0  0  0  0  0  0  0  0  0  0  0
   -1.5750    3.2480    0.0000 C   0  0  0  0  0  0  0  0  0  0  0  0
   -2.3250    4.5470    0.0000 O   0  0  0  0  0  0  0  0  0  0  0  0
   -0.0750    3.2480    0.0000 C   0  0  0  0  0  0  0  0  0  0  0  0
    0.6750    1.9490    0.0000 C   0  0  0  0  0  0  0  0  0  0  0  0
    2.1750    1.9490    0.0000 C   0  0  0  0  0  0  0  0  0  0  0  0
   -0.0750    0.6500    0.0000 C   0  0  0  0  0  0  0  0  0  0  0  0
   -1.5750    0.6500    0.0000 C   0  0  0  0  0  0  0  0  0  0  0  0
  1  2  1  0  0  0  0
  1  3  1  0  0  0  0
  3  4  1  0  0  0  0
  3 10  2  0  0  0  0
  4  5  1  0  0  0  0
  4  6  2  0  0  0  0
  6  7  1  0  0  0  0
  7  8  1  0  0  0  0
  7  9  2  0  0  0  0
  9 10  1  0  0  0  0
M  END
>  <name>
O(C)c1c(O)cc([C;olefin])cc1

>  <apo>
1

>  <freq>
1

>  <freq0>
0

>  <freq1>
1

>  <freqA>
0.9949851

$$$$

  MOE2015           2D

 22 24  0  0  1  0  0  0  0  0999 V2000
    3.3070    5.7280    0.0000 O   0  0  0  0  0  0  0  0  0  0  0  0
    4.0570    4.4290    0.0000 C   0  0  0  0  0  0  0  0  0  0  0  0
    1.8070    5.7280    0.0000 C   0  0  0  0  0  0  0  0  0  0  0  0
    1.0570    7.0270    0.0000 C   0  0  0  0  0  0  0  0  0  0  0  0
    1.8070    8.3260    0.0000 O   0  0  0  0  0  0  0  0  0  0  0  0
   -0.4430    7.0270    0.0000 C   0  0  0  0  0  0  0  0  0  0  0  0
   -1.1930    5.7280    0.0000 C   0  0  0  0  0  0  0  0  0  0  0  0
   -2.6930    5.7280    0.0000 C   0  0  1  0  0  0  0  0  0  0  0  0
   -3.4430    4.4290    0.0000 O   0  0  0  0  0  0  0  0  0  0  0  0
   -4.9430    4.4290    0.0000 C   0  0  0  0  0  0  0  0  0  0  0  0
   -5.6930    5.7280    0.0000 C   0  0  0  0  0  0  0  0  0  0  0  0
   -7.1930    5.7280    0.0000 C   0  0  0  0  0  0  0  0  0  0  0  0
   -7.9430    7.0270    0.0000 O   0  0  0  0  0  0  0  0  0  0  0  0
   -7.9430    4.4290    0.0000 C   0  0  0  0  0  0  0  0  0  0  0  0
   -7.1930    3.1300    0.0000 C   0  0  0  0  0  0  0  0  0  0  0  0
   -7.9430    1.8300    0.0000 O   0  0  0  0  0  0  0  0  0  0  0  0
   -5.6930    3.1300    0.0000 C   0  0  0  0  0  0  0  0  0  0  0  0
   -4.9430    7.0270    0.0000 C   0  0  0  0  0  0  0  0  0  0  0  0
   -5.6930    8.3260    0.0000 O   0  0  0  0  0  0  0  0  0  0  0  0
   -3.4430    7.0270    0.0000 C   0  0  0  0  0  0  0  0  0  0  0  0
   -0.4430    4.4290    0.0000 C   0  0  0  0  0  0  0  0  0  0  0  0
    1.0570    4.4290    0.0000 C   0  0  0  0  0  0  0  0  0  0  0  0
  1  2  1  0  0  0  0
  1  3  1  0  0  0  0
  3  4  2  0  0  0  0
  3 22  1  0  0  0  0
  4  5  1  0  0  0  0
  4  6  1  0  0  0  0
  6  7  2  0  0  0  0
  8  7  1  1  0  0  0
  7 21  1  0  0  0  0
  8  9  1  0  0  0  0
  8 20  1  0  0  0  0
  9 10  1  0  0  0  0
 10 11  2  0  0  0  0
 10 17  1  0  0  0  0
 11 12  1  0  0  0  0
 11 18  1  0  0  0  0
 12 13  1  0  0  0  0
 12 14  2  0  0  0  0
 14 15  1  0  0  0  0
 15 16  1  0  0  0  0
 15 17  2  0  0  0  0
 18 19  2  0  0  0  0
 18 20  1  0  0  0  0
 21 22  2  0  0  0  0
M  END
>  <name>
O(C)c1c(O)cc([C@H]2Oc3c(c(O)cc([O;ether])c3)C(=O)C2)cc1

>  <apo>
1

>  <freq>
1

>  <freq0>
0

>  <freq1>
1

>  <freqA>
0.9949851

$$$$

  MOE2015           2D

  9  9  0  0  0  0  0  0  0  0999 V2000
    0.9170    1.5880    0.0000 O   0  0  0  0  0  0  0  0  0  0  0  0
    1.6670    0.2890    0.0000 C   0  0  0  0  0  0  0  0  0  0  0  0
   -0.5830    1.5880    0.0000 C   0  0  0  0  0  0  0  0  0  0  0  0
   -1.3330    2.8870    0.0000 C   0  0  0  0  0  0  0  0  0  0  0  0
   -0.5830    4.1860    0.0000 O   0  0  0  0  0  0  0  0  0  0  0  0
   -2.8330    2.8870    0.0000 C   0  0  0  0  0  0  0  0  0  0  0  0
   -3.5830    1.5880    0.0000 C   0  0  0  0  0  0  0  0  0  0  0  0
   -2.8330    0.2890    0.0000 C   0  0  0  0  0  0  0  0  0  0  0  0
   -1.3330    0.2890    0.0000 C   0  0  0  0  0  0  0  0  0  0  0  0
  1  2  1  0  0  0  0
  1  3  1  0  0  0  0
  3  4  1  0  0  0  0
  3  9  2  0  0  0  0
  4  5  1  0  0  0  0
  4  6  2  0  0  0  0
  6  7  1  0  0  0  0
  7  8  2  0  0  0  0
  8  9  1  0  0  0  0
M  END
>  <name>
O(C)c1c(O)cc[c;biphenyl]c1

>  <apo>
1

>  <freq>
1

>  <freq0>
0

>  <freq1>
1

>  <freqA>
0.9949851

$$$$

  MOE2015           2D

 11 11  0  0  0  0  0  0  0  0999 V2000
   -3.5030    1.4570    0.0000 O   0  0  0  0  0  0  0  0  0  0  0  0
   -3.5030   -0.0430    0.0000 C   0  0  0  0  0  0  0  0  0  0  0  0
   -2.2040    2.2070    0.0000 C   0  0  0  0  0  0  0  0  0  0  0  0
   -2.2040    3.7070    0.0000 C   0  0  0  0  0  0  0  0  0  0  0  0
   -3.5030    4.4570    0.0000 O   0  0  0  0  0  0  0  0  0  0  0  0
   -0.9050    4.4570    0.0000 C   0  0  0  0  0  0  0  0  0  0  0  0
    0.3940    3.7070    0.0000 C   0  0  0  0  0  0  0  0  0  0  0  0
    0.3940    2.2070    0.0000 C   0  0  0  0  0  0  0  0  0  0  0  0
    1.6930    1.4570    0.0000 C   0  0  0  0  0  0  0  0  0  0  0  0
    2.9920    2.2070    0.0000 N   0  0  0  0  0  0  0  0  0  0  0  0
   -0.9050    1.4570    0.0000 C   0  0  0  0  0  0  0  0  0  0  0  0
  1  2  1  0  0  0  0
  1  3  1  0  0  0  0
  3  4  1  0  0  0  0
  3 11  2  0  0  0  0
  4  5  1  0  0  0  0
  4  6  2  0  0  0  0
  6  7  1  0  0  0  0
  7  8  2  0  0  0  0
  8  9  1  0  0  0  0
  8 11  1  0  0  0  0
  9 10  1  0  0  0  0
M  END
>  <name>
O(C)c1c(O)ccc(C[N;amide])c1

>  <apo>
1

>  <freq>
1

>  <freq0>
0

>  <freq1>
1

>  <freqA>
0.9949851

$$$$

  MOE2015           2D

 25 27  0  0  1  0  0  0  0  0999 V2000
    6.3000    7.6900    0.0000 O   0  0  0  0  0  0  0  0  0  0  0  0
    5.5500    8.9890    0.0000 C   0  0  0  0  0  0  0  0  0  0  0  0
    5.5500    6.3910    0.0000 C   0  0  0  0  0  0  0  0  0  0  0  0
    6.3000    5.0920    0.0000 C   0  0  0  0  0  0  0  0  0  0  0  0
    7.8000    5.0920    0.0000 O   0  0  0  0  0  0  0  0  0  0  0  0
    5.5500    3.7930    0.0000 C   0  0  0  0  0  0  0  0  0  0  0  0
    4.0500    3.7930    0.0000 C   0  0  0  0  0  0  0  0  0  0  0  0
    3.3000    5.0920    0.0000 C   0  0  0  0  0  0  0  0  0  0  0  0
    1.8000    5.0920    0.0000 C   0  0  2  0  0  0  0  0  0  0  0  0
    1.0500    3.7930    0.0000 C   0  0  1  0  0  0  0  0  0  0  0  0
    1.8000    2.4940    0.0000 O   0  0  0  0  0  0  0  0  0  0  0  0
   -0.4500    3.7930    0.0000 C   0  0  0  0  0  0  0  0  0  0  0  0
   -1.2000    2.4940    0.0000 O   0  0  0  0  0  0  0  0  0  0  0  0
   -1.2000    5.0920    0.0000 C   0  0  0  0  0  0  0  0  0  0  0  0
   -2.7000    5.0920    0.0000 C   0  0  0  0  0  0  0  0  0  0  0  0
   -3.4500    3.7930    0.0000 O   0  0  0  0  0  0  0  0  0  0  0  0
   -3.4500    6.3910    0.0000 C   0  0  0  0  0  0  0  0  0  0  0  0
   -4.9500    6.3910    0.0000 C   0  0  0  0  0  0  0  0  0  0  0  0
   -5.7000    7.6900    0.0000 C   0  0  0  0  0  0  0  0  0  0  0  0
   -2.7000    7.6900    0.0000 C   0  0  0  0  0  0  0  0  0  0  0  0
   -3.4500    8.9890    0.0000 O   0  0  0  0  0  0  0  0  0  0  0  0
   -1.2000    7.6900    0.0000 C   0  0  0  0  0  0  0  0  0  0  0  0
   -0.4500    6.3910    0.0000 C   0  0  0  0  0  0  0  0  0  0  0  0
    1.0500    6.3910    0.0000 O   0  0  0  0  0  0  0  0  0  0  0  0
    4.0500    6.3910    0.0000 C   0  0  0  0  0  0  0  0  0  0  0  0
  1  2  1  0  0  0  0
  1  3  1  0  0  0  0
  3  4  1  0  0  0  0
  3 25  2  0  0  0  0
  4  5  1  0  0  0  0
  4  6  2  0  0  0  0
  6  7  1  0  0  0  0
  7  8  2  0  0  0  0
  9  8  1  6  0  0  0
  8 25  1  0  0  0  0
  9 10  1  0  0  0  0
  9 24  1  0  0  0  0
 10 11  1  1  0  0  0
 10 12  1  0  0  0  0
 12 13  2  0  0  0  0
 12 14  1  0  0  0  0
 14 15  2  0  0  0  0
 14 23  1  0  0  0  0
 15 16  1  0  0  0  0
 15 17  1  0  0  0  0
 17 18  1  0  0  0  0
 17 20  2  0  0  0  0
 18 19  1  0  0  0  0
 20 21  1  0  0  0  0
 20 22  1  0  0  0  0
 22 23  2  0  0  0  0
 23 24  1  0  0  0  0
M  END
>  <name>
O(C)c1c(O)ccc([C@@H]2[C@@H](O)C(=O)c3c(O)c(C[C;olefin])c(O)cc3O2)c1

>  <apo>
1

>  <freq>
1

>  <freq0>
0

>  <freq1>
1

>  <freqA>
0.9949851

$$$$

  MOE2015           2D

 24 26  0  0  1  0  0  0  0  0999 V2000
    5.7190   -3.3020    0.0000 O   0  0  0  0  0  0  0  0  0  0  0  0
    4.9690   -2.0030    0.0000 C   0  0  0  0  0  0  0  0  0  0  0  0
    4.9690   -4.6010    0.0000 C   0  0  0  0  0  0  0  0  0  0  0  0
    5.7190   -5.9000    0.0000 C   0  0  0  0  0  0  0  0  0  0  0  0
    7.2190   -5.9000    0.0000 O   0  0  0  0  0  0  0  0  0  0  0  0
    4.9690   -7.1990    0.0000 C   0  0  0  0  0  0  0  0  0  0  0  0
    3.4690   -7.1990    0.0000 C   0  0  0  0  0  0  0  0  0  0  0  0
    2.7190   -5.9000    0.0000 C   0  0  0  0  0  0  0  0  0  0  0  0
    1.2190   -5.9000    0.0000 C   0  0  1  0  0  0  0  0  0  0  0  0
    0.4690   -7.1990    0.0000 O   0  0  0  0  0  0  0  0  0  0  0  0
   -1.0310   -7.1990    0.0000 C   0  0  0  0  0  0  0  0  0  0  0  0
   -1.7810   -5.9000    0.0000 C   0  0  0  0  0  0  0  0  0  0  0  0
   -3.2810   -5.9000    0.0000 C   0  0  0  0  0  0  0  0  0  0  0  0
   -4.0310   -4.6010    0.0000 O   0  0  0  0  0  0  0  0  0  0  0  0
   -4.0310   -7.1990    0.0000 C   0  0  0  0  0  0  0  0  0  0  0  0
   -5.5310   -7.1990    0.0000 C   0  0  0  0  0  0  0  0  0  0  0  0
   -6.2810   -8.4980    0.0000 C   0  0  0  0  0  0  0  0  0  0  0  0
   -3.2810   -8.4980    0.0000 C   0  0  0  0  0  0  0  0  0  0  0  0
   -4.0310   -9.7970    0.0000 O   0  0  0  0  0  0  0  0  0  0  0  0
   -1.7810   -8.4980    0.0000 C   0  0  0  0  0  0  0  0  0  0  0  0
   -1.0310   -4.6010    0.0000 C   0  0  0  0  0  0  0  0  0  0  0  0
   -1.7810   -3.3020    0.0000 O   0  0  0  0  0  0  0  0  0  0  0  0
    0.4690   -4.6010    0.0000 C   0  0  0  0  0  0  0  0  0  0  0  0
    3.4690   -4.6010    0.0000 C   0  0  0  0  0  0  0  0  0  0  0  0
  1  2  1  0  0  0  0
  1  3  1  0  0  0  0
  3  4  1  0  0  0  0
  3 24  2  0  0  0  0
  4  5  1  0  0  0  0
  4  6  2  0  0  0  0
  6  7  1  0  0  0  0
  7  8  2  0  0  0  0
  9  8  1  1  0  0  0
  8 24  1  0  0  0  0
  9 10  1  0  0  0  0
  9 23  1  0  0  0  0
 10 11  1  0  0  0  0
 11 12  2  0  0  0  0
 11 20  1  0  0  0  0
 12 13  1  0  0  0  0
 12 21  1  0  0  0  0
 13 14  1  0  0  0  0
 13 15  2  0  0  0  0
 15 16  1  0  0  0  0
 15 18  1  0  0  0  0
 16 17  1  0  0  0  0
 18 19  1  0  0  0  0
 18 20  2  0  0  0  0
 21 22  2  0  0  0  0
 21 23  1  0  0  0  0
M  END
>  <name>
O(C)c1c(O)ccc([C@H]2Oc3c(c(O)c(C[C;olefin])c(O)c3)C(=O)C2)c1

>  <apo>
1

>  <freq>
1

>  <freq0>
0

>  <freq1>
1

>  <freqA>
0.9949851

$$$$

  MOE2015           2D

 26 28  0  0  1  0  0  0  0  0999 V2000
    0.0080   -4.1270    0.0000 O   0  0  0  0  0  0  0  0  0  0  0  0
    1.5080   -4.1210    0.0000 C   0  0  0  0  0  0  0  0  0  0  0  0
   -0.7470   -2.8300    0.0000 C   0  0  0  0  0  0  0  0  0  0  0  0
   -2.2470   -2.8360    0.0000 C   0  0  0  0  0  0  0  0  0  0  0  0
   -2.9920   -4.1380    0.0000 O   0  0  0  0  0  0  0  0  0  0  0  0
   -2.2370   -5.4340    0.0000 C   0  0  0  0  0  0  0  0  0  0  0  0
   -3.0020   -1.5400    0.0000 C   0  0  0  0  0  0  0  0  0  0  0  0
   -2.2570   -0.2380    0.0000 C   0  0  0  0  0  0  0  0  0  0  0  0
   -0.7570   -0.2320    0.0000 C   0  0  0  0  0  0  0  0  0  0  0  0
   -0.0020   -1.5290    0.0000 C   0  0  0  0  0  0  0  0  0  0  0  0
    1.4980   -1.5230    0.0000 O   0  0  0  0  0  0  0  0  0  0  0  0
    2.2430   -0.2210    0.0000 C   0  0  0  0  0  0  0  0  0  0  0  0
   -2.8100    1.1560    0.0000 C   0  0  0  0  0  0  0  0  0  0  0  0
   -4.2450    1.5920    0.0000 C   0  0  0  0  0  0  0  0  0  0  0  0
   -5.4810    0.7420    0.0000 C   0  0  3  0  0  0  0  0  0  0  0  0
   -6.7830    1.4870    0.0000 N   0  0  0  0  0  0  0  0  0  0  0  0
   -5.5890   -0.7550    0.0000 C   0  0  0  0  0  0  0  0  0  0  0  0
   -4.4840   -1.7700    0.0000 C   0  0  0  0  0  0  0  0  0  0  0  0
   -4.5910   -3.2660    0.0000 C   0  0  0  0  0  0  0  0  0  0  0  0
   -5.8270   -4.1160    0.0000 C   0  0  0  0  0  0  0  0  0  0  0  0
   -7.2620   -3.6810    0.0000 C   0  0  0  0  0  0  0  0  0  0  0  0
   -8.2780   -4.7840    0.0000 O   0  0  0  0  0  0  0  0  0  0  0  0
   -7.8300   -6.2160    0.0000 C   0  0  0  0  0  0  0  0  0  0  0  0
   -7.8150   -2.2860    0.0000 C   0  0  0  0  0  0  0  0  0  0  0  0
   -9.3110   -2.1790    0.0000 O   0  0  0  0  0  0  0  0  0  0  0  0
   -7.0710   -0.9850    0.0000 C   0  0  0  0  0  0  0  0  0  0  0  0
  1  2  1  0  0  0  0
  1  3  1  0  0  0  0
  3  4  1  0  0  0  0
  3 10  2  0  0  0  0
  4  5  1  0  0  0  0
  4  7  2  0  0  0  0
  5  6  1  0  0  0  0
  7  8  1  0  0  0  0
  7 18  1  0  0  0  0
  8  9  2  0  0  0  0
  8 13  1  0  0  0  0
  9 10  1  0  0  0  0
 10 11  1  0  0  0  0
 11 12  1  0  0  0  0
 13 14  1  0  0  0  0
 14 15  1  0  0  0  0
 15 16  1  0  0  0  0
 15 17  1  0  0  0  0
 17 18  1  0  0  0  0
 17 26  2  0  0  0  0
 18 19  2  0  0  0  0
 19 20  1  0  0  0  0
 20 21  2  0  0  0  0
 21 22  1  0  0  0  0
 21 24  1  0  0  0  0
 22 23  1  0  0  0  0
 24 25  2  0  0  0  0
 24 26  1  0  0  0  0
M  END
>  <name>
O(C)c1c(OC)c2c(cc1OC)CCC([N;amide])C=1C2=CC=C(OC)C(=O)C=1

>  <apo>
1

>  <freq>
1

>  <freq0>
0

>  <freq1>
1

>  <freqA>
0.9949851

$$$$

  MOE2015           2D

 27 30  0  0  1  0  0  0  0  0999 V2000
   -7.0240    6.5890    0.0000 O   0  0  0  0  0  0  0  0  0  0  0  0
   -7.0240    5.0890    0.0000 C   0  0  0  0  0  0  0  0  0  0  0  0
   -5.7250    7.3390    0.0000 C   0  0  0  0  0  0  0  0  0  0  0  0
   -5.7250    8.8390    0.0000 C   0  0  0  0  0  0  0  0  0  0  0  0
   -7.0240    9.5890    0.0000 O   0  0  0  0  0  0  0  0  0  0  0  0
   -7.0240   11.0890    0.0000 C   0  0  0  0  0  0  0  0  0  0  0  0
   -4.4260    9.5890    0.0000 C   0  0  0  0  0  0  0  0  0  0  0  0
   -3.1270    8.8390    0.0000 C   0  0  0  0  0  0  0  0  0  0  0  0
   -3.1270    7.3390    0.0000 C   0  0  0  0  0  0  0  0  0  0  0  0
   -1.8280    6.5890    0.0000 C   0  0  2  0  0  0  0  0  0  0  0  0
   -1.6710    5.0970    0.0000 O   0  0  0  0  0  0  0  0  0  0  0  0
   -0.2040    4.7850    0.0000 C   0  0  0  0  0  0  0  0  0  0  0  0
    0.5460    6.0840    0.0000 C   0  0  2  0  0  0  0  0  0  0  0  0
    1.9160    6.6950    0.0000 C   0  0  1  0  0  0  0  0  0  0  0  0
    3.2160    5.9450    0.0000 C   0  0  0  0  0  0  0  0  0  0  0  0
    4.5150    6.6950    0.0000 C   0  0  0  0  0  0  0  0  0  0  0  0
    5.8140    5.9450    0.0000 C   0  0  0  0  0  0  0  0  0  0  0  0
    7.1130    6.6950    0.0000 O   0  0  0  0  0  0  0  0  0  0  0  0
    7.1130    8.1950    0.0000 C   0  0  0  0  0  0  0  0  0  0  0  0
    5.8140    4.4450    0.0000 C   0  0  0  0  0  0  0  0  0  0  0  0
    7.1130    3.6950    0.0000 O   0  0  0  0  0  0  0  0  0  0  0  0
    4.5150    3.6950    0.0000 C   0  0  0  0  0  0  0  0  0  0  0  0
    3.2160    4.4450    0.0000 C   0  0  0  0  0  0  0  0  0  0  0  0
    1.7600    8.1860    0.0000 O   0  0  0  0  0  0  0  0  0  0  0  0
    0.2920    8.4980    0.0000 C   0  0  0  0  0  0  0  0  0  0  0  0
   -0.4580    7.1990    0.0000 C   0  0  2  0  0  0  0  0  0  0  0  0
   -4.4260    6.5890    0.0000 C   0  0  0  0  0  0  0  0  0  0  0  0
  1  2  1  0  0  0  0
  1  3  1  0  0  0  0
  3  4  1  0  0  0  0
  3 27  2  0  0  0  0
  4  5  1  0  0  0  0
  4  7  2  0  0  0  0
  5  6  1  0  0  0  0
  7  8  1  0  0  0  0
  8  9  2  0  0  0  0
 10  9  1  1  0  0  0
  9 27  1  0  0  0  0
 10 11  1  0  0  0  0
 10 26  1  0  0  0  0
 11 12  1  0  0  0  0
 13 12  1  1  0  0  0
 13 14  1  0  0  0  0
 13 26  1  0  0  0  0
 14 15  1  6  0  0  0
 14 24  1  0  0  0  0
 15 16  1  0  0  0  0
 15 23  2  0  0  0  0
 16 17  2  0  0  0  0
 17 18  1  0  0  0  0
 17 20  1  0  0  0  0
 18 19  1  0  0  0  0
 20 21  1  0  0  0  0
 20 22  2  0  0  0  0
 22 23  1  0  0  0  0
 24 25  1  0  0  0  0
 26 25  1  1  0  0  0
M  END
>  <name>
O(C)c1c(OC)ccc([C@@H]2OC[C@@H]3[C@@H](c4cc(OC)c([O;ether])cc4)OC[C@H]23)c1

>  <apo>
1

>  <freq>
1

>  <freq0>
0

>  <freq1>
1

>  <freqA>
0.9949851

$$$$

  MOE2015           2D

 27 30  0  0  0  0  0  0  0  0999 V2000
    2.7840   -5.4660    0.0000 O   0  0  0  0  0  0  0  0  0  0  0  0
    2.7840   -6.9660    0.0000 C   0  0  0  0  0  0  0  0  0  0  0  0
    1.4850   -4.7160    0.0000 C   0  0  0  0  0  0  0  0  0  0  0  0
    1.4850   -3.2160    0.0000 C   0  0  0  0  0  0  0  0  0  0  0  0
    2.7840   -2.4660    0.0000 C   0  0  0  0  0  0  0  0  0  0  0  0
    4.0830   -3.2160    0.0000 C   0  0  0  0  0  0  0  0  0  0  0  0
    0.1860   -2.4660    0.0000 C   0  0  0  0  0  0  0  0  0  0  0  0
    0.1860   -0.9660    0.0000 O   0  0  0  0  0  0  0  0  0  0  0  0
   -1.1130   -0.2160    0.0000 C   0  0  0  0  0  0  0  0  0  0  0  0
   -1.1130    1.2840    0.0000 O   0  0  0  0  0  0  0  0  0  0  0  0
   -2.4120   -0.9660    0.0000 C   0  0  0  0  0  0  0  0  0  0  0  0
   -2.4120   -2.4660    0.0000 C   0  0  0  0  0  0  0  0  0  0  0  0
   -3.7110   -3.2160    0.0000 C   0  0  0  0  0  0  0  0  0  0  0  0
   -3.7110   -4.7160    0.0000 C   0  0  0  0  0  0  0  0  0  0  0  0
   -5.0100   -5.4660    0.0000 C   0  0  0  0  0  0  0  0  0  0  0  0
   -6.3090   -4.7160    0.0000 C   0  0  0  0  0  0  0  0  0  0  0  0
   -6.3090   -3.2160    0.0000 C   0  0  0  0  0  0  0  0  0  0  0  0
   -5.0100   -2.4660    0.0000 C   0  0  0  0  0  0  0  0  0  0  0  0
   -1.1130   -3.2160    0.0000 C   0  0  0  0  0  0  0  0  0  0  0  0
   -1.1130   -4.7160    0.0000 C   0  0  0  0  0  0  0  0  0  0  0  0
   -2.4120   -5.4660    0.0000 O   0  0  0  0  0  0  0  0  0  0  0  0
   -2.4120   -6.9660    0.0000 C   0  0  0  0  0  0  0  0  0  0  0  0
   -3.9120   -6.9660    0.0000 C   0  0  0  0  0  0  0  0  0  0  0  0
   -3.1620   -8.2650    0.0000 C   0  0  0  0  0  0  0  0  0  0  0  0
   -1.1130   -7.7160    0.0000 C   0  0  0  0  0  0  0  0  0  0  0  0
    0.1860   -6.9660    0.0000 C   0  0  0  0  0  0  0  0  0  0  0  0
    0.1860   -5.4660    0.0000 C   0  0  0  0  0  0  0  0  0  0  0  0
  1  2  1  0  0  0  0
  1  3  1  0  0  0  0
  3  4  1  0  0  0  0
  3 27  2  0  0  0  0
  4  5  1  0  0  0  0
  4  7  2  0  0  0  0
  5  6  2  0  0  0  0
  7  8  1  0  0  0  0
  7 19  1  0  0  0  0
  8  9  1  0  0  0  0
  9 10  2  0  0  0  0
  9 11  1  0  0  0  0
 11 12  2  0  0  0  0
 12 13  1  0  0  0  0
 12 19  1  0  0  0  0
 13 14  1  0  0  0  0
 13 18  2  0  0  0  0
 14 15  2  0  0  0  0
 15 16  1  0  0  0  0
 16 17  2  0  0  0  0
 17 18  1  0  0  0  0
 19 20  2  0  0  0  0
 20 21  1  0  0  0  0
 20 27  1  0  0  0  0
 21 22  1  0  0  0  0
 22 23  1  0  0  0  0
 22 24  1  0  0  0  0
 22 25  1  0  0  0  0
 25 26  2  0  0  0  0
 26 27  1  0  0  0  0
M  END
>  <name>
O(C)c1c([C;olefin]=C)c2OC(=O)C=C(c3ccccc3)c2c2OC(C)(C)C=Cc12

>  <apo>
1

>  <freq>
1

>  <freq0>
0

>  <freq1>
1

>  <freqA>
0.9949851

$$$$

  MOE2015           2D

 12 12  0  0  0  0  0  0  0  0999 V2000
    0.9110    1.1480    0.0000 O   0  0  0  0  0  0  0  0  0  0  0  0
    2.2100    1.8980    0.0000 C   0  0  0  0  0  0  0  0  0  0  0  0
   -0.3880    1.8980    0.0000 C   0  0  0  0  0  0  0  0  0  0  0  0
   -1.6870    1.1480    0.0000 C   0  0  0  0  0  0  0  0  0  0  0  0
   -1.6870   -0.3520    0.0000 O   0  0  0  0  0  0  0  0  0  0  0  0
   -2.9870    1.8980    0.0000 C   0  0  0  0  0  0  0  0  0  0  0  0
   -4.2860    1.1480    0.0000 O   0  0  0  0  0  0  0  0  0  0  0  0
   -5.5850    1.8980    0.0000 C   0  0  0  0  0  0  0  0  0  0  0  0
   -2.9870    3.3980    0.0000 C   0  0  0  0  0  0  0  0  0  0  0  0
   -1.6870    4.1480    0.0000 C   0  0  0  0  0  0  0  0  0  0  0  0
   -1.6870    5.6480    0.0000 C   0  0  0  0  0  0  0  0  0  0  0  0
   -0.3880    3.3980    0.0000 C   0  0  0  0  0  0  0  0  0  0  0  0
  1  2  1  0  0  0  0
  1  3  1  0  0  0  0
  3  4  1  0  0  0  0
  3 12  2  0  0  0  0
  4  5  1  0  0  0  0
  4  6  2  0  0  0  0
  6  7  1  0  0  0  0
  6  9  1  0  0  0  0
  7  8  1  0  0  0  0
  9 10  2  0  0  0  0
 10 11  1  0  0  0  0
 10 12  1  0  0  0  0
M  END
>  <name>
O(C)c1c([O;ether])c(OC)cc([C;olefin])c1

>  <apo>
2

>  <freq>
1

>  <freq0>
0

>  <freq1>
1

>  <freqA>
0.9949851

$$$$

  MOE2015           2D

 16 17  0  0  1  0  0  0  0  0999 V2000
   -3.8180    3.9460    0.0000 O   0  0  0  0  0  0  0  0  0  0  0  0
   -5.1170    4.6960    0.0000 C   0  0  0  0  0  0  0  0  0  0  0  0
   -3.8180    2.4460    0.0000 C   0  0  0  0  0  0  0  0  0  0  0  0
   -2.5190    1.6960    0.0000 C   0  0  0  0  0  0  0  0  0  0  0  0
   -1.2200    2.4460    0.0000 C   0  0  1  0  0  0  0  0  0  0  0  0
   -1.2200    3.9460    0.0000 C   0  0  0  0  0  0  0  0  0  0  0  0
    0.0790    1.6960    0.0000 N   0  0  2  0  0  0  0  0  0  0  0  0
    1.3780    2.4460    0.0000 C   0  0  0  0  0  0  0  0  0  0  0  0
    0.0790    0.1960    0.0000 C   0  0  1  0  0  0  0  0  0  0  0  0
    1.3780   -0.5540    0.0000 C   0  0  0  0  0  0  0  0  0  0  0  0
   -1.2200   -0.5540    0.0000 C   0  0  0  0  0  0  0  0  0  0  0  0
   -2.5190    0.1960    0.0000 C   0  0  0  0  0  0  0  0  0  0  0  0
   -3.8180   -0.5540    0.0000 C   0  0  0  0  0  0  0  0  0  0  0  0
   -5.1170    0.1960    0.0000 C   0  0  0  0  0  0  0  0  0  0  0  0
   -6.4160   -0.5540    0.0000 O   0  0  0  0  0  0  0  0  0  0  0  0
   -5.1170    1.6960    0.0000 C   0  0  0  0  0  0  0  0  0  0  0  0
  1  2  1  0  0  0  0
  1  3  1  0  0  0  0
  3  4  1  0  0  0  0
  3 16  2  0  0  0  0
  4  5  1  0  0  0  0
  4 12  2  0  0  0  0
  5  6  1  1  0  0  0
  5  7  1  0  0  0  0
  7  8  1  6  0  0  0
  7  9  1  0  0  0  0
  9 10  1  1  0  0  0
  9 11  1  0  0  0  0
 11 12  1  0  0  0  0
 12 13  1  0  0  0  0
 13 14  2  0  0  0  0
 14 15  1  0  0  0  0
 14 16  1  0  0  0  0
M  END
>  <name>
O(C)c1c2[C@@H](C)[N@](C)[C@@H](C)Cc2cc(O)[c;biphenyl]1

>  <apo>
1

>  <freq>
1

>  <freq0>
0

>  <freq1>
1

>  <freqA>
0.9949851

$$$$

  MOE2015           2D

 14 15  0  0  0  0  0  0  0  0999 V2000
   -4.8210    0.0000    0.0000 O   0  0  0  0  0  0  0  0  0  0  0  0
   -6.3210    0.0000    0.0000 C   0  0  0  0  0  0  0  0  0  0  0  0
   -4.0710    1.2990    0.0000 C   0  0  0  0  0  0  0  0  0  0  0  0
   -2.5710    1.2990    0.0000 C   0  0  0  0  0  0  0  0  0  0  0  0
   -1.8210    0.0000    0.0000 C   0  0  0  0  0  0  0  0  0  0  0  0
   -2.5710   -1.2990    0.0000 O   0  0  0  0  0  0  0  0  0  0  0  0
   -0.3210    0.0000    0.0000 C   0  0  0  0  0  0  0  0  0  0  0  0
    0.4290    1.2990    0.0000 C   0  0  0  0  0  0  0  0  0  0  0  0
    1.9290    1.2990    0.0000 C   0  0  0  0  0  0  0  0  0  0  0  0
   -0.3210    2.5980    0.0000 C   0  0  0  0  0  0  0  0  0  0  0  0
   -1.8210    2.5980    0.0000 C   0  0  0  0  0  0  0  0  0  0  0  0
   -2.5710    3.8970    0.0000 C   0  0  0  0  0  0  0  0  0  0  0  0
   -4.0710    3.8970    0.0000 C   0  0  0  0  0  0  0  0  0  0  0  0
   -4.8210    2.5980    0.0000 C   0  0  0  0  0  0  0  0  0  0  0  0
  1  2  1  0  0  0  0
  1  3  1  0  0  0  0
  3  4  1  0  0  0  0
  3 14  2  0  0  0  0
  4  5  1  0  0  0  0
  4 11  2  0  0  0  0
  5  6  1  0  0  0  0
  5  7  2  0  0  0  0
  7  8  1  0  0  0  0
  8  9  1  0  0  0  0
  8 10  2  0  0  0  0
 10 11  1  0  0  0  0
 11 12  1  0  0  0  0
 12 13  2  0  0  0  0
 13 14  1  0  0  0  0
M  END
>  <name>
O(C)c1c2c(O)[c;biphenyl]c(C)cc2ccc1

>  <apo>
1

>  <freq>
1

>  <freq0>
0

>  <freq1>
1

>  <freqA>
0.9949851

$$$$

  MOE2015           2D

 14 15  0  0  0  0  0  0  0  0999 V2000
   -2.7640    4.0810    0.0000 O   0  0  0  0  0  0  0  0  0  0  0  0
   -4.0630    4.8310    0.0000 C   0  0  0  0  0  0  0  0  0  0  0  0
   -2.7640    2.5810    0.0000 C   0  0  0  0  0  0  0  0  0  0  0  0
   -1.4650    1.8310    0.0000 C   0  0  0  0  0  0  0  0  0  0  0  0
   -0.1660    2.5810    0.0000 C   0  0  0  0  0  0  0  0  0  0  0  0
   -0.1660    4.0810    0.0000 O   0  0  0  0  0  0  0  0  0  0  0  0
    1.1330    1.8310    0.0000 C   0  0  0  0  0  0  0  0  0  0  0  0
    1.1330    0.3310    0.0000 C   0  0  0  0  0  0  0  0  0  0  0  0
   -0.1660   -0.4190    0.0000 C   0  0  0  0  0  0  0  0  0  0  0  0
   -1.4650    0.3310    0.0000 C   0  0  0  0  0  0  0  0  0  0  0  0
   -2.7640   -0.4190    0.0000 C   0  0  0  0  0  0  0  0  0  0  0  0
   -4.0630    0.3310    0.0000 C   0  0  0  0  0  0  0  0  0  0  0  0
   -5.3620   -0.4190    0.0000 C   0  0  0  0  0  0  0  0  0  0  0  0
   -4.0630    1.8310    0.0000 C   0  0  0  0  0  0  0  0  0  0  0  0
  1  2  1  0  0  0  0
  1  3  1  0  0  0  0
  3  4  1  0  0  0  0
  3 14  2  0  0  0  0
  4  5  1  0  0  0  0
  4 10  2  0  0  0  0
  5  6  1  0  0  0  0
  5  7  2  0  0  0  0
  7  8  1  0  0  0  0
  8  9  2  0  0  0  0
  9 10  1  0  0  0  0
 10 11  1  0  0  0  0
 11 12  2  0  0  0  0
 12 13  1  0  0  0  0
 12 14  1  0  0  0  0
M  END
>  <name>
O(C)c1c2c(O)[c;biphenyl]ccc2cc(C)c1

>  <apo>
1

>  <freq>
1

>  <freq0>
0

>  <freq1>
1

>  <freqA>
0.9949851

$$$$

  MOE2015           2D

 21 23  0  0  0  0  0  0  0  0999 V2000
   -5.3790    3.9160    0.0000 O   0  0  0  0  0  0  0  0  0  0  0  0
   -6.6780    4.6660    0.0000 C   0  0  0  0  0  0  0  0  0  0  0  0
   -5.3790    2.4160    0.0000 C   0  0  0  0  0  0  0  0  0  0  0  0
   -4.0800    1.6660    0.0000 C   0  0  0  0  0  0  0  0  0  0  0  0
   -2.7810    2.4160    0.0000 C   0  0  0  0  0  0  0  0  0  0  0  0
   -2.7810    3.9160    0.0000 O   0  0  0  0  0  0  0  0  0  0  0  0
   -1.4820    1.6660    0.0000 C   0  0  0  0  0  0  0  0  0  0  0  0
   -0.1830    2.4160    0.0000 C   0  0  0  0  0  0  0  0  0  0  0  0
   -0.1830    3.9160    0.0000 O   0  0  0  0  0  0  0  0  0  0  0  0
    1.1160    1.6660    0.0000 C   0  0  0  0  0  0  0  0  0  0  0  0
    1.1160    0.1660    0.0000 C   0  0  0  0  0  0  0  0  0  0  0  0
    2.4150   -0.5840    0.0000 C   0  0  0  0  0  0  0  0  0  0  0  0
   -0.1830   -0.5840    0.0000 O   0  0  0  0  0  0  0  0  0  0  0  0
   -1.4820    0.1660    0.0000 C   0  0  0  0  0  0  0  0  0  0  0  0
   -2.7810   -0.5840    0.0000 C   0  0  0  0  0  0  0  0  0  0  0  0
   -4.0800    0.1660    0.0000 C   0  0  0  0  0  0  0  0  0  0  0  0
   -5.3790   -0.5840    0.0000 C   0  0  0  0  0  0  0  0  0  0  0  0
   -6.6780    0.1660    0.0000 C   0  0  0  0  0  0  0  0  0  0  0  0
   -7.9770   -0.5840    0.0000 O   0  0  0  0  0  0  0  0  0  0  0  0
   -7.9770   -2.0840    0.0000 C   0  0  0  0  0  0  0  0  0  0  0  0
   -6.6780    1.6660    0.0000 C   0  0  0  0  0  0  0  0  0  0  0  0
  1  2  1  0  0  0  0
  1  3  1  0  0  0  0
  3  4  1  0  0  0  0
  3 21  2  0  0  0  0
  4  5  1  0  0  0  0
  4 16  2  0  0  0  0
  5  6  1  0  0  0  0
  5  7  2  0  0  0  0
  7  8  1  0  0  0  0
  7 14  1  0  0  0  0
  8  9  2  0  0  0  0
  8 10  1  0  0  0  0
 10 11  2  0  0  0  0
 11 12  1  0  0  0  0
 11 13  1  0  0  0  0
 13 14  1  0  0  0  0
 14 15  2  0  0  0  0
 15 16  1  0  0  0  0
 16 17  1  0  0  0  0
 17 18  2  0  0  0  0
 18 19  1  0  0  0  0
 18 21  1  0  0  0  0
 19 20  1  0  0  0  0
M  END
>  <name>
O(C)c1c2c(O)c3C(=O)C=C(C)Oc3[c;biphenyl]c2cc(OC)c1

>  <apo>
1

>  <freq>
1

>  <freq0>
0

>  <freq1>
1

>  <freqA>
0.9949851

$$$$

  MOE2015           2D

 21 23  0  0  0  0  0  0  0  0999 V2000
   -5.3790    3.9160    0.0000 O   0  0  0  0  0  0  0  0  0  0  0  0
   -6.6780    4.6660    0.0000 C   0  0  0  0  0  0  0  0  0  0  0  0
   -5.3790    2.4160    0.0000 C   0  0  0  0  0  0  0  0  0  0  0  0
   -4.0800    1.6660    0.0000 C   0  0  0  0  0  0  0  0  0  0  0  0
   -2.7810    2.4160    0.0000 C   0  0  0  0  0  0  0  0  0  0  0  0
   -2.7810    3.9160    0.0000 O   0  0  0  0  0  0  0  0  0  0  0  0
   -1.4820    1.6660    0.0000 C   0  0  0  0  0  0  0  0  0  0  0  0
   -0.1830    2.4160    0.0000 C   0  0  0  0  0  0  0  0  0  0  0  0
   -0.1830    3.9160    0.0000 O   0  0  0  0  0  0  0  0  0  0  0  0
    1.1160    1.6660    0.0000 C   0  0  0  0  0  0  0  0  0  0  0  0
    1.1160    0.1660    0.0000 C   0  0  0  0  0  0  0  0  0  0  0  0
    2.4150   -0.5840    0.0000 C   0  0  0  0  0  0  0  0  0  0  0  0
   -0.1830   -0.5840    0.0000 O   0  0  0  0  0  0  0  0  0  0  0  0
   -1.4820    0.1660    0.0000 C   0  0  0  0  0  0  0  0  0  0  0  0
   -2.7810   -0.5840    0.0000 C   0  0  0  0  0  0  0  0  0  0  0  0
   -4.0800    0.1660    0.0000 C   0  0  0  0  0  0  0  0  0  0  0  0
   -5.3790   -0.5840    0.0000 C   0  0  0  0  0  0  0  0  0  0  0  0
   -6.6780    0.1660    0.0000 C   0  0  0  0  0  0  0  0  0  0  0  0
   -7.9770   -0.5840    0.0000 O   0  0  0  0  0  0  0  0  0  0  0  0
   -7.9770   -2.0840    0.0000 C   0  0  0  0  0  0  0  0  0  0  0  0
   -6.6780    1.6660    0.0000 C   0  0  0  0  0  0  0  0  0  0  0  0
  1  2  1  0  0  0  0
  1  3  1  0  0  0  0
  3  4  1  0  0  0  0
  3 21  2  0  0  0  0
  4  5  1  0  0  0  0
  4 16  2  0  0  0  0
  5  6  1  0  0  0  0
  5  7  2  0  0  0  0
  7  8  1  0  0  0  0
  7 14  1  0  0  0  0
  8  9  2  0  0  0  0
  8 10  1  0  0  0  0
 10 11  2  0  0  0  0
 11 12  1  0  0  0  0
 11 13  1  0  0  0  0
 13 14  1  0  0  0  0
 14 15  2  0  0  0  0
 15 16  1  0  0  0  0
 16 17  1  0  0  0  0
 17 18  2  0  0  0  0
 18 19  1  0  0  0  0
 18 21  1  0  0  0  0
 19 20  1  0  0  0  0
M  END
>  <name>
O(C)c1c2c(O)c3C(=O)C=C(C)Oc3cc2cc(OC)[c;biphenyl]1

>  <apo>
1

>  <freq>
1

>  <freq0>
0

>  <freq1>
1

>  <freqA>
0.9949851

$$$$

  MOE2015           2D

 15 16  0  0  0  0  0  0  0  0999 V2000
   -2.6500    4.5900    0.0000 O   0  0  0  0  0  0  0  0  0  0  0  0
   -1.9000    5.8890    0.0000 C   0  0  0  0  0  0  0  0  0  0  0  0
   -1.9000    3.2910    0.0000 C   0  0  0  0  0  0  0  0  0  0  0  0
   -2.6500    1.9920    0.0000 C   0  0  0  0  0  0  0  0  0  0  0  0
   -4.1500    1.9920    0.0000 C   0  0  0  0  0  0  0  0  0  0  0  0
   -4.9000    3.2910    0.0000 O   0  0  0  0  0  0  0  0  0  0  0  0
   -4.9000    0.6930    0.0000 C   0  0  0  0  0  0  0  0  0  0  0  0
   -4.1500   -0.6060    0.0000 C   0  0  0  0  0  0  0  0  0  0  0  0
   -2.6500   -0.6060    0.0000 C   0  0  0  0  0  0  0  0  0  0  0  0
   -1.9000    0.6930    0.0000 C   0  0  0  0  0  0  0  0  0  0  0  0
   -0.4000    0.6930    0.0000 C   0  0  0  0  0  0  0  0  0  0  0  0
    0.3500    1.9920    0.0000 C   0  0  0  0  0  0  0  0  0  0  0  0
    1.8500    1.9920    0.0000 C   0  0  0  0  0  0  0  0  0  0  0  0
    2.6000    0.6930    0.0000 O   0  0  0  0  0  0  0  0  0  0  0  0
   -0.4000    3.2910    0.0000 C   0  0  0  0  0  0  0  0  0  0  0  0
  1  2  1  0  0  0  0
  1  3  1  0  0  0  0
  3  4  1  0  0  0  0
  3 15  2  0  0  0  0
  4  5  1  0  0  0  0
  4 10  2  0  0  0  0
  5  6  1  0  0  0  0
  5  7  2  0  0  0  0
  7  8  1  0  0  0  0
  8  9  2  0  0  0  0
  9 10  1  0  0  0  0
 10 11  1  0  0  0  0
 11 12  2  0  0  0  0
 12 13  1  0  0  0  0
 12 15  1  0  0  0  0
 13 14  1  0  0  0  0
M  END
>  <name>
O(C)c1c2c(O)cccc2[c;biphenyl]c(CO)c1

>  <apo>
1

>  <freq>
1

>  <freq0>
0

>  <freq1>
1

>  <freqA>
0.9949851

$$$$

  MOE2015           2D

 11 11  0  0  0  0  0  0  0  0999 V2000
    1.0300    1.1160    0.0000 O   0  0  0  0  0  0  0  0  0  0  0  0
    2.3290    1.8660    0.0000 C   0  0  0  0  0  0  0  0  0  0  0  0
   -0.2690    1.8660    0.0000 C   0  0  0  0  0  0  0  0  0  0  0  0
   -1.5680    1.1160    0.0000 C   0  0  0  0  0  0  0  0  0  0  0  0
   -2.8670    1.8660    0.0000 C   0  0  0  0  0  0  0  0  0  0  0  0
   -4.1660    1.1160    0.0000 O   0  0  0  0  0  0  0  0  0  0  0  0
   -5.4650    1.8660    0.0000 C   0  0  0  0  0  0  0  0  0  0  0  0
   -2.8670    3.3660    0.0000 C   0  0  0  0  0  0  0  0  0  0  0  0
   -1.5680    4.1160    0.0000 C   0  0  0  0  0  0  0  0  0  0  0  0
   -1.5680    5.6160    0.0000 C   0  0  0  0  0  0  0  0  0  0  0  0
   -0.2690    3.3660    0.0000 C   0  0  0  0  0  0  0  0  0  0  0  0
  1  2  1  0  0  0  0
  1  3  1  0  0  0  0
  3  4  1  0  0  0  0
  3 11  2  0  0  0  0
  4  5  2  0  0  0  0
  5  6  1  0  0  0  0
  5  8  1  0  0  0  0
  6  7  1  0  0  0  0
  8  9  2  0  0  0  0
  9 10  1  0  0  0  0
  9 11  1  0  0  0  0
M  END
>  <name>
O(C)c1cc(OC)cc([C;olefin])c1

>  <apo>
1

>  <freq>
1

>  <freq0>
0

>  <freq1>
1

>  <freqA>
0.9949851

$$$$

  MOE2015           2D

  9  9  0  0  0  0  0  0  0  0999 V2000
    1.4170    2.4540    0.0000 O   0  0  0  0  0  0  0  0  0  0  0  0
    2.1670    1.1550    0.0000 C   0  0  0  0  0  0  0  0  0  0  0  0
   -0.0830    2.4540    0.0000 C   0  0  0  0  0  0  0  0  0  0  0  0
   -0.8330    3.7530    0.0000 C   0  0  0  0  0  0  0  0  0  0  0  0
   -2.3330    3.7530    0.0000 C   0  0  0  0  0  0  0  0  0  0  0  0
   -3.0830    2.4540    0.0000 C   0  0  0  0  0  0  0  0  0  0  0  0
   -4.5830    2.4540    0.0000 C   0  0  0  0  0  0  0  0  0  0  0  0
   -2.3330    1.1550    0.0000 C   0  0  0  0  0  0  0  0  0  0  0  0
   -0.8330    1.1550    0.0000 C   0  0  0  0  0  0  0  0  0  0  0  0
  1  2  1  0  0  0  0
  1  3  1  0  0  0  0
  3  4  1  0  0  0  0
  3  9  2  0  0  0  0
  4  5  2  0  0  0  0
  5  6  1  0  0  0  0
  6  7  1  0  0  0  0
  6  8  2  0  0  0  0
  8  9  1  0  0  0  0
M  END
>  <name>
O(C)c1ccc([C;olefin])cc1

>  <apo>
1

>  <freq>
1

>  <freq0>
0

>  <freq1>
1

>  <freqA>
0.9949851

$$$$

  MOE2015           2D

 17 17  0  0  0  0  0  0  0  0999 V2000
    1.5880   -3.8210    0.0000 O   0  0  0  0  0  0  0  0  0  0  0  0
    2.3380   -5.1200    0.0000 O   0  0  0  0  0  0  0  0  0  0  0  0
    0.0880   -3.8210    0.0000 C   0  0  0  0  0  0  0  0  0  0  0  0
   -0.6620   -5.1200    0.0000 C   0  0  0  0  0  0  0  0  0  0  0  0
   -0.6620   -2.5220    0.0000 C   0  0  0  0  0  0  0  0  0  0  0  0
   -2.1620   -2.5220    0.0000 C   0  0  0  0  0  0  0  0  0  0  0  0
   -2.9120   -3.8210    0.0000 C   0  0  0  0  0  0  0  0  0  0  0  0
   -2.1620   -5.1200    0.0000 O   0  0  0  0  0  0  0  0  0  0  0  0
   -4.4120   -3.8210    0.0000 C   0  0  0  0  0  0  0  0  0  0  0  0
   -5.1620   -5.1200    0.0000 C   0  0  0  0  0  0  0  0  0  0  0  0
   -6.6620   -5.1200    0.0000 O   0  0  0  0  0  0  0  0  0  0  0  0
   -4.4120   -6.4190    0.0000 C   0  0  0  0  0  0  0  0  0  0  0  0
   -5.1620   -2.5220    0.0000 C   0  0  0  0  0  0  0  0  0  0  0  0
   -4.4120   -1.2230    0.0000 C   0  0  0  0  0  0  0  0  0  0  0  0
   -2.9120   -1.2230    0.0000 C   0  0  0  0  0  0  0  0  0  0  0  0
   -2.1620    0.0760    0.0000 O   0  0  0  0  0  0  0  0  0  0  0  0
   -2.9120    1.3750    0.0000 C   0  0  0  0  0  0  0  0  0  0  0  0
  1  2  1  0  0  0  0
  1  3  1  0  0  0  0
  3  4  2  0  0  0  0
  3  5  1  0  0  0  0
  5  6  1  0  0  0  0
  6  7  1  0  0  0  0
  6 15  2  0  0  0  0
  7  8  1  0  0  0  0
  7  9  2  0  0  0  0
  9 10  1  0  0  0  0
  9 13  1  0  0  0  0
 10 11  2  0  0  0  0
 10 12  1  0  0  0  0
 13 14  2  0  0  0  0
 14 15  1  0  0  0  0
 15 16  1  0  0  0  0
 16 17  1  0  0  0  0
M  END
>  <name>
O(O)C(=C)Cc1c(O)c(C(=O)[C;olefin])ccc1OC

>  <apo>
1

>  <freq>
1

>  <freq0>
0

>  <freq1>
1

>  <freqA>
0.9949851

$$$$

  MOE2015           2D

 19 19  0  0  1  0  0  0  0  0999 V2000
   -0.7500   -2.1190    0.0000 O   0  0  0  0  0  0  0  0  0  0  0  0
    0.0000   -3.4190    0.0000 O   0  0  0  0  0  0  0  0  0  0  0  0
    0.0000   -0.8200    0.0000 C   0  0  2  0  0  0  0  0  0  0  0  0
    1.5000   -0.8200    0.0000 C   0  0  0  0  0  0  0  0  0  0  0  0
    2.2500   -2.1190    0.0000 C   0  0  0  0  0  0  0  0  0  0  0  0
    2.2500    0.4790    0.0000 C   0  0  0  0  0  0  0  0  0  0  0  0
   -0.7500    0.4790    0.0000 C   0  0  0  0  0  0  0  0  0  0  0  0
   -2.2500    0.4790    0.0000 C   0  0  0  0  0  0  0  0  0  0  0  0
   -3.0000   -0.8200    0.0000 C   0  0  0  0  0  0  0  0  0  0  0  0
   -2.2500   -2.1190    0.0000 O   0  0  0  0  0  0  0  0  0  0  0  0
   -4.5000   -0.8200    0.0000 C   0  0  0  0  0  0  0  0  0  0  0  0
   -5.2500   -2.1190    0.0000 C   0  0  0  0  0  0  0  0  0  0  0  0
   -6.7500   -2.1190    0.0000 O   0  0  0  0  0  0  0  0  0  0  0  0
   -4.5000   -3.4190    0.0000 C   0  0  0  0  0  0  0  0  0  0  0  0
   -5.2500    0.4790    0.0000 C   0  0  0  0  0  0  0  0  0  0  0  0
   -4.5000    1.7780    0.0000 C   0  0  0  0  0  0  0  0  0  0  0  0
   -3.0000    1.7780    0.0000 C   0  0  0  0  0  0  0  0  0  0  0  0
   -2.2500    3.0770    0.0000 O   0  0  0  0  0  0  0  0  0  0  0  0
   -3.0000    4.3760    0.0000 C   0  0  0  0  0  0  0  0  0  0  0  0
  1  2  1  0  0  0  0
  3  1  1  1  0  0  0
  3  4  1  0  0  0  0
  3  7  1  0  0  0  0
  4  5  2  0  0  0  0
  4  6  1  0  0  0  0
  7  8  1  0  0  0  0
  8  9  2  0  0  0  0
  8 17  1  0  0  0  0
  9 10  1  0  0  0  0
  9 11  1  0  0  0  0
 11 12  1  0  0  0  0
 11 15  2  0  0  0  0
 12 13  2  0  0  0  0
 12 14  1  0  0  0  0
 15 16  1  0  0  0  0
 16 17  2  0  0  0  0
 17 18  1  0  0  0  0
 18 19  1  0  0  0  0
M  END
>  <name>
O(O)[C@H](C(=C)C)Cc1c(O)c(C(=O)[C;olefin])ccc1OC

>  <apo>
1

>  <freq>
1

>  <freq0>
0

>  <freq1>
1

>  <freqA>
0.9949851

$$$$

  MOE2015           2D

 10 10  0  0  0  0  0  0  0  0999 V2000
   -3.1280    1.0280    0.0000 O   0  0  0  0  0  0  0  0  0  0  0  0
   -3.1280   -0.4720    0.0000 O   0  0  0  0  0  0  0  0  0  0  0  0
   -1.8290    1.7780    0.0000 C   0  0  0  0  0  0  0  0  0  0  0  0
   -1.8290    3.2780    0.0000 C   0  0  0  0  0  0  0  0  0  0  0  0
   -3.1280    4.0280    0.0000 O   0  0  0  0  0  0  0  0  0  0  0  0
   -0.5300    4.0280    0.0000 C   0  0  0  0  0  0  0  0  0  0  0  0
    0.7690    3.2780    0.0000 C   0  0  0  0  0  0  0  0  0  0  0  0
    0.7690    1.7780    0.0000 C   0  0  0  0  0  0  0  0  0  0  0  0
    2.0680    1.0280    0.0000 C   0  0  0  0  0  0  0  0  0  0  0  0
   -0.5300    1.0280    0.0000 C   0  0  0  0  0  0  0  0  0  0  0  0
  1  2  1  0  0  0  0
  1  3  1  0  0  0  0
  3  4  1  0  0  0  0
  3 10  2  0  0  0  0
  4  5  1  0  0  0  0
  4  6  2  0  0  0  0
  6  7  1  0  0  0  0
  7  8  2  0  0  0  0
  8  9  1  0  0  0  0
  8 10  1  0  0  0  0
M  END
>  <name>
O(O)c1c(O)ccc([C;olefin])c1

>  <apo>
1

>  <freq>
1

>  <freq0>
0

>  <freq1>
1

>  <freqA>
0.9949851

$$$$

  MOE2015           2D

 23 24  0  0  1  0  0  0  0  0999 V2000
   -0.0830   -1.1520    0.0000 O   0  0  0  0  0  0  0  0  0  0  0  0
   -1.3820   -1.9020    0.0000 O   0  0  0  0  0  0  0  0  0  0  0  0
   -2.6810   -1.1520    0.0000 C   0  0  3  0  0  0  0  0  0  0  0  0
   -3.9800   -1.9020    0.0000 C   0  0  3  0  0  0  0  0  0  0  0  0
   -3.9800   -3.4020    0.0000 O   0  0  0  0  0  0  0  0  0  0  0  0
   -5.2790   -1.1520    0.0000 C   0  0  3  0  0  0  0  0  0  0  0  0
   -6.5780   -1.9020    0.0000 O   0  0  0  0  0  0  0  0  0  0  0  0
   -5.2790    0.3480    0.0000 C   0  0  3  0  0  0  0  0  0  0  0  0
   -6.5780    1.0980    0.0000 O   0  0  0  0  0  0  0  0  0  0  0  0
   -3.9800    1.0980    0.0000 C   0  0  3  0  0  0  0  0  0  0  0  0
   -3.9800    2.5980    0.0000 O   0  0  0  0  0  0  0  0  0  0  0  0
   -2.6810    0.3480    0.0000 O   0  0  0  0  0  0  0  0  0  0  0  0
    1.2160   -1.9020    0.0000 C   0  0  0  0  0  0  0  0  0  0  0  0
    1.2160   -3.4020    0.0000 O   0  0  0  0  0  0  0  0  0  0  0  0
    2.5150   -1.1520    0.0000 C   0  0  0  0  0  0  0  0  0  0  0  0
    2.5150    0.3480    0.0000 C   0  0  0  0  0  0  0  0  0  0  0  0
    3.8140    1.0980    0.0000 C   0  0  0  0  0  0  0  0  0  0  0  0
    3.8140    2.5980    0.0000 O   0  0  0  0  0  0  0  0  0  0  0  0
    5.1130    0.3480    0.0000 C   0  0  0  0  0  0  0  0  0  0  0  0
    6.4120    1.0980    0.0000 O   0  0  0  0  0  0  0  0  0  0  0  0
    5.1130   -1.1520    0.0000 C   0  0  0  0  0  0  0  0  0  0  0  0
    6.4120   -1.9020    0.0000 O   0  0  0  0  0  0  0  0  0  0  0  0
    3.8140   -1.9020    0.0000 C   0  0  0  0  0  0  0  0  0  0  0  0
  1  2  1  0  0  0  0
  1 13  1  0  0  0  0
  2  3  1  0  0  0  0
  3  4  1  0  0  0  0
  3 12  1  0  0  0  0
  4  5  1  0  0  0  0
  4  6  1  0  0  0  0
  6  7  1  0  0  0  0
  6  8  1  0  0  0  0
  8  9  1  0  0  0  0
  8 10  1  0  0  0  0
 10 11  1  0  0  0  0
 10 12  1  0  0  0  0
 13 14  2  0  0  0  0
 13 15  1  0  0  0  0
 15 16  1  0  0  0  0
 15 23  2  0  0  0  0
 16 17  2  0  0  0  0
 17 18  1  0  0  0  0
 17 19  1  0  0  0  0
 19 20  1  0  0  0  0
 19 21  2  0  0  0  0
 21 22  1  0  0  0  0
 21 23  1  0  0  0  0
M  END
>  <name>
O(OC1C(O)C([O;ester])C([O;ester])C([O;ester])O1)C(=O)c1cc(O)c(O)c(O)c1

>  <apo>
3

>  <freq>
1

>  <freq0>
0

>  <freq1>
1

>  <freqA>
0.9949851

$$$$

  MOE2015           2D

 29 32  0  0  1  0  0  0  0  0999 V2000
    0.6280   -0.4320    0.0000 O   0  0  0  0  0  0  0  0  0  0  0  0
    1.9280   -1.1820    0.0000 C   0  0  2  0  0  0  0  0  0  0  0  0
    1.9280   -2.6820    0.0000 O   0  0  0  0  0  0  0  0  0  0  0  0
    3.2270   -3.4320    0.0000 C   0  0  0  0  0  0  0  0  0  0  0  0
    4.5260   -2.6820    0.0000 C   0  0  1  0  0  0  0  0  0  0  0  0
    5.8250   -3.4320    0.0000 O   0  0  0  0  0  0  0  0  0  0  0  0
    4.5260   -1.1820    0.0000 C   0  0  1  0  0  0  0  0  0  0  0  0
    5.8250   -0.4320    0.0000 O   0  0  0  0  0  0  0  0  0  0  0  0
    3.2270   -0.4320    0.0000 C   0  0  0  0  0  0  0  0  0  0  0  0
   -0.6710   -1.1820    0.0000 C   0  0  0  0  0  0  0  0  0  0  0  0
   -1.9700   -0.4320    0.0000 C   0  0  0  0  0  0  0  0  0  0  0  0
   -1.9700    1.0680    0.0000 C   0  0  0  0  0  0  0  0  0  0  0  0
   -0.6710    1.8180    0.0000 C   0  0  0  0  0  0  0  0  0  0  0  0
   -0.6710    3.3180    0.0000 C   0  0  0  0  0  0  0  0  0  0  0  0
   -1.9700    4.0680    0.0000 C   0  0  0  0  0  0  0  0  0  0  0  0
   -1.9700    5.5680    0.0000 O   0  0  0  0  0  0  0  0  0  0  0  0
   -3.2690    3.3180    0.0000 C   0  0  0  0  0  0  0  0  0  0  0  0
   -3.2690    1.8180    0.0000 C   0  0  0  0  0  0  0  0  0  0  0  0
   -3.2690   -1.1820    0.0000 O   0  0  0  0  0  0  0  0  0  0  0  0
   -3.2690   -2.6820    0.0000 C   0  0  0  0  0  0  0  0  0  0  0  0
   -1.9700   -3.4320    0.0000 C   0  0  0  0  0  0  0  0  0  0  0  0
   -1.9700   -4.9320    0.0000 C   0  0  0  0  0  0  0  0  0  0  0  0
   -0.6710   -5.6820    0.0000 O   0  0  0  0  0  0  0  0  0  0  0  0
   -3.2690   -5.6820    0.0000 C   0  0  0  0  0  0  0  0  0  0  0  0
   -4.5680   -4.9320    0.0000 C   0  0  0  0  0  0  0  0  0  0  0  0
   -5.8670   -5.6820    0.0000 O   0  0  0  0  0  0  0  0  0  0  0  0
   -4.5680   -3.4320    0.0000 C   0  0  0  0  0  0  0  0  0  0  0  0
   -0.6710   -2.6820    0.0000 C   0  0  0  0  0  0  0  0  0  0  0  0
    0.6280   -3.4320    0.0000 O   0  0  0  0  0  0  0  0  0  0  0  0
  2  1  1  1  0  0  0
  1 10  1  0  0  0  0
  2  3  1  0  0  0  0
  2  9  1  0  0  0  0
  3  4  1  0  0  0  0
  4  5  1  0  0  0  0
  5  6  1  6  0  0  0
  5  7  1  0  0  0  0
  7  8  1  6  0  0  0
  7  9  1  0  0  0  0
 10 11  2  0  0  0  0
 10 28  1  0  0  0  0
 11 12  1  0  0  0  0
 11 19  1  0  0  0  0
 12 13  1  0  0  0  0
 12 18  2  0  0  0  0
 13 14  2  0  0  0  0
 14 15  1  0  0  0  0
 15 16  1  0  0  0  0
 15 17  2  0  0  0  0
 17 18  1  0  0  0  0
 19 20  1  0  0  0  0
 20 21  2  0  0  0  0
 20 27  1  0  0  0  0
 21 22  1  0  0  0  0
 21 28  1  0  0  0  0
 22 23  1  0  0  0  0
 22 24  2  0  0  0  0
 24 25  1  0  0  0  0
 25 26  1  0  0  0  0
 25 27  2  0  0  0  0
 28 29  2  0  0  0  0
M  END
>  <name>
O([C@@H]1O[C;ether][C@@H](O)[C@@H](O)[C;ether]1)C1=C(c2ccc(O)cc2)Oc2c(c(O)cc(O)c2)C1=O

>  <apo>
2

>  <freq>
1

>  <freq0>
0

>  <freq1>
1

>  <freqA>
0.9949851

$$$$

  MOE2015           2D

 33 36  0  0  1  0  0  0  0  0999 V2000
    0.0000   -2.5190    0.0000 O   0  0  0  0  0  0  0  0  0  0  0  0
    1.5000   -2.5190    0.0000 C   0  0  1  0  0  0  0  0  0  0  0  0
    2.2500   -3.8180    0.0000 C   0  0  1  0  0  0  0  0  0  0  0  0
    1.5000   -5.1170    0.0000 O   0  0  0  0  0  0  0  0  0  0  0  0
    3.7500   -3.8180    0.0000 C   0  0  1  0  0  0  0  0  0  0  0  0
    4.5000   -5.1170    0.0000 O   0  0  0  0  0  0  0  0  0  0  0  0
    4.5000   -2.5190    0.0000 C   0  0  1  0  0  0  0  0  0  0  0  0
    6.0000   -2.5190    0.0000 O   0  0  0  0  0  0  0  0  0  0  0  0
    3.7500   -1.2200    0.0000 C   0  0  1  0  0  0  0  0  0  0  0  0
    4.5000    0.0790    0.0000 C   0  0  0  0  0  0  0  0  0  0  0  0
    6.0000    0.0790    0.0000 O   0  0  0  0  0  0  0  0  0  0  0  0
    2.2500   -1.2200    0.0000 O   0  0  0  0  0  0  0  0  0  0  0  0
   -0.7500   -1.2200    0.0000 C   0  0  0  0  0  0  0  0  0  0  0  0
   -2.2500   -1.2200    0.0000 C   0  0  0  0  0  0  0  0  0  0  0  0
   -3.0000   -2.5190    0.0000 C   0  0  0  0  0  0  0  0  0  0  0  0
   -4.5000   -2.5190    0.0000 C   0  0  0  0  0  0  0  0  0  0  0  0
   -5.2500   -3.8180    0.0000 C   0  0  0  0  0  0  0  0  0  0  0  0
   -6.7500   -3.8180    0.0000 O   0  0  0  0  0  0  0  0  0  0  0  0
   -4.5000   -5.1170    0.0000 C   0  0  0  0  0  0  0  0  0  0  0  0
   -5.2500   -6.4160    0.0000 O   0  0  0  0  0  0  0  0  0  0  0  0
   -3.0000   -5.1170    0.0000 C   0  0  0  0  0  0  0  0  0  0  0  0
   -2.2500   -3.8180    0.0000 C   0  0  0  0  0  0  0  0  0  0  0  0
   -3.0000    0.0790    0.0000 O   0  0  0  0  0  0  0  0  0  0  0  0
   -2.2500    1.3780    0.0000 C   0  0  0  0  0  0  0  0  0  0  0  0
   -0.7500    1.3780    0.0000 C   0  0  0  0  0  0  0  0  0  0  0  0
    0.0000    2.6770    0.0000 C   0  0  0  0  0  0  0  0  0  0  0  0
    1.5000    2.6770    0.0000 O   0  0  0  0  0  0  0  0  0  0  0  0
   -0.7500    3.9760    0.0000 C   0  0  0  0  0  0  0  0  0  0  0  0
   -2.2500    3.9760    0.0000 C   0  0  0  0  0  0  0  0  0  0  0  0
   -3.0000    5.2750    0.0000 O   0  0  0  0  0  0  0  0  0  0  0  0
   -3.0000    2.6770    0.0000 C   0  0  0  0  0  0  0  0  0  0  0  0
    0.0000    0.0790    0.0000 C   0  0  0  0  0  0  0  0  0  0  0  0
    1.5000    0.0790    0.0000 O   0  0  0  0  0  0  0  0  0  0  0  0
  2  1  1  6  0  0  0
  1 13  1  0  0  0  0
  2  3  1  0  0  0  0
  2 12  1  0  0  0  0
  3  4  1  6  0  0  0
  3  5  1  0  0  0  0
  5  6  1  6  0  0  0
  5  7  1  0  0  0  0
  7  8  1  6  0  0  0
  7  9  1  0  0  0  0
  9 10  1  6  0  0  0
  9 12  1  0  0  0  0
 10 11  1  0  0  0  0
 13 14  2  0  0  0  0
 13 32  1  0  0  0  0
 14 15  1  0  0  0  0
 14 23  1  0  0  0  0
 15 16  1  0  0  0  0
 15 22  2  0  0  0  0
 16 17  2  0  0  0  0
 17 18  1  0  0  0  0
 17 19  1  0  0  0  0
 19 20  1  0  0  0  0
 19 21  2  0  0  0  0
 21 22  1  0  0  0  0
 23 24  1  0  0  0  0
 24 25  2  0  0  0  0
 24 31  1  0  0  0  0
 25 26  1  0  0  0  0
 25 32  1  0  0  0  0
 26 27  1  0  0  0  0
 26 28  2  0  0  0  0
 28 29  1  0  0  0  0
 29 30  1  0  0  0  0
 29 31  2  0  0  0  0
 32 33  2  0  0  0  0
M  END
>  <name>
O([C@H]1[C@@H](O)[C@@H](O)[C@@H](O)[C@@H](CO)O1)C1=C(c2cc(O)c(O)cc2)Oc2c(c(O)cc([O;ether])c2)C1=O

>  <apo>
1

>  <freq>
1

>  <freq0>
0

>  <freq1>
1

>  <freqA>
0.9949851

$$$$

  MOE2015           2D

 31 34  0  0  1  0  0  0  0  0999 V2000
    0.0000   -2.3470    0.0000 O   0  0  0  0  0  0  0  0  0  0  0  0
    1.5000   -2.3470    0.0000 C   0  0  1  0  0  0  0  0  0  0  0  0
    2.2500   -3.6460    0.0000 C   0  0  2  0  0  0  0  0  0  0  0  0
    1.5000   -4.9450    0.0000 O   0  0  0  0  0  0  0  0  0  0  0  0
    3.7500   -3.6460    0.0000 C   0  0  1  0  0  0  0  0  0  0  0  0
    4.5000   -4.9450    0.0000 O   0  0  0  0  0  0  0  0  0  0  0  0
    4.5000   -2.3470    0.0000 C   0  0  1  0  0  0  0  0  0  0  0  0
    6.0000   -2.3470    0.0000 O   0  0  0  0  0  0  0  0  0  0  0  0
    3.7500   -1.0480    0.0000 C   0  0  0  0  0  0  0  0  0  0  0  0
    2.2500   -1.0480    0.0000 O   0  0  0  0  0  0  0  0  0  0  0  0
   -0.7500   -1.0480    0.0000 C   0  0  0  0  0  0  0  0  0  0  0  0
   -2.2500   -1.0480    0.0000 C   0  0  0  0  0  0  0  0  0  0  0  0
   -3.0000   -2.3470    0.0000 C   0  0  0  0  0  0  0  0  0  0  0  0
   -4.5000   -2.3470    0.0000 C   0  0  0  0  0  0  0  0  0  0  0  0
   -5.2500   -3.6460    0.0000 C   0  0  0  0  0  0  0  0  0  0  0  0
   -6.7500   -3.6460    0.0000 O   0  0  0  0  0  0  0  0  0  0  0  0
   -4.5000   -4.9450    0.0000 C   0  0  0  0  0  0  0  0  0  0  0  0
   -5.2500   -6.2440    0.0000 O   0  0  0  0  0  0  0  0  0  0  0  0
   -3.0000   -4.9450    0.0000 C   0  0  0  0  0  0  0  0  0  0  0  0
   -2.2500   -3.6460    0.0000 C   0  0  0  0  0  0  0  0  0  0  0  0
   -3.0000    0.2510    0.0000 O   0  0  0  0  0  0  0  0  0  0  0  0
   -2.2500    1.5500    0.0000 C   0  0  0  0  0  0  0  0  0  0  0  0
   -0.7500    1.5500    0.0000 C   0  0  0  0  0  0  0  0  0  0  0  0
    0.0000    2.8500    0.0000 C   0  0  0  0  0  0  0  0  0  0  0  0
    1.5000    2.8500    0.0000 O   0  0  0  0  0  0  0  0  0  0  0  0
   -0.7500    4.1490    0.0000 C   0  0  0  0  0  0  0  0  0  0  0  0
   -2.2500    4.1490    0.0000 C   0  0  0  0  0  0  0  0  0  0  0  0
   -3.0000    5.4480    0.0000 O   0  0  0  0  0  0  0  0  0  0  0  0
   -3.0000    2.8500    0.0000 C   0  0  0  0  0  0  0  0  0  0  0  0
    0.0000    0.2510    0.0000 C   0  0  0  0  0  0  0  0  0  0  0  0
    1.5000    0.2510    0.0000 O   0  0  0  0  0  0  0  0  0  0  0  0
  2  1  1  6  0  0  0
  1 11  1  0  0  0  0
  2  3  1  0  0  0  0
  2 10  1  0  0  0  0
  3  4  1  1  0  0  0
  3  5  1  0  0  0  0
  5  6  1  6  0  0  0
  5  7  1  0  0  0  0
  7  8  1  6  0  0  0
  7  9  1  0  0  0  0
  9 10  1  0  0  0  0
 11 12  2  0  0  0  0
 11 30  1  0  0  0  0
 12 13  1  0  0  0  0
 12 21  1  0  0  0  0
 13 14  1  0  0  0  0
 13 20  2  0  0  0  0
 14 15  2  0  0  0  0
 15 16  1  0  0  0  0
 15 17  1  0  0  0  0
 17 18  1  0  0  0  0
 17 19  2  0  0  0  0
 19 20  1  0  0  0  0
 21 22  1  0  0  0  0
 22 23  2  0  0  0  0
 22 29  1  0  0  0  0
 23 24  1  0  0  0  0
 23 30  1  0  0  0  0
 24 25  1  0  0  0  0
 24 26  2  0  0  0  0
 26 27  1  0  0  0  0
 27 28  1  0  0  0  0
 27 29  2  0  0  0  0
 30 31  2  0  0  0  0
M  END
>  <name>
O([C@H]1[C@H](O)[C@@H](O)[C@@H](O)[C;ether]O1)C1=C(c2cc(O)c(O)cc2)Oc2c(c(O)cc(O)c2)C1=O

>  <apo>
1

>  <freq>
1

>  <freq0>
0

>  <freq1>
1

>  <freqA>
0.9949851

$$$$

  MOE2015           2D

 36 40  0  0  0  0  0  0  0  0999 V2000
   -0.3750    0.1000    0.0000 O   0  0  0  0  0  0  0  0  0  0  0  0
   -1.6740    0.8500    0.0000 C   0  0  0  0  0  0  0  0  0  0  0  0
   -1.6740    2.3500    0.0000 C   0  0  0  0  0  0  0  0  0  0  0  0
   -0.3750    3.1000    0.0000 O   0  0  0  0  0  0  0  0  0  0  0  0
   -2.9730    3.1000    0.0000 C   0  0  0  0  0  0  0  0  0  0  0  0
   -4.2720    2.3500    0.0000 C   0  0  0  0  0  0  0  0  0  0  0  0
   -5.5710    3.1000    0.0000 O   0  0  0  0  0  0  0  0  0  0  0  0
   -4.2720    0.8500    0.0000 C   0  0  0  0  0  0  0  0  0  0  0  0
   -5.5710    0.1000    0.0000 O   0  0  0  0  0  0  0  0  0  0  0  0
   -5.5710   -1.4000    0.0000 C   0  0  0  0  0  0  0  0  0  0  0  0
   -4.2720   -2.1500    0.0000 C   0  0  0  0  0  0  0  0  0  0  0  0
   -4.2720   -3.6500    0.0000 C   0  0  0  0  0  0  0  0  0  0  0  0
   -2.9730   -4.4000    0.0000 O   0  0  0  0  0  0  0  0  0  0  0  0
   -5.5710   -4.4000    0.0000 C   0  0  0  0  0  0  0  0  0  0  0  0
   -6.8700   -3.6500    0.0000 C   0  0  0  0  0  0  0  0  0  0  0  0
   -8.1690   -4.4000    0.0000 O   0  0  0  0  0  0  0  0  0  0  0  0
   -6.8700   -2.1500    0.0000 C   0  0  0  0  0  0  0  0  0  0  0  0
   -2.9730   -1.4000    0.0000 O   0  0  0  0  0  0  0  0  0  0  0  0
   -2.9730    0.1000    0.0000 C   0  0  0  0  0  0  0  0  0  0  0  0
    0.9240    0.8500    0.0000 C   0  0  0  0  0  0  0  0  0  0  0  0
    2.2230    0.1000    0.0000 C   0  0  0  0  0  0  0  0  0  0  0  0
    2.2230   -1.4000    0.0000 O   0  0  0  0  0  0  0  0  0  0  0  0
    3.5220   -2.1500    0.0000 C   0  0  0  0  0  0  0  0  0  0  0  0
    3.5220   -3.6500    0.0000 C   0  0  0  0  0  0  0  0  0  0  0  0
    4.8210   -4.4000    0.0000 C   0  0  0  0  0  0  0  0  0  0  0  0
    4.8210   -5.9000    0.0000 O   0  0  0  0  0  0  0  0  0  0  0  0
    6.1200   -3.6500    0.0000 C   0  0  0  0  0  0  0  0  0  0  0  0
    6.1200   -2.1500    0.0000 C   0  0  0  0  0  0  0  0  0  0  0  0
    7.4190   -1.4000    0.0000 O   0  0  0  0  0  0  0  0  0  0  0  0
    4.8210   -1.4000    0.0000 C   0  0  0  0  0  0  0  0  0  0  0  0
    3.5220    0.8500    0.0000 C   0  0  0  0  0  0  0  0  0  0  0  0
    4.8210    0.1000    0.0000 O   0  0  0  0  0  0  0  0  0  0  0  0
    3.5220    2.3500    0.0000 C   0  0  0  0  0  0  0  0  0  0  0  0
    2.2230    3.1000    0.0000 C   0  0  0  0  0  0  0  0  0  0  0  0
    2.2230    4.6000    0.0000 O   0  0  0  0  0  0  0  0  0  0  0  0
    0.9240    2.3500    0.0000 C   0  0  0  0  0  0  0  0  0  0  0  0
  1  2  1  0  0  0  0
  1 20  1  0  0  0  0
  2  3  1  0  0  0  0
  2 19  2  0  0  0  0
  3  4  1  0  0  0  0
  3  5  2  0  0  0  0
  5  6  1  0  0  0  0
  6  7  1  0  0  0  0
  6  8  2  0  0  0  0
  8  9  1  0  0  0  0
  8 19  1  0  0  0  0
  9 10  1  0  0  0  0
 10 11  1  0  0  0  0
 10 17  2  0  0  0  0
 11 12  2  0  0  0  0
 11 18  1  0  0  0  0
 12 13  1  0  0  0  0
 12 14  1  0  0  0  0
 14 15  2  0  0  0  0
 15 16  1  0  0  0  0
 15 17  1  0  0  0  0
 18 19  1  0  0  0  0
 20 21  1  0  0  0  0
 20 36  2  0  0  0  0
 21 22  1  0  0  0  0
 21 31  2  0  0  0  0
 22 23  1  0  0  0  0
 23 24  1  0  0  0  0
 23 30  2  0  0  0  0
 24 25  2  0  0  0  0
 25 26  1  0  0  0  0
 25 27  1  0  0  0  0
 27 28  2  0  0  0  0
 28 29  1  0  0  0  0
 28 30  1  0  0  0  0
 31 32  1  0  0  0  0
 31 33  1  0  0  0  0
 33 34  2  0  0  0  0
 34 35  1  0  0  0  0
 34 36  1  0  0  0  0
M  END
>  <name>
O(c1c(O)cc(O)c2Oc3c(c(O)cc(O)c3)Oc12)c1c(Oc2[c;biphenyl]c(O)cc(O)c2)c(O)cc(O)c1

>  <apo>
1

>  <freq>
1

>  <freq0>
0

>  <freq1>
1

>  <freqA>
0.9949851

$$$$

  MOE2015           2D

 18 19  0  0  0  0  0  0  0  0999 V2000
    0.7500    0.2010    0.0000 O   0  0  0  0  0  0  0  0  0  0  0  0
    2.0490   -0.5490    0.0000 C   0  0  0  0  0  0  0  0  0  0  0  0
    3.3480    0.2010    0.0000 C   0  0  0  0  0  0  0  0  0  0  0  0
    3.3480    1.7010    0.0000 O   0  0  0  0  0  0  0  0  0  0  0  0
    4.6470   -0.5490    0.0000 C   0  0  0  0  0  0  0  0  0  0  0  0
    4.6470   -2.0490    0.0000 C   0  0  0  0  0  0  0  0  0  0  0  0
    5.9460   -2.7990    0.0000 O   0  0  0  0  0  0  0  0  0  0  0  0
    3.3480   -2.7990    0.0000 C   0  0  0  0  0  0  0  0  0  0  0  0
    2.0490   -2.0490    0.0000 C   0  0  0  0  0  0  0  0  0  0  0  0
    0.7500   -2.7990    0.0000 O   0  0  0  0  0  0  0  0  0  0  0  0
   -0.5490   -0.5490    0.0000 C   0  0  0  0  0  0  0  0  0  0  0  0
   -1.8480    0.2010    0.0000 C   0  0  0  0  0  0  0  0  0  0  0  0
   -3.1470   -0.5490    0.0000 C   0  0  0  0  0  0  0  0  0  0  0  0
   -4.4460    0.2010    0.0000 O   0  0  0  0  0  0  0  0  0  0  0  0
   -3.1470   -2.0490    0.0000 C   0  0  0  0  0  0  0  0  0  0  0  0
   -1.8480   -2.7990    0.0000 C   0  0  0  0  0  0  0  0  0  0  0  0
   -1.8480   -4.2990    0.0000 O   0  0  0  0  0  0  0  0  0  0  0  0
   -0.5490   -2.0490    0.0000 C   0  0  0  0  0  0  0  0  0  0  0  0
  1  2  1  0  0  0  0
  1 11  1  0  0  0  0
  2  3  1  0  0  0  0
  2  9  2  0  0  0  0
  3  4  1  0  0  0  0
  3  5  2  0  0  0  0
  5  6  1  0  0  0  0
  6  7  1  0  0  0  0
  6  8  2  0  0  0  0
  8  9  1  0  0  0  0
  9 10  1  0  0  0  0
 11 12  1  0  0  0  0
 11 18  2  0  0  0  0
 12 13  2  0  0  0  0
 13 14  1  0  0  0  0
 13 15  1  0  0  0  0
 15 16  2  0  0  0  0
 16 17  1  0  0  0  0
 16 18  1  0  0  0  0
M  END
>  <name>
O(c1c(O)cc(O)cc1O)c1cc(O)cc(O)[c;biphenyl]1

>  <apo>
1

>  <freq>
1

>  <freq0>
0

>  <freq1>
1

>  <freqA>
0.9949851

$$$$

  MOE2015           2D

 19 20  0  0  0  0  0  0  0  0999 V2000
    0.7110   -2.6520    0.0000 O   0  0  0  0  0  0  0  0  0  0  0  0
   -0.5890   -1.9020    0.0000 C   0  0  0  0  0  0  0  0  0  0  0  0
   -1.8880   -2.6520    0.0000 C   0  0  0  0  0  0  0  0  0  0  0  0
   -3.1870   -1.9020    0.0000 C   0  0  0  0  0  0  0  0  0  0  0  0
   -4.4860   -2.6520    0.0000 C   0  0  0  0  0  0  0  0  0  0  0  0
   -5.7850   -1.9020    0.0000 C   0  0  0  0  0  0  0  0  0  0  0  0
   -7.0840   -2.6520    0.0000 N   0  0  0  0  0  0  0  0  0  0  0  0
   -3.1870   -0.4020    0.0000 C   0  0  0  0  0  0  0  0  0  0  0  0
   -1.8880    0.3480    0.0000 C   0  0  0  0  0  0  0  0  0  0  0  0
   -0.5890   -0.4020    0.0000 C   0  0  0  0  0  0  0  0  0  0  0  0
    2.0100   -1.9020    0.0000 C   0  0  0  0  0  0  0  0  0  0  0  0
    2.0100   -0.4020    0.0000 C   0  0  0  0  0  0  0  0  0  0  0  0
    3.3090    0.3480    0.0000 C   0  0  0  0  0  0  0  0  0  0  0  0
    4.6080   -0.4020    0.0000 C   0  0  0  0  0  0  0  0  0  0  0  0
    5.9070    0.3480    0.0000 C   0  0  0  0  0  0  0  0  0  0  0  0
    7.2060   -0.4020    0.0000 C   0  0  0  0  0  0  0  0  0  0  0  0
    8.5050    0.3480    0.0000 N   0  0  0  0  0  0  0  0  0  0  0  0
    4.6080   -1.9020    0.0000 C   0  0  0  0  0  0  0  0  0  0  0  0
    3.3090   -2.6520    0.0000 C   0  0  0  0  0  0  0  0  0  0  0  0
  1  2  1  0  0  0  0
  1 11  1  0  0  0  0
  2  3  1  0  0  0  0
  2 10  2  0  0  0  0
  3  4  2  0  0  0  0
  4  5  1  0  0  0  0
  4  8  1  0  0  0  0
  5  6  1  0  0  0  0
  6  7  1  0  0  0  0
  8  9  2  0  0  0  0
  9 10  1  0  0  0  0
 11 12  1  0  0  0  0
 11 19  2  0  0  0  0
 12 13  2  0  0  0  0
 13 14  1  0  0  0  0
 14 15  1  0  0  0  0
 14 18  2  0  0  0  0
 15 16  1  0  0  0  0
 16 17  1  0  0  0  0
 18 19  1  0  0  0  0
M  END
>  <name>
O(c1cc(CC[N;amide])ccc1)c1ccc(CC[N;amide])cc1

>  <apo>
2

>  <freq>
1

>  <freq0>
0

>  <freq1>
1

>  <freqA>
0.9949851

$$$$

  MOE2015           2D

 19 20  0  0  0  0  0  0  0  0999 V2000
    0.9080    3.3880    0.0000 O   0  0  0  0  0  0  0  0  0  0  0  0
    2.2070    2.6380    0.0000 C   0  0  0  0  0  0  0  0  0  0  0  0
    2.2070    1.1380    0.0000 C   0  0  0  0  0  0  0  0  0  0  0  0
    3.5060    0.3880    0.0000 C   0  0  0  0  0  0  0  0  0  0  0  0
    4.8050    1.1380    0.0000 C   0  0  0  0  0  0  0  0  0  0  0  0
    6.1040    0.3880    0.0000 C   0  0  0  0  0  0  0  0  0  0  0  0
    7.4030    1.1380    0.0000 C   0  0  0  0  0  0  0  0  0  0  0  0
    8.7020    0.3880    0.0000 N   0  0  0  0  0  0  0  0  0  0  0  0
    4.8050    2.6380    0.0000 C   0  0  0  0  0  0  0  0  0  0  0  0
    3.5060    3.3880    0.0000 C   0  0  0  0  0  0  0  0  0  0  0  0
   -0.3910    2.6380    0.0000 C   0  0  0  0  0  0  0  0  0  0  0  0
   -1.6900    3.3880    0.0000 C   0  0  0  0  0  0  0  0  0  0  0  0
   -2.9890    2.6380    0.0000 C   0  0  0  0  0  0  0  0  0  0  0  0
   -2.9890    1.1380    0.0000 C   0  0  0  0  0  0  0  0  0  0  0  0
   -4.2880    0.3880    0.0000 C   0  0  0  0  0  0  0  0  0  0  0  0
   -5.5870    1.1380    0.0000 C   0  0  0  0  0  0  0  0  0  0  0  0
   -6.8860    0.3880    0.0000 N   0  0  0  0  0  0  0  0  0  0  0  0
   -1.6900    0.3880    0.0000 C   0  0  0  0  0  0  0  0  0  0  0  0
   -0.3910    1.1380    0.0000 C   0  0  0  0  0  0  0  0  0  0  0  0
  1  2  1  0  0  0  0
  1 11  1  0  0  0  0
  2  3  1  0  0  0  0
  2 10  2  0  0  0  0
  3  4  2  0  0  0  0
  4  5  1  0  0  0  0
  5  6  1  0  0  0  0
  5  9  2  0  0  0  0
  6  7  1  0  0  0  0
  7  8  1  0  0  0  0
  9 10  1  0  0  0  0
 11 12  1  0  0  0  0
 11 19  2  0  0  0  0
 12 13  2  0  0  0  0
 13 14  1  0  0  0  0
 14 15  1  0  0  0  0
 14 18  2  0  0  0  0
 15 16  1  0  0  0  0
 16 17  1  0  0  0  0
 18 19  1  0  0  0  0
M  END
>  <name>
O(c1ccc(CC[N;amide])cc1)c1ccc(CC[N;amide])cc1

>  <apo>
2

>  <freq>
1

>  <freq0>
0

>  <freq1>
1

>  <freqA>
0.9949851

$$$$

  MOE2015           2D

 31 33  0  0  1  0  0  0  0  0999 V2000
   10.9600    0.8580    0.0000 O   0  0  0  0  0  0  0  0  0  0  0  0
   10.2100    2.1570    0.0000 C   0  0  0  0  0  0  0  0  0  0  0  0
    8.7100    2.1570    0.0000 C   0  0  0  0  0  0  0  0  0  0  0  0
    8.7100    0.6570    0.0000 O   0  0  0  0  0  0  0  0  0  0  0  0
    7.4110    1.4070    0.0000 O   0  0  0  0  0  0  0  0  0  0  0  0
    7.9600    3.4560    0.0000 C   0  0  0  0  0  0  0  0  0  0  0  0
    6.4600    3.4560    0.0000 O   0  0  0  0  0  0  0  0  0  0  0  0
    5.7100    4.7550    0.0000 C   0  0  0  0  0  0  0  0  0  0  0  0
    4.2100    4.7550    0.0000 C   0  0  0  0  0  0  0  0  0  0  0  0
    3.4600    6.0540    0.0000 C   0  0  0  0  0  0  0  0  0  0  0  0
    1.9600    6.0540    0.0000 O   0  0  0  0  0  0  0  0  0  0  0  0
    1.2100    7.3530    0.0000 C   0  0  0  0  0  0  0  0  0  0  0  0
    4.2100    7.3530    0.0000 C   0  0  0  0  0  0  0  0  0  0  0  0
    5.7100    7.3530    0.0000 C   0  0  0  0  0  0  0  0  0  0  0  0
    6.4600    8.6520    0.0000 C   0  0  0  0  0  0  0  0  0  0  0  0
    6.4600    6.0540    0.0000 C   0  0  0  0  0  0  0  0  0  0  0  0
    7.9600    6.0540    0.0000 C   0  0  0  0  0  0  0  0  0  0  0  0
    8.7100    7.3530    0.0000 O   0  0  0  0  0  0  0  0  0  0  0  0
    8.7100    4.7550    0.0000 C   0  0  0  0  0  0  0  0  0  0  0  0
    3.4600    3.4560    0.0000 C   0  0  3  0  0  0  0  0  0  0  0  0
    1.9600    3.4560    0.0000 C   0  0  3  0  0  0  0  0  0  0  0  0
    1.2100    4.7550    0.0000 O   0  0  0  0  0  0  0  0  0  0  0  0
    1.2100    2.1570    0.0000 C   0  0  3  0  0  0  0  0  0  0  0  0
   -0.2900    2.1570    0.0000 O   0  0  0  0  0  0  0  0  0  0  0  0
    1.9600    0.8580    0.0000 C   0  0  3  0  0  0  0  0  0  0  0  0
    1.2100   -0.4420    0.0000 O   0  0  0  0  0  0  0  0  0  0  0  0
    3.4600    0.8580    0.0000 C   0  0  3  0  0  0  0  0  0  0  0  0
    4.2100   -0.4420    0.0000 C   0  0  0  0  0  0  0  0  0  0  0  0
    3.4600   -1.7410    0.0000 O   0  0  0  0  0  0  0  0  0  0  0  0
    4.2100    2.1570    0.0000 O   0  0  0  0  0  0  0  0  0  0  0  0
   10.9600    3.4560    0.0000 C   0  0  0  0  0  0  0  0  0  0  0  0
  1  2  2  0  0  0  0
  2  3  1  0  0  0  0
  2 31  1  0  0  0  0
  3  4  1  0  0  0  0
  3  5  1  0  0  0  0
  3  6  1  0  0  0  0
  6  7  1  0  0  0  0
  6 19  2  0  0  0  0
  7  8  1  0  0  0  0
  8  9  1  0  0  0  0
  8 16  2  0  0  0  0
  9 10  2  0  0  0  0
  9 20  1  0  0  0  0
 10 11  1  0  0  0  0
 10 13  1  0  0  0  0
 11 12  1  0  0  0  0
 13 14  2  0  0  0  0
 14 15  1  0  0  0  0
 14 16  1  0  0  0  0
 16 17  1  0  0  0  0
 17 18  2  0  0  0  0
 17 19  1  0  0  0  0
 20 21  1  0  0  0  0
 20 30  1  0  0  0  0
 21 22  1  0  0  0  0
 21 23  1  0  0  0  0
 23 24  1  0  0  0  0
 23 25  1  0  0  0  0
 25 26  1  0  0  0  0
 25 27  1  0  0  0  0
 27 28  1  0  0  0  0
 27 30  1  0  0  0  0
 28 29  1  0  0  0  0
M  END
>  <name>
O=C(C(O)(O)C=1Oc2c(c(OC)cc(C)c2C(=O)C=1)C1C([O;ester])C(O)C(O)C(CO)O1)C

>  <apo>
1

>  <freq>
1

>  <freq0>
0

>  <freq1>
1

>  <freqA>
0.9949851

$$$$

  MOE2015           2D

 12 12  0  0  1  0  0  0  0  0999 V2000
    0.1880    0.3250    0.0000 O   0  0  0  0  0  0  0  0  0  0  0  0
    0.9370   -0.9740    0.0000 C   0  0  0  0  0  0  0  0  0  0  0  0
    0.1870   -2.2730    0.0000 C   0  0  3  0  0  0  0  0  0  0  0  0
    0.9370   -3.5720    0.0000 O   0  0  0  0  0  0  0  0  0  0  0  0
   -1.3130   -2.2730    0.0000 N   0  0  0  0  0  0  0  0  0  0  0  0
    2.4380   -0.9740    0.0000 C   0  0  0  0  0  0  0  0  0  0  0  0
    3.1880   -2.2730    0.0000 C   0  0  0  0  0  0  0  0  0  0  0  0
    4.6880   -2.2730    0.0000 C   0  0  0  0  0  0  0  0  0  0  0  0
    5.4380   -0.9740    0.0000 C   0  0  0  0  0  0  0  0  0  0  0  0
    6.9380   -0.9740    0.0000 O   0  0  0  0  0  0  0  0  0  0  0  0
    4.6880    0.3250    0.0000 C   0  0  0  0  0  0  0  0  0  0  0  0
    3.1880    0.3250    0.0000 C   0  0  0  0  0  0  0  0  0  0  0  0
  1  2  2  0  0  0  0
  2  3  1  0  0  0  0
  2  6  1  0  0  0  0
  3  4  1  0  0  0  0
  3  5  1  0  0  0  0
  6  7  1  0  0  0  0
  6 12  2  0  0  0  0
  7  8  2  0  0  0  0
  8  9  1  0  0  0  0
  9 10  1  0  0  0  0
  9 11  2  0  0  0  0
 11 12  1  0  0  0  0
M  END
>  <name>
O=C(C(O)[N;amide])c1ccc(O)cc1

>  <apo>
1

>  <freq>
1

>  <freq0>
0

>  <freq1>
1

>  <freqA>
0.9949851

$$$$

  MOE2015           2D

 31 33  0  0  0  0  0  0  0  0999 V2000
   -4.1270   -2.3830    0.0000 O   0  0  0  0  0  0  0  0  0  0  0  0
   -4.8770   -3.6820    0.0000 C   0  0  0  0  0  0  0  0  0  0  0  0
   -6.3770   -3.6820    0.0000 C   0  0  0  0  0  0  0  0  0  0  0  0
   -4.1270   -4.9810    0.0000 C   0  0  0  0  0  0  0  0  0  0  0  0
   -2.6270   -4.9810    0.0000 C   0  0  0  0  0  0  0  0  0  0  0  0
   -1.8770   -3.6820    0.0000 O   0  0  0  0  0  0  0  0  0  0  0  0
   -1.8770   -6.2800    0.0000 C   0  0  0  0  0  0  0  0  0  0  0  0
   -0.3990   -6.5400    0.0000 C   0  0  0  0  0  0  0  0  0  0  0  0
    0.5650   -5.3910    0.0000 C   0  0  0  0  0  0  0  0  0  0  0  0
    0.5650   -3.8910    0.0000 C   0  0  0  0  0  0  0  0  0  0  0  0
   -0.7340   -3.1410    0.0000 O   0  0  0  0  0  0  0  0  0  0  0  0
    1.8640   -3.1410    0.0000 C   0  0  0  0  0  0  0  0  0  0  0  0
    1.8640   -1.6410    0.0000 C   0  0  0  0  0  0  0  0  0  0  0  0
    3.1630   -0.8910    0.0000 O   0  0  0  0  0  0  0  0  0  0  0  0
    0.5650   -0.8910    0.0000 C   0  0  0  0  0  0  0  0  0  0  0  0
    3.1630   -3.8910    0.0000 C   0  0  0  0  0  0  0  0  0  0  0  0
    4.4620   -3.1410    0.0000 O   0  0  0  0  0  0  0  0  0  0  0  0
    5.7610   -3.8910    0.0000 C   0  0  0  0  0  0  0  0  0  0  0  0
    7.2610   -3.8910    0.0000 C   0  0  0  0  0  0  0  0  0  0  0  0
    6.5110   -2.5920    0.0000 C   0  0  0  0  0  0  0  0  0  0  0  0
    5.7610   -5.3910    0.0000 C   0  0  0  0  0  0  0  0  0  0  0  0
    4.4620   -6.1410    0.0000 C   0  0  0  0  0  0  0  0  0  0  0  0
    3.1630   -5.3910    0.0000 C   0  0  0  0  0  0  0  0  0  0  0  0
    1.8640   -6.1410    0.0000 C   0  0  0  0  0  0  0  0  0  0  0  0
    1.3510   -7.5510    0.0000 O   0  0  0  0  0  0  0  0  0  0  0  0
   -2.6270   -7.5790    0.0000 C   0  0  0  0  0  0  0  0  0  0  0  0
   -1.8770   -8.8780    0.0000 O   0  0  0  0  0  0  0  0  0  0  0  0
   -4.1270   -7.5790    0.0000 C   0  0  0  0  0  0  0  0  0  0  0  0
   -4.8770   -8.8780    0.0000 C   0  0  0  0  0  0  0  0  0  0  0  0
   -4.8770   -6.2800    0.0000 C   0  0  0  0  0  0  0  0  0  0  0  0
   -6.3770   -6.2800    0.0000 O   0  0  0  0  0  0  0  0  0  0  0  0
  1  2  2  0  0  0  0
  2  3  1  0  0  0  0
  2  4  1  0  0  0  0
  4  5  1  0  0  0  0
  4 30  2  0  0  0  0
  5  6  1  0  0  0  0
  5  7  2  0  0  0  0
  7  8  1  0  0  0  0
  7 26  1  0  0  0  0
  8  9  1  0  0  0  0
  9 10  1  0  0  0  0
  9 24  2  0  0  0  0
 10 11  1  0  0  0  0
 10 12  2  0  0  0  0
 12 13  1  0  0  0  0
 12 16  1  0  0  0  0
 13 14  2  0  0  0  0
 13 15  1  0  0  0  0
 16 17  1  0  0  0  0
 16 23  2  0  0  0  0
 17 18  1  0  0  0  0
 18 19  1  0  0  0  0
 18 20  1  0  0  0  0
 18 21  1  0  0  0  0
 21 22  2  0  0  0  0
 22 23  1  0  0  0  0
 23 24  1  0  0  0  0
 24 25  1  0  0  0  0
 26 27  1  0  0  0  0
 26 28  2  0  0  0  0
 28 29  1  0  0  0  0
 28 30  1  0  0  0  0
 30 31  1  0  0  0  0
M  END
>  <name>
O=C(C)c1c(O)c(Cc2c(O)c(C(=O)[C;olefin])c3OC(C)(C)C=Cc3c2O)c(O)c(C)c1O

>  <apo>
1

>  <freq>
1

>  <freq0>
0

>  <freq1>
1

>  <freqA>
0.9949851

$$$$

  MOE2015           2D

 40 45  0  0  1  0  0  0  0  0999 V2000
    8.1660   -0.8910    0.0000 O   0  0  0  0  0  0  0  0  0  0  0  0
    8.1660   -2.3910    0.0000 C   0  0  0  0  0  0  0  0  0  0  0  0
    9.4650   -3.1410    0.0000 C   0  0  0  0  0  0  0  0  0  0  0  0
   10.7640   -2.3910    0.0000 C   0  0  0  0  0  0  0  0  0  0  0  0
   10.7640   -0.8910    0.0000 O   0  0  0  0  0  0  0  0  0  0  0  0
   12.0630   -3.1410    0.0000 N   0  0  0  0  0  0  0  0  0  0  0  0
   12.0630   -4.6410    0.0000 C   0  0  0  0  0  0  0  0  0  0  0  0
   13.3620   -5.3910    0.0000 O   0  0  0  0  0  0  0  0  0  0  0  0
   10.7640   -5.3910    0.0000 N   0  0  0  0  0  0  0  0  0  0  0  0
    9.4650   -4.6410    0.0000 C   0  0  0  0  0  0  0  0  0  0  0  0
    6.8670   -3.1410    0.0000 C   0  0  3  0  0  0  0  0  0  0  0  0
    6.8670   -1.6410    0.0000 C   0  0  0  0  0  0  0  0  0  0  0  0
    5.3670   -3.1410    0.0000 C   0  0  0  0  0  0  0  0  0  0  0  0
    4.6170   -4.4400    0.0000 C   0  0  3  0  0  0  0  0  0  0  0  0
    5.3670   -5.7390    0.0000 C   0  0  3  0  0  0  0  0  0  0  0  0
    6.1170   -7.0380    0.0000 C   0  0  0  0  0  0  0  0  0  0  0  0
    4.6170   -7.0380    0.0000 C   0  0  0  0  0  0  0  0  0  0  0  0
    3.1170   -7.0380    0.0000 C   0  0  0  0  0  0  0  0  0  0  0  0
    2.3670   -5.7390    0.0000 C   0  0  3  0  0  0  0  0  0  0  0  0
    1.6170   -7.0380    0.0000 C   0  0  0  0  0  0  0  0  0  0  0  0
    0.8670   -5.7390    0.0000 C   0  0  3  0  0  0  0  0  0  0  0  0
   -0.6330   -5.7390    0.0000 C   0  0  0  0  0  0  0  0  0  0  0  0
    0.1170   -4.4400    0.0000 C   0  0  3  0  0  0  0  0  0  0  0  0
    0.8670   -3.1410    0.0000 C   0  0  0  0  0  0  0  0  0  0  0  0
    0.1170   -1.8420    0.0000 O   0  0  0  0  0  0  0  0  0  0  0  0
    2.3670   -3.1410    0.0000 C   0  0  0  0  0  0  0  0  0  0  0  0
    3.1170   -4.4400    0.0000 C   0  0  0  0  0  0  0  0  0  0  0  0
   -1.3830   -4.4400    0.0000 C   0  0  3  0  0  0  0  0  0  0  0  0
   -0.6330   -3.1410    0.0000 C   0  0  0  0  0  0  0  0  0  0  0  0
   -2.1330   -5.7390    0.0000 C   0  0  3  0  0  0  0  0  0  0  0  0
   -3.6330   -5.7390    0.0000 C   0  0  0  0  0  0  0  0  0  0  0  0
   -3.6330   -7.2390    0.0000 C   0  0  0  0  0  0  0  0  0  0  0  0
   -4.9320   -6.4890    0.0000 C   0  0  0  0  0  0  0  0  0  0  0  0
   -4.3830   -4.4400    0.0000 C   0  0  0  0  0  0  0  0  0  0  0  0
   -3.6330   -3.1410    0.0000 C   0  0  0  0  0  0  0  0  0  0  0  0
   -2.1330   -3.1410    0.0000 C   0  0  0  0  0  0  0  0  0  0  0  0
   -1.3830   -7.0380    0.0000 C   0  0  0  0  0  0  0  0  0  0  0  0
    0.1170   -7.0380    0.0000 C   0  0  0  0  0  0  0  0  0  0  0  0
    6.8670   -5.7390    0.0000 C   0  0  0  0  0  0  0  0  0  0  0  0
    7.6170   -4.4400    0.0000 C   0  0  0  0  0  0  0  0  0  0  0  0
  1  2  2  0  0  0  0
  2  3  1  0  0  0  0
  2 11  1  0  0  0  0
  3  4  1  0  0  0  0
  3 10  2  0  0  0  0
  4  5  2  0  0  0  0
  4  6  1  0  0  0  0
  6  7  1  0  0  0  0
  7  8  2  0  0  0  0
  7  9  1  0  0  0  0
  9 10  1  0  0  0  0
 11 12  1  0  0  0  0
 11 13  1  0  0  0  0
 11 40  1  0  0  0  0
 13 14  1  0  0  0  0
 14 15  1  0  0  0  0
 14 27  1  0  0  0  0
 15 16  1  0  0  0  0
 15 17  1  0  0  0  0
 15 39  1  0  0  0  0
 17 18  1  0  0  0  0
 18 19  1  0  0  0  0
 19 20  1  0  0  0  0
 19 21  1  0  0  0  0
 19 27  1  0  0  0  0
 21 22  1  0  0  0  0
 21 23  1  0  0  0  0
 21 38  1  0  0  0  0
 23 24  1  0  0  0  0
 23 28  1  0  0  0  0
 24 25  2  0  0  0  0
 24 26  1  0  0  0  0
 26 27  2  0  0  0  0
 28 29  1  0  0  0  0
 28 30  1  0  0  0  0
 28 36  1  0  0  0  0
 30 31  1  0  0  0  0
 30 37  1  0  0  0  0
 31 32  1  0  0  0  0
 31 33  1  0  0  0  0
 31 34  1  0  0  0  0
 34 35  1  0  0  0  0
 35 36  1  0  0  0  0
 37 38  1  0  0  0  0
 39 40  1  0  0  0  0
M  END
>  <name>
O=C(C=1C(=O)NC(=O)NC=1)C1(C)CC2C(C)(CCC3(C)C4(C)C(C(=O)C=C23)C2(C)C(C(C)(C)[C;ether]CC2)CC4)CC1

>  <apo>
1

>  <freq>
1

>  <freq0>
0

>  <freq1>
1

>  <freqA>
0.9949851

$$$$

  MOE2015           2D

 19 20  0  0  1  0  0  0  0  0999 V2000
    2.8000    2.2530    0.0000 O   0  0  0  0  0  0  0  0  0  0  0  0
    2.8000    0.7530    0.0000 C   0  0  0  0  0  0  0  0  0  0  0  0
    4.0990    0.0030    0.0000 C   0  0  0  0  0  0  0  0  0  0  0  0
    5.3980    0.7530    0.0000 C   0  0  0  0  0  0  0  0  0  0  0  0
    5.3980    2.2530    0.0000 O   0  0  0  0  0  0  0  0  0  0  0  0
    6.6970    0.0030    0.0000 N   0  0  0  0  0  0  0  0  0  0  0  0
    6.6970   -1.4970    0.0000 C   0  0  0  0  0  0  0  0  0  0  0  0
    7.9960   -2.2470    0.0000 O   0  0  0  0  0  0  0  0  0  0  0  0
    5.3980   -2.2470    0.0000 N   0  0  0  0  0  0  0  0  0  0  0  0
    4.0990   -1.4970    0.0000 C   0  0  0  0  0  0  0  0  0  0  0  0
    1.5010    0.0030    0.0000 C   0  0  3  0  0  0  0  0  0  0  0  0
    0.2020    0.7530    0.0000 C   0  0  3  0  0  0  0  0  0  0  0  0
    0.2020    2.2530    0.0000 O   0  0  0  0  0  0  0  0  0  0  0  0
   -1.0970    0.0030    0.0000 C   0  0  3  0  0  0  0  0  0  0  0  0
   -2.3960    0.7530    0.0000 O   0  0  0  0  0  0  0  0  0  0  0  0
   -1.0970   -1.4970    0.0000 C   0  0  3  0  0  0  0  0  0  0  0  0
   -2.3960   -2.2470    0.0000 O   0  0  0  0  0  0  0  0  0  0  0  0
    0.2020   -2.2470    0.0000 C   0  0  0  0  0  0  0  0  0  0  0  0
    1.5010   -1.4970    0.0000 O   0  0  0  0  0  0  0  0  0  0  0  0
  1  2  2  0  0  0  0
  2  3  1  0  0  0  0
  2 11  1  0  0  0  0
  3  4  1  0  0  0  0
  3 10  2  0  0  0  0
  4  5  2  0  0  0  0
  4  6  1  0  0  0  0
  6  7  1  0  0  0  0
  7  8  2  0  0  0  0
  7  9  1  0  0  0  0
  9 10  1  0  0  0  0
 11 12  1  0  0  0  0
 11 19  1  0  0  0  0
 12 13  1  0  0  0  0
 12 14  1  0  0  0  0
 14 15  1  0  0  0  0
 14 16  1  0  0  0  0
 16 17  1  0  0  0  0
 16 18  1  0  0  0  0
 18 19  1  0  0  0  0
M  END
>  <name>
O=C(C=1C(=O)NC(=O)NC=1)C1C(O)C(O)C(O)[C;ether]O1

>  <apo>
1

>  <freq>
1

>  <freq0>
0

>  <freq1>
1

>  <freqA>
0.9949851

$$$$

  MOE2015           2D

 18 19  0  0  1  0  0  0  0  0999 V2000
    2.4170    2.4170    0.0000 O   0  0  0  0  0  0  0  0  0  0  0  0
    2.4170    0.9170    0.0000 C   0  0  0  0  0  0  0  0  0  0  0  0
    3.7160    0.1670    0.0000 C   0  0  0  0  0  0  0  0  0  0  0  0
    5.0150    0.9170    0.0000 C   0  0  0  0  0  0  0  0  0  0  0  0
    5.0150    2.4170    0.0000 O   0  0  0  0  0  0  0  0  0  0  0  0
    6.3140    0.1670    0.0000 N   0  0  0  0  0  0  0  0  0  0  0  0
    6.3140   -1.3330    0.0000 C   0  0  0  0  0  0  0  0  0  0  0  0
    7.6130   -2.0830    0.0000 O   0  0  0  0  0  0  0  0  0  0  0  0
    5.0150   -2.0830    0.0000 N   0  0  0  0  0  0  0  0  0  0  0  0
    3.7160   -1.3330    0.0000 C   0  0  0  0  0  0  0  0  0  0  0  0
    1.1180    0.1670    0.0000 C   0  0  3  0  0  0  0  0  0  0  0  0
   -0.1810    0.9170    0.0000 C   0  0  3  0  0  0  0  0  0  0  0  0
   -0.1810    2.4170    0.0000 O   0  0  0  0  0  0  0  0  0  0  0  0
   -1.4800    0.1670    0.0000 C   0  0  3  0  0  0  0  0  0  0  0  0
   -2.7790    0.9170    0.0000 O   0  0  0  0  0  0  0  0  0  0  0  0
   -1.4800   -1.3330    0.0000 C   0  0  0  0  0  0  0  0  0  0  0  0
   -0.1810   -2.0830    0.0000 C   0  0  0  0  0  0  0  0  0  0  0  0
    1.1180   -1.3330    0.0000 O   0  0  0  0  0  0  0  0  0  0  0  0
  1  2  2  0  0  0  0
  2  3  1  0  0  0  0
  2 11  1  0  0  0  0
  3  4  1  0  0  0  0
  3 10  2  0  0  0  0
  4  5  2  0  0  0  0
  4  6  1  0  0  0  0
  6  7  1  0  0  0  0
  7  8  2  0  0  0  0
  7  9  1  0  0  0  0
  9 10  1  0  0  0  0
 11 12  1  0  0  0  0
 11 18  1  0  0  0  0
 12 13  1  0  0  0  0
 12 14  1  0  0  0  0
 14 15  1  0  0  0  0
 14 16  1  0  0  0  0
 16 17  1  0  0  0  0
 17 18  1  0  0  0  0
M  END
>  <name>
O=C(C=1C(=O)NC(=O)NC=1)C1C(O)C(O)[C;ether][C;ether]O1

>  <apo>
2

>  <freq>
1

>  <freq0>
0

>  <freq1>
1

>  <freqA>
0.9949851

$$$$

  MOE2015           2D

 29 31  0  0  1  0  0  0  0  0999 V2000
    7.6620   -2.0530    0.0000 O   0  0  0  0  0  0  0  0  0  0  0  0
    6.3630   -1.3030    0.0000 C   0  0  0  0  0  0  0  0  0  0  0  0
    5.0640   -2.0530    0.0000 C   0  0  0  0  0  0  0  0  0  0  0  0
    5.0640   -3.5530    0.0000 C   0  0  0  0  0  0  0  0  0  0  0  0
    3.7650   -4.3030    0.0000 O   0  0  0  0  0  0  0  0  0  0  0  0
    3.7650   -5.8030    0.0000 C   0  0  0  0  0  0  0  0  0  0  0  0
    2.4660   -6.5530    0.0000 C   0  0  0  0  0  0  0  0  0  0  0  0
    2.4660   -8.0530    0.0000 C   0  0  0  0  0  0  0  0  0  0  0  0
    1.1670   -8.8030    0.0000 O   0  0  0  0  0  0  0  0  0  0  0  0
    1.1670  -10.3030    0.0000 C   0  0  0  0  0  0  0  0  0  0  0  0
    3.7650   -8.8030    0.0000 C   0  0  0  0  0  0  0  0  0  0  0  0
    5.0640   -8.0530    0.0000 C   0  0  0  0  0  0  0  0  0  0  0  0
    6.3630   -8.8030    0.0000 C   0  0  0  0  0  0  0  0  0  0  0  0
    5.0640   -6.5530    0.0000 C   0  0  0  0  0  0  0  0  0  0  0  0
    6.3630   -5.8030    0.0000 C   0  0  0  0  0  0  0  0  0  0  0  0
    7.6620   -6.5530    0.0000 O   0  0  0  0  0  0  0  0  0  0  0  0
    6.3630   -4.3030    0.0000 C   0  0  0  0  0  0  0  0  0  0  0  0
    1.1670   -5.8030    0.0000 C   0  0  3  0  0  0  0  0  0  0  0  0
   -0.1320   -6.5530    0.0000 C   0  0  3  0  0  0  0  0  0  0  0  0
   -0.1320   -8.0530    0.0000 O   0  0  0  0  0  0  0  0  0  0  0  0
   -1.4310   -5.8030    0.0000 C   0  0  3  0  0  0  0  0  0  0  0  0
   -2.7300   -6.5530    0.0000 O   0  0  0  0  0  0  0  0  0  0  0  0
   -1.4310   -4.3030    0.0000 C   0  0  3  0  0  0  0  0  0  0  0  0
   -2.7300   -3.5530    0.0000 C   0  0  0  0  0  0  0  0  0  0  0  0
   -0.1320   -3.5530    0.0000 C   0  0  3  0  0  0  0  0  0  0  0  0
   -0.1320   -2.0530    0.0000 C   0  0  0  0  0  0  0  0  0  0  0  0
   -1.4310   -1.3030    0.0000 O   0  0  0  0  0  0  0  0  0  0  0  0
    1.1670   -4.3030    0.0000 O   0  0  0  0  0  0  0  0  0  0  0  0
    6.3630    0.1970    0.0000 C   0  0  0  0  0  0  0  0  0  0  0  0
  1  2  2  0  0  0  0
  2  3  1  0  0  0  0
  2 29  1  0  0  0  0
  3  4  1  0  0  0  0
  4  5  1  0  0  0  0
  4 17  2  0  0  0  0
  5  6  1  0  0  0  0
  6  7  1  0  0  0  0
  6 14  2  0  0  0  0
  7  8  2  0  0  0  0
  7 18  1  0  0  0  0
  8  9  1  0  0  0  0
  8 11  1  0  0  0  0
  9 10  1  0  0  0  0
 11 12  2  0  0  0  0
 12 13  1  0  0  0  0
 12 14  1  0  0  0  0
 14 15  1  0  0  0  0
 15 16  2  0  0  0  0
 15 17  1  0  0  0  0
 18 19  1  0  0  0  0
 18 28  1  0  0  0  0
 19 20  1  0  0  0  0
 19 21  1  0  0  0  0
 21 22  1  0  0  0  0
 21 23  1  0  0  0  0
 23 24  1  0  0  0  0
 23 25  1  0  0  0  0
 25 26  1  0  0  0  0
 25 28  1  0  0  0  0
 26 27  1  0  0  0  0
M  END
>  <name>
O=C(CC=1Oc2c(c(OC)cc(C)c2C(=O)C=1)C1C([O;ester])C(O)C(C)C(CO)O1)C

>  <apo>
1

>  <freq>
1

>  <freq0>
0

>  <freq1>
1

>  <freqA>
0.9949851

$$$$

  MOE2015           2D

 34 36  0  0  1  0  0  0  0  0999 V2000
   -0.6650   -0.3840    0.0000 O   0  0  0  0  0  0  0  0  0  0  0  0
   -1.4150   -1.6830    0.0000 C   0  0  0  0  0  0  0  0  0  0  0  0
   -2.9150   -1.6830    0.0000 C   0  0  0  0  0  0  0  0  0  0  0  0
   -3.6650   -0.3840    0.0000 C   0  0  0  0  0  0  0  0  0  0  0  0
   -5.1650   -0.3840    0.0000 C   0  0  0  0  0  0  0  0  0  0  0  0
   -0.6650   -2.9820    0.0000 C   0  0  0  0  0  0  0  0  0  0  0  0
    0.8350   -2.9820    0.0000 C   0  0  0  0  0  0  0  0  0  0  0  0
    1.5850   -1.6830    0.0000 O   0  0  0  0  0  0  0  0  0  0  0  0
    1.5850   -4.2810    0.0000 C   0  0  0  0  0  0  0  0  0  0  0  0
    2.9940   -4.7940    0.0000 C   0  0  0  0  0  0  0  0  0  0  0  0
    4.1440   -3.8300    0.0000 C   0  0  0  0  0  0  0  0  0  0  0  0
    5.4430   -4.5800    0.0000 C   0  0  0  0  0  0  0  0  0  0  0  0
    5.4430   -6.0800    0.0000 O   0  0  0  0  0  0  0  0  0  0  0  0
    6.7420   -3.8300    0.0000 C   0  0  0  0  0  0  0  0  0  0  0  0
    8.0410   -4.5800    0.0000 C   0  0  0  0  0  0  0  0  0  0  0  0
    9.3400   -3.8300    0.0000 O   0  0  0  0  0  0  0  0  0  0  0  0
    8.0410   -6.0800    0.0000 C   0  0  0  0  0  0  0  0  0  0  0  0
    6.7420   -2.3300    0.0000 C   0  0  0  0  0  0  0  0  0  0  0  0
    8.0410   -1.5800    0.0000 O   0  0  0  0  0  0  0  0  0  0  0  0
    5.4430   -1.5800    0.0000 C   0  0  0  0  0  0  0  0  0  0  0  0
    6.1930   -0.2810    0.0000 C   0  0  0  0  0  0  0  0  0  0  0  0
    4.6930   -0.2810    0.0000 C   0  0  0  0  0  0  0  0  0  0  0  0
    4.1440   -2.3300    0.0000 C   0  0  0  0  0  0  0  0  0  0  0  0
    2.7340   -1.8170    0.0000 O   0  0  0  0  0  0  0  0  0  0  0  0
    0.8350   -5.5800    0.0000 C   0  0  0  0  0  0  0  0  0  0  0  0
    1.3480   -6.9900    0.0000 O   0  0  0  0  0  0  0  0  0  0  0  0
   -0.6650   -5.5800    0.0000 C   0  0  0  0  0  0  0  0  0  0  0  0
   -1.4150   -4.2810    0.0000 C   0  0  0  0  0  0  0  0  0  0  0  0
   -2.9150   -4.2810    0.0000 C   0  0  0  0  0  0  0  0  0  0  0  0
   -3.6650   -5.5800    0.0000 C   0  0  1  0  0  0  0  0  0  0  0  0
   -5.1650   -5.5800    0.0000 C   0  0  0  0  0  0  0  0  0  0  0  0
   -5.9150   -6.8790    0.0000 C   0  0  0  0  0  0  0  0  0  0  0  0
   -2.9150   -6.8790    0.0000 C   0  0  0  0  0  0  0  0  0  0  0  0
   -1.4150   -6.8790    0.0000 C   0  0  0  0  0  0  0  0  0  0  0  0
  1  2  2  0  0  0  0
  2  3  1  0  0  0  0
  2  6  1  0  0  0  0
  3  4  1  0  0  0  0
  4  5  1  0  0  0  0
  6  7  2  0  0  0  0
  6 28  1  0  0  0  0
  7  8  1  0  0  0  0
  7  9  1  0  0  0  0
  9 10  1  0  0  0  0
  9 25  2  0  0  0  0
 10 11  1  0  0  0  0
 11 12  1  0  0  0  0
 11 23  2  0  0  0  0
 12 13  2  0  0  0  0
 12 14  1  0  0  0  0
 14 15  1  0  0  0  0
 14 18  2  0  0  0  0
 15 16  2  0  0  0  0
 15 17  1  0  0  0  0
 18 19  1  0  0  0  0
 18 20  1  0  0  0  0
 20 21  1  0  0  0  0
 20 22  1  0  0  0  0
 20 23  1  0  0  0  0
 23 24  1  0  0  0  0
 25 26  1  0  0  0  0
 25 27  1  0  0  0  0
 27 28  2  0  0  0  0
 27 34  1  0  0  0  0
 28 29  1  0  0  0  0
 29 30  1  0  0  0  0
 30 31  1  6  0  0  0
 30 33  1  0  0  0  0
 31 32  1  0  0  0  0
 33 34  1  0  0  0  0
M  END
>  <name>
O=C(CCC)c1c(O)c(CC=2C(=O)C(C(=O)C)=C(O)C(C)(C)C=2O)c(O)c2c1C[C@@H]([C;olefin]C)CC2

>  <apo>
1

>  <freq>
1

>  <freq0>
0

>  <freq1>
1

>  <freqA>
0.9949851

$$$$

  MOE2015           2D

 34 36  0  0  1  0  0  0  0  0999 V2000
   -0.6650   -0.3840    0.0000 O   0  0  0  0  0  0  0  0  0  0  0  0
   -1.4150   -1.6830    0.0000 C   0  0  0  0  0  0  0  0  0  0  0  0
   -2.9150   -1.6830    0.0000 C   0  0  0  0  0  0  0  0  0  0  0  0
   -3.6650   -0.3840    0.0000 C   0  0  0  0  0  0  0  0  0  0  0  0
   -5.1650   -0.3840    0.0000 C   0  0  0  0  0  0  0  0  0  0  0  0
   -0.6650   -2.9820    0.0000 C   0  0  0  0  0  0  0  0  0  0  0  0
    0.8350   -2.9820    0.0000 C   0  0  0  0  0  0  0  0  0  0  0  0
    1.5850   -1.6830    0.0000 O   0  0  0  0  0  0  0  0  0  0  0  0
    1.5850   -4.2810    0.0000 C   0  0  0  0  0  0  0  0  0  0  0  0
    2.9940   -4.7940    0.0000 C   0  0  0  0  0  0  0  0  0  0  0  0
    4.1440   -3.8300    0.0000 C   0  0  0  0  0  0  0  0  0  0  0  0
    5.4430   -4.5800    0.0000 C   0  0  0  0  0  0  0  0  0  0  0  0
    5.4430   -6.0800    0.0000 O   0  0  0  0  0  0  0  0  0  0  0  0
    6.7420   -3.8300    0.0000 C   0  0  0  0  0  0  0  0  0  0  0  0
    8.0410   -4.5800    0.0000 C   0  0  0  0  0  0  0  0  0  0  0  0
    9.3400   -3.8300    0.0000 O   0  0  0  0  0  0  0  0  0  0  0  0
    8.0410   -6.0800    0.0000 C   0  0  0  0  0  0  0  0  0  0  0  0
    6.7420   -2.3300    0.0000 C   0  0  0  0  0  0  0  0  0  0  0  0
    8.0410   -1.5800    0.0000 O   0  0  0  0  0  0  0  0  0  0  0  0
    5.4430   -1.5800    0.0000 C   0  0  0  0  0  0  0  0  0  0  0  0
    6.1930   -0.2810    0.0000 C   0  0  0  0  0  0  0  0  0  0  0  0
    4.6930   -0.2810    0.0000 C   0  0  0  0  0  0  0  0  0  0  0  0
    4.1440   -2.3300    0.0000 C   0  0  0  0  0  0  0  0  0  0  0  0
    2.7340   -1.8170    0.0000 O   0  0  0  0  0  0  0  0  0  0  0  0
    0.8350   -5.5800    0.0000 C   0  0  0  0  0  0  0  0  0  0  0  0
    1.3480   -6.9900    0.0000 O   0  0  0  0  0  0  0  0  0  0  0  0
   -0.6650   -5.5800    0.0000 C   0  0  0  0  0  0  0  0  0  0  0  0
   -1.4150   -4.2810    0.0000 C   0  0  0  0  0  0  0  0  0  0  0  0
   -2.9150   -4.2810    0.0000 C   0  0  0  0  0  0  0  0  0  0  0  0
   -3.6650   -5.5800    0.0000 C   0  0  2  0  0  0  0  0  0  0  0  0
   -5.1650   -5.5800    0.0000 C   0  0  0  0  0  0  0  0  0  0  0  0
   -5.9150   -6.8790    0.0000 C   0  0  0  0  0  0  0  0  0  0  0  0
   -2.9150   -6.8790    0.0000 C   0  0  0  0  0  0  0  0  0  0  0  0
   -1.4150   -6.8790    0.0000 C   0  0  0  0  0  0  0  0  0  0  0  0
  1  2  2  0  0  0  0
  2  3  1  0  0  0  0
  2  6  1  0  0  0  0
  3  4  1  0  0  0  0
  4  5  1  0  0  0  0
  6  7  2  0  0  0  0
  6 28  1  0  0  0  0
  7  8  1  0  0  0  0
  7  9  1  0  0  0  0
  9 10  1  0  0  0  0
  9 25  2  0  0  0  0
 10 11  1  0  0  0  0
 11 12  1  0  0  0  0
 11 23  2  0  0  0  0
 12 13  2  0  0  0  0
 12 14  1  0  0  0  0
 14 15  1  0  0  0  0
 14 18  2  0  0  0  0
 15 16  2  0  0  0  0
 15 17  1  0  0  0  0
 18 19  1  0  0  0  0
 18 20  1  0  0  0  0
 20 21  1  0  0  0  0
 20 22  1  0  0  0  0
 20 23  1  0  0  0  0
 23 24  1  0  0  0  0
 25 26  1  0  0  0  0
 25 27  1  0  0  0  0
 27 28  2  0  0  0  0
 27 34  1  0  0  0  0
 28 29  1  0  0  0  0
 29 30  1  0  0  0  0
 30 31  1  1  0  0  0
 30 33  1  0  0  0  0
 31 32  1  0  0  0  0
 33 34  1  0  0  0  0
M  END
>  <name>
O=C(CCC)c1c(O)c(CC=2C(=O)C(C(=O)C)=C(O)C(C)(C)C=2O)c(O)c2c1C[C@H]([C;olefin]C)CC2

>  <apo>
1

>  <freq>
1

>  <freq0>
0

>  <freq1>
1

>  <freqA>
0.9949851

$$$$

  MOE2015           2D

 15 15  0  0  1  0  0  0  0  0999 V2000
    2.8500   -1.9580    0.0000 O   0  0  0  0  0  0  0  0  0  0  0  0
    2.8440   -0.4580    0.0000 C   0  0  0  0  0  0  0  0  0  0  0  0
    4.1400    0.2970    0.0000 C   0  0  0  0  0  0  0  0  0  0  0  0
    5.4420   -0.4480    0.0000 C   0  0  0  0  0  0  0  0  0  0  0  0
    6.7380    0.3070    0.0000 C   0  0  0  0  0  0  0  0  0  0  0  0
    8.0400   -0.4380    0.0000 C   0  0  0  0  0  0  0  0  0  0  0  0
    1.5420    0.2870    0.0000 C   0  0  3  0  0  0  0  0  0  0  0  0
    1.4950   -1.2130    0.0000 C   0  0  0  0  0  0  0  0  0  0  0  0
    0.0590    0.5150    0.0000 C   0  0  0  0  0  0  0  0  0  0  0  0
   -0.3170   -0.9370    0.0000 C   0  0  0  0  0  0  0  0  0  0  0  0
   -1.4020    0.1790    0.0000 C   0  0  0  0  0  0  0  0  0  0  0  0
   -0.1810    1.9960    0.0000 C   0  0  0  0  0  0  0  0  0  0  0  0
    1.1530    2.6820    0.0000 C   0  0  3  0  0  0  0  0  0  0  0  0
    1.3810    4.1650    0.0000 O   0  0  0  0  0  0  0  0  0  0  0  0
    2.2180    1.6260    0.0000 C   0  0  0  0  0  0  0  0  0  0  0  0
  1  2  2  0  0  0  0
  2  3  1  0  0  0  0
  2  7  1  0  0  0  0
  3  4  1  0  0  0  0
  4  5  1  0  0  0  0
  5  6  1  0  0  0  0
  7  8  1  0  0  0  0
  7  9  1  0  0  0  0
  7 15  1  0  0  0  0
  9 10  1  0  0  0  0
  9 11  1  0  0  0  0
  9 12  1  0  0  0  0
 12 13  1  0  0  0  0
 13 14  1  0  0  0  0
 13 15  1  0  0  0  0
M  END
>  <name>
O=C(CC[C;olefin]C)C1(C)C(C)(C)CC(O)C1

>  <apo>
1

>  <freq>
1

>  <freq0>
0

>  <freq1>
1

>  <freqA>
0.9949851

$$$$

  MOE2015           2D

 14 14  0  0  0  0  0  0  0  0999 V2000
   10.0420   -2.6910    0.0000 O   0  0  0  0  0  0  0  0  0  0  0  0
    8.7430   -1.9410    0.0000 C   0  0  0  0  0  0  0  0  0  0  0  0
    7.4440   -2.6910    0.0000 C   0  0  0  0  0  0  0  0  0  0  0  0
    6.1450   -1.9410    0.0000 C   0  0  0  0  0  0  0  0  0  0  0  0
    4.8460   -2.6910    0.0000 C   0  0  0  0  0  0  0  0  0  0  0  0
    3.5470   -1.9410    0.0000 C   0  0  0  0  0  0  0  0  0  0  0  0
    2.2480   -2.6910    0.0000 C   0  0  0  0  0  0  0  0  0  0  0  0
    0.9490   -1.9410    0.0000 O   0  0  0  0  0  0  0  0  0  0  0  0
    0.9490   -0.4410    0.0000 C   0  0  0  0  0  0  0  0  0  0  0  0
    2.2480   -4.1910    0.0000 C   0  0  0  0  0  0  0  0  0  0  0  0
    0.9490   -4.9410    0.0000 O   0  0  0  0  0  0  0  0  0  0  0  0
    3.5470   -4.9410    0.0000 C   0  0  0  0  0  0  0  0  0  0  0  0
    4.8460   -4.1910    0.0000 C   0  0  0  0  0  0  0  0  0  0  0  0
    8.7430   -0.4410    0.0000 C   0  0  0  0  0  0  0  0  0  0  0  0
  1  2  2  0  0  0  0
  2  3  1  0  0  0  0
  2 14  1  0  0  0  0
  3  4  1  0  0  0  0
  4  5  1  0  0  0  0
  5  6  1  0  0  0  0
  5 13  2  0  0  0  0
  6  7  2  0  0  0  0
  7  8  1  0  0  0  0
  7 10  1  0  0  0  0
  8  9  1  0  0  0  0
 10 11  1  0  0  0  0
 10 12  2  0  0  0  0
 12 13  1  0  0  0  0
M  END
>  <name>
O=C(CCc1cc(OC)c(O)cc1)[C;olefin]

>  <apo>
1

>  <freq>
1

>  <freq0>
0

>  <freq1>
1

>  <freqA>
0.9949851

$$$$

  MOE2015           2D

 20 21  0  0  0  0  0  0  0  0999 V2000
    1.7630    1.7630    0.0000 O   0  0  0  0  0  0  0  0  0  0  0  0
    1.7630    0.2630    0.0000 C   0  0  0  0  0  0  0  0  0  0  0  0
    3.0620   -0.4870    0.0000 C   0  0  0  0  0  0  0  0  0  0  0  0
    4.3610    0.2630    0.0000 C   0  0  0  0  0  0  0  0  0  0  0  0
    5.6600   -0.4870    0.0000 C   0  0  0  0  0  0  0  0  0  0  0  0
    5.6600   -1.9870    0.0000 C   0  0  0  0  0  0  0  0  0  0  0  0
    6.9590   -2.7370    0.0000 C   0  0  0  0  0  0  0  0  0  0  0  0
    8.2580   -1.9870    0.0000 C   0  0  0  0  0  0  0  0  0  0  0  0
    9.5570   -2.7370    0.0000 O   0  0  0  0  0  0  0  0  0  0  0  0
    8.2580   -0.4870    0.0000 C   0  0  0  0  0  0  0  0  0  0  0  0
    6.9590    0.2630    0.0000 C   0  0  0  0  0  0  0  0  0  0  0  0
    0.4640   -0.4870    0.0000 C   0  0  0  0  0  0  0  0  0  0  0  0
    0.4640   -1.9870    0.0000 C   0  0  0  0  0  0  0  0  0  0  0  0
    1.7630   -2.7370    0.0000 O   0  0  0  0  0  0  0  0  0  0  0  0
   -0.8350   -2.7370    0.0000 C   0  0  0  0  0  0  0  0  0  0  0  0
   -2.1340   -1.9870    0.0000 C   0  0  0  0  0  0  0  0  0  0  0  0
   -3.4330   -2.7370    0.0000 O   0  0  0  0  0  0  0  0  0  0  0  0
   -2.1340   -0.4870    0.0000 C   0  0  0  0  0  0  0  0  0  0  0  0
   -0.8350    0.2630    0.0000 C   0  0  0  0  0  0  0  0  0  0  0  0
   -0.8350    1.7630    0.0000 O   0  0  0  0  0  0  0  0  0  0  0  0
  1  2  2  0  0  0  0
  2  3  1  0  0  0  0
  2 12  1  0  0  0  0
  3  4  1  0  0  0  0
  4  5  1  0  0  0  0
  5  6  1  0  0  0  0
  5 11  2  0  0  0  0
  6  7  2  0  0  0  0
  7  8  1  0  0  0  0
  8  9  1  0  0  0  0
  8 10  2  0  0  0  0
 10 11  1  0  0  0  0
 12 13  1  0  0  0  0
 12 19  2  0  0  0  0
 13 14  1  0  0  0  0
 13 15  2  0  0  0  0
 15 16  1  0  0  0  0
 16 17  1  0  0  0  0
 16 18  2  0  0  0  0
 18 19  1  0  0  0  0
 19 20  1  0  0  0  0
M  END
>  <name>
O=C(CCc1ccc(O)cc1)c1c([O;ether])cc(O)cc1O

>  <apo>
1

>  <freq>
1

>  <freq0>
0

>  <freq1>
1

>  <freqA>
0.9949851

$$$$

  MOE2015           2D

 13 13  0  0  1  0  0  0  0  0999 V2000
    5.0190    2.8980    0.0000 O   0  0  0  0  0  0  0  0  0  0  0  0
    4.2690    1.5990    0.0000 C   0  0  0  0  0  0  0  0  0  0  0  0
    5.0190    0.3000    0.0000 C   0  0  0  0  0  0  0  0  0  0  0  0
    6.5190    0.3000    0.0000 O   0  0  0  0  0  0  0  0  0  0  0  0
    2.7690    1.5990    0.0000 C   0  0  3  0  0  0  0  0  0  0  0  0
    2.0190    2.8980    0.0000 C   0  0  3  0  0  0  0  0  0  0  0  0
    2.7690    4.1970    0.0000 O   0  0  0  0  0  0  0  0  0  0  0  0
    0.5190    2.8980    0.0000 C   0  0  3  0  0  0  0  0  0  0  0  0
   -0.2310    4.1970    0.0000 O   0  0  0  0  0  0  0  0  0  0  0  0
   -0.2310    1.5990    0.0000 C   0  0  3  0  0  0  0  0  0  0  0  0
   -1.7310    1.5990    0.0000 O   0  0  0  0  0  0  0  0  0  0  0  0
    0.5190    0.3000    0.0000 C   0  0  0  0  0  0  0  0  0  0  0  0
    2.0190    0.3000    0.0000 O   0  0  0  0  0  0  0  0  0  0  0  0
  1  2  2  0  0  0  0
  2  3  1  0  0  0  0
  2  5  1  0  0  0  0
  3  4  1  0  0  0  0
  5  6  1  0  0  0  0
  5 13  1  0  0  0  0
  6  7  1  0  0  0  0
  6  8  1  0  0  0  0
  8  9  1  0  0  0  0
  8 10  1  0  0  0  0
 10 11  1  0  0  0  0
 10 12  1  0  0  0  0
 12 13  1  0  0  0  0
M  END
>  <name>
O=C(CO)C1C(O)C(O)C(O)[C;ether]O1

>  <apo>
1

>  <freq>
1

>  <freq0>
0

>  <freq1>
1

>  <freqA>
0.9949851

$$$$

  MOE2015           2D

 12 12  0  0  1  0  0  0  0  0999 V2000
    3.6860    0.4390    0.0000 O   0  0  0  0  0  0  0  0  0  0  0  0
    3.6860   -1.0610    0.0000 C   0  0  0  0  0  0  0  0  0  0  0  0
    4.9850   -1.8110    0.0000 C   0  0  0  0  0  0  0  0  0  0  0  0
    6.2840   -1.0610    0.0000 O   0  0  0  0  0  0  0  0  0  0  0  0
    2.3870   -1.8110    0.0000 C   0  0  3  0  0  0  0  0  0  0  0  0
    1.0880   -1.0610    0.0000 C   0  0  3  0  0  0  0  0  0  0  0  0
    1.0880    0.4390    0.0000 O   0  0  0  0  0  0  0  0  0  0  0  0
   -0.2110   -1.8110    0.0000 C   0  0  3  0  0  0  0  0  0  0  0  0
   -1.5100   -1.0610    0.0000 O   0  0  0  0  0  0  0  0  0  0  0  0
   -0.2110   -3.3110    0.0000 C   0  0  0  0  0  0  0  0  0  0  0  0
    1.0880   -4.0610    0.0000 C   0  0  0  0  0  0  0  0  0  0  0  0
    2.3870   -3.3110    0.0000 O   0  0  0  0  0  0  0  0  0  0  0  0
  1  2  2  0  0  0  0
  2  3  1  0  0  0  0
  2  5  1  0  0  0  0
  3  4  1  0  0  0  0
  5  6  1  0  0  0  0
  5 12  1  0  0  0  0
  6  7  1  0  0  0  0
  6  8  1  0  0  0  0
  8  9  1  0  0  0  0
  8 10  1  0  0  0  0
 10 11  1  0  0  0  0
 11 12  1  0  0  0  0
M  END
>  <name>
O=C(CO)C1C(O)C(O)[C;ether][C;ether]O1

>  <apo>
2

>  <freq>
1

>  <freq0>
0

>  <freq1>
1

>  <freqA>
0.9949851

$$$$

  MOE2015           2D

  6  5  0  0  0  0  0  0  0  0999 V2000
   -0.0070   -1.2750    0.0000 O   0  0  0  0  0  0  0  0  0  0  0  0
    1.2920   -0.5250    0.0000 C   0  0  0  0  0  0  0  0  0  0  0  0
    2.5920   -1.2750    0.0000 C   0  0  0  0  0  0  0  0  0  0  0  0
    3.8910   -0.5250    0.0000 C   0  0  0  0  0  0  0  0  0  0  0  0
    5.1900   -1.2750    0.0000 C   0  0  0  0  0  0  0  0  0  0  0  0
    1.2920    0.9750    0.0000 C   0  0  0  0  0  0  0  0  0  0  0  0
  1  2  2  0  0  0  0
  2  3  1  0  0  0  0
  2  6  1  0  0  0  0
  3  4  1  0  0  0  0
  4  5  1  0  0  0  0
M  END
>  <name>
O=C(C[C;olefin]C)[C;olefin]

>  <apo>
2

>  <freq>
1

>  <freq0>
0

>  <freq1>
1

>  <freqA>
0.9949851

$$$$

  MOE2015           2D

 13 13  0  0  1  0  0  0  0  0999 V2000
    6.4040   -3.0980    0.0000 O   0  0  0  0  0  0  0  0  0  0  0  0
    5.6540   -4.3970    0.0000 C   0  0  0  0  0  0  0  0  0  0  0  0
    4.1540   -4.3970    0.0000 C   0  0  0  0  0  0  0  0  0  0  0  0
    3.4040   -3.0980    0.0000 C   0  0  1  0  0  0  0  0  0  0  0  0
    4.1540   -1.7990    0.0000 C   0  0  0  0  0  0  0  0  0  0  0  0
    1.9040   -3.0980    0.0000 C   0  0  0  0  0  0  0  0  0  0  0  0
    1.1540   -4.3970    0.0000 C   0  0  0  0  0  0  0  0  0  0  0  0
   -0.3460   -4.3970    0.0000 C   0  0  0  0  0  0  0  0  0  0  0  0
   -1.0960   -3.0980    0.0000 C   0  0  0  0  0  0  0  0  0  0  0  0
   -2.5960   -3.0980    0.0000 C   0  0  0  0  0  0  0  0  0  0  0  0
   -0.3460   -1.7990    0.0000 C   0  0  0  0  0  0  0  0  0  0  0  0
    1.1540   -1.7990    0.0000 C   0  0  0  0  0  0  0  0  0  0  0  0
    6.4040   -5.6960    0.0000 C   0  0  0  0  0  0  0  0  0  0  0  0
  1  2  2  0  0  0  0
  2  3  1  0  0  0  0
  2 13  1  0  0  0  0
  3  4  1  0  0  0  0
  4  5  1  6  0  0  0
  4  6  1  0  0  0  0
  6  7  2  0  0  0  0
  6 12  1  0  0  0  0
  7  8  1  0  0  0  0
  8  9  2  0  0  0  0
  9 10  1  0  0  0  0
  9 11  1  0  0  0  0
 11 12  1  0  0  0  0
M  END
>  <name>
O=C(C[C@@H](C)C1=CC=C(C)CC1)[C;olefin]

>  <apo>
1

>  <freq>
1

>  <freq0>
0

>  <freq1>
1

>  <freqA>
0.9949851

$$$$

  MOE2015           2D

 13 13  0  0  1  0  0  0  0  0999 V2000
    6.4040   -3.0980    0.0000 O   0  0  0  0  0  0  0  0  0  0  0  0
    5.6540   -4.3970    0.0000 C   0  0  0  0  0  0  0  0  0  0  0  0
    4.1540   -4.3970    0.0000 C   0  0  0  0  0  0  0  0  0  0  0  0
    3.4040   -3.0980    0.0000 C   0  0  2  0  0  0  0  0  0  0  0  0
    4.1540   -1.7990    0.0000 C   0  0  0  0  0  0  0  0  0  0  0  0
    1.9040   -3.0980    0.0000 C   0  0  0  0  0  0  0  0  0  0  0  0
    1.1540   -4.3970    0.0000 C   0  0  0  0  0  0  0  0  0  0  0  0
   -0.3460   -4.3970    0.0000 C   0  0  0  0  0  0  0  0  0  0  0  0
   -1.0960   -3.0980    0.0000 C   0  0  0  0  0  0  0  0  0  0  0  0
   -2.5960   -3.0980    0.0000 C   0  0  0  0  0  0  0  0  0  0  0  0
   -0.3460   -1.7990    0.0000 C   0  0  0  0  0  0  0  0  0  0  0  0
    1.1540   -1.7990    0.0000 C   0  0  0  0  0  0  0  0  0  0  0  0
    6.4040   -5.6960    0.0000 C   0  0  0  0  0  0  0  0  0  0  0  0
  1  2  2  0  0  0  0
  2  3  1  0  0  0  0
  2 13  1  0  0  0  0
  3  4  1  0  0  0  0
  4  5  1  1  0  0  0
  4  6  1  0  0  0  0
  6  7  1  0  0  0  0
  6 12  2  0  0  0  0
  7  8  2  0  0  0  0
  8  9  1  0  0  0  0
  9 10  1  0  0  0  0
  9 11  2  0  0  0  0
 11 12  1  0  0  0  0
M  END
>  <name>
O=C(C[C@H](C)c1ccc(C)cc1)[C;olefin]

>  <apo>
1

>  <freq>
1

>  <freq0>
0

>  <freq1>
1

>  <freqA>
0.9949851

$$$$

  MOE2015           2D

 11 11  0  0  0  0  0  0  0  0999 V2000
    5.1140   -0.1180    0.0000 O   0  0  0  0  0  0  0  0  0  0  0  0
    4.3640   -1.4170    0.0000 C   0  0  0  0  0  0  0  0  0  0  0  0
    5.1140   -2.7160    0.0000 C   0  0  0  0  0  0  0  0  0  0  0  0
    6.6140   -2.7160    0.0000 N   0  0  0  0  0  0  0  0  0  0  0  0
    2.8640   -1.4170    0.0000 C   0  0  0  0  0  0  0  0  0  0  0  0
    2.1140   -2.7160    0.0000 C   0  0  0  0  0  0  0  0  0  0  0  0
    0.6140   -2.7160    0.0000 C   0  0  0  0  0  0  0  0  0  0  0  0
   -0.1360   -1.4170    0.0000 C   0  0  0  0  0  0  0  0  0  0  0  0
   -1.6360   -1.4170    0.0000 O   0  0  0  0  0  0  0  0  0  0  0  0
    0.6140   -0.1180    0.0000 C   0  0  0  0  0  0  0  0  0  0  0  0
    2.1140   -0.1180    0.0000 C   0  0  0  0  0  0  0  0  0  0  0  0
  1  2  2  0  0  0  0
  2  3  1  0  0  0  0
  2  5  1  0  0  0  0
  3  4  1  0  0  0  0
  5  6  1  0  0  0  0
  5 11  2  0  0  0  0
  6  7  2  0  0  0  0
  7  8  1  0  0  0  0
  8  9  1  0  0  0  0
  8 10  2  0  0  0  0
 10 11  1  0  0  0  0
M  END
>  <name>
O=C(C[N;amide])c1ccc(O)cc1

>  <apo>
1

>  <freq>
1

>  <freq0>
0

>  <freq1>
1

>  <freqA>
0.9949851

$$$$

  MOE2015           2D

 34 39  0  0  1  0  0  0  0  0999 V2000
    1.9290    4.4850    0.0000 O   0  0  0  0  0  0  0  0  0  0  0  0
    2.9610    3.3950    0.0000 C   0  0  0  0  0  0  0  0  0  0  0  0
    4.4200    3.7440    0.0000 C   0  0  0  0  0  0  0  0  0  0  0  0
    4.8470    5.1820    0.0000 O   0  0  0  0  0  0  0  0  0  0  0  0
    2.5330    1.9580    0.0000 C   0  0  2  0  0  0  0  0  0  0  0  0
    1.0750    2.3090    0.0000 C   0  0  2  0  0  0  0  0  0  0  0  0
    1.5030    3.7470    0.0000 C   0  0  0  0  0  0  0  0  0  0  0  0
    0.2900    1.0310    0.0000 C   0  0  2  0  0  0  0  0  0  0  0  0
   -1.2090    1.0720    0.0000 C   0  0  1  0  0  0  0  0  0  0  0  0
   -1.9240    2.3910    0.0000 C   0  0  2  0  0  0  0  0  0  0  0  0
   -1.1390    3.6690    0.0000 C   0  0  1  0  0  0  0  0  0  0  0  0
   -1.8530    4.9880    0.0000 O   0  0  0  0  0  0  0  0  0  0  0  0
    0.3610    3.6280    0.0000 C   0  0  0  0  0  0  0  0  0  0  0  0
   -3.4230    2.4320    0.0000 C   0  0  2  0  0  0  0  0  0  0  0  0
   -2.6380    3.7100    0.0000 C   0  0  0  0  0  0  0  0  0  0  0  0
   -4.2080    1.1540    0.0000 C   0  0  0  0  0  0  0  0  0  0  0  0
   -5.7080    1.1940    0.0000 C   0  0  0  0  0  0  0  0  0  0  0  0
   -6.4220    2.5130    0.0000 C   0  0  0  0  0  0  0  0  0  0  0  0
   -7.9220    2.5540    0.0000 O   0  0  0  0  0  0  0  0  0  0  0  0
   -5.6370    3.7910    0.0000 C   0  0  0  0  0  0  0  0  0  0  0  0
   -4.1380    3.7510    0.0000 C   0  0  0  0  0  0  0  0  0  0  0  0
   -3.4940   -0.1650    0.0000 C   0  0  0  0  0  0  0  0  0  0  0  0
   -1.9940   -0.2060    0.0000 C   0  0  0  0  0  0  0  0  0  0  0  0
    1.2630   -0.1110    0.0000 C   0  0  0  0  0  0  0  0  0  0  0  0
    2.6490    0.4620    0.0000 C   0  0  1  0  0  0  0  0  0  0  0  0
    4.1080    0.1100    0.0000 O   0  0  0  0  0  0  0  0  0  0  0  0
    4.8930    1.3890    0.0000 C   0  0  1  0  0  0  0  0  0  0  0  0
    6.3880    1.5050    0.0000 C   0  0  0  0  0  0  0  0  0  0  0  0
    7.2370    0.2680    0.0000 C   0  0  0  0  0  0  0  0  0  0  0  0
    8.7320    0.3840    0.0000 C   0  0  0  0  0  0  0  0  0  0  0  0
    9.3790    1.7370    0.0000 C   0  0  0  0  0  0  0  0  0  0  0  0
    8.5310    2.9740    0.0000 C   0  0  0  0  0  0  0  0  0  0  0  0
    7.0350    2.8580    0.0000 C   0  0  0  0  0  0  0  0  0  0  0  0
    3.9200    2.5300    0.0000 O   0  0  0  0  0  0  0  0  0  0  0  0
  1  2  2  0  0  0  0
  2  3  1  0  0  0  0
  5  2  1  1  0  0  0
  3  4  1  0  0  0  0
  5  6  1  0  0  0  0
  5 25  1  0  0  0  0
  5 34  1  0  0  0  0
  6  7  1  1  0  0  0
  6  8  1  0  0  0  0
  6 13  1  0  0  0  0
  8  9  1  0  0  0  0
  8 24  1  1  0  0  0
  9 10  1  0  0  0  0
  9 23  1  6  0  0  0
 10 11  1  1  0  0  0
 10 14  1  0  0  0  0
 11 12  1  1  0  0  0
 11 13  1  0  0  0  0
 14 15  1  1  0  0  0
 14 16  1  0  0  0  0
 14 21  1  0  0  0  0
 16 17  2  0  0  0  0
 16 22  1  0  0  0  0
 17 18  1  0  0  0  0
 18 19  2  0  0  0  0
 18 20  1  0  0  0  0
 20 21  2  0  0  0  0
 22 23  1  0  0  0  0
 25 24  1  6  0  0  0
 25 26  1  0  0  0  0
 26 27  1  0  0  0  0
 27 28  1  6  0  0  0
 27 34  1  0  0  0  0
 28 29  1  0  0  0  0
 28 33  1  0  0  0  0
 29 30  1  0  0  0  0
 30 31  1  0  0  0  0
 31 32  1  0  0  0  0
 32 33  1  0  0  0  0
M  END
>  <name>
O=C(C[O;ester])[C@]12[C@]3(C)[C@H]([C@H]4[C@H]([C@@H](O)C3)[C@]3(C)C(=CC(=O)C=C3)CC4)C[C@H]1O[C@@H](C1CCCCC1)O2

>  <apo>
1

>  <freq>
1

>  <freq0>
0

>  <freq1>
1

>  <freqA>
0.9949851

$$$$

  MOE2015           2D

 20 20  0  0  0  0  0  0  0  0999 V2000
    6.4420   -6.4420    0.0000 O   0  0  0  0  0  0  0  0  0  0  0  0
    6.4420   -4.9420    0.0000 C   0  0  0  0  0  0  0  0  0  0  0  0
    5.1430   -4.1920    0.0000 N   0  0  0  0  0  0  0  0  0  0  0  0
    5.1430   -2.6920    0.0000 O   0  0  0  0  0  0  0  0  0  0  0  0
    3.8440   -4.9420    0.0000 C   0  0  0  0  0  0  0  0  0  0  0  0
    2.5450   -4.1920    0.0000 C   0  0  0  0  0  0  0  0  0  0  0  0
    1.2460   -4.9420    0.0000 C   0  0  0  0  0  0  0  0  0  0  0  0
   -0.0530   -4.1920    0.0000 C   0  0  0  0  0  0  0  0  0  0  0  0
   -1.3520   -4.9420    0.0000 C   0  0  0  0  0  0  0  0  0  0  0  0
   -2.6510   -4.1920    0.0000 N   0  0  0  0  0  0  0  0  0  0  0  0
   -4.0210   -4.8030    0.0000 C   0  0  0  0  0  0  0  0  0  0  0  0
   -4.3330   -6.2700    0.0000 O   0  0  0  0  0  0  0  0  0  0  0  0
   -5.0250   -3.6880    0.0000 C   0  0  0  0  0  0  0  0  0  0  0  0
   -4.2750   -2.3890    0.0000 C   0  0  0  0  0  0  0  0  0  0  0  0
   -2.8080   -2.7010    0.0000 C   0  0  0  0  0  0  0  0  0  0  0  0
   -1.6930   -1.6970    0.0000 O   0  0  0  0  0  0  0  0  0  0  0  0
    7.7410   -4.1920    0.0000 C   0  0  0  0  0  0  0  0  0  0  0  0
    9.0410   -4.9420    0.0000 C   0  0  0  0  0  0  0  0  0  0  0  0
   10.3400   -4.1920    0.0000 C   0  0  0  0  0  0  0  0  0  0  0  0
   11.6390   -4.9420    0.0000 O   0  0  0  0  0  0  0  0  0  0  0  0
  1  2  2  0  0  0  0
  2  3  1  0  0  0  0
  2 17  1  0  0  0  0
  3  4  1  0  0  0  0
  3  5  1  0  0  0  0
  5  6  1  0  0  0  0
  6  7  1  0  0  0  0
  7  8  1  0  0  0  0
  8  9  1  0  0  0  0
  9 10  1  0  0  0  0
 10 11  1  0  0  0  0
 10 15  1  0  0  0  0
 11 12  2  0  0  0  0
 11 13  1  0  0  0  0
 13 14  1  0  0  0  0
 14 15  1  0  0  0  0
 15 16  2  0  0  0  0
 17 18  1  0  0  0  0
 18 19  1  0  0  0  0
 19 20  2  0  0  0  0
M  END
>  <name>
O=C(N(O)CCCCCN1C(=O)CCC1=O)CC[C;amide]=O

>  <apo>
1

>  <freq>
1

>  <freq0>
0

>  <freq1>
1

>  <freqA>
0.9949851

$$$$

  MOE2015           2D

 14 13  0  0  0  0  0  0  0  0999 V2000
    0.1120   -3.6380    0.0000 O   0  0  0  0  0  0  0  0  0  0  0  0
    0.1120   -2.1380    0.0000 C   0  0  0  0  0  0  0  0  0  0  0  0
    1.4110   -1.3880    0.0000 N   0  0  0  0  0  0  0  0  0  0  0  0
    1.4110    0.1120    0.0000 O   0  0  0  0  0  0  0  0  0  0  0  0
    2.7100   -2.1380    0.0000 C   0  0  0  0  0  0  0  0  0  0  0  0
    4.0090   -1.3880    0.0000 C   0  0  0  0  0  0  0  0  0  0  0  0
    5.3080   -2.1380    0.0000 C   0  0  0  0  0  0  0  0  0  0  0  0
    6.6070   -1.3880    0.0000 C   0  0  0  0  0  0  0  0  0  0  0  0
    7.9060   -2.1380    0.0000 C   0  0  0  0  0  0  0  0  0  0  0  0
    9.2050   -1.3880    0.0000 N   0  0  0  0  0  0  0  0  0  0  0  0
   -1.1870   -1.3880    0.0000 C   0  0  0  0  0  0  0  0  0  0  0  0
   -2.4860   -2.1380    0.0000 C   0  0  0  0  0  0  0  0  0  0  0  0
   -3.7850   -1.3880    0.0000 C   0  0  0  0  0  0  0  0  0  0  0  0
   -5.0840   -2.1380    0.0000 O   0  0  0  0  0  0  0  0  0  0  0  0
  1  2  2  0  0  0  0
  2  3  1  0  0  0  0
  2 11  1  0  0  0  0
  3  4  1  0  0  0  0
  3  5  1  0  0  0  0
  5  6  1  0  0  0  0
  6  7  1  0  0  0  0
  7  8  1  0  0  0  0
  8  9  1  0  0  0  0
  9 10  1  0  0  0  0
 11 12  1  0  0  0  0
 12 13  1  0  0  0  0
 13 14  2  0  0  0  0
M  END
>  <name>
O=C(N(O)CCCCC[N;amide])CC[C;amide]=O

>  <apo>
2

>  <freq>
1

>  <freq0>
0

>  <freq1>
1

>  <freqA>
0.9949851

$$$$

  MOE2015           2D

 11 10  0  0  0  0  0  0  0  0999 V2000
   -0.4550   -2.7890    0.0000 O   0  0  0  0  0  0  0  0  0  0  0  0
    0.8440   -2.0390    0.0000 C   0  0  0  0  0  0  0  0  0  0  0  0
    0.8440   -0.5390    0.0000 N   0  0  0  0  0  0  0  0  0  0  0  0
    2.1430   -2.7890    0.0000 C   0  0  0  0  0  0  0  0  0  0  0  0
    3.4420   -2.0390    0.0000 C   0  0  0  0  0  0  0  0  0  0  0  0
    4.7410   -2.7890    0.0000 C   0  0  0  0  0  0  0  0  0  0  0  0
    6.0400   -2.0390    0.0000 N   0  0  0  0  0  0  0  0  0  0  0  0
    7.3390   -2.7890    0.0000 C   0  0  0  0  0  0  0  0  0  0  0  0
    8.6380   -2.0390    0.0000 C   0  0  0  0  0  0  0  0  0  0  0  0
    9.9370   -2.7890    0.0000 C   0  0  0  0  0  0  0  0  0  0  0  0
   11.2360   -2.0390    0.0000 N   0  0  0  0  0  0  0  0  0  0  0  0
  1  2  2  0  0  0  0
  2  3  1  0  0  0  0
  2  4  1  0  0  0  0
  4  5  1  0  0  0  0
  5  6  1  0  0  0  0
  6  7  1  0  0  0  0
  7  8  1  0  0  0  0
  8  9  1  0  0  0  0
  9 10  1  0  0  0  0
 10 11  1  0  0  0  0
M  END
>  <name>
O=C(N)CCC[N;amide]CCCN

>  <apo>
1

>  <freq>
1

>  <freq0>
0

>  <freq1>
1

>  <freqA>
0.9949851

$$$$

  MOE2015           2D

 13 13  0  0  1  0  0  0  0  0999 V2000
    5.0190   -0.8990    0.0000 O   0  0  0  0  0  0  0  0  0  0  0  0
    4.2690   -2.1980    0.0000 C   0  0  0  0  0  0  0  0  0  0  0  0
    5.0190   -3.4970    0.0000 N   0  0  0  0  0  0  0  0  0  0  0  0
    6.5190   -3.4970    0.0000 N   0  0  0  0  0  0  0  0  0  0  0  0
    2.7690   -2.1980    0.0000 C   0  0  3  0  0  0  0  0  0  0  0  0
    2.0190   -0.8990    0.0000 C   0  0  3  0  0  0  0  0  0  0  0  0
    2.7690    0.4000    0.0000 O   0  0  0  0  0  0  0  0  0  0  0  0
    0.5190   -0.8990    0.0000 C   0  0  3  0  0  0  0  0  0  0  0  0
   -0.2310    0.4000    0.0000 O   0  0  0  0  0  0  0  0  0  0  0  0
   -0.2310   -2.1980    0.0000 C   0  0  3  0  0  0  0  0  0  0  0  0
   -1.7310   -2.1980    0.0000 O   0  0  0  0  0  0  0  0  0  0  0  0
    0.5190   -3.4970    0.0000 C   0  0  0  0  0  0  0  0  0  0  0  0
    2.0190   -3.4970    0.0000 O   0  0  0  0  0  0  0  0  0  0  0  0
  1  2  2  0  0  0  0
  2  3  1  0  0  0  0
  2  5  1  0  0  0  0
  3  4  1  0  0  0  0
  5  6  1  0  0  0  0
  5 13  1  0  0  0  0
  6  7  1  0  0  0  0
  6  8  1  0  0  0  0
  8  9  1  0  0  0  0
  8 10  1  0  0  0  0
 10 11  1  0  0  0  0
 10 12  1  0  0  0  0
 12 13  1  0  0  0  0
M  END
>  <name>
O=C(NN)C1C(O)C(O)C(O)[C;ether]O1

>  <apo>
1

>  <freq>
1

>  <freq0>
0

>  <freq1>
1

>  <freqA>
0.9949851

$$$$

  MOE2015           2D

 12 12  0  0  1  0  0  0  0  0999 V2000
    3.6860    3.6860    0.0000 O   0  0  0  0  0  0  0  0  0  0  0  0
    3.6860    2.1860    0.0000 C   0  0  0  0  0  0  0  0  0  0  0  0
    4.9850    1.4360    0.0000 N   0  0  0  0  0  0  0  0  0  0  0  0
    6.2840    2.1860    0.0000 N   0  0  0  0  0  0  0  0  0  0  0  0
    2.3870    1.4360    0.0000 C   0  0  3  0  0  0  0  0  0  0  0  0
    1.0880    2.1860    0.0000 C   0  0  3  0  0  0  0  0  0  0  0  0
    1.0880    3.6860    0.0000 O   0  0  0  0  0  0  0  0  0  0  0  0
   -0.2110    1.4360    0.0000 C   0  0  3  0  0  0  0  0  0  0  0  0
   -1.5100    2.1860    0.0000 O   0  0  0  0  0  0  0  0  0  0  0  0
   -0.2110   -0.0640    0.0000 C   0  0  0  0  0  0  0  0  0  0  0  0
    1.0880   -0.8140    0.0000 C   0  0  0  0  0  0  0  0  0  0  0  0
    2.3870   -0.0640    0.0000 O   0  0  0  0  0  0  0  0  0  0  0  0
  1  2  2  0  0  0  0
  2  3  1  0  0  0  0
  2  5  1  0  0  0  0
  3  4  1  0  0  0  0
  5  6  1  0  0  0  0
  5 12  1  0  0  0  0
  6  7  1  0  0  0  0
  6  8  1  0  0  0  0
  8  9  1  0  0  0  0
  8 10  1  0  0  0  0
 10 11  1  0  0  0  0
 11 12  1  0  0  0  0
M  END
>  <name>
O=C(NN)C1C(O)C(O)[C;ether][C;ether]O1

>  <apo>
2

>  <freq>
1

>  <freq0>
0

>  <freq1>
1

>  <freqA>
0.9949851

$$$$

  MOE2015           2D

  6  5  0  0  1  0  0  0  0  0999 V2000
    3.3750    0.6500    0.0000 O   0  0  0  0  0  0  0  0  0  0  0  0
    2.6250   -0.6500    0.0000 C   0  0  0  0  0  0  0  0  0  0  0  0
    3.3750   -1.9490    0.0000 O   0  0  0  0  0  0  0  0  0  0  0  0
    1.1250   -0.6500    0.0000 C   0  0  3  0  0  0  0  0  0  0  0  0
    0.3750    0.6500    0.0000 N   0  0  0  0  0  0  0  0  0  0  0  0
    0.3750   -1.9490    0.0000 C   0  0  0  0  0  0  0  0  0  0  0  0
  1  2  2  0  0  0  0
  2  3  1  0  0  0  0
  2  4  1  0  0  0  0
  4  5  1  0  0  0  0
  4  6  1  0  0  0  0
M  END
>  <name>
O=C(O)C(N)[C;thioether]

>  <apo>
1

>  <freq>
1

>  <freq0>
0

>  <freq1>
1

>  <freqA>
0.9949851

$$$$

  MOE2015           2D

 10  9  0  0  1  0  0  0  0  0999 V2000
   -0.2420   -1.9540    0.0000 O   0  0  0  0  0  0  0  0  0  0  0  0
    1.0570   -1.2040    0.0000 C   0  0  0  0  0  0  0  0  0  0  0  0
    1.0570    0.2960    0.0000 O   0  0  0  0  0  0  0  0  0  0  0  0
    2.3560   -1.9540    0.0000 C   0  0  3  0  0  0  0  0  0  0  0  0
    2.3560   -3.4540    0.0000 N   0  0  0  0  0  0  0  0  0  0  0  0
    3.6550   -1.2040    0.0000 C   0  0  0  0  0  0  0  0  0  0  0  0
    4.9540   -1.9540    0.0000 C   0  0  0  0  0  0  0  0  0  0  0  0
    6.2530   -1.2040    0.0000 C   0  0  0  0  0  0  0  0  0  0  0  0
    7.5520   -1.9540    0.0000 O   0  0  0  0  0  0  0  0  0  0  0  0
    6.2530    0.2960    0.0000 O   0  0  0  0  0  0  0  0  0  0  0  0
  1  2  2  0  0  0  0
  2  3  1  0  0  0  0
  2  4  1  0  0  0  0
  4  5  1  0  0  0  0
  4  6  1  0  0  0  0
  6  7  1  0  0  0  0
  7  8  1  0  0  0  0
  8  9  2  0  0  0  0
  8 10  1  0  0  0  0
M  END
>  <name>
O=C(O)C([N;amide])CCC(=O)O

>  <apo>
1

>  <freq>
1

>  <freq0>
0

>  <freq1>
1

>  <freqA>
0.9949851

$$$$

  MOE2015           2D

  6  5  0  0  1  0  0  0  0  0999 V2000
    3.3750    0.6500    0.0000 O   0  0  0  0  0  0  0  0  0  0  0  0
    2.6250   -0.6500    0.0000 C   0  0  0  0  0  0  0  0  0  0  0  0
    3.3750   -1.9490    0.0000 O   0  0  0  0  0  0  0  0  0  0  0  0
    1.1250   -0.6500    0.0000 C   0  0  3  0  0  0  0  0  0  0  0  0
    0.3750    0.6500    0.0000 N   0  0  0  0  0  0  0  0  0  0  0  0
    0.3750   -1.9490    0.0000 C   0  0  0  0  0  0  0  0  0  0  0  0
  1  2  2  0  0  0  0
  2  3  1  0  0  0  0
  2  4  1  0  0  0  0
  4  5  1  0  0  0  0
  4  6  1  0  0  0  0
M  END
>  <name>
O=C(O)C([N;amide])[C;thioether]

>  <apo>
2

>  <freq>
1

>  <freq0>
0

>  <freq1>
1

>  <freqA>
0.9949851

$$$$

  MOE2015           2D

 10  9  0  0  1  0  0  0  0  0999 V2000
   -0.0740   -0.0740    0.0000 O   0  0  0  0  0  0  0  0  0  0  0  0
   -0.0740   -1.5740    0.0000 C   0  0  0  0  0  0  0  0  0  0  0  0
   -1.3730   -2.3240    0.0000 O   0  0  0  0  0  0  0  0  0  0  0  0
    1.2250   -2.3240    0.0000 C   0  0  3  0  0  0  0  0  0  0  0  0
    1.2250   -3.8240    0.0000 O   0  0  0  0  0  0  0  0  0  0  0  0
    2.5250   -1.5740    0.0000 C   0  0  3  0  0  0  0  0  0  0  0  0
    2.5250   -0.0740    0.0000 O   0  0  0  0  0  0  0  0  0  0  0  0
    3.8240   -2.3240    0.0000 C   0  0  0  0  0  0  0  0  0  0  0  0
    5.1230   -1.5740    0.0000 O   0  0  0  0  0  0  0  0  0  0  0  0
    3.8240   -3.8240    0.0000 O   0  0  0  0  0  0  0  0  0  0  0  0
  1  2  2  0  0  0  0
  2  3  1  0  0  0  0
  2  4  1  0  0  0  0
  4  5  1  0  0  0  0
  4  6  1  0  0  0  0
  6  7  1  0  0  0  0
  6  8  1  0  0  0  0
  8  9  2  0  0  0  0
  8 10  1  0  0  0  0
M  END
>  <name>
O=C(O)C([O;ester])C([O;ester])C(=O)O

>  <apo>
2

>  <freq>
1

>  <freq0>
0

>  <freq1>
1

>  <freqA>
0.9949851

$$$$

  MOE2015           2D

 29 33  0  0  1  0  0  0  0  0999 V2000
    9.1480   -9.1480    0.0000 O   0  0  0  0  0  0  0  0  0  0  0  0
    9.1480   -7.6480    0.0000 C   0  0  0  0  0  0  0  0  0  0  0  0
   10.4470   -6.8980    0.0000 O   0  0  0  0  0  0  0  0  0  0  0  0
    7.8490   -6.8980    0.0000 C   0  0  3  0  0  0  0  0  0  0  0  0
    7.8490   -8.3980    0.0000 C   0  0  0  0  0  0  0  0  0  0  0  0
    6.3490   -6.8980    0.0000 C   0  0  0  0  0  0  0  0  0  0  0  0
    5.5990   -5.5990    0.0000 C   0  0  3  0  0  0  0  0  0  0  0  0
    6.3490   -4.3000    0.0000 C   0  0  3  0  0  0  0  0  0  0  0  0
    7.0990   -3.0010    0.0000 C   0  0  0  0  0  0  0  0  0  0  0  0
    7.8490   -4.3000    0.0000 C   0  0  0  0  0  0  0  0  0  0  0  0
    8.5990   -5.5990    0.0000 C   0  0  0  0  0  0  0  0  0  0  0  0
    5.5990   -3.0010    0.0000 C   0  0  0  0  0  0  0  0  0  0  0  0
    4.0990   -3.0010    0.0000 C   0  0  0  0  0  0  0  0  0  0  0  0
    3.3490   -4.3000    0.0000 C   0  0  3  0  0  0  0  0  0  0  0  0
    4.0990   -5.5990    0.0000 C   0  0  0  0  0  0  0  0  0  0  0  0
    3.3490   -6.8980    0.0000 C   0  0  0  0  0  0  0  0  0  0  0  0
    1.8490   -6.8980    0.0000 C   0  0  0  0  0  0  0  0  0  0  0  0
    1.0990   -8.1970    0.0000 O   0  0  0  0  0  0  0  0  0  0  0  0
    1.0990   -5.5990    0.0000 C   0  0  3  0  0  0  0  0  0  0  0  0
   -0.4010   -5.5990    0.0000 C   0  0  3  0  0  0  0  0  0  0  0  0
    0.3490   -6.8980    0.0000 C   0  0  0  0  0  0  0  0  0  0  0  0
   -1.1510   -4.3000    0.0000 C   0  0  3  0  0  0  0  0  0  0  0  0
   -0.4010   -3.0010    0.0000 C   0  0  0  0  0  0  0  0  0  0  0  0
    1.0990   -3.0010    0.0000 C   0  0  0  0  0  0  0  0  0  0  0  0
    1.8490   -4.3000    0.0000 C   0  0  3  0  0  0  0  0  0  0  0  0
   -2.6510   -4.3000    0.0000 C   0  0  0  0  0  0  0  0  0  0  0  0
   -3.4010   -5.5990    0.0000 C   0  0  0  0  0  0  0  0  0  0  0  0
   -2.6510   -6.8980    0.0000 C   0  0  0  0  0  0  0  0  0  0  0  0
   -1.1510   -6.8980    0.0000 C   0  0  0  0  0  0  0  0  0  0  0  0
  1  2  2  0  0  0  0
  2  3  1  0  0  0  0
  2  4  1  0  0  0  0
  4  5  1  0  0  0  0
  4  6  1  0  0  0  0
  4 11  1  0  0  0  0
  6  7  1  0  0  0  0
  7  8  1  0  0  0  0
  7 15  1  0  0  0  0
  8  9  1  0  0  0  0
  8 10  1  0  0  0  0
  8 12  1  0  0  0  0
 10 11  1  0  0  0  0
 12 13  1  0  0  0  0
 13 14  1  0  0  0  0
 14 15  1  0  0  0  0
 14 25  1  0  0  0  0
 15 16  2  0  0  0  0
 16 17  1  0  0  0  0
 17 18  2  0  0  0  0
 17 19  1  0  0  0  0
 19 20  1  0  0  0  0
 19 25  1  0  0  0  0
 20 21  1  0  0  0  0
 20 22  1  0  0  0  0
 20 29  1  0  0  0  0
 22 23  1  0  0  0  0
 22 26  1  0  0  0  0
 23 24  1  0  0  0  0
 24 25  1  0  0  0  0
 26 27  1  0  0  0  0
 27 28  1  0  0  0  0
 28 29  1  0  0  0  0
M  END
>  <name>
O=C(O)C1(C)CC2C(C)(CC1)CCC1C2=CC(=O)C2C3(C)C(CCC12)C[C;ether]CC3

>  <apo>
1

>  <freq>
1

>  <freq0>
0

>  <freq1>
1

>  <freqA>
0.9949851

$$$$

  MOE2015           2D

 13 13  0  0  1  0  0  0  0  0999 V2000
    4.3760   -0.2220    0.0000 O   0  0  0  0  0  0  0  0  0  0  0  0
    4.3760   -1.7220    0.0000 C   0  0  0  0  0  0  0  0  0  0  0  0
    5.6750   -2.4720    0.0000 O   0  0  0  0  0  0  0  0  0  0  0  0
    3.0770   -2.4720    0.0000 C   0  0  0  0  0  0  0  0  0  0  0  0
    4.3760   -3.2220    0.0000 O   0  0  0  0  0  0  0  0  0  0  0  0
    2.3270   -3.7720    0.0000 C   0  0  0  0  0  0  0  0  0  0  0  0
    0.8270   -3.7720    0.0000 C   0  0  3  0  0  0  0  0  0  0  0  0
    0.0770   -5.0710    0.0000 O   0  0  0  0  0  0  0  0  0  0  0  0
    0.0770   -2.4720    0.0000 C   0  0  0  0  0  0  0  0  0  0  0  0
   -1.4230   -2.4720    0.0000 O   0  0  0  0  0  0  0  0  0  0  0  0
    0.8270   -1.1730    0.0000 C   0  0  3  0  0  0  0  0  0  0  0  0
    0.0770    0.1260    0.0000 O   0  0  0  0  0  0  0  0  0  0  0  0
    2.3270   -1.1730    0.0000 C   0  0  0  0  0  0  0  0  0  0  0  0
  1  2  2  0  0  0  0
  2  3  1  0  0  0  0
  2  4  1  0  0  0  0
  4  5  1  0  0  0  0
  4  6  1  0  0  0  0
  4 13  1  0  0  0  0
  6  7  1  0  0  0  0
  7  8  1  0  0  0  0
  7  9  1  0  0  0  0
  9 10  1  0  0  0  0
  9 11  1  0  0  0  0
 11 12  1  0  0  0  0
 11 13  1  0  0  0  0
M  END
>  <name>
O=C(O)C1(O)CC(O)C([O;ester])C([O;ester])C1

>  <apo>
2

>  <freq>
1

>  <freq0>
0

>  <freq1>
1

>  <freqA>
0.9949851

$$$$

  MOE2015           2D

 13 13  0  0  1  0  0  0  0  0999 V2000
    4.3760   -0.2220    0.0000 O   0  0  0  0  0  0  0  0  0  0  0  0
    4.3760   -1.7220    0.0000 C   0  0  0  0  0  0  0  0  0  0  0  0
    5.6750   -2.4720    0.0000 O   0  0  0  0  0  0  0  0  0  0  0  0
    3.0770   -2.4720    0.0000 C   0  0  0  0  0  0  0  0  0  0  0  0
    4.3760   -3.2220    0.0000 O   0  0  0  0  0  0  0  0  0  0  0  0
    2.3270   -3.7720    0.0000 C   0  0  0  0  0  0  0  0  0  0  0  0
    0.8270   -3.7720    0.0000 C   0  0  3  0  0  0  0  0  0  0  0  0
    0.0770   -5.0710    0.0000 O   0  0  0  0  0  0  0  0  0  0  0  0
    0.0770   -2.4720    0.0000 C   0  0  0  0  0  0  0  0  0  0  0  0
   -1.4230   -2.4720    0.0000 O   0  0  0  0  0  0  0  0  0  0  0  0
    0.8270   -1.1730    0.0000 C   0  0  3  0  0  0  0  0  0  0  0  0
    0.0770    0.1260    0.0000 O   0  0  0  0  0  0  0  0  0  0  0  0
    2.3270   -1.1730    0.0000 C   0  0  0  0  0  0  0  0  0  0  0  0
  1  2  2  0  0  0  0
  2  3  1  0  0  0  0
  2  4  1  0  0  0  0
  4  5  1  0  0  0  0
  4  6  1  0  0  0  0
  4 13  1  0  0  0  0
  6  7  1  0  0  0  0
  7  8  1  0  0  0  0
  7  9  1  0  0  0  0
  9 10  1  0  0  0  0
  9 11  1  0  0  0  0
 11 12  1  0  0  0  0
 11 13  1  0  0  0  0
M  END
>  <name>
O=C(O)C1([O;ester])CC([O;ester])C(O)C([O;ester])C1

>  <apo>
3

>  <freq>
1

>  <freq0>
0

>  <freq1>
1

>  <freqA>
0.9949851

$$$$

  MOE2015           2D

  5  4  0  0  0  0  0  0  0  0999 V2000
    0.1310   -1.0100    0.0000 O   0  0  0  0  0  0  0  0  0  0  0  0
    1.4300   -0.2600    0.0000 C   0  0  0  0  0  0  0  0  0  0  0  0
    1.4300    1.2400    0.0000 O   0  0  0  0  0  0  0  0  0  0  0  0
    2.7290   -1.0100    0.0000 C   0  0  0  0  0  0  0  0  0  0  0  0
    4.0280   -0.2600    0.0000 N   0  0  0  0  0  0  0  0  0  0  0  0
  1  2  2  0  0  0  0
  2  3  1  0  0  0  0
  2  4  1  0  0  0  0
  4  5  1  0  0  0  0
M  END
>  <name>
O=C(O)C[N;amide]

>  <apo>
1

>  <freq>
1

>  <freq0>
0

>  <freq1>
1

>  <freqA>
0.9949851

$$$$

  MOE2015           2D

 14 14  0  0  1  0  0  0  0  0999 V2000
    6.5890    3.8040    0.0000 O   0  0  0  0  0  0  0  0  0  0  0  0
    5.8390    2.5050    0.0000 C   0  0  0  0  0  0  0  0  0  0  0  0
    6.5890    1.2060    0.0000 O   0  0  0  0  0  0  0  0  0  0  0  0
    4.3390    2.5050    0.0000 C   0  0  0  0  0  0  0  0  0  0  0  0
    3.5890    3.8040    0.0000 C   0  0  3  0  0  0  0  0  0  0  0  0
    4.3390    5.1030    0.0000 O   0  0  0  0  0  0  0  0  0  0  0  0
    2.0890    3.8040    0.0000 C   0  0  0  0  0  0  0  0  0  0  0  0
    1.3390    5.1030    0.0000 C   0  0  0  0  0  0  0  0  0  0  0  0
   -0.1610    5.1030    0.0000 C   0  0  0  0  0  0  0  0  0  0  0  0
   -0.9110    6.4020    0.0000 O   0  0  0  0  0  0  0  0  0  0  0  0
   -0.9110    3.8040    0.0000 C   0  0  0  0  0  0  0  0  0  0  0  0
   -2.4110    3.8040    0.0000 O   0  0  0  0  0  0  0  0  0  0  0  0
   -0.1610    2.5050    0.0000 C   0  0  0  0  0  0  0  0  0  0  0  0
    1.3390    2.5050    0.0000 C   0  0  0  0  0  0  0  0  0  0  0  0
  1  2  2  0  0  0  0
  2  3  1  0  0  0  0
  2  4  1  0  0  0  0
  4  5  1  0  0  0  0
  5  6  1  0  0  0  0
  5  7  1  0  0  0  0
  7  8  1  0  0  0  0
  7 14  2  0  0  0  0
  8  9  2  0  0  0  0
  9 10  1  0  0  0  0
  9 11  1  0  0  0  0
 11 12  1  0  0  0  0
 11 13  2  0  0  0  0
 13 14  1  0  0  0  0
M  END
>  <name>
O=C(O)[C;ether]C(O)c1cc(O)c(O)cc1

>  <apo>
1

>  <freq>
1

>  <freq0>
0

>  <freq1>
1

>  <freqA>
0.9949851

$$$$

  MOE2015           2D

 13 13  0  0  0  0  0  0  0  0999 V2000
    9.4230    2.8710    0.0000 O   0  0  0  0  0  0  0  0  0  0  0  0
    8.1240    3.6210    0.0000 C   0  0  0  0  0  0  0  0  0  0  0  0
    8.1240    5.1210    0.0000 O   0  0  0  0  0  0  0  0  0  0  0  0
    6.8250    2.8710    0.0000 C   0  0  0  0  0  0  0  0  0  0  0  0
    5.5260    3.6210    0.0000 C   0  0  0  0  0  0  0  0  0  0  0  0
    4.2270    2.8710    0.0000 C   0  0  0  0  0  0  0  0  0  0  0  0
    2.9280    3.6210    0.0000 C   0  0  0  0  0  0  0  0  0  0  0  0
    1.6290    2.8710    0.0000 C   0  0  0  0  0  0  0  0  0  0  0  0
    0.3300    3.6210    0.0000 O   0  0  0  0  0  0  0  0  0  0  0  0
    1.6290    1.3710    0.0000 C   0  0  0  0  0  0  0  0  0  0  0  0
    0.3300    0.6210    0.0000 O   0  0  0  0  0  0  0  0  0  0  0  0
    2.9280    0.6210    0.0000 C   0  0  0  0  0  0  0  0  0  0  0  0
    4.2270    1.3710    0.0000 C   0  0  0  0  0  0  0  0  0  0  0  0
  1  2  2  0  0  0  0
  2  3  1  0  0  0  0
  2  4  1  0  0  0  0
  4  5  1  0  0  0  0
  5  6  1  0  0  0  0
  6  7  1  0  0  0  0
  6 13  2  0  0  0  0
  7  8  2  0  0  0  0
  8  9  1  0  0  0  0
  8 10  1  0  0  0  0
 10 11  1  0  0  0  0
 10 12  2  0  0  0  0
 12 13  1  0  0  0  0
M  END
>  <name>
O=C(O)[C;ether]Cc1cc(O)c(O)cc1

>  <apo>
1

>  <freq>
1

>  <freq0>
0

>  <freq1>
1

>  <freqA>
0.9949851

$$$$

  MOE2015           2D

  5  4  0  0  0  0  0  0  0  0999 V2000
    0.1310   -1.0100    0.0000 O   0  0  0  0  0  0  0  0  0  0  0  0
    1.4300   -0.2600    0.0000 C   0  0  0  0  0  0  0  0  0  0  0  0
    1.4300    1.2400    0.0000 O   0  0  0  0  0  0  0  0  0  0  0  0
    2.7290   -1.0100    0.0000 C   0  0  0  0  0  0  0  0  0  0  0  0
    4.0280   -0.2600    0.0000 N   0  0  0  0  0  0  0  0  0  0  0  0
  1  2  2  0  0  0  0
  2  3  1  0  0  0  0
  2  4  1  0  0  0  0
  4  5  1  0  0  0  0
M  END
>  <name>
O=C(O)[C;thioether][N;amide]

>  <apo>
2

>  <freq>
1

>  <freq0>
0

>  <freq1>
1

>  <freqA>
0.9949851

$$$$

  MOE2015           2D

 17 17  0  0  1  0  0  0  0  0999 V2000
    6.8690   -6.8240    0.0000 O   0  0  0  0  0  0  0  0  0  0  0  0
    6.8590   -5.3240    0.0000 C   0  0  0  0  0  0  0  0  0  0  0  0
    8.1530   -4.5650    0.0000 O   0  0  0  0  0  0  0  0  0  0  0  0
    5.5550   -4.5820    0.0000 C   0  0  1  0  0  0  0  0  0  0  0  0
    5.5450   -3.0820    0.0000 N   0  0  0  0  0  0  0  0  0  0  0  0
    4.2610   -5.3410    0.0000 C   0  0  0  0  0  0  0  0  0  0  0  0
    2.9570   -4.6000    0.0000 C   0  0  0  0  0  0  0  0  0  0  0  0
    1.6630   -5.3580    0.0000 C   0  0  2  0  0  0  0  0  0  0  0  0
    1.6730   -6.8580    0.0000 N   0  0  0  0  0  0  0  0  0  0  0  0
    0.3590   -4.6170    0.0000 C   0  0  0  0  0  0  0  0  0  0  0  0
   -0.9350   -5.3760    0.0000 C   0  0  2  0  0  0  0  0  0  0  0  0
   -2.3090   -4.7750    0.0000 C   0  0  1  0  0  0  0  0  0  0  0  0
   -2.6310   -3.3090    0.0000 O   0  0  0  0  0  0  0  0  0  0  0  0
   -3.3050   -5.8960    0.0000 C   0  0  2  0  0  0  0  0  0  0  0  0
   -4.7980   -5.7490    0.0000 O   0  0  0  0  0  0  0  0  0  0  0  0
   -2.5470   -7.1900    0.0000 C   0  0  0  0  0  0  0  0  0  0  0  0
   -1.0820   -6.8680    0.0000 O   0  0  0  0  0  0  0  0  0  0  0  0
  1  2  2  0  0  0  0
  2  3  1  0  0  0  0
  2  4  1  0  0  0  0
  4  5  1  6  0  0  0
  4  6  1  0  0  0  0
  6  7  1  0  0  0  0
  7  8  1  0  0  0  0
  8  9  1  6  0  0  0
  8 10  1  0  0  0  0
 11 10  1  1  0  0  0
 11 12  1  0  0  0  0
 11 17  1  0  0  0  0
 12 13  1  6  0  0  0
 12 14  1  0  0  0  0
 14 15  1  1  0  0  0
 14 16  1  0  0  0  0
 16 17  1  0  0  0  0
M  END
>  <name>
O=C(O)[C@@H](N)CC[C@H](N)C[C@@H]1[C@@H](O)[C@H](O)[C;NaroC]O1

>  <apo>
1

>  <freq>
1

>  <freq0>
0

>  <freq1>
1

>  <freqA>
0.9949851

$$$$

  MOE2015           2D

 10 10  0  0  1  0  0  0  0  0999 V2000
    5.6250   -0.1300    0.0000 O   0  0  0  0  0  0  0  0  0  0  0  0
    4.8750   -1.4290    0.0000 C   0  0  0  0  0  0  0  0  0  0  0  0
    5.6250   -2.7280    0.0000 O   0  0  0  0  0  0  0  0  0  0  0  0
    3.3750   -1.4290    0.0000 C   0  0  1  0  0  0  0  0  0  0  0  0
    2.6250   -0.1300    0.0000 O   0  0  0  0  0  0  0  0  0  0  0  0
    1.1250   -0.1300    0.0000 C   0  0  0  0  0  0  0  0  0  0  0  0
    0.3750   -1.4290    0.0000 C   0  0  0  0  0  0  0  0  0  0  0  0
    1.1250   -2.7280    0.0000 C   0  0  2  0  0  0  0  0  0  0  0  0
    0.3750   -4.0270    0.0000 O   0  0  0  0  0  0  0  0  0  0  0  0
    2.6250   -2.7280    0.0000 C   0  0  0  0  0  0  0  0  0  0  0  0
  1  2  2  0  0  0  0
  2  3  1  0  0  0  0
  4  2  1  6  0  0  0
  4  5  1  0  0  0  0
  4 10  1  0  0  0  0
  5  6  1  0  0  0  0
  6  7  1  0  0  0  0
  7  8  1  0  0  0  0
  8  9  1  1  0  0  0
  8 10  1  0  0  0  0
M  END
>  <name>
O=C(O)[C@H]1O[C;ether][C;ether][C@H](O)[C;ether]1

>  <apo>
3

>  <freq>
1

>  <freq0>
0

>  <freq1>
1

>  <freqA>
0.9949851

$$$$

  MOE2015           2D

  9  9  0  0  0  0  0  0  0  0999 V2000
    4.8870   -2.8220    0.0000 O   0  0  0  0  0  0  0  0  0  0  0  0
    4.1370   -1.5230    0.0000 C   0  0  0  0  0  0  0  0  0  0  0  0
    4.8870   -0.2230    0.0000 O   0  0  0  0  0  0  0  0  0  0  0  0
    2.6370   -1.5230    0.0000 C   0  0  0  0  0  0  0  0  0  0  0  0
    1.7550   -0.3090    0.0000 C   0  0  0  0  0  0  0  0  0  0  0  0
    2.2190    1.1180    0.0000 C   0  0  0  0  0  0  0  0  0  0  0  0
    0.3290   -0.7730    0.0000 N   0  0  0  0  0  0  0  0  0  0  0  0
    0.3290   -2.2730    0.0000 C   0  0  0  0  0  0  0  0  0  0  0  0
    1.7550   -2.7360    0.0000 S   0  0  0  0  0  0  0  0  0  0  0  0
  1  2  2  0  0  0  0
  2  3  1  0  0  0  0
  2  4  1  0  0  0  0
  4  5  2  0  0  0  0
  4  9  1  0  0  0  0
  5  6  1  0  0  0  0
  5  7  1  0  0  0  0
  7  8  2  0  0  0  0
  8  9  1  0  0  0  0
M  END
>  <name>
O=C(O)c1c(C)n[c;biphenyl]s1

>  <apo>
1

>  <freq>
1

>  <freq0>
0

>  <freq1>
1

>  <freqA>
0.9949851

$$$$

  MOE2015           2D

 18 18  0  0  0  0  0  0  0  0999 V2000
    3.6670    0.0000    0.0000 O   0  0  0  0  0  0  0  0  0  0  0  0
    2.1670    0.0000    0.0000 C   0  0  0  0  0  0  0  0  0  0  0  0
    1.4170    1.2990    0.0000 O   0  0  0  0  0  0  0  0  0  0  0  0
    1.4170   -1.2990    0.0000 C   0  0  0  0  0  0  0  0  0  0  0  0
   -0.0830   -1.2990    0.0000 C   0  0  0  0  0  0  0  0  0  0  0  0
   -0.8330    0.0000    0.0000 O   0  0  0  0  0  0  0  0  0  0  0  0
   -0.8330   -2.5980    0.0000 C   0  0  0  0  0  0  0  0  0  0  0  0
   -2.3330   -2.5980    0.0000 C   0  0  0  0  0  0  0  0  0  0  0  0
   -3.0830   -3.8970    0.0000 C   0  0  0  0  0  0  0  0  0  0  0  0
   -0.0830   -3.8970    0.0000 C   0  0  0  0  0  0  0  0  0  0  0  0
   -0.8330   -5.1960    0.0000 O   0  0  0  0  0  0  0  0  0  0  0  0
    1.4170   -3.8970    0.0000 C   0  0  0  0  0  0  0  0  0  0  0  0
    2.1670   -2.5980    0.0000 C   0  0  0  0  0  0  0  0  0  0  0  0
    3.6670   -2.5980    0.0000 C   0  0  0  0  0  0  0  0  0  0  0  0
    4.4170   -3.8970    0.0000 C   0  0  0  0  0  0  0  0  0  0  0  0
    5.9170   -3.8970    0.0000 C   0  0  0  0  0  0  0  0  0  0  0  0
    6.6670   -5.1960    0.0000 C   0  0  0  0  0  0  0  0  0  0  0  0
    8.1670   -5.1960    0.0000 C   0  0  0  0  0  0  0  0  0  0  0  0
  1  2  2  0  0  0  0
  2  3  1  0  0  0  0
  2  4  1  0  0  0  0
  4  5  1  0  0  0  0
  4 13  2  0  0  0  0
  5  6  1  0  0  0  0
  5  7  2  0  0  0  0
  7  8  1  0  0  0  0
  7 10  1  0  0  0  0
  8  9  1  0  0  0  0
 10 11  1  0  0  0  0
 10 12  2  0  0  0  0
 12 13  1  0  0  0  0
 13 14  1  0  0  0  0
 14 15  1  0  0  0  0
 15 16  1  0  0  0  0
 16 17  1  0  0  0  0
 17 18  1  0  0  0  0
M  END
>  <name>
O=C(O)c1c(O)c(C[C;olefin])c(O)cc1CCCCC

>  <apo>
1

>  <freq>
1

>  <freq0>
0

>  <freq1>
1

>  <freqA>
0.9949851

$$$$

  MOE2015           2D

 18 18  0  0  0  0  0  0  0  0999 V2000
   -1.9400   -0.5200    0.0000 O   0  0  0  0  0  0  0  0  0  0  0  0
   -3.2390   -1.2700    0.0000 C   0  0  0  0  0  0  0  0  0  0  0  0
   -4.5380   -0.5200    0.0000 O   0  0  0  0  0  0  0  0  0  0  0  0
   -3.2390   -2.7700    0.0000 C   0  0  0  0  0  0  0  0  0  0  0  0
   -4.5380   -3.5200    0.0000 C   0  0  0  0  0  0  0  0  0  0  0  0
   -5.8370   -2.7700    0.0000 O   0  0  0  0  0  0  0  0  0  0  0  0
   -4.5380   -5.0200    0.0000 C   0  0  0  0  0  0  0  0  0  0  0  0
   -3.2390   -5.7700    0.0000 C   0  0  0  0  0  0  0  0  0  0  0  0
   -1.9400   -5.0200    0.0000 C   0  0  0  0  0  0  0  0  0  0  0  0
   -1.9400   -3.5200    0.0000 C   0  0  0  0  0  0  0  0  0  0  0  0
   -0.6410   -2.7700    0.0000 C   0  0  0  0  0  0  0  0  0  0  0  0
    0.6580   -3.5200    0.0000 C   0  0  0  0  0  0  0  0  0  0  0  0
    1.9570   -2.7700    0.0000 C   0  0  0  0  0  0  0  0  0  0  0  0
    3.2560   -3.5200    0.0000 C   0  0  0  0  0  0  0  0  0  0  0  0
    4.5550   -2.7700    0.0000 C   0  0  0  0  0  0  0  0  0  0  0  0
    5.8540   -3.5200    0.0000 C   0  0  0  0  0  0  0  0  0  0  0  0
    7.1530   -2.7700    0.0000 C   0  0  0  0  0  0  0  0  0  0  0  0
    8.4520   -3.5200    0.0000 C   0  0  0  0  0  0  0  0  0  0  0  0
  1  2  2  0  0  0  0
  2  3  1  0  0  0  0
  2  4  1  0  0  0  0
  4  5  1  0  0  0  0
  4 10  2  0  0  0  0
  5  6  1  0  0  0  0
  5  7  2  0  0  0  0
  7  8  1  0  0  0  0
  8  9  2  0  0  0  0
  9 10  1  0  0  0  0
 10 11  1  0  0  0  0
 11 12  1  0  0  0  0
 12 13  1  0  0  0  0
 13 14  1  0  0  0  0
 14 15  1  0  0  0  0
 15 16  1  0  0  0  0
 16 17  1  0  0  0  0
 17 18  1  0  0  0  0
M  END
>  <name>
O=C(O)c1c(O)cccc1CCCCCCC[C;olefin]

>  <apo>
1

>  <freq>
1

>  <freq0>
0

>  <freq1>
1

>  <freqA>
0.9949851

$$$$

  MOE2015           2D

 11 11  0  0  0  0  0  0  0  0999 V2000
    0.7510   -0.7510    0.0000 O   0  0  0  0  0  0  0  0  0  0  0  0
    0.7510    0.7490    0.0000 C   0  0  0  0  0  0  0  0  0  0  0  0
   -0.5480    1.4990    0.0000 O   0  0  0  0  0  0  0  0  0  0  0  0
    2.0500    1.4990    0.0000 C   0  0  0  0  0  0  0  0  0  0  0  0
    2.0500    2.9990    0.0000 C   0  0  0  0  0  0  0  0  0  0  0  0
    0.7510    3.7490    0.0000 N   0  0  0  0  0  0  0  0  0  0  0  0
    3.3490    3.7490    0.0000 C   0  0  0  0  0  0  0  0  0  0  0  0
    4.6480    2.9990    0.0000 C   0  0  0  0  0  0  0  0  0  0  0  0
    4.6480    1.4990    0.0000 C   0  0  0  0  0  0  0  0  0  0  0  0
    5.9470    0.7490    0.0000 O   0  0  0  0  0  0  0  0  0  0  0  0
    3.3490    0.7490    0.0000 C   0  0  0  0  0  0  0  0  0  0  0  0
  1  2  2  0  0  0  0
  2  3  1  0  0  0  0
  2  4  1  0  0  0  0
  4  5  1  0  0  0  0
  4 11  2  0  0  0  0
  5  6  1  0  0  0  0
  5  7  2  0  0  0  0
  7  8  1  0  0  0  0
  8  9  2  0  0  0  0
  9 10  1  0  0  0  0
  9 11  1  0  0  0  0
M  END
>  <name>
O=C(O)c1c([N;amide])ccc(O)c1

>  <apo>
1

>  <freq>
1

>  <freq0>
0

>  <freq1>
1

>  <freqA>
0.9949851

$$$$

  MOE2015           2D

 23 24  0  0  0  0  0  0  0  0999 V2000
    0.0000    0.0000    0.0000 O   0  0  0  0  0  0  0  0  0  0  0  0
    1.5000    0.0000    0.0000 C   0  0  0  0  0  0  0  0  0  0  0  0
    2.2500    1.2990    0.0000 O   0  0  0  0  0  0  0  0  0  0  0  0
    1.5000    2.5980    0.0000 C   0  0  0  0  0  0  0  0  0  0  0  0
    2.2500   -1.2990    0.0000 C   0  0  0  0  0  0  0  0  0  0  0  0
    3.7500   -1.2990    0.0000 O   0  0  0  0  0  0  0  0  0  0  0  0
    4.5000   -2.5980    0.0000 C   0  0  0  0  0  0  0  0  0  0  0  0
    6.0000   -2.5980    0.0000 C   0  0  0  0  0  0  0  0  0  0  0  0
    6.7500   -1.2990    0.0000 O   0  0  0  0  0  0  0  0  0  0  0  0
    6.7500   -3.8970    0.0000 C   0  0  0  0  0  0  0  0  0  0  0  0
    6.0000   -5.1960    0.0000 C   0  0  0  0  0  0  0  0  0  0  0  0
    6.7500   -6.4950    0.0000 C   0  0  0  0  0  0  0  0  0  0  0  0
    4.5000   -5.1960    0.0000 C   0  0  0  0  0  0  0  0  0  0  0  0
    3.7500   -3.8970    0.0000 C   0  0  0  0  0  0  0  0  0  0  0  0
    1.5000   -2.5980    0.0000 C   0  0  0  0  0  0  0  0  0  0  0  0
    0.0000   -2.5980    0.0000 C   0  0  0  0  0  0  0  0  0  0  0  0
   -0.7500   -3.8970    0.0000 C   0  0  0  0  0  0  0  0  0  0  0  0
   -2.2500   -3.8970    0.0000 C   0  0  0  0  0  0  0  0  0  0  0  0
   -3.0000   -5.1960    0.0000 O   0  0  0  0  0  0  0  0  0  0  0  0
   -3.0000   -2.5980    0.0000 C   0  0  0  0  0  0  0  0  0  0  0  0
   -4.5000   -2.5980    0.0000 O   0  0  0  0  0  0  0  0  0  0  0  0
   -2.2500   -1.2990    0.0000 C   0  0  0  0  0  0  0  0  0  0  0  0
   -0.7500   -1.2990    0.0000 C   0  0  0  0  0  0  0  0  0  0  0  0
  1  2  2  0  0  0  0
  2  3  1  0  0  0  0
  2  5  1  0  0  0  0
  3  4  1  0  0  0  0
  5  6  1  0  0  0  0
  5 15  2  0  0  0  0
  6  7  1  0  0  0  0
  7  8  1  0  0  0  0
  7 14  2  0  0  0  0
  8  9  1  0  0  0  0
  8 10  2  0  0  0  0
 10 11  1  0  0  0  0
 11 12  1  0  0  0  0
 11 13  2  0  0  0  0
 13 14  1  0  0  0  0
 15 16  1  0  0  0  0
 16 17  1  0  0  0  0
 16 23  2  0  0  0  0
 17 18  2  0  0  0  0
 18 19  1  0  0  0  0
 18 20  1  0  0  0  0
 20 21  1  0  0  0  0
 20 22  2  0  0  0  0
 22 23  1  0  0  0  0
M  END
>  <name>
O=C(OC)C(Oc1c(O)cc([C;olefin])cc1)=Cc1cc(O)c(O)cc1

>  <apo>
1

>  <freq>
1

>  <freq0>
0

>  <freq1>
1

>  <freqA>
0.9949851

$$$$

  MOE2015           2D

  8  7  0  0  0  0  0  0  0  0999 V2000
    0.4570    0.4570    0.0000 O   0  0  0  0  0  0  0  0  0  0  0  0
    0.4570   -1.0430    0.0000 C   0  0  0  0  0  0  0  0  0  0  0  0
   -0.8420   -1.7930    0.0000 O   0  0  0  0  0  0  0  0  0  0  0  0
   -2.1410   -1.0430    0.0000 C   0  0  0  0  0  0  0  0  0  0  0  0
    1.7560   -1.7930    0.0000 C   0  0  0  0  0  0  0  0  0  0  0  0
    3.0550   -1.0430    0.0000 C   0  0  0  0  0  0  0  0  0  0  0  0
    4.3540   -1.7930    0.0000 C   0  0  0  0  0  0  0  0  0  0  0  0
    5.6530   -1.0430    0.0000 O   0  0  0  0  0  0  0  0  0  0  0  0
  1  2  2  0  0  0  0
  2  3  1  0  0  0  0
  2  5  1  0  0  0  0
  3  4  1  0  0  0  0
  5  6  1  0  0  0  0
  6  7  1  0  0  0  0
  7  8  2  0  0  0  0
M  END
>  <name>
O=C(OC)CC[C;ester]=O

>  <apo>
1

>  <freq>
1

>  <freq0>
0

>  <freq1>
1

>  <freqA>
0.9949851

$$$$

  MOE2015           2D

 35 38  0  0  1  0  0  0  0  0999 V2000
    1.5360   -5.7310    0.0000 O   0  0  0  0  0  0  0  0  0  0  0  0
    2.8350   -4.9810    0.0000 C   0  0  0  0  0  0  0  0  0  0  0  0
    4.1340   -5.7310    0.0000 O   0  0  0  0  0  0  0  0  0  0  0  0
    4.1340   -7.2310    0.0000 C   0  0  0  0  0  0  0  0  0  0  0  0
    2.8350   -3.4810    0.0000 C   0  0  0  0  0  0  0  0  0  0  0  0
    1.5360   -2.7310    0.0000 C   0  0  1  0  0  0  0  0  0  0  0  0
    1.5360   -1.2310    0.0000 C   0  0  0  0  0  0  0  0  0  0  0  0
    0.2370   -0.4810    0.0000 C   0  0  0  0  0  0  0  0  0  0  0  0
   -1.0620   -1.2310    0.0000 O   0  0  0  0  0  0  0  0  0  0  0  0
    0.2370    1.0190    0.0000 C   0  0  0  0  0  0  0  0  0  0  0  0
    1.5360    1.7690    0.0000 C   0  0  0  0  0  0  0  0  0  0  0  0
    1.5360    3.2690    0.0000 O   0  0  0  0  0  0  0  0  0  0  0  0
    2.8350    1.0190    0.0000 C   0  0  0  0  0  0  0  0  0  0  0  0
    2.8350   -0.4810    0.0000 C   0  0  0  0  0  0  0  0  0  0  0  0
    4.1340   -1.2310    0.0000 O   0  0  0  0  0  0  0  0  0  0  0  0
    5.4330   -0.4810    0.0000 C   0  0  1  0  0  0  0  0  0  0  0  0
    5.4330    1.0190    0.0000 C   0  0  2  0  0  0  0  0  0  0  0  0
    6.7320    1.7690    0.0000 O   0  0  0  0  0  0  0  0  0  0  0  0
    4.1340    1.7690    0.0000 C   0  0  0  0  0  0  0  0  0  0  0  0
    6.7320   -1.2310    0.0000 C   0  0  0  0  0  0  0  0  0  0  0  0
    6.7320   -2.7310    0.0000 C   0  0  0  0  0  0  0  0  0  0  0  0
    8.0310   -3.4810    0.0000 C   0  0  0  0  0  0  0  0  0  0  0  0
    8.0310   -4.9810    0.0000 O   0  0  0  0  0  0  0  0  0  0  0  0
    9.3300   -2.7310    0.0000 C   0  0  0  0  0  0  0  0  0  0  0  0
   10.6290   -3.4810    0.0000 O   0  0  0  0  0  0  0  0  0  0  0  0
    9.3300   -1.2310    0.0000 C   0  0  0  0  0  0  0  0  0  0  0  0
   10.6290   -0.4810    0.0000 O   0  0  0  0  0  0  0  0  0  0  0  0
    8.0310   -0.4810    0.0000 C   0  0  0  0  0  0  0  0  0  0  0  0
    0.2370   -3.4810    0.0000 C   0  0  0  0  0  0  0  0  0  0  0  0
   -1.0620   -2.7310    0.0000 C   0  0  0  0  0  0  0  0  0  0  0  0
   -2.3610   -3.4810    0.0000 C   0  0  0  0  0  0  0  0  0  0  0  0
   -2.3610   -4.9810    0.0000 C   0  0  0  0  0  0  0  0  0  0  0  0
   -3.6600   -5.7310    0.0000 O   0  0  0  0  0  0  0  0  0  0  0  0
   -1.0620   -5.7310    0.0000 C   0  0  0  0  0  0  0  0  0  0  0  0
    0.2370   -4.9810    0.0000 C   0  0  0  0  0  0  0  0  0  0  0  0
  1  2  2  0  0  0  0
  2  3  1  0  0  0  0
  2  5  1  0  0  0  0
  3  4  1  0  0  0  0
  6  5  1  6  0  0  0
  6  7  1  0  0  0  0
  6 29  1  0  0  0  0
  7  8  1  0  0  0  0
  7 14  2  0  0  0  0
  8  9  1  0  0  0  0
  8 10  2  0  0  0  0
 10 11  1  0  0  0  0
 11 12  1  0  0  0  0
 11 13  2  0  0  0  0
 13 14  1  0  0  0  0
 13 19  1  0  0  0  0
 14 15  1  0  0  0  0
 15 16  1  0  0  0  0
 16 17  1  0  0  0  0
 16 20  1  1  0  0  0
 17 18  1  1  0  0  0
 17 19  1  0  0  0  0
 20 21  2  0  0  0  0
 20 28  1  0  0  0  0
 21 22  1  0  0  0  0
 22 23  1  0  0  0  0
 22 24  2  0  0  0  0
 24 25  1  0  0  0  0
 24 26  1  0  0  0  0
 26 27  1  0  0  0  0
 26 28  2  0  0  0  0
 29 30  1  0  0  0  0
 29 35  2  0  0  0  0
 30 31  2  0  0  0  0
 31 32  1  0  0  0  0
 32 33  1  0  0  0  0
 32 34  2  0  0  0  0
 34 35  1  0  0  0  0
M  END
>  <name>
O=C(OC)C[C@@H](c1c(O)cc(O)c2c1O[C@@H]([C@H]([O;ester])C2)c1cc(O)c(O)c(O)c1)c1ccc(O)cc1

>  <apo>
1

>  <freq>
1

>  <freq0>
0

>  <freq1>
1

>  <freqA>
0.9949851

$$$$

  MOE2015           2D

 16 15  0  0  1  0  0  0  0  0999 V2000
   -1.8760    1.8760    0.0000 O   0  0  0  0  0  0  0  0  0  0  0  0
   -1.8760    3.3760    0.0000 C   0  0  0  0  0  0  0  0  0  0  0  0
   -3.1750    4.1260    0.0000 O   0  0  0  0  0  0  0  0  0  0  0  0
   -4.4740    3.3760    0.0000 C   0  0  0  0  0  0  0  0  0  0  0  0
   -0.5770    4.1260    0.0000 C   0  0  0  0  0  0  0  0  0  0  0  0
    0.7220    3.3760    0.0000 C   0  0  1  0  0  0  0  0  0  0  0  0
   -0.0280    2.0770    0.0000 O   0  0  0  0  0  0  0  0  0  0  0  0
    1.4720    4.6750    0.0000 C   0  0  0  0  0  0  0  0  0  0  0  0
    0.7220    5.9740    0.0000 O   0  0  0  0  0  0  0  0  0  0  0  0
    2.0210    2.6260    0.0000 C   0  0  0  0  0  0  0  0  0  0  0  0
    3.3200    3.3760    0.0000 C   0  0  0  0  0  0  0  0  0  0  0  0
    4.6200    2.6260    0.0000 C   0  0  0  0  0  0  0  0  0  0  0  0
    5.9190    3.3760    0.0000 C   0  0  0  0  0  0  0  0  0  0  0  0
    5.1690    4.6750    0.0000 O   0  0  0  0  0  0  0  0  0  0  0  0
    6.6690    2.0770    0.0000 C   0  0  0  0  0  0  0  0  0  0  0  0
    7.2180    4.1260    0.0000 C   0  0  0  0  0  0  0  0  0  0  0  0
  1  2  2  0  0  0  0
  2  3  1  0  0  0  0
  2  5  1  0  0  0  0
  3  4  1  0  0  0  0
  6  5  1  1  0  0  0
  6  7  1  6  0  0  0
  6  8  1  0  0  0  0
  6 10  1  0  0  0  0
  8  9  2  0  0  0  0
 10 11  1  0  0  0  0
 11 12  1  0  0  0  0
 12 13  1  0  0  0  0
 13 14  1  0  0  0  0
 13 15  1  0  0  0  0
 13 16  1  0  0  0  0
M  END
>  <name>
O=C(OC)C[C@@](O)([C;ester]=O)CCCC(O)(C)C

>  <apo>
1

>  <freq>
1

>  <freq0>
0

>  <freq1>
1

>  <freqA>
0.9949851

$$$$

  MOE2015           2D

 28 32  0  0  1  0  0  0  0  0999 V2000
   -2.5640    6.3050    0.0000 O   0  0  0  0  0  0  0  0  0  0  0  0
   -4.0640    6.2710    0.0000 C   0  0  0  0  0  0  0  0  0  0  0  0
   -4.8430    7.5520    0.0000 O   0  0  0  0  0  0  0  0  0  0  0  0
   -4.1230    8.8680    0.0000 C   0  0  0  0  0  0  0  0  0  0  0  0
   -4.7840    4.9550    0.0000 C   0  0  2  0  0  0  0  0  0  0  0  0
   -4.0050    3.6730    0.0000 C   0  0  2  0  0  0  0  0  0  0  0  0
   -4.7250    2.3580    0.0000 C   0  0  2  0  0  0  0  0  0  0  0  0
   -6.2250    2.3240    0.0000 C   0  0  0  0  0  0  0  0  0  0  0  0
   -7.0040    3.6050    0.0000 C   0  0  1  0  0  0  0  0  0  0  0  0
   -8.5040    3.5710    0.0000 O   0  0  0  0  0  0  0  0  0  0  0  0
   -6.2840    4.9210    0.0000 C   0  0  0  0  0  0  0  0  0  0  0  0
   -3.9460    1.0760    0.0000 C   0  0  0  0  0  0  0  0  0  0  0  0
   -2.4460    1.1100    0.0000 N   0  0  0  0  0  0  0  0  0  0  0  0
   -1.7260    2.4260    0.0000 C   0  0  1  0  0  0  0  0  0  0  0  0
   -0.2260    2.4600    0.0000 C   0  0  0  0  0  0  0  0  0  0  0  0
    0.7520    3.5970    0.0000 N   0  0  0  0  0  0  0  0  0  0  0  0
    2.1350    3.0180    0.0000 C   0  0  0  0  0  0  0  0  0  0  0  0
    2.0130    1.5240    0.0000 C   0  0  0  0  0  0  0  0  0  0  0  0
    0.5530    1.1780    0.0000 C   0  0  0  0  0  0  0  0  0  0  0  0
   -0.1670   -0.1370    0.0000 C   0  0  0  0  0  0  0  0  0  0  0  0
   -1.6670   -0.1720    0.0000 C   0  0  0  0  0  0  0  0  0  0  0  0
    3.2460    0.6700    0.0000 C   0  0  0  0  0  0  0  0  0  0  0  0
    4.6020    1.3110    0.0000 C   0  0  0  0  0  0  0  0  0  0  0  0
    4.7250    2.8060    0.0000 C   0  0  0  0  0  0  0  0  0  0  0  0
    6.0810    3.4470    0.0000 O   0  0  0  0  0  0  0  0  0  0  0  0
    7.3140    2.5930    0.0000 C   0  0  0  0  0  0  0  0  0  0  0  0
    3.4920    3.6600    0.0000 C   0  0  0  0  0  0  0  0  0  0  0  0
   -2.5050    3.7080    0.0000 C   0  0  0  0  0  0  0  0  0  0  0  0
  1  2  2  0  0  0  0
  2  3  1  0  0  0  0
  5  2  1  6  0  0  0
  3  4  1  0  0  0  0
  5  6  1  0  0  0  0
  5 11  1  0  0  0  0
  6  7  1  0  0  0  0
  6 28  1  1  0  0  0
  7  8  1  0  0  0  0
  7 12  1  1  0  0  0
  8  9  1  0  0  0  0
  9 10  1  1  0  0  0
  9 11  1  0  0  0  0
 12 13  1  0  0  0  0
 14 13  1  6  0  0  0
 13 21  1  0  0  0  0
 14 15  1  0  0  0  0
 14 28  1  0  0  0  0
 15 16  1  0  0  0  0
 15 19  2  0  0  0  0
 16 17  1  0  0  0  0
 17 18  2  0  0  0  0
 17 27  1  0  0  0  0
 18 19  1  0  0  0  0
 18 22  1  0  0  0  0
 19 20  1  0  0  0  0
 20 21  1  0  0  0  0
 22 23  2  0  0  0  0
 23 24  1  0  0  0  0
 24 25  1  0  0  0  0
 24 27  2  0  0  0  0
 25 26  1  0  0  0  0
M  END
>  <name>
O=C(OC)[C@@H]1[C@@H]2[C@H](C[C@@H]([O;ester])[C;ether]1)CN1[C@@H](c3[nH]c4c(c3CC1)ccc(OC)c4)C2

>  <apo>
2

>  <freq>
1

>  <freq0>
0

>  <freq1>
1

>  <freqA>
0.9949851

$$$$

  MOE2015           2D

 15 15  0  0  1  0  0  0  0  0999 V2000
    5.6540    5.6540    0.0000 O   0  0  0  0  0  0  0  0  0  0  0  0
    5.6540    4.1540    0.0000 C   0  0  0  0  0  0  0  0  0  0  0  0
    6.9530    3.4040    0.0000 O   0  0  0  0  0  0  0  0  0  0  0  0
    8.2520    4.1540    0.0000 C   0  0  0  0  0  0  0  0  0  0  0  0
    4.3550    3.4040    0.0000 C   0  0  2  0  0  0  0  0  0  0  0  0
    4.3550    1.9040    0.0000 O   0  0  0  0  0  0  0  0  0  0  0  0
    3.0560    4.1540    0.0000 C   0  0  0  0  0  0  0  0  0  0  0  0
    1.7570    3.4040    0.0000 C   0  0  0  0  0  0  0  0  0  0  0  0
    0.4580    4.1540    0.0000 C   0  0  0  0  0  0  0  0  0  0  0  0
   -0.8410    3.4040    0.0000 C   0  0  0  0  0  0  0  0  0  0  0  0
   -2.1400    4.1540    0.0000 O   0  0  0  0  0  0  0  0  0  0  0  0
   -0.8410    1.9040    0.0000 C   0  0  0  0  0  0  0  0  0  0  0  0
   -2.1400    1.1540    0.0000 O   0  0  0  0  0  0  0  0  0  0  0  0
    0.4580    1.1540    0.0000 C   0  0  0  0  0  0  0  0  0  0  0  0
    1.7570    1.9040    0.0000 C   0  0  0  0  0  0  0  0  0  0  0  0
  1  2  2  0  0  0  0
  2  3  1  0  0  0  0
  2  5  1  0  0  0  0
  3  4  1  0  0  0  0
  5  6  1  6  0  0  0
  5  7  1  0  0  0  0
  7  8  1  0  0  0  0
  8  9  1  0  0  0  0
  8 15  2  0  0  0  0
  9 10  2  0  0  0  0
 10 11  1  0  0  0  0
 10 12  1  0  0  0  0
 12 13  1  0  0  0  0
 12 14  2  0  0  0  0
 14 15  1  0  0  0  0
M  END
>  <name>
O=C(OC)[C@H]([O;ester])Cc1cc(O)c(O)cc1

>  <apo>
1

>  <freq>
1

>  <freq0>
0

>  <freq1>
1

>  <freqA>
0.9949851

$$$$

  MOE2015           2D

 29 32  0  0  1  0  0  0  0  0999 V2000
   -1.1350   -0.3040    0.0000 O   0  0  0  0  0  0  0  0  0  0  0  0
   -2.4340   -1.0540    0.0000 C   0  0  0  0  0  0  0  0  0  0  0  0
   -3.7330   -0.3040    0.0000 O   0  0  0  0  0  0  0  0  0  0  0  0
   -3.7330    1.1960    0.0000 C   0  0  0  0  0  0  0  0  0  0  0  0
   -2.4340   -2.5540    0.0000 C   0  0  1  0  0  0  0  0  0  0  0  0
   -3.7330   -3.3040    0.0000 C   0  0  1  0  0  0  0  0  0  0  0  0
   -4.4830   -2.0050    0.0000 O   0  0  0  0  0  0  0  0  0  0  0  0
   -5.2330   -3.3040    0.0000 C   0  0  0  0  0  0  0  0  0  0  0  0
   -5.9830   -4.6030    0.0000 C   0  0  0  0  0  0  0  0  0  0  0  0
   -3.7330   -4.8040    0.0000 C   0  0  0  0  0  0  0  0  0  0  0  0
   -2.4340   -5.5540    0.0000 C   0  0  0  0  0  0  0  0  0  0  0  0
   -1.1350   -4.8040    0.0000 C   0  0  0  0  0  0  0  0  0  0  0  0
    0.1640   -5.5540    0.0000 C   0  0  0  0  0  0  0  0  0  0  0  0
    0.1640   -7.0540    0.0000 O   0  0  0  0  0  0  0  0  0  0  0  0
    1.4630   -4.8040    0.0000 C   0  0  0  0  0  0  0  0  0  0  0  0
    2.7620   -5.5540    0.0000 C   0  0  0  0  0  0  0  0  0  0  0  0
    2.7620   -7.0540    0.0000 O   0  0  0  0  0  0  0  0  0  0  0  0
    4.0610   -4.8040    0.0000 C   0  0  0  0  0  0  0  0  0  0  0  0
    5.3600   -5.5540    0.0000 C   0  0  0  0  0  0  0  0  0  0  0  0
    5.3600   -7.0540    0.0000 O   0  0  0  0  0  0  0  0  0  0  0  0
    6.6590   -4.8040    0.0000 C   0  0  0  0  0  0  0  0  0  0  0  0
    6.6590   -3.3040    0.0000 C   0  0  0  0  0  0  0  0  0  0  0  0
    5.3600   -2.5540    0.0000 C   0  0  0  0  0  0  0  0  0  0  0  0
    4.0610   -3.3040    0.0000 C   0  0  0  0  0  0  0  0  0  0  0  0
    2.7620   -2.5540    0.0000 C   0  0  0  0  0  0  0  0  0  0  0  0
    2.7620   -1.0540    0.0000 O   0  0  0  0  0  0  0  0  0  0  0  0
    1.4630   -3.3040    0.0000 C   0  0  0  0  0  0  0  0  0  0  0  0
    0.1640   -2.5540    0.0000 C   0  0  0  0  0  0  0  0  0  0  0  0
   -1.1350   -3.3040    0.0000 C   0  0  0  0  0  0  0  0  0  0  0  0
  1  2  2  0  0  0  0
  2  3  1  0  0  0  0
  5  2  1  6  0  0  0
  3  4  1  0  0  0  0
  5  6  1  0  0  0  0
  5 29  1  0  0  0  0
  6  7  1  1  0  0  0
  6  8  1  6  0  0  0
  6 10  1  0  0  0  0
  8  9  1  0  0  0  0
 10 11  1  0  0  0  0
 11 12  1  0  0  0  0
 12 13  2  0  0  0  0
 12 29  1  0  0  0  0
 13 14  1  0  0  0  0
 13 15  1  0  0  0  0
 15 16  1  0  0  0  0
 15 27  2  0  0  0  0
 16 17  2  0  0  0  0
 16 18  1  0  0  0  0
 18 19  2  0  0  0  0
 18 24  1  0  0  0  0
 19 20  1  0  0  0  0
 19 21  1  0  0  0  0
 21 22  2  0  0  0  0
 22 23  1  0  0  0  0
 23 24  2  0  0  0  0
 24 25  1  0  0  0  0
 25 26  2  0  0  0  0
 25 27  1  0  0  0  0
 27 28  1  0  0  0  0
 28 29  2  0  0  0  0
M  END
>  <name>
O=C(OC)[C@H]1[C@@](O)(CC)C[C;ether]c2c(O)c3C(=O)c4c(O)cccc4C(=O)c3cc12

>  <apo>
1

>  <freq>
1

>  <freq0>
0

>  <freq1>
1

>  <freqA>
0.9949851

$$$$

  MOE2015           2D

 28 31  0  0  1  0  0  0  0  0999 V2000
   -2.6960    6.5130    0.0000 O   0  0  0  0  0  0  0  0  0  0  0  0
   -2.6960    5.0130    0.0000 C   0  0  0  0  0  0  0  0  0  0  0  0
   -3.9950    4.2630    0.0000 O   0  0  0  0  0  0  0  0  0  0  0  0
   -5.2940    5.0130    0.0000 C   0  0  0  0  0  0  0  0  0  0  0  0
   -1.3970    4.2630    0.0000 C   0  0  1  0  0  0  0  0  0  0  0  0
   -0.0980    5.0130    0.0000 C   0  0  1  0  0  0  0  0  0  0  0  0
   -1.3970    5.7630    0.0000 C   0  0  0  0  0  0  0  0  0  0  0  0
    1.2010    4.2630    0.0000 C   0  0  2  0  0  0  0  0  0  0  0  0
    1.2010    2.7630    0.0000 C   0  0  0  0  0  0  0  0  0  0  0  0
    2.5000    2.0130    0.0000 O   0  0  0  0  0  0  0  0  0  0  0  0
   -0.0980    2.0130    0.0000 C   0  0  1  0  0  0  0  0  0  0  0  0
   -0.0980    0.5130    0.0000 O   0  0  0  0  0  0  0  0  0  0  0  0
   -1.3970    2.7630    0.0000 C   0  0  0  0  0  0  0  0  0  0  0  0
    2.5000    5.0130    0.0000 C   0  0  2  0  0  0  0  0  0  0  0  0
    2.5000    3.5130    0.0000 C   0  0  0  0  0  0  0  0  0  0  0  0
    2.5000    6.5130    0.0000 C   0  0  2  0  0  0  0  0  0  0  0  0
    3.7990    7.2630    0.0000 C   0  0  0  0  0  0  0  0  0  0  0  0
    3.7990    8.7630    0.0000 O   0  0  0  0  0  0  0  0  0  0  0  0
    5.0980    6.5130    0.0000 O   0  0  0  0  0  0  0  0  0  0  0  0
    5.0980    5.0130    0.0000 C   0  0  2  0  0  0  0  0  0  0  0  0
    6.3970    4.2630    0.0000 C   0  0  0  0  0  0  0  0  0  0  0  0
    6.5540    2.7720    0.0000 C   0  0  0  0  0  0  0  0  0  0  0  0
    8.0210    2.4600    0.0000 O   0  0  0  0  0  0  0  0  0  0  0  0
    8.7710    3.7590    0.0000 C   0  0  0  0  0  0  0  0  0  0  0  0
    7.7670    4.8730    0.0000 C   0  0  0  0  0  0  0  0  0  0  0  0
    3.7990    4.2630    0.0000 C   0  0  0  0  0  0  0  0  0  0  0  0
    1.2010    7.2630    0.0000 C   0  0  0  0  0  0  0  0  0  0  0  0
   -0.0980    6.5130    0.0000 C   0  0  0  0  0  0  0  0  0  0  0  0
  1  2  2  0  0  0  0
  2  3  1  0  0  0  0
  5  2  1  1  0  0  0
  3  4  1  0  0  0  0
  5  6  1  0  0  0  0
  5 13  1  0  0  0  0
  6  7  1  1  0  0  0
  6  8  1  0  0  0  0
  6 28  1  0  0  0  0
  8  9  1  1  0  0  0
  8 14  1  0  0  0  0
  9 10  2  0  0  0  0
  9 11  1  0  0  0  0
 11 12  1  1  0  0  0
 11 13  1  0  0  0  0
 14 15  1  1  0  0  0
 14 16  1  0  0  0  0
 14 26  1  0  0  0  0
 16 17  1  1  0  0  0
 16 27  1  0  0  0  0
 17 18  2  0  0  0  0
 17 19  1  0  0  0  0
 19 20  1  0  0  0  0
 20 21  1  6  0  0  0
 20 26  1  0  0  0  0
 21 22  2  0  0  0  0
 21 25  1  0  0  0  0
 22 23  1  0  0  0  0
 23 24  1  0  0  0  0
 24 25  2  0  0  0  0
 27 28  1  0  0  0  0
M  END
>  <name>
O=C(OC)[C@H]1[C@@]2(C)[C@H](C(=O)[C@@H]([O;ester])C1)[C@]1(C)[C@H](C(=O)O[C@H](c3cocc3)C1)CC2

>  <apo>
1

>  <freq>
1

>  <freq0>
0

>  <freq1>
1

>  <freqA>
0.9949851

$$$$

  MOE2015           2D

  5  4  0  0  0  0  0  0  0  0999 V2000
    0.1310   -1.0100    0.0000 O   0  0  0  0  0  0  0  0  0  0  0  0
    1.4300   -0.2600    0.0000 C   0  0  0  0  0  0  0  0  0  0  0  0
    2.7290   -1.0100    0.0000 C   0  0  0  0  0  0  0  0  0  0  0  0
    4.0280   -0.2600    0.0000 O   0  0  0  0  0  0  0  0  0  0  0  0
    1.4300    1.2400    0.0000 C   0  0  0  0  0  0  0  0  0  0  0  0
  1  2  2  0  0  0  0
  2  3  1  0  0  0  0
  2  5  1  0  0  0  0
  3  4  2  0  0  0  0
M  END
>  <name>
O=C([C;amide]=O)C

>  <apo>
1

>  <freq>
1

>  <freq0>
0

>  <freq1>
1

>  <freqA>
0.9949851

$$$$

  MOE2015           2D

 18 19  0  0  0  0  0  0  0  0999 V2000
    0.0000    0.0000    0.0000 O   0  0  0  0  0  0  0  0  0  0  0  0
    1.5000    0.0000    0.0000 C   0  0  0  0  0  0  0  0  0  0  0  0
    2.2500    1.2990    0.0000 C   0  0  0  0  0  0  0  0  0  0  0  0
    2.2500   -1.2990    0.0000 C   0  0  0  0  0  0  0  0  0  0  0  0
    3.7500   -1.2990    0.0000 C   0  0  0  0  0  0  0  0  0  0  0  0
    4.5000    0.0000    0.0000 O   0  0  0  0  0  0  0  0  0  0  0  0
    4.5000   -2.5980    0.0000 C   0  0  0  0  0  0  0  0  0  0  0  0
    6.0000   -2.5980    0.0000 C   0  0  0  0  0  0  0  0  0  0  0  0
    6.7500   -3.8970    0.0000 C   0  0  0  0  0  0  0  0  0  0  0  0
    8.2500   -3.8970    0.0000 C   0  0  0  0  0  0  0  0  0  0  0  0
    9.0000   -2.5980    0.0000 C   0  0  0  0  0  0  0  0  0  0  0  0
   10.5000   -2.5980    0.0000 O   0  0  0  0  0  0  0  0  0  0  0  0
    8.2500   -1.2990    0.0000 C   0  0  0  0  0  0  0  0  0  0  0  0
    6.7500   -1.2990    0.0000 C   0  0  0  0  0  0  0  0  0  0  0  0
    3.7500   -3.8970    0.0000 C   0  0  0  0  0  0  0  0  0  0  0  0
    2.2500   -3.8970    0.0000 N   0  0  0  0  0  0  0  0  0  0  0  0
    1.5000   -2.5980    0.0000 C   0  0  0  0  0  0  0  0  0  0  0  0
    0.0000   -2.5980    0.0000 O   0  0  0  0  0  0  0  0  0  0  0  0
  1  2  2  0  0  0  0
  2  3  1  0  0  0  0
  2  4  1  0  0  0  0
  4  5  2  0  0  0  0
  4 17  1  0  0  0  0
  5  6  1  0  0  0  0
  5  7  1  0  0  0  0
  7  8  1  0  0  0  0
  7 15  2  0  0  0  0
  8  9  1  0  0  0  0
  8 14  2  0  0  0  0
  9 10  2  0  0  0  0
 10 11  1  0  0  0  0
 11 12  1  0  0  0  0
 11 13  2  0  0  0  0
 13 14  1  0  0  0  0
 15 16  1  0  0  0  0
 16 17  1  0  0  0  0
 17 18  2  0  0  0  0
M  END
>  <name>
O=C([C;olefin])C1=C(O)C(c2ccc(O)cc2)=CNC1=O

>  <apo>
1

>  <freq>
1

>  <freq0>
0

>  <freq1>
1

>  <freqA>
0.9949851

$$$$

  MOE2015           2D

 19 20  0  0  1  0  0  0  0  0999 V2000
    0.0000   -4.2390    0.0000 O   0  0  0  0  0  0  0  0  0  0  0  0
    1.5000   -4.2390    0.0000 C   0  0  0  0  0  0  0  0  0  0  0  0
    2.2500   -5.5380    0.0000 C   0  0  0  0  0  0  0  0  0  0  0  0
    2.2500   -2.9400    0.0000 C   0  0  0  0  0  0  0  0  0  0  0  0
    1.5000   -1.6410    0.0000 C   0  0  0  0  0  0  0  0  0  0  0  0
    0.0000   -1.6410    0.0000 O   0  0  0  0  0  0  0  0  0  0  0  0
    2.2500   -0.3420    0.0000 N   0  0  0  0  0  0  0  0  0  0  0  0
    1.5000    0.9570    0.0000 O   0  0  0  0  0  0  0  0  0  0  0  0
    3.7500   -0.3420    0.0000 C   0  0  0  0  0  0  0  0  0  0  0  0
    4.5000   -1.6410    0.0000 C   0  0  0  0  0  0  0  0  0  0  0  0
    3.7500   -2.9400    0.0000 C   0  0  0  0  0  0  0  0  0  0  0  0
    4.5000   -4.2390    0.0000 O   0  0  0  0  0  0  0  0  0  0  0  0
    6.0000   -1.6410    0.0000 C   0  0  0  0  0  0  0  0  0  0  0  0
    6.7500   -0.3420    0.0000 C   0  0  0  0  0  0  0  0  0  0  0  0
    8.2500   -0.3420    0.0000 C   0  0  0  0  0  0  0  0  0  0  0  0
    9.0000   -1.6410    0.0000 C   0  0  3  0  0  0  0  0  0  0  0  0
   10.5000   -1.6410    0.0000 O   0  0  0  0  0  0  0  0  0  0  0  0
    8.2500   -2.9400    0.0000 C   0  0  0  0  0  0  0  0  0  0  0  0
    6.7500   -2.9400    0.0000 C   0  0  0  0  0  0  0  0  0  0  0  0
  1  2  2  0  0  0  0
  2  3  1  0  0  0  0
  2  4  1  0  0  0  0
  4  5  1  0  0  0  0
  4 11  2  0  0  0  0
  5  6  2  0  0  0  0
  5  7  1  0  0  0  0
  7  8  1  0  0  0  0
  7  9  1  0  0  0  0
  9 10  2  0  0  0  0
 10 11  1  0  0  0  0
 10 13  1  0  0  0  0
 11 12  1  0  0  0  0
 13 14  2  0  0  0  0
 13 19  1  0  0  0  0
 14 15  1  0  0  0  0
 15 16  1  0  0  0  0
 16 17  1  0  0  0  0
 16 18  1  0  0  0  0
 18 19  1  0  0  0  0
M  END
>  <name>
O=C([C;olefin])C=1C(=O)N(O)C=C(C=1O)C1=CCC(O)CC1

>  <apo>
1

>  <freq>
1

>  <freq0>
0

>  <freq1>
1

>  <freqA>
0.9949851

$$$$

  MOE2015           2D

 19 20  0  0  0  0  0  0  0  0999 V2000
    0.0000   -4.2390    0.0000 O   0  0  0  0  0  0  0  0  0  0  0  0
    1.5000   -4.2390    0.0000 C   0  0  0  0  0  0  0  0  0  0  0  0
    2.2500   -5.5380    0.0000 C   0  0  0  0  0  0  0  0  0  0  0  0
    2.2500   -2.9400    0.0000 C   0  0  0  0  0  0  0  0  0  0  0  0
    1.5000   -1.6410    0.0000 C   0  0  0  0  0  0  0  0  0  0  0  0
    0.0000   -1.6410    0.0000 O   0  0  0  0  0  0  0  0  0  0  0  0
    2.2500   -0.3420    0.0000 N   0  0  0  0  0  0  0  0  0  0  0  0
    1.5000    0.9570    0.0000 O   0  0  0  0  0  0  0  0  0  0  0  0
    3.7500   -0.3420    0.0000 C   0  0  0  0  0  0  0  0  0  0  0  0
    4.5000   -1.6410    0.0000 C   0  0  0  0  0  0  0  0  0  0  0  0
    6.0000   -1.6410    0.0000 C   0  0  0  0  0  0  0  0  0  0  0  0
    6.7500   -0.3420    0.0000 C   0  0  0  0  0  0  0  0  0  0  0  0
    8.2500   -0.3420    0.0000 C   0  0  0  0  0  0  0  0  0  0  0  0
    9.0000   -1.6410    0.0000 C   0  0  0  0  0  0  0  0  0  0  0  0
   10.5000   -1.6410    0.0000 O   0  0  0  0  0  0  0  0  0  0  0  0
    8.2500   -2.9400    0.0000 C   0  0  0  0  0  0  0  0  0  0  0  0
    6.7500   -2.9400    0.0000 C   0  0  0  0  0  0  0  0  0  0  0  0
    3.7500   -2.9400    0.0000 C   0  0  0  0  0  0  0  0  0  0  0  0
    4.5000   -4.2390    0.0000 O   0  0  0  0  0  0  0  0  0  0  0  0
  1  2  2  0  0  0  0
  2  3  1  0  0  0  0
  2  4  1  0  0  0  0
  4  5  1  0  0  0  0
  4 18  2  0  0  0  0
  5  6  2  0  0  0  0
  5  7  1  0  0  0  0
  7  8  1  0  0  0  0
  7  9  1  0  0  0  0
  9 10  2  0  0  0  0
 10 11  1  0  0  0  0
 10 18  1  0  0  0  0
 11 12  1  0  0  0  0
 11 17  2  0  0  0  0
 12 13  2  0  0  0  0
 13 14  1  0  0  0  0
 14 15  1  0  0  0  0
 14 16  2  0  0  0  0
 16 17  1  0  0  0  0
 18 19  1  0  0  0  0
M  END
>  <name>
O=C([C;olefin])C=1C(=O)N(O)C=C(c2ccc(O)cc2)C=1O

>  <apo>
1

>  <freq>
1

>  <freq0>
0

>  <freq1>
1

>  <freqA>
0.9949851

$$$$

  MOE2015           2D

 18 18  0  0  1  0  0  0  0  0999 V2000
   -0.5000   -6.6400    0.0000 O   0  0  0  0  0  0  0  0  0  0  0  0
   -1.2500   -5.3400    0.0000 C   0  0  0  0  0  0  0  0  0  0  0  0
   -2.7500   -5.3400    0.0000 C   0  0  0  0  0  0  0  0  0  0  0  0
   -0.5000   -4.0410    0.0000 C   0  0  0  0  0  0  0  0  0  0  0  0
    1.0000   -4.0410    0.0000 C   0  0  0  0  0  0  0  0  0  0  0  0
    1.7500   -5.3400    0.0000 O   0  0  0  0  0  0  0  0  0  0  0  0
    1.7500   -2.7420    0.0000 C   0  0  0  0  0  0  0  0  0  0  0  0
    3.2500   -2.7420    0.0000 C   0  0  0  0  0  0  0  0  0  0  0  0
    4.0000   -4.0410    0.0000 C   0  0  3  0  0  0  0  0  0  0  0  0
    3.2500   -5.3400    0.0000 O   0  0  0  0  0  0  0  0  0  0  0  0
    5.5000   -4.0410    0.0000 C   0  0  0  0  0  0  0  0  0  0  0  0
    6.2500   -2.7420    0.0000 C   0  0  0  0  0  0  0  0  0  0  0  0
    6.2500   -5.3400    0.0000 C   0  0  0  0  0  0  0  0  0  0  0  0
    1.0000   -1.4430    0.0000 C   0  0  0  0  0  0  0  0  0  0  0  0
    1.7500   -0.1440    0.0000 O   0  0  0  0  0  0  0  0  0  0  0  0
    1.0000    1.1550    0.0000 C   0  0  0  0  0  0  0  0  0  0  0  0
   -0.5000   -1.4430    0.0000 C   0  0  0  0  0  0  0  0  0  0  0  0
   -1.2500   -2.7420    0.0000 C   0  0  0  0  0  0  0  0  0  0  0  0
  1  2  2  0  0  0  0
  2  3  1  0  0  0  0
  2  4  1  0  0  0  0
  4  5  1  0  0  0  0
  4 18  2  0  0  0  0
  5  6  1  0  0  0  0
  5  7  2  0  0  0  0
  7  8  1  0  0  0  0
  7 14  1  0  0  0  0
  8  9  1  0  0  0  0
  9 10  1  0  0  0  0
  9 11  1  0  0  0  0
 11 12  2  0  0  0  0
 11 13  1  0  0  0  0
 14 15  1  0  0  0  0
 14 17  2  0  0  0  0
 15 16  1  0  0  0  0
 17 18  1  0  0  0  0
M  END
>  <name>
O=C([C;olefin])c1c(O)c(CC(O)C(=C)C)c(OC)cc1

>  <apo>
1

>  <freq>
1

>  <freq0>
0

>  <freq1>
1

>  <freqA>
0.9949851

$$$$

  MOE2015           2D

 14 14  0  0  0  0  0  0  0  0999 V2000
    1.1250   -5.8460    0.0000 O   0  0  0  0  0  0  0  0  0  0  0  0
    0.3750   -4.5470    0.0000 C   0  0  0  0  0  0  0  0  0  0  0  0
   -1.1250   -4.5470    0.0000 C   0  0  0  0  0  0  0  0  0  0  0  0
    1.1250   -3.2480    0.0000 C   0  0  0  0  0  0  0  0  0  0  0  0
    0.3750   -1.9490    0.0000 C   0  0  0  0  0  0  0  0  0  0  0  0
   -1.1250   -1.9490    0.0000 O   0  0  0  0  0  0  0  0  0  0  0  0
    1.1250   -0.6500    0.0000 C   0  0  0  0  0  0  0  0  0  0  0  0
    2.6250   -0.6500    0.0000 C   0  0  0  0  0  0  0  0  0  0  0  0
    3.3750    0.6500    0.0000 O   0  0  0  0  0  0  0  0  0  0  0  0
    3.3750   -1.9490    0.0000 C   0  0  0  0  0  0  0  0  0  0  0  0
    4.8750   -1.9490    0.0000 C   0  0  0  0  0  0  0  0  0  0  0  0
    5.6250   -3.2480    0.0000 C   0  0  0  0  0  0  0  0  0  0  0  0
    7.1250   -3.2480    0.0000 C   0  0  0  0  0  0  0  0  0  0  0  0
    2.6250   -3.2480    0.0000 C   0  0  0  0  0  0  0  0  0  0  0  0
  1  2  2  0  0  0  0
  2  3  1  0  0  0  0
  2  4  1  0  0  0  0
  4  5  1  0  0  0  0
  4 14  2  0  0  0  0
  5  6  1  0  0  0  0
  5  7  2  0  0  0  0
  7  8  1  0  0  0  0
  8  9  1  0  0  0  0
  8 10  2  0  0  0  0
 10 11  1  0  0  0  0
 10 14  1  0  0  0  0
 11 12  1  0  0  0  0
 12 13  2  0  0  0  0
M  END
>  <name>
O=C([C;olefin])c1c(O)cc(O)c(CC=C)c1

>  <apo>
1

>  <freq>
1

>  <freq0>
0

>  <freq1>
1

>  <freqA>
0.9949851

$$$$

  MOE2015           2D

 12 12  0  0  0  0  0  0  0  0999 V2000
    4.5000    0.2170    0.0000 O   0  0  0  0  0  0  0  0  0  0  0  0
    3.7500   -1.0830    0.0000 C   0  0  0  0  0  0  0  0  0  0  0  0
    4.5000   -2.3820    0.0000 C   0  0  0  0  0  0  0  0  0  0  0  0
    6.0000   -2.3820    0.0000 C   0  0  0  0  0  0  0  0  0  0  0  0
    2.2500   -1.0830    0.0000 C   0  0  0  0  0  0  0  0  0  0  0  0
    1.5000   -2.3820    0.0000 C   0  0  0  0  0  0  0  0  0  0  0  0
    2.2500   -3.6810    0.0000 O   0  0  0  0  0  0  0  0  0  0  0  0
    0.0000   -2.3820    0.0000 N   0  0  0  0  0  0  0  0  0  0  0  0
   -0.7500   -1.0830    0.0000 C   0  0  0  0  0  0  0  0  0  0  0  0
    0.0000    0.2170    0.0000 C   0  0  0  0  0  0  0  0  0  0  0  0
    1.5000    0.2170    0.0000 C   0  0  0  0  0  0  0  0  0  0  0  0
    2.2500    1.5160    0.0000 O   0  0  0  0  0  0  0  0  0  0  0  0
  1  2  2  0  0  0  0
  2  3  1  0  0  0  0
  2  5  1  0  0  0  0
  3  4  1  0  0  0  0
  5  6  1  0  0  0  0
  5 11  2  0  0  0  0
  6  7  2  0  0  0  0
  6  8  1  0  0  0  0
  8  9  1  0  0  0  0
  9 10  2  0  0  0  0
 10 11  1  0  0  0  0
 11 12  1  0  0  0  0
M  END
>  <name>
O=C([C;olefin]C)C=1C(=O)NC=CC=1O

>  <apo>
1

>  <freq>
1

>  <freq0>
0

>  <freq1>
1

>  <freqA>
0.9949851

$$$$

  MOE2015           2D

 18 18  0  0  1  0  0  0  0  0999 V2000
    4.3990    0.9350    0.0000 O   0  0  0  0  0  0  0  0  0  0  0  0
    4.3990   -0.5650    0.0000 C   0  0  0  0  0  0  0  0  0  0  0  0
    5.6980   -1.3150    0.0000 C   0  0  1  0  0  0  0  0  0  0  0  0
    6.9970   -0.5650    0.0000 C   0  0  0  0  0  0  0  0  0  0  0  0
    8.2960   -1.3150    0.0000 C   0  0  0  0  0  0  0  0  0  0  0  0
    5.6980   -2.8150    0.0000 C   0  0  0  0  0  0  0  0  0  0  0  0
    3.1000   -1.3150    0.0000 C   0  0  0  0  0  0  0  0  0  0  0  0
    1.8010   -0.5650    0.0000 C   0  0  0  0  0  0  0  0  0  0  0  0
    1.8010    0.9350    0.0000 O   0  0  0  0  0  0  0  0  0  0  0  0
    0.5020   -1.3150    0.0000 C   0  0  0  0  0  0  0  0  0  0  0  0
   -0.7970   -0.5650    0.0000 O   0  0  0  0  0  0  0  0  0  0  0  0
   -2.0960   -1.3150    0.0000 C   0  0  0  0  0  0  0  0  0  0  0  0
    0.5020   -2.8150    0.0000 C   0  0  0  0  0  0  0  0  0  0  0  0
   -0.7970   -3.5650    0.0000 O   0  0  0  0  0  0  0  0  0  0  0  0
   -0.7970   -5.0650    0.0000 C   0  0  0  0  0  0  0  0  0  0  0  0
    1.8010   -3.5650    0.0000 N   0  0  0  0  0  0  0  0  0  0  0  0
    3.1000   -2.8150    0.0000 C   0  0  0  0  0  0  0  0  0  0  0  0
    4.3990   -3.5650    0.0000 O   0  0  0  0  0  0  0  0  0  0  0  0
  1  2  2  0  0  0  0
  2  3  1  0  0  0  0
  2  7  1  0  0  0  0
  3  4  1  0  0  0  0
  3  6  1  1  0  0  0
  4  5  1  0  0  0  0
  7  8  2  0  0  0  0
  7 17  1  0  0  0  0
  8  9  1  0  0  0  0
  8 10  1  0  0  0  0
 10 11  1  0  0  0  0
 10 13  2  0  0  0  0
 11 12  1  0  0  0  0
 13 14  1  0  0  0  0
 13 16  1  0  0  0  0
 14 15  1  0  0  0  0
 16 17  1  0  0  0  0
 17 18  2  0  0  0  0
M  END
>  <name>
O=C([C@@H](C[C;olefin])C)C1=C(O)C(OC)=C(OC)NC1=O

>  <apo>
1

>  <freq>
1

>  <freq0>
0

>  <freq1>
1

>  <freqA>
0.9949851

$$$$

  MOE2015           2D

 11 10  0  0  1  0  0  0  0  0999 V2000
    2.1450   -1.6730    0.0000 O   0  0  0  0  0  0  0  0  0  0  0  0
    2.1450   -0.1730    0.0000 C   0  0  0  0  0  0  0  0  0  0  0  0
    0.8460    0.5770    0.0000 C   0  0  1  0  0  0  0  0  0  0  0  0
    0.8460    2.0770    0.0000 O   0  0  0  0  0  0  0  0  0  0  0  0
   -0.4530   -0.1730    0.0000 C   0  0  0  0  0  0  0  0  0  0  0  0
   -0.4530   -1.6730    0.0000 C   0  0  0  0  0  0  0  0  0  0  0  0
   -1.7520    0.5770    0.0000 C   0  0  0  0  0  0  0  0  0  0  0  0
    3.4440    0.5770    0.0000 C   0  0  2  0  0  0  0  0  0  0  0  0
    4.7430   -0.1730    0.0000 C   0  0  0  0  0  0  0  0  0  0  0  0
    6.0420    0.5770    0.0000 O   0  0  0  0  0  0  0  0  0  0  0  0
    3.4440    2.0770    0.0000 C   0  0  0  0  0  0  0  0  0  0  0  0
  1  2  2  0  0  0  0
  2  3  1  0  0  0  0
  2  8  1  0  0  0  0
  3  4  1  6  0  0  0
  3  5  1  0  0  0  0
  5  6  1  0  0  0  0
  5  7  1  0  0  0  0
  8  9  1  0  0  0  0
  8 11  1  1  0  0  0
  9 10  2  0  0  0  0
M  END
>  <name>
O=C([C@@H]([O;ester])C(C)C)[C@H]([C;amide]=O)C

>  <apo>
2

>  <freq>
1

>  <freq0>
0

>  <freq1>
1

>  <freqA>
0.9949851

$$$$

  MOE2015           2D

 27 29  0  0  1  0  0  0  0  0999 V2000
    1.4530   -1.8270    0.0000 O   0  0  0  0  0  0  0  0  0  0  0  0
    1.9660   -0.4180    0.0000 C   0  0  0  0  0  0  0  0  0  0  0  0
    1.0020    0.7310    0.0000 C   0  0  2  0  0  0  0  0  0  0  0  0
    1.7520    2.0300    0.0000 C   0  0  2  0  0  0  0  0  0  0  0  0
    3.2290    2.2910    0.0000 C   0  0  0  0  0  0  0  0  0  0  0  0
    3.7420    3.7000    0.0000 C   0  0  0  0  0  0  0  0  0  0  0  0
    1.0020    3.3290    0.0000 C   0  0  0  0  0  0  0  0  0  0  0  0
    1.7520    4.6280    0.0000 C   0  0  0  0  0  0  0  0  0  0  0  0
   -0.4980    3.3290    0.0000 C   0  0  0  0  0  0  0  0  0  0  0  0
   -1.2480    2.0300    0.0000 C   0  0  0  0  0  0  0  0  0  0  0  0
   -0.4980    0.7310    0.0000 C   0  0  1  0  0  0  0  0  0  0  0  0
   -1.2480   -0.5680    0.0000 C   0  0  0  0  0  0  0  0  0  0  0  0
   -0.4980   -1.8670    0.0000 C   0  0  0  0  0  0  0  0  0  0  0  0
   -1.2480   -3.1660    0.0000 C   0  0  0  0  0  0  0  0  0  0  0  0
   -2.7480   -3.1660    0.0000 C   0  0  0  0  0  0  0  0  0  0  0  0
   -3.4980   -1.8670    0.0000 C   0  0  0  0  0  0  0  0  0  0  0  0
   -2.7480   -0.5680    0.0000 C   0  0  0  0  0  0  0  0  0  0  0  0
    3.4430   -0.1570    0.0000 C   0  0  0  0  0  0  0  0  0  0  0  0
    3.9560   -1.5670    0.0000 C   0  0  0  0  0  0  0  0  0  0  0  0
    2.9920   -2.7160    0.0000 O   0  0  0  0  0  0  0  0  0  0  0  0
    5.4330   -1.8270    0.0000 C   0  0  0  0  0  0  0  0  0  0  0  0
    6.3970   -0.6780    0.0000 C   0  0  0  0  0  0  0  0  0  0  0  0
    7.8750   -0.9390    0.0000 O   0  0  0  0  0  0  0  0  0  0  0  0
    8.3880   -2.3480    0.0000 C   0  0  0  0  0  0  0  0  0  0  0  0
    5.8840    0.7310    0.0000 C   0  0  0  0  0  0  0  0  0  0  0  0
    4.4070    0.9920    0.0000 C   0  0  0  0  0  0  0  0  0  0  0  0
    4.4070    2.4920    0.0000 O   0  0  0  0  0  0  0  0  0  0  0  0
  1  2  2  0  0  0  0
  3  2  1  1  0  0  0
  2 18  1  0  0  0  0
  3  4  1  0  0  0  0
  3 11  1  0  0  0  0
  4  5  1  1  0  0  0
  4  7  1  0  0  0  0
  5  6  1  0  0  0  0
  7  8  1  0  0  0  0
  7  9  2  0  0  0  0
  9 10  1  0  0  0  0
 10 11  1  0  0  0  0
 11 12  1  6  0  0  0
 12 13  1  0  0  0  0
 12 17  2  0  0  0  0
 13 14  2  0  0  0  0
 14 15  1  0  0  0  0
 15 16  2  0  0  0  0
 16 17  1  0  0  0  0
 18 19  1  0  0  0  0
 18 26  2  0  0  0  0
 19 20  1  0  0  0  0
 19 21  2  0  0  0  0
 21 22  1  0  0  0  0
 22 23  1  0  0  0  0
 22 25  2  0  0  0  0
 23 24  1  0  0  0  0
 25 26  1  0  0  0  0
 26 27  1  0  0  0  0
M  END
>  <name>
O=C([C@@H]1[C@H](C[C;olefin])C(C)=CC[C@H]1c1ccccc1)c1c(O)cc(OC)cc1O

>  <apo>
1

>  <freq>
1

>  <freq0>
0

>  <freq1>
1

>  <freqA>
0.9949851

$$$$

  MOE2015           2D

 30 33  0  0  1  0  0  0  0  0999 V2000
    1.6990   -2.6510    0.0000 O   0  0  0  0  0  0  0  0  0  0  0  0
    1.6990   -1.1510    0.0000 C   0  0  0  0  0  0  0  0  0  0  0  0
    0.4000   -0.4010    0.0000 C   0  0  1  0  0  0  0  0  0  0  0  0
   -0.8990   -1.1510    0.0000 C   0  0  2  0  0  0  0  0  0  0  0  0
   -0.8990   -2.6510    0.0000 C   0  0  0  0  0  0  0  0  0  0  0  0
   -2.1980   -0.4010    0.0000 C   0  0  2  0  0  0  0  0  0  0  0  0
   -2.1980    1.0990    0.0000 C   0  0  1  0  0  0  0  0  0  0  0  0
   -0.8990    1.8490    0.0000 C   0  0  0  0  0  0  0  0  0  0  0  0
   -0.8990    3.3490    0.0000 C   0  0  0  0  0  0  0  0  0  0  0  0
    0.4000    1.0990    0.0000 C   0  0  0  0  0  0  0  0  0  0  0  0
   -3.4970    1.8490    0.0000 C   0  0  0  0  0  0  0  0  0  0  0  0
   -4.7970    1.0990    0.0000 C   0  0  0  0  0  0  0  0  0  0  0  0
   -4.7970   -0.4010    0.0000 C   0  0  2  0  0  0  0  0  0  0  0  0
   -6.0960   -1.1510    0.0000 C   0  0  0  0  0  0  0  0  0  0  0  0
   -3.4970   -1.1510    0.0000 C   0  0  0  0  0  0  0  0  0  0  0  0
    2.9980   -0.4010    0.0000 C   0  0  0  0  0  0  0  0  0  0  0  0
    4.2970   -1.1510    0.0000 C   0  0  0  0  0  0  0  0  0  0  0  0
    4.2970   -2.6510    0.0000 O   0  0  0  0  0  0  0  0  0  0  0  0
    5.5960   -0.4010    0.0000 C   0  0  0  0  0  0  0  0  0  0  0  0
    6.8950   -1.1510    0.0000 C   0  0  0  0  0  0  0  0  0  0  0  0
    8.1940   -0.4010    0.0000 C   0  0  0  0  0  0  0  0  0  0  0  0
    9.4930   -1.1510    0.0000 C   0  0  0  0  0  0  0  0  0  0  0  0
    9.4930   -2.6510    0.0000 C   0  0  0  0  0  0  0  0  0  0  0  0
   10.7920   -3.4010    0.0000 O   0  0  0  0  0  0  0  0  0  0  0  0
    8.1940   -3.4010    0.0000 C   0  0  0  0  0  0  0  0  0  0  0  0
    6.8950   -2.6510    0.0000 C   0  0  0  0  0  0  0  0  0  0  0  0
    5.5960    1.0990    0.0000 C   0  0  0  0  0  0  0  0  0  0  0  0
    4.2970    1.8490    0.0000 N   0  0  0  0  0  0  0  0  0  0  0  0
    2.9980    1.0990    0.0000 C   0  0  0  0  0  0  0  0  0  0  0  0
    1.6990    1.8490    0.0000 O   0  0  0  0  0  0  0  0  0  0  0  0
  1  2  2  0  0  0  0
  3  2  1  1  0  0  0
  2 16  1  0  0  0  0
  3  4  1  0  0  0  0
  3 10  1  0  0  0  0
  4  5  1  6  0  0  0
  4  6  1  0  0  0  0
  6  7  1  0  0  0  0
  6 15  1  1  0  0  0
  7  8  1  6  0  0  0
  7 11  1  0  0  0  0
  8  9  1  0  0  0  0
  8 10  2  0  0  0  0
 11 12  1  0  0  0  0
 12 13  1  0  0  0  0
 13 14  1  1  0  0  0
 13 15  1  0  0  0  0
 16 17  2  0  0  0  0
 16 29  1  0  0  0  0
 17 18  1  0  0  0  0
 17 19  1  0  0  0  0
 19 20  1  0  0  0  0
 19 27  2  0  0  0  0
 20 21  1  0  0  0  0
 20 26  2  0  0  0  0
 21 22  2  0  0  0  0
 22 23  1  0  0  0  0
 23 24  1  0  0  0  0
 23 25  2  0  0  0  0
 25 26  1  0  0  0  0
 27 28  1  0  0  0  0
 28 29  1  0  0  0  0
 29 30  2  0  0  0  0
M  END
>  <name>
O=C([C@H]1[C@H]([C;olefin])[C@@H]2[C@@H](C(C)=C1)CC[C@H](C)C2)C1=C(O)C(c2ccc(O)cc2)=CNC1=O

>  <apo>
1

>  <freq>
1

>  <freq0>
0

>  <freq1>
1

>  <freqA>
0.9949851

$$$$

  MOE2015           2D

  7  6  0  0  0  0  0  0  0  0999 V2000
   -0.0760   -1.5710    0.0000 O   0  0  0  0  0  0  0  0  0  0  0  0
    1.2230   -0.8210    0.0000 C   0  0  0  0  0  0  0  0  0  0  0  0
    1.2230    0.6790    0.0000 O   0  5  0  0  0  0  0  0  0  0  0  0
    2.5220   -1.5710    0.0000 C   0  0  0  0  0  0  0  0  0  0  0  0
    3.8210   -0.8210    0.0000 C   0  0  0  0  0  0  0  0  0  0  0  0
    5.1200   -1.5710    0.0000 C   0  0  0  0  0  0  0  0  0  0  0  0
    6.4190   -0.8210    0.0000 C   0  0  0  0  0  0  0  0  0  0  0  0
  1  2  2  0  0  0  0
  2  3  1  0  0  0  0
  2  4  1  0  0  0  0
  4  5  1  0  0  0  0
  5  6  1  0  0  0  0
  6  7  1  0  0  0  0
M  CHG  1   3  -1
M  END
>  <name>
O=C([O-])[C;olefin]CC[C;olefin]

>  <apo>
2

>  <freq>
1

>  <freq0>
0

>  <freq1>
1

>  <freqA>
0.9949851

$$$$

  MOE2015           2D

 24 25  0  0  1  0  0  0  0  0999 V2000
    0.5130    3.8180    0.0000 O   0  0  0  0  0  0  0  0  0  0  0  0
    1.2560    2.5150    0.0000 C   0  0  0  0  0  0  0  0  0  0  0  0
    0.4980    1.2200    0.0000 C   0  0  0  0  0  0  0  0  0  0  0  0
    1.2410   -0.0830    0.0000 C   0  0  0  0  0  0  0  0  0  0  0  0
    0.4840   -1.3780    0.0000 C   0  0  0  0  0  0  0  0  0  0  0  0
   -1.0160   -1.3690    0.0000 C   0  0  0  0  0  0  0  0  0  0  0  0
   -1.7590   -0.0660    0.0000 C   0  0  0  0  0  0  0  0  0  0  0  0
   -1.0010    1.2290    0.0000 C   0  0  0  0  0  0  0  0  0  0  0  0
    2.7560    2.5070    0.0000 C   0  0  3  0  0  0  0  0  0  0  0  0
    1.9150    1.2640    0.0000 O   0  0  0  0  0  0  0  0  0  0  0  0
    2.6170    4.0000    0.0000 N   0  0  0  0  0  0  0  0  0  0  0  0
    1.1840    4.4440    0.0000 C   0  0  0  0  0  0  0  0  0  0  0  0
    3.5750    5.1540    0.0000 C   0  0  0  0  0  0  0  0  0  0  0  0
    5.0690    5.2930    0.0000 C   0  0  0  0  0  0  0  0  0  0  0  0
    6.2230    4.3350    0.0000 C   0  0  0  0  0  0  0  0  0  0  0  0
    6.3620    2.8410    0.0000 C   0  0  0  0  0  0  0  0  0  0  0  0
    5.4030    1.6870    0.0000 N   0  0  0  0  0  0  0  0  0  0  0  0
    6.1030    0.3600    0.0000 C   0  0  0  0  0  0  0  0  0  0  0  0
    7.6020    0.3030    0.0000 C   0  0  0  0  0  0  0  0  0  0  0  0
    8.3020   -1.0240    0.0000 C   0  0  0  0  0  0  0  0  0  0  0  0
    9.8010   -1.0820    0.0000 C   0  0  0  0  0  0  0  0  0  0  0  0
   10.5000   -2.4090    0.0000 N   0  0  0  0  0  0  0  0  0  0  0  0
    3.9100    1.5480    0.0000 C   0  0  0  0  0  0  0  0  0  0  0  0
    3.4660    0.1160    0.0000 O   0  0  0  0  0  0  0  0  0  0  0  0
  1  2  2  0  0  0  0
  2  3  1  0  0  0  0
  2  9  1  0  0  0  0
  3  4  1  0  0  0  0
  3  8  2  0  0  0  0
  4  5  2  0  0  0  0
  5  6  1  0  0  0  0
  6  7  2  0  0  0  0
  7  8  1  0  0  0  0
  9 10  1  0  0  0  0
  9 11  1  0  0  0  0
  9 23  1  0  0  0  0
 11 12  1  0  0  0  0
 11 13  1  0  0  0  0
 13 14  1  0  0  0  0
 14 15  1  0  0  0  0
 15 16  1  0  0  0  0
 16 17  1  0  0  0  0
 17 18  1  0  0  0  0
 17 23  1  0  0  0  0
 18 19  1  0  0  0  0
 19 20  1  0  0  0  0
 20 21  1  0  0  0  0
 21 22  1  0  0  0  0
 23 24  2  0  0  0  0
M  END
>  <name>
O=C(c1ccccc1)C1(O)N(C)CCCCN(CCCC[N;amide])C1=O

>  <apo>
1

>  <freq>
1

>  <freq0>
0

>  <freq1>
1

>  <freqA>
0.9949851

$$$$

  MOE2015           2D

 13 13  0  0  1  0  0  0  0  0999 V2000
   -0.0540    1.1470    0.0000 O   0  0  0  0  0  0  0  0  0  0  0  0
    1.4400    1.2870    0.0000 C   0  0  0  0  0  0  0  0  0  0  0  0
    2.4310    0.1610    0.0000 C   0  0  0  0  0  0  0  0  0  0  0  0
    2.1020   -1.3020    0.0000 C   0  0  0  0  0  0  0  0  0  0  0  0
    3.8080    0.7560    0.0000 C   0  0  2  0  0  0  0  0  0  0  0  0
    5.0980   -0.0090    0.0000 C   0  0  1  0  0  0  0  0  0  0  0  0
    5.0810   -1.5090    0.0000 O   0  0  0  0  0  0  0  0  0  0  0  0
    6.4060    0.7260    0.0000 C   0  0  0  0  0  0  0  0  0  0  0  0
    7.6960   -0.0390    0.0000 C   0  0  0  0  0  0  0  0  0  0  0  0
    9.0040    0.6970    0.0000 C   0  0  0  0  0  0  0  0  0  0  0  0
    3.6680    2.2490    0.0000 C   0  0  1  0  0  0  0  0  0  0  0  0
    4.7940    3.2400    0.0000 C   0  0  0  0  0  0  0  0  0  0  0  0
    2.2050    2.5780    0.0000 O   0  0  0  0  0  0  0  0  0  0  0  0
  1  2  2  0  0  0  0
  2  3  1  0  0  0  0
  2 13  1  0  0  0  0
  3  4  2  0  0  0  0
  5  3  1  1  0  0  0
  5  6  1  0  0  0  0
  5 11  1  0  0  0  0
  6  7  1  6  0  0  0
  6  8  1  0  0  0  0
  8  9  1  0  0  0  0
  9 10  1  0  0  0  0
 11 12  1  6  0  0  0
 11 13  1  0  0  0  0
M  END
>  <name>
O=C1C(=C)[C@H]([C@@H]([O;ester])C[C;olefin]C)[C@@H]([C;olefin])O1

>  <apo>
3

>  <freq>
1

>  <freq0>
0

>  <freq1>
1

>  <freqA>
0.9949851

$$$$

  MOE2015           2D

 31 35  0  0  1  0  0  0  0  0999 V2000
   10.1580    8.2620    0.0000 O   0  0  0  0  0  0  0  0  0  0  0  0
    9.8530    6.7940    0.0000 C   0  0  0  0  0  0  0  0  0  0  0  0
   10.9720    5.7950    0.0000 C   0  0  0  0  0  0  0  0  0  0  0  0
   12.3960    6.2650    0.0000 C   0  0  0  0  0  0  0  0  0  0  0  0
   10.6660    4.3260    0.0000 C   0  0  0  0  0  0  0  0  0  0  0  0
   11.7850    3.3280    0.0000 C   0  0  0  0  0  0  0  0  0  0  0  0
    9.2420    3.8570    0.0000 C   0  0  0  0  0  0  0  0  0  0  0  0
    8.1230    4.8560    0.0000 C   0  0  2  0  0  0  0  0  0  0  0  0
    6.6980    4.3860    0.0000 C   0  0  1  0  0  0  0  0  0  0  0  0
    6.3930    2.9170    0.0000 C   0  0  0  0  0  0  0  0  0  0  0  0
    5.5790    5.3850    0.0000 C   0  0  2  0  0  0  0  0  0  0  0  0
    4.1130    5.0670    0.0000 C   0  0  2  0  0  0  0  0  0  0  0  0
    4.9790    3.8420    0.0000 C   0  0  0  0  0  0  0  0  0  0  0  0
    3.3580    6.3620    0.0000 C   0  0  2  0  0  0  0  0  0  0  0  0
    1.8580    6.3560    0.0000 C   0  0  1  0  0  0  0  0  0  0  0  0
    1.1130    5.0540    0.0000 C   0  0  1  0  0  0  0  0  0  0  0  0
   -0.3870    5.0470    0.0000 C   0  0  1  0  0  0  0  0  0  0  0  0
   -1.8870    5.0410    0.0000 C   0  0  0  0  0  0  0  0  0  0  0  0
   -1.1310    3.7450    0.0000 C   0  0  1  0  0  0  0  0  0  0  0  0
   -0.3760    2.4490    0.0000 O   0  0  0  0  0  0  0  0  0  0  0  0
   -2.6310    3.7380    0.0000 C   0  0  0  0  0  0  0  0  0  0  0  0
   -3.3870    5.0340    0.0000 C   0  0  0  0  0  0  0  0  0  0  0  0
   -2.6420    6.3360    0.0000 C   0  0  0  0  0  0  0  0  0  0  0  0
   -1.1420    6.3430    0.0000 C   0  0  0  0  0  0  0  0  0  0  0  0
   -0.3980    7.6450    0.0000 C   0  0  0  0  0  0  0  0  0  0  0  0
    1.1020    7.6520    0.0000 C   0  0  0  0  0  0  0  0  0  0  0  0
    1.8690    3.7580    0.0000 C   0  0  0  0  0  0  0  0  0  0  0  0
    3.3690    3.7640    0.0000 C   0  0  0  0  0  0  0  0  0  0  0  0
    4.3560    7.4810    0.0000 C   0  0  0  0  0  0  0  0  0  0  0  0
    5.7290    6.8770    0.0000 C   0  0  0  0  0  0  0  0  0  0  0  0
    8.4280    6.3240    0.0000 O   0  0  0  0  0  0  0  0  0  0  0  0
  1  2  2  0  0  0  0
  2  3  1  0  0  0  0
  2 31  1  0  0  0  0
  3  4  1  0  0  0  0
  3  5  2  0  0  0  0
  5  6  1  0  0  0  0
  5  7  1  0  0  0  0
  8  7  1  6  0  0  0
  8  9  1  0  0  0  0
  8 31  1  0  0  0  0
  9 10  1  1  0  0  0
  9 11  1  0  0  0  0
 11 12  1  0  0  0  0
 11 30  1  6  0  0  0
 12 13  1  6  0  0  0
 12 14  1  0  0  0  0
 12 28  1  0  0  0  0
 14 15  1  0  0  0  0
 14 29  1  6  0  0  0
 15 16  1  0  0  0  0
 15 26  1  1  0  0  0
 16 17  1  0  0  0  0
 16 27  1  6  0  0  0
 17 18  1  6  0  0  0
 17 19  1  0  0  0  0
 17 24  1  0  0  0  0
 19 20  1  1  0  0  0
 19 21  1  0  0  0  0
 21 22  1  0  0  0  0
 22 23  1  0  0  0  0
 23 24  1  0  0  0  0
 24 25  2  0  0  0  0
 25 26  1  0  0  0  0
 27 28  1  0  0  0  0
 29 30  1  0  0  0  0
M  END
>  <name>
O=C1C(C)=C(C)C[C@H]([C@@H](C)[C@@H]2[C@]3(C)[C@H]([C@H]4[C@@H]([C@@]5(C)[C@@H](O)C[C;ether]CC5=CC4)CC3)CC2)O1

>  <apo>
1

>  <freq>
1

>  <freq0>
0

>  <freq1>
1

>  <freqA>
0.9949851

$$$$

  MOE2015           2D

 32 36  0  0  1  0  0  0  0  0999 V2000
    9.8060    7.9760    0.0000 O   0  0  0  0  0  0  0  0  0  0  0  0
    9.5010    6.5070    0.0000 C   0  0  0  0  0  0  0  0  0  0  0  0
   10.6200    5.5090    0.0000 C   0  0  0  0  0  0  0  0  0  0  0  0
   12.0440    5.9780    0.0000 C   0  0  0  0  0  0  0  0  0  0  0  0
   13.1630    4.9790    0.0000 O   0  0  0  0  0  0  0  0  0  0  0  0
   10.3140    4.0400    0.0000 C   0  0  0  0  0  0  0  0  0  0  0  0
   11.4330    3.0410    0.0000 C   0  0  0  0  0  0  0  0  0  0  0  0
    8.8900    3.5700    0.0000 C   0  0  0  0  0  0  0  0  0  0  0  0
    7.7710    4.5690    0.0000 C   0  0  2  0  0  0  0  0  0  0  0  0
    6.3460    4.1000    0.0000 C   0  0  1  0  0  0  0  0  0  0  0  0
    6.0400    2.6310    0.0000 C   0  0  0  0  0  0  0  0  0  0  0  0
    5.2270    5.0980    0.0000 C   0  0  2  0  0  0  0  0  0  0  0  0
    3.7610    4.7800    0.0000 C   0  0  2  0  0  0  0  0  0  0  0  0
    4.6270    3.5550    0.0000 C   0  0  0  0  0  0  0  0  0  0  0  0
    3.0050    6.0760    0.0000 C   0  0  2  0  0  0  0  0  0  0  0  0
    1.5050    6.0700    0.0000 C   0  0  1  0  0  0  0  0  0  0  0  0
    0.7610    4.7670    0.0000 C   0  0  1  0  0  0  0  0  0  0  0  0
   -0.7390    4.7610    0.0000 C   0  0  1  0  0  0  0  0  0  0  0  0
   -2.2390    4.7540    0.0000 C   0  0  0  0  0  0  0  0  0  0  0  0
   -1.4830    3.4580    0.0000 C   0  0  1  0  0  0  0  0  0  0  0  0
   -0.7280    2.1630    0.0000 O   0  0  0  0  0  0  0  0  0  0  0  0
   -2.9830    3.4520    0.0000 C   0  0  0  0  0  0  0  0  0  0  0  0
   -3.7390    4.7480    0.0000 C   0  0  0  0  0  0  0  0  0  0  0  0
   -2.9940    6.0500    0.0000 C   0  0  0  0  0  0  0  0  0  0  0  0
   -1.4940    6.0570    0.0000 C   0  0  0  0  0  0  0  0  0  0  0  0
   -0.7500    7.3590    0.0000 C   0  0  0  0  0  0  0  0  0  0  0  0
    0.7500    7.3650    0.0000 C   0  0  0  0  0  0  0  0  0  0  0  0
    1.5170    3.4710    0.0000 C   0  0  0  0  0  0  0  0  0  0  0  0
    3.0170    3.4780    0.0000 C   0  0  0  0  0  0  0  0  0  0  0  0
    4.0040    7.1950    0.0000 C   0  0  0  0  0  0  0  0  0  0  0  0
    5.3770    6.5910    0.0000 C   0  0  0  0  0  0  0  0  0  0  0  0
    8.0760    6.0380    0.0000 O   0  0  0  0  0  0  0  0  0  0  0  0
  1  2  2  0  0  0  0
  2  3  1  0  0  0  0
  2 32  1  0  0  0  0
  3  4  1  0  0  0  0
  3  6  2  0  0  0  0
  4  5  1  0  0  0  0
  6  7  1  0  0  0  0
  6  8  1  0  0  0  0
  9  8  1  6  0  0  0
  9 10  1  0  0  0  0
  9 32  1  0  0  0  0
 10 11  1  1  0  0  0
 10 12  1  0  0  0  0
 12 13  1  0  0  0  0
 12 31  1  6  0  0  0
 13 14  1  6  0  0  0
 13 15  1  0  0  0  0
 13 29  1  0  0  0  0
 15 16  1  0  0  0  0
 15 30  1  6  0  0  0
 16 17  1  0  0  0  0
 16 27  1  1  0  0  0
 17 18  1  0  0  0  0
 17 28  1  6  0  0  0
 18 19  1  6  0  0  0
 18 20  1  0  0  0  0
 18 25  1  0  0  0  0
 20 21  1  1  0  0  0
 20 22  1  0  0  0  0
 22 23  1  0  0  0  0
 23 24  1  0  0  0  0
 24 25  1  0  0  0  0
 25 26  2  0  0  0  0
 26 27  1  0  0  0  0
 28 29  1  0  0  0  0
 30 31  1  0  0  0  0
M  END
>  <name>
O=C1C(CO)=C(C)C[C@H]([C@@H](C)[C@@H]2[C@]3(C)[C@H]([C@H]4[C@@H]([C@@]5(C)[C@@H](O)C[C;ether]CC5=CC4)CC3)CC2)O1

>  <apo>
1

>  <freq>
1

>  <freq0>
0

>  <freq1>
1

>  <freqA>
0.9949851

$$$$

  MOE2015           2D

 25 27  0  0  0  0  0  0  0  0999 V2000
    1.5600    2.7020    0.0000 O   0  0  0  0  0  0  0  0  0  0  0  0
    2.3100    1.4030    0.0000 C   0  0  0  0  0  0  0  0  0  0  0  0
    3.8100    1.4030    0.0000 C   0  0  0  0  0  0  0  0  0  0  0  0
    4.5600    2.7020    0.0000 C   0  0  0  0  0  0  0  0  0  0  0  0
    3.8100    4.0010    0.0000 C   0  0  0  0  0  0  0  0  0  0  0  0
    4.5600    0.1040    0.0000 C   0  0  0  0  0  0  0  0  0  0  0  0
    6.0600    0.1040    0.0000 C   0  0  0  0  0  0  0  0  0  0  0  0
    6.8100   -1.1950    0.0000 C   0  0  0  0  0  0  0  0  0  0  0  0
    6.0600   -2.4940    0.0000 O   0  0  0  0  0  0  0  0  0  0  0  0
    8.3100   -1.1950    0.0000 C   0  0  0  0  0  0  0  0  0  0  0  0
    9.0600    0.1040    0.0000 C   0  0  0  0  0  0  0  0  0  0  0  0
   10.5600    0.1040    0.0000 O   0  0  0  0  0  0  0  0  0  0  0  0
    8.3100    1.4030    0.0000 C   0  0  0  0  0  0  0  0  0  0  0  0
    6.8100    1.4030    0.0000 C   0  0  0  0  0  0  0  0  0  0  0  0
    3.8100   -1.1950    0.0000 O   0  0  0  0  0  0  0  0  0  0  0  0
    2.3100   -1.1950    0.0000 C   0  0  0  0  0  0  0  0  0  0  0  0
    1.5600   -2.4940    0.0000 C   0  0  0  0  0  0  0  0  0  0  0  0
    2.3100   -3.7930    0.0000 C   0  0  0  0  0  0  0  0  0  0  0  0
    1.5600   -5.0920    0.0000 C   0  0  0  0  0  0  0  0  0  0  0  0
    0.0600   -2.4940    0.0000 C   0  0  0  0  0  0  0  0  0  0  0  0
   -0.6900   -3.7930    0.0000 O   0  0  0  0  0  0  0  0  0  0  0  0
   -0.6900   -1.1950    0.0000 C   0  0  0  0  0  0  0  0  0  0  0  0
    0.0600    0.1040    0.0000 C   0  0  0  0  0  0  0  0  0  0  0  0
   -0.6900    1.4030    0.0000 O   0  0  0  0  0  0  0  0  0  0  0  0
    1.5600    0.1040    0.0000 C   0  0  0  0  0  0  0  0  0  0  0  0
  1  2  2  0  0  0  0
  2  3  1  0  0  0  0
  2 25  1  0  0  0  0
  3  4  1  0  0  0  0
  3  6  2  0  0  0  0
  4  5  1  0  0  0  0
  6  7  1  0  0  0  0
  6 15  1  0  0  0  0
  7  8  1  0  0  0  0
  7 14  2  0  0  0  0
  8  9  1  0  0  0  0
  8 10  2  0  0  0  0
 10 11  1  0  0  0  0
 11 12  1  0  0  0  0
 11 13  2  0  0  0  0
 13 14  1  0  0  0  0
 15 16  1  0  0  0  0
 16 17  1  0  0  0  0
 16 25  2  0  0  0  0
 17 18  1  0  0  0  0
 17 20  2  0  0  0  0
 18 19  1  0  0  0  0
 20 21  1  0  0  0  0
 20 22  1  0  0  0  0
 22 23  2  0  0  0  0
 23 24  1  0  0  0  0
 23 25  1  0  0  0  0
M  END
>  <name>
O=C1C(C[C;olefin])=C(c2c(O)cc(O)cc2)Oc2c(C[C;olefin])c(O)cc(O)c12

>  <apo>
2

>  <freq>
1

>  <freq0>
0

>  <freq1>
1

>  <freqA>
0.9949851

$$$$

  MOE2015           2D

 28 31  0  0  0  0  0  0  0  0999 V2000
    4.3500    3.7250    0.0000 O   0  0  0  0  0  0  0  0  0  0  0  0
    4.3500    2.2250    0.0000 C   0  0  0  0  0  0  0  0  0  0  0  0
    5.6490    1.4750    0.0000 C   0  0  0  0  0  0  0  0  0  0  0  0
    6.9480    2.2250    0.0000 C   0  0  0  0  0  0  0  0  0  0  0  0
    6.9480    3.7250    0.0000 C   0  0  0  0  0  0  0  0  0  0  0  0
    5.6490   -0.0250    0.0000 C   0  0  0  0  0  0  0  0  0  0  0  0
    6.9480   -0.7750    0.0000 C   0  0  0  0  0  0  0  0  0  0  0  0
    6.9480   -2.2750    0.0000 C   0  0  0  0  0  0  0  0  0  0  0  0
    5.6490   -3.0250    0.0000 O   0  0  0  0  0  0  0  0  0  0  0  0
    8.2470   -3.0250    0.0000 C   0  0  0  0  0  0  0  0  0  0  0  0
    9.5460   -2.2750    0.0000 C   0  0  0  0  0  0  0  0  0  0  0  0
   10.8450   -3.0250    0.0000 O   0  0  0  0  0  0  0  0  0  0  0  0
    9.5460   -0.7750    0.0000 C   0  0  0  0  0  0  0  0  0  0  0  0
    8.2470   -0.0250    0.0000 C   0  0  0  0  0  0  0  0  0  0  0  0
    4.3500   -0.7750    0.0000 O   0  0  0  0  0  0  0  0  0  0  0  0
    3.0510   -0.0250    0.0000 C   0  0  0  0  0  0  0  0  0  0  0  0
    3.0510    1.4750    0.0000 C   0  0  0  0  0  0  0  0  0  0  0  0
    1.7520    2.2250    0.0000 C   0  0  0  0  0  0  0  0  0  0  0  0
    1.7520    3.7250    0.0000 O   0  0  0  0  0  0  0  0  0  0  0  0
    0.4530    1.4750    0.0000 C   0  0  0  0  0  0  0  0  0  0  0  0
    0.4530   -0.0250    0.0000 C   0  0  0  0  0  0  0  0  0  0  0  0
   -0.8460   -0.7750    0.0000 O   0  0  0  0  0  0  0  0  0  0  0  0
   -0.8460   -2.2750    0.0000 C   0  0  0  0  0  0  0  0  0  0  0  0
   -1.5960   -3.5740    0.0000 C   0  0  0  0  0  0  0  0  0  0  0  0
   -2.3460   -2.2750    0.0000 C   0  0  0  0  0  0  0  0  0  0  0  0
    0.4530   -3.0250    0.0000 C   0  0  0  0  0  0  0  0  0  0  0  0
    1.7520   -2.2750    0.0000 C   0  0  0  0  0  0  0  0  0  0  0  0
    1.7520   -0.7750    0.0000 C   0  0  0  0  0  0  0  0  0  0  0  0
  1  2  2  0  0  0  0
  2  3  1  0  0  0  0
  2 17  1  0  0  0  0
  3  4  1  0  0  0  0
  3  6  2  0  0  0  0
  4  5  1  0  0  0  0
  6  7  1  0  0  0  0
  6 15  1  0  0  0  0
  7  8  1  0  0  0  0
  7 14  2  0  0  0  0
  8  9  1  0  0  0  0
  8 10  2  0  0  0  0
 10 11  1  0  0  0  0
 11 12  1  0  0  0  0
 11 13  2  0  0  0  0
 13 14  1  0  0  0  0
 15 16  1  0  0  0  0
 16 17  1  0  0  0  0
 16 28  2  0  0  0  0
 17 18  2  0  0  0  0
 18 19  1  0  0  0  0
 18 20  1  0  0  0  0
 20 21  2  0  0  0  0
 21 22  1  0  0  0  0
 21 28  1  0  0  0  0
 22 23  1  0  0  0  0
 23 24  1  0  0  0  0
 23 25  1  0  0  0  0
 23 26  1  0  0  0  0
 26 27  2  0  0  0  0
 27 28  1  0  0  0  0
M  END
>  <name>
O=C1C(C[C;olefin])=C(c2c(O)cc(O)cc2)Oc2c1c(O)cc1OC(C)(C)C=Cc21

>  <apo>
1

>  <freq>
1

>  <freq0>
0

>  <freq1>
1

>  <freqA>
0.9949851

$$$$

  MOE2015           2D

 31 34  0  0  1  0  0  0  0  0999 V2000
    4.2580    0.0000    0.0000 O   0  0  0  0  0  0  0  0  0  0  0  0
    2.7580    0.0000    0.0000 C   0  0  0  0  0  0  0  0  0  0  0  0
    2.0080   -1.2990    0.0000 C   0  0  0  0  0  0  0  0  0  0  0  0
    2.7580   -2.5980    0.0000 O   0  0  0  0  0  0  0  0  0  0  0  0
    4.2580   -2.5980    0.0000 C   0  0  3  0  0  0  0  0  0  0  0  0
    5.0080   -3.8970    0.0000 C   0  0  3  0  0  0  0  0  0  0  0  0
    4.2580   -5.1960    0.0000 O   0  0  0  0  0  0  0  0  0  0  0  0
    6.5080   -3.8970    0.0000 C   0  0  3  0  0  0  0  0  0  0  0  0
    7.2580   -5.1960    0.0000 O   0  0  0  0  0  0  0  0  0  0  0  0
    7.2580   -2.5980    0.0000 C   0  0  3  0  0  0  0  0  0  0  0  0
    8.7580   -2.5980    0.0000 O   0  0  0  0  0  0  0  0  0  0  0  0
    6.5080   -1.2990    0.0000 C   0  0  0  0  0  0  0  0  0  0  0  0
    5.0080   -1.2990    0.0000 O   0  0  0  0  0  0  0  0  0  0  0  0
    0.5080   -1.2990    0.0000 C   0  0  0  0  0  0  0  0  0  0  0  0
   -0.2420   -2.5980    0.0000 C   0  0  0  0  0  0  0  0  0  0  0  0
   -1.7420   -2.5980    0.0000 C   0  0  0  0  0  0  0  0  0  0  0  0
   -2.4920   -3.8970    0.0000 C   0  0  0  0  0  0  0  0  0  0  0  0
   -3.9920   -3.8970    0.0000 O   0  0  0  0  0  0  0  0  0  0  0  0
   -1.7420   -5.1960    0.0000 C   0  0  0  0  0  0  0  0  0  0  0  0
   -2.4920   -6.4950    0.0000 O   0  0  0  0  0  0  0  0  0  0  0  0
   -0.2420   -5.1960    0.0000 C   0  0  0  0  0  0  0  0  0  0  0  0
    0.5080   -3.8970    0.0000 C   0  0  0  0  0  0  0  0  0  0  0  0
   -0.2420    0.0000    0.0000 O   0  0  0  0  0  0  0  0  0  0  0  0
    0.5080    1.2990    0.0000 C   0  0  0  0  0  0  0  0  0  0  0  0
    2.0080    1.2990    0.0000 C   0  0  0  0  0  0  0  0  0  0  0  0
    2.7580    2.5980    0.0000 C   0  0  0  0  0  0  0  0  0  0  0  0
    4.2580    2.5980    0.0000 O   0  0  0  0  0  0  0  0  0  0  0  0
    2.0080    3.8970    0.0000 C   0  0  0  0  0  0  0  0  0  0  0  0
    0.5080    3.8970    0.0000 C   0  0  0  0  0  0  0  0  0  0  0  0
   -0.2420    5.1960    0.0000 O   0  0  0  0  0  0  0  0  0  0  0  0
   -0.2420    2.5980    0.0000 C   0  0  0  0  0  0  0  0  0  0  0  0
  1  2  2  0  0  0  0
  2  3  1  0  0  0  0
  2 25  1  0  0  0  0
  3  4  1  0  0  0  0
  3 14  2  0  0  0  0
  4  5  1  0  0  0  0
  5  6  1  0  0  0  0
  5 13  1  0  0  0  0
  6  7  1  0  0  0  0
  6  8  1  0  0  0  0
  8  9  1  0  0  0  0
  8 10  1  0  0  0  0
 10 11  1  0  0  0  0
 10 12  1  0  0  0  0
 12 13  1  0  0  0  0
 14 15  1  0  0  0  0
 14 23  1  0  0  0  0
 15 16  1  0  0  0  0
 15 22  2  0  0  0  0
 16 17  2  0  0  0  0
 17 18  1  0  0  0  0
 17 19  1  0  0  0  0
 19 20  1  0  0  0  0
 19 21  2  0  0  0  0
 21 22  1  0  0  0  0
 23 24  1  0  0  0  0
 24 25  1  0  0  0  0
 24 31  2  0  0  0  0
 25 26  2  0  0  0  0
 26 27  1  0  0  0  0
 26 28  1  0  0  0  0
 28 29  2  0  0  0  0
 29 30  1  0  0  0  0
 29 31  1  0  0  0  0
M  END
>  <name>
O=C1C(OC2C(O)C(O)C(O)[C;ether]O2)=C(c2cc(O)c(O)cc2)Oc2c1c(O)cc(O)c2

>  <apo>
1

>  <freq>
1

>  <freq0>
0

>  <freq1>
1

>  <freqA>
0.9949851

$$$$

  MOE2015           2D

 22 24  0  0  0  0  0  0  0  0999 V2000
    1.2610   -3.6020    0.0000 O   0  0  0  0  0  0  0  0  0  0  0  0
    2.0110   -2.3030    0.0000 C   0  0  0  0  0  0  0  0  0  0  0  0
    3.5110   -2.3030    0.0000 C   0  0  0  0  0  0  0  0  0  0  0  0
    4.2610   -3.6020    0.0000 C   0  0  0  0  0  0  0  0  0  0  0  0
    4.2610   -1.0040    0.0000 C   0  0  0  0  0  0  0  0  0  0  0  0
    5.7610   -1.0040    0.0000 C   0  0  0  0  0  0  0  0  0  0  0  0
    6.5110    0.2950    0.0000 C   0  0  0  0  0  0  0  0  0  0  0  0
    8.0110    0.2950    0.0000 C   0  0  0  0  0  0  0  0  0  0  0  0
    8.7610    1.5940    0.0000 O   0  0  0  0  0  0  0  0  0  0  0  0
    8.7610   -1.0040    0.0000 C   0  0  0  0  0  0  0  0  0  0  0  0
   10.2610   -1.0040    0.0000 O   0  0  0  0  0  0  0  0  0  0  0  0
    8.0110   -2.3030    0.0000 C   0  0  0  0  0  0  0  0  0  0  0  0
    6.5110   -2.3030    0.0000 C   0  0  0  0  0  0  0  0  0  0  0  0
    3.5110    0.2950    0.0000 O   0  0  0  0  0  0  0  0  0  0  0  0
    2.0110    0.2950    0.0000 C   0  0  0  0  0  0  0  0  0  0  0  0
    1.2610   -1.0040    0.0000 C   0  0  0  0  0  0  0  0  0  0  0  0
   -0.2390   -1.0040    0.0000 C   0  0  0  0  0  0  0  0  0  0  0  0
   -0.9890   -2.3030    0.0000 O   0  0  0  0  0  0  0  0  0  0  0  0
   -0.9890    0.2950    0.0000 C   0  0  0  0  0  0  0  0  0  0  0  0
   -0.2390    1.5940    0.0000 C   0  0  0  0  0  0  0  0  0  0  0  0
   -0.9890    2.8930    0.0000 O   0  0  0  0  0  0  0  0  0  0  0  0
    1.2610    1.5940    0.0000 C   0  0  0  0  0  0  0  0  0  0  0  0
  1  2  2  0  0  0  0
  2  3  1  0  0  0  0
  2 16  1  0  0  0  0
  3  4  1  0  0  0  0
  3  5  2  0  0  0  0
  5  6  1  0  0  0  0
  5 14  1  0  0  0  0
  6  7  1  0  0  0  0
  6 13  2  0  0  0  0
  7  8  2  0  0  0  0
  8  9  1  0  0  0  0
  8 10  1  0  0  0  0
 10 11  1  0  0  0  0
 10 12  2  0  0  0  0
 12 13  1  0  0  0  0
 14 15  1  0  0  0  0
 15 16  1  0  0  0  0
 15 22  2  0  0  0  0
 16 17  2  0  0  0  0
 17 18  1  0  0  0  0
 17 19  1  0  0  0  0
 19 20  2  0  0  0  0
 20 21  1  0  0  0  0
 20 22  1  0  0  0  0
M  END
>  <name>
O=C1C([C;ether])=C(c2cc(O)c(O)cc2)Oc2c1c(O)cc(O)c2

>  <apo>
1

>  <freq>
1

>  <freq0>
0

>  <freq1>
1

>  <freqA>
0.9949851

$$$$

  MOE2015           2D

 18 19  0  0  1  0  0  0  0  0999 V2000
    4.1250    2.3820    0.0000 O   0  0  0  0  0  0  0  0  0  0  0  0
    3.3750    1.0830    0.0000 C   0  0  0  0  0  0  0  0  0  0  0  0
    4.1250   -0.2170    0.0000 C   0  0  0  0  0  0  0  0  0  0  0  0
    5.6250   -0.2170    0.0000 C   0  0  2  0  0  0  0  0  0  0  0  0
    6.3750    1.0830    0.0000 O   0  0  0  0  0  0  0  0  0  0  0  0
    6.3750   -1.5160    0.0000 C   0  0  0  0  0  0  0  0  0  0  0  0
    7.8750   -1.5160    0.0000 C   0  0  0  0  0  0  0  0  0  0  0  0
    3.3750   -1.5160    0.0000 C   0  0  0  0  0  0  0  0  0  0  0  0
    1.8750   -1.5160    0.0000 C   0  0  0  0  0  0  0  0  0  0  0  0
    1.1250   -2.8150    0.0000 O   0  0  0  0  0  0  0  0  0  0  0  0
    1.1250   -0.2170    0.0000 C   0  0  0  0  0  0  0  0  0  0  0  0
   -0.3750   -0.2170    0.0000 C   0  0  0  0  0  0  0  0  0  0  0  0
   -1.1250   -1.5160    0.0000 O   0  0  0  0  0  0  0  0  0  0  0  0
   -1.1250    1.0830    0.0000 C   0  0  0  0  0  0  0  0  0  0  0  0
   -0.3750    2.3820    0.0000 C   0  0  0  0  0  0  0  0  0  0  0  0
    1.1250    2.3820    0.0000 C   0  0  0  0  0  0  0  0  0  0  0  0
    1.8750    3.6810    0.0000 O   0  0  0  0  0  0  0  0  0  0  0  0
    1.8750    1.0830    0.0000 C   0  0  0  0  0  0  0  0  0  0  0  0
  1  2  2  0  0  0  0
  2  3  1  0  0  0  0
  2 18  1  0  0  0  0
  3  4  1  0  0  0  0
  3  8  2  0  0  0  0
  4  5  1  6  0  0  0
  4  6  1  0  0  0  0
  6  7  1  0  0  0  0
  8  9  1  0  0  0  0
  9 10  2  0  0  0  0
  9 11  1  0  0  0  0
 11 12  2  0  0  0  0
 11 18  1  0  0  0  0
 12 13  1  0  0  0  0
 12 14  1  0  0  0  0
 14 15  2  0  0  0  0
 15 16  1  0  0  0  0
 16 17  1  0  0  0  0
 16 18  2  0  0  0  0
M  END
>  <name>
O=C1C([C@H](O)C[C;olefin])=CC(=O)c2c(O)ccc(O)c12

>  <apo>
1

>  <freq>
1

>  <freq0>
0

>  <freq1>
1

>  <freqA>
0.9949851

$$$$

  MOE2015           2D

 41 46  0  0  1  0  0  0  0  0999 V2000
   11.6610   -2.1010    0.0000 O   0  0  0  0  0  0  0  0  0  0  0  0
   10.2550   -1.5780    0.0000 C   0  0  0  0  0  0  0  0  0  0  0  0
    9.1730   -2.6160    0.0000 C   0  0  0  0  0  0  0  0  0  0  0  0
    9.6400   -4.0420    0.0000 O   0  0  0  0  0  0  0  0  0  0  0  0
    7.6860   -2.4180    0.0000 C   0  0  0  0  0  0  0  0  0  0  0  0
    6.9130   -1.1330    0.0000 C   0  0  0  0  0  0  0  0  0  0  0  0
    5.4200   -1.2720    0.0000 C   0  0  2  0  0  0  0  0  0  0  0  0
    4.7930   -2.6350    0.0000 C   0  0  2  0  0  0  0  0  0  0  0  0
    5.6610   -3.8590    0.0000 O   0  0  0  0  0  0  0  0  0  0  0  0
    3.3000   -2.7740    0.0000 C   0  0  0  0  0  0  0  0  0  0  0  0
    2.4330   -1.5500    0.0000 C   0  0  0  0  0  0  0  0  0  0  0  0
    0.9390   -1.6890    0.0000 C   0  0  0  0  0  0  0  0  0  0  0  0
    0.3130   -3.0520    0.0000 O   0  0  0  0  0  0  0  0  0  0  0  0
    0.0720   -0.4660    0.0000 C   0  0  0  0  0  0  0  0  0  0  0  0
    0.6980    0.8970    0.0000 C   0  0  0  0  0  0  0  0  0  0  0  0
   -0.1690    2.1210    0.0000 O   0  0  0  0  0  0  0  0  0  0  0  0
    2.1920    1.0370    0.0000 C   0  0  0  0  0  0  0  0  0  0  0  0
    3.0590   -0.1870    0.0000 C   0  0  0  0  0  0  0  0  0  0  0  0
    4.5520   -0.0480    0.0000 O   0  0  0  0  0  0  0  0  0  0  0  0
    7.4360    0.2730    0.0000 C   0  0  0  0  0  0  0  0  0  0  0  0
    8.8620    0.7390    0.0000 C   0  0  0  0  0  0  0  0  0  0  0  0
    8.9480    2.2370    0.0000 C   0  0  0  0  0  0  0  0  0  0  0  0
    7.6940    3.0600    0.0000 C   0  0  2  0  0  0  0  0  0  0  0  0
    6.3540    2.3850    0.0000 C   0  0  2  0  0  0  0  0  0  0  0  0
    6.2680    0.8880    0.0000 O   0  0  0  0  0  0  0  0  0  0  0  0
    5.1000    3.2080    0.0000 C   0  0  0  0  0  0  0  0  0  0  0  0
    5.1860    4.7060    0.0000 C   0  0  0  0  0  0  0  0  0  0  0  0
    3.9320    5.5290    0.0000 C   0  0  0  0  0  0  0  0  0  0  0  0
    2.5920    4.8540    0.0000 O   0  0  0  0  0  0  0  0  0  0  0  0
    4.0180    7.0260    0.0000 C   0  0  0  0  0  0  0  0  0  0  0  0
    5.3570    7.7010    0.0000 C   0  0  0  0  0  0  0  0  0  0  0  0
    5.4430    9.1980    0.0000 O   0  0  0  0  0  0  0  0  0  0  0  0
    6.6120    6.8780    0.0000 C   0  0  0  0  0  0  0  0  0  0  0  0
    6.5260    5.3800    0.0000 C   0  0  0  0  0  0  0  0  0  0  0  0
    7.7800    4.5570    0.0000 O   0  0  0  0  0  0  0  0  0  0  0  0
   10.2880    2.9110    0.0000 C   0  0  0  0  0  0  0  0  0  0  0  0
   11.5420    2.0880    0.0000 C   0  0  0  0  0  0  0  0  0  0  0  0
   12.8820    2.7630    0.0000 O   0  0  0  0  0  0  0  0  0  0  0  0
   11.4560    0.5910    0.0000 C   0  0  0  0  0  0  0  0  0  0  0  0
   12.7100   -0.2330    0.0000 O   0  0  0  0  0  0  0  0  0  0  0  0
   10.1160   -0.0840    0.0000 C   0  0  0  0  0  0  0  0  0  0  0  0
  1  2  2  0  0  0  0
  2  3  1  0  0  0  0
  2 41  1  0  0  0  0
  3  4  1  0  0  0  0
  3  5  2  0  0  0  0
  5  6  1  0  0  0  0
  7  6  1  6  0  0  0
  6 20  2  0  0  0  0
  7  8  1  0  0  0  0
  7 19  1  0  0  0  0
  8  9  1  6  0  0  0
  8 10  1  0  0  0  0
 10 11  1  0  0  0  0
 11 12  1  0  0  0  0
 11 18  2  0  0  0  0
 12 13  1  0  0  0  0
 12 14  2  0  0  0  0
 14 15  1  0  0  0  0
 15 16  1  0  0  0  0
 15 17  2  0  0  0  0
 17 18  1  0  0  0  0
 18 19  1  0  0  0  0
 20 21  1  0  0  0  0
 21 22  2  0  0  0  0
 21 41  1  0  0  0  0
 23 22  1  6  0  0  0
 22 36  1  0  0  0  0
 23 24  1  0  0  0  0
 23 35  1  0  0  0  0
 24 25  1  6  0  0  0
 24 26  1  0  0  0  0
 26 27  1  0  0  0  0
 27 28  1  0  0  0  0
 27 34  2  0  0  0  0
 28 29  1  0  0  0  0
 28 30  2  0  0  0  0
 30 31  1  0  0  0  0
 31 32  1  0  0  0  0
 31 33  2  0  0  0  0
 33 34  1  0  0  0  0
 34 35  1  0  0  0  0
 36 37  2  0  0  0  0
 37 38  1  0  0  0  0
 37 39  1  0  0  0  0
 39 40  1  0  0  0  0
 39 41  2  0  0  0  0
M  END
>  <name>
O=C1C([O;ester])=CC([C@@H]2[C@H](O)Cc3c(O)cc(O)cc3O2)=Cc2c([C@@H]3[C@H](O)Cc4c(O)cc(O)cc4O3)cc(O)c([O;ester])c12

>  <apo>
2

>  <freq>
1

>  <freq0>
0

>  <freq1>
1

>  <freqA>
0.9949851

$$$$

  MOE2015           2D

 27 29  0  0  0  0  0  0  0  0999 V2000
    1.8850   -2.3850    0.0000 O   0  0  0  0  0  0  0  0  0  0  0  0
    3.0510   -1.4410    0.0000 C   0  0  0  0  0  0  0  0  0  0  0  0
    2.9730    0.0570    0.0000 C   0  0  0  0  0  0  0  0  0  0  0  0
    1.7150    0.8740    0.0000 C   0  0  0  0  0  0  0  0  0  0  0  0
    0.3780    0.1930    0.0000 C   0  0  0  0  0  0  0  0  0  0  0  0
    0.3000   -1.3050    0.0000 O   0  0  0  0  0  0  0  0  0  0  0  0
   -0.8800    1.0100    0.0000 C   0  0  0  0  0  0  0  0  0  0  0  0
   -0.8010    2.5080    0.0000 C   0  0  0  0  0  0  0  0  0  0  0  0
   -2.0590    3.3240    0.0000 O   0  0  0  0  0  0  0  0  0  0  0  0
    0.5350    3.1890    0.0000 C   0  0  0  0  0  0  0  0  0  0  0  0
    0.6140    4.6860    0.0000 C   0  0  0  0  0  0  0  0  0  0  0  0
   -0.6440    5.5030    0.0000 C   0  0  0  0  0  0  0  0  0  0  0  0
    1.7930    2.3720    0.0000 C   0  0  0  0  0  0  0  0  0  0  0  0
    4.3730    0.5940    0.0000 C   0  0  0  0  0  0  0  0  0  0  0  0
    4.7610    2.0430    0.0000 O   0  0  0  0  0  0  0  0  0  0  0  0
    5.3170   -0.5720    0.0000 C   0  0  0  0  0  0  0  0  0  0  0  0
    6.8150   -0.4930    0.0000 C   0  0  0  0  0  0  0  0  0  0  0  0
    7.4960    0.8430    0.0000 C   0  0  0  0  0  0  0  0  0  0  0  0
    8.9940    0.9220    0.0000 C   0  0  0  0  0  0  0  0  0  0  0  0
    9.6750    2.2590    0.0000 C   0  0  0  0  0  0  0  0  0  0  0  0
   11.1730    2.3370    0.0000 C   0  0  0  0  0  0  0  0  0  0  0  0
   11.9900    1.0790    0.0000 C   0  0  0  0  0  0  0  0  0  0  0  0
    8.8580    3.5170    0.0000 C   0  0  0  0  0  0  0  0  0  0  0  0
    9.5390    4.8530    0.0000 O   0  0  0  0  0  0  0  0  0  0  0  0
    7.3600    3.4380    0.0000 C   0  0  0  0  0  0  0  0  0  0  0  0
    6.6790    2.1010    0.0000 C   0  0  0  0  0  0  0  0  0  0  0  0
    4.5000   -1.8300    0.0000 O   0  0  0  0  0  0  0  0  0  0  0  0
  1  2  2  0  0  0  0
  2  3  1  0  0  0  0
  2 27  1  0  0  0  0
  3  4  1  0  0  0  0
  3 14  2  0  0  0  0
  4  5  1  0  0  0  0
  4 13  2  0  0  0  0
  5  6  1  0  0  0  0
  5  7  2  0  0  0  0
  7  8  1  0  0  0  0
  8  9  1  0  0  0  0
  8 10  2  0  0  0  0
 10 11  1  0  0  0  0
 10 13  1  0  0  0  0
 11 12  1  0  0  0  0
 14 15  1  0  0  0  0
 14 16  1  0  0  0  0
 16 17  2  0  0  0  0
 16 27  1  0  0  0  0
 17 18  1  0  0  0  0
 18 19  1  0  0  0  0
 18 26  2  0  0  0  0
 19 20  2  0  0  0  0
 20 21  1  0  0  0  0
 20 23  1  0  0  0  0
 21 22  1  0  0  0  0
 23 24  1  0  0  0  0
 23 25  2  0  0  0  0
 25 26  1  0  0  0  0
M  END
>  <name>
O=C1C(c2c(O)cc(O)c(C[C;olefin])c2)=C(O)/C(=C\c2cc(C[C;olefin])c(O)cc2)/O1

>  <apo>
2

>  <freq>
1

>  <freq0>
0

>  <freq1>
1

>  <freqA>
0.9949851

$$$$

  MOE2015           2D

 30 33  0  0  0  0  0  0  0  0999 V2000
    2.3190    6.4600    0.0000 O   0  0  0  0  0  0  0  0  0  0  0  0
    3.4770    5.5060    0.0000 C   0  0  0  0  0  0  0  0  0  0  0  0
    3.3850    4.0090    0.0000 C   0  0  0  0  0  0  0  0  0  0  0  0
    2.1200    3.2030    0.0000 C   0  0  0  0  0  0  0  0  0  0  0  0
    0.7900    3.8950    0.0000 C   0  0  0  0  0  0  0  0  0  0  0  0
    0.7240    5.3940    0.0000 O   0  0  0  0  0  0  0  0  0  0  0  0
   -0.4750    3.0890    0.0000 C   0  0  0  0  0  0  0  0  0  0  0  0
   -0.4100    1.5910    0.0000 C   0  0  0  0  0  0  0  0  0  0  0  0
   -1.6750    0.7850    0.0000 O   0  0  0  0  0  0  0  0  0  0  0  0
   -1.6090   -0.7140    0.0000 C   0  0  0  0  0  0  0  0  0  0  0  0
   -3.1080   -0.7800    0.0000 C   0  0  0  0  0  0  0  0  0  0  0  0
   -2.3020   -2.0450    0.0000 C   0  0  0  0  0  0  0  0  0  0  0  0
   -0.2790   -1.4060    0.0000 C   0  0  0  0  0  0  0  0  0  0  0  0
    0.9860   -0.6000    0.0000 C   0  0  0  0  0  0  0  0  0  0  0  0
    0.9210    0.8980    0.0000 C   0  0  0  0  0  0  0  0  0  0  0  0
    2.1860    1.7040    0.0000 C   0  0  0  0  0  0  0  0  0  0  0  0
    4.7810    3.4590    0.0000 C   0  0  0  0  0  0  0  0  0  0  0  0
    5.1570    2.0070    0.0000 O   0  0  0  0  0  0  0  0  0  0  0  0
    5.7350    4.6170    0.0000 C   0  0  0  0  0  0  0  0  0  0  0  0
    7.2320    4.5260    0.0000 C   0  0  0  0  0  0  0  0  0  0  0  0
    7.9020    3.1830    0.0000 C   0  0  0  0  0  0  0  0  0  0  0  0
    9.3990    3.0920    0.0000 C   0  0  0  0  0  0  0  0  0  0  0  0
   10.0680    1.7490    0.0000 C   0  0  0  0  0  0  0  0  0  0  0  0
   11.5650    1.6580    0.0000 C   0  0  0  0  0  0  0  0  0  0  0  0
   12.3930    2.9090    0.0000 C   0  0  0  0  0  0  0  0  0  0  0  0
    9.2400    0.4990    0.0000 C   0  0  0  0  0  0  0  0  0  0  0  0
    9.9100   -0.8440    0.0000 O   0  0  0  0  0  0  0  0  0  0  0  0
    7.7430    0.5900    0.0000 C   0  0  0  0  0  0  0  0  0  0  0  0
    7.0740    1.9320    0.0000 C   0  0  0  0  0  0  0  0  0  0  0  0
    4.9290    5.8820    0.0000 O   0  0  0  0  0  0  0  0  0  0  0  0
  1  2  2  0  0  0  0
  2  3  1  0  0  0  0
  2 30  1  0  0  0  0
  3  4  1  0  0  0  0
  3 17  2  0  0  0  0
  4  5  1  0  0  0  0
  4 16  2  0  0  0  0
  5  6  1  0  0  0  0
  5  7  2  0  0  0  0
  7  8  1  0  0  0  0
  8  9  1  0  0  0  0
  8 15  2  0  0  0  0
  9 10  1  0  0  0  0
 10 11  1  0  0  0  0
 10 12  1  0  0  0  0
 10 13  1  0  0  0  0
 13 14  1  0  0  0  0
 14 15  1  0  0  0  0
 15 16  1  0  0  0  0
 17 18  1  0  0  0  0
 17 19  1  0  0  0  0
 19 20  2  0  0  0  0
 19 30  1  0  0  0  0
 20 21  1  0  0  0  0
 21 22  1  0  0  0  0
 21 29  2  0  0  0  0
 22 23  2  0  0  0  0
 23 24  1  0  0  0  0
 23 26  1  0  0  0  0
 24 25  1  0  0  0  0
 26 27  1  0  0  0  0
 26 28  2  0  0  0  0
 28 29  1  0  0  0  0
M  END
>  <name>
O=C1C(c2c(O)cc3OC(C)(C)CCc3c2)=C(O)/C(=C\c2cc(C[C;olefin])c(O)cc2)/O1

>  <apo>
1

>  <freq>
1

>  <freq0>
0

>  <freq1>
1

>  <freqA>
0.9949851

$$$$

  MOE2015           2D

 27 30  0  0  0  0  0  0  0  0999 V2000
    4.8110    2.7780    0.0000 O   0  0  0  0  0  0  0  0  0  0  0  0
    4.0610    1.4790    0.0000 C   0  0  0  0  0  0  0  0  0  0  0  0
    4.8110    0.1800    0.0000 C   0  0  0  0  0  0  0  0  0  0  0  0
    6.3110    0.1800    0.0000 C   0  0  0  0  0  0  0  0  0  0  0  0
    7.0610   -1.1190    0.0000 C   0  0  0  0  0  0  0  0  0  0  0  0
    8.5610   -1.1190    0.0000 C   0  0  0  0  0  0  0  0  0  0  0  0
    9.3110    0.1800    0.0000 C   0  0  0  0  0  0  0  0  0  0  0  0
   10.8110    0.1800    0.0000 O   0  0  0  0  0  0  0  0  0  0  0  0
    8.5610    1.4790    0.0000 C   0  0  0  0  0  0  0  0  0  0  0  0
    7.0610    1.4790    0.0000 C   0  0  0  0  0  0  0  0  0  0  0  0
    4.0610   -1.1190    0.0000 C   0  0  0  0  0  0  0  0  0  0  0  0
    2.5610   -1.1190    0.0000 O   0  0  0  0  0  0  0  0  0  0  0  0
    1.8110    0.1800    0.0000 C   0  0  0  0  0  0  0  0  0  0  0  0
    2.5610    1.4790    0.0000 C   0  0  0  0  0  0  0  0  0  0  0  0
    1.8110    2.7780    0.0000 C   0  0  0  0  0  0  0  0  0  0  0  0
    2.5610    4.0770    0.0000 O   0  0  0  0  0  0  0  0  0  0  0  0
    0.3110    2.7780    0.0000 C   0  0  0  0  0  0  0  0  0  0  0  0
   -0.4390    4.0770    0.0000 C   0  0  0  0  0  0  0  0  0  0  0  0
    0.3110    5.3760    0.0000 C   0  0  0  0  0  0  0  0  0  0  0  0
   -0.4390    1.4790    0.0000 C   0  0  0  0  0  0  0  0  0  0  0  0
   -1.9390    1.4790    0.0000 O   0  0  0  0  0  0  0  0  0  0  0  0
   -2.6890    0.1800    0.0000 C   0  0  0  0  0  0  0  0  0  0  0  0
   -3.9880   -0.5700    0.0000 C   0  0  0  0  0  0  0  0  0  0  0  0
   -3.9880    0.9300    0.0000 C   0  0  0  0  0  0  0  0  0  0  0  0
   -1.9390   -1.1190    0.0000 C   0  0  0  0  0  0  0  0  0  0  0  0
   -0.4390   -1.1190    0.0000 C   0  0  0  0  0  0  0  0  0  0  0  0
    0.3110    0.1800    0.0000 C   0  0  0  0  0  0  0  0  0  0  0  0
  1  2  2  0  0  0  0
  2  3  1  0  0  0  0
  2 14  1  0  0  0  0
  3  4  1  0  0  0  0
  3 11  2  0  0  0  0
  4  5  1  0  0  0  0
  4 10  2  0  0  0  0
  5  6  2  0  0  0  0
  6  7  1  0  0  0  0
  7  8  1  0  0  0  0
  7  9  2  0  0  0  0
  9 10  1  0  0  0  0
 11 12  1  0  0  0  0
 12 13  1  0  0  0  0
 13 14  1  0  0  0  0
 13 27  2  0  0  0  0
 14 15  2  0  0  0  0
 15 16  1  0  0  0  0
 15 17  1  0  0  0  0
 17 18  1  0  0  0  0
 17 20  2  0  0  0  0
 18 19  1  0  0  0  0
 20 21  1  0  0  0  0
 20 27  1  0  0  0  0
 21 22  1  0  0  0  0
 22 23  1  0  0  0  0
 22 24  1  0  0  0  0
 22 25  1  0  0  0  0
 25 26  2  0  0  0  0
 26 27  1  0  0  0  0
M  END
>  <name>
O=C1C(c2ccc(O)cc2)=COc2c1c(O)c(C[C;olefin])c1OC(C)(C)C=Cc21

>  <apo>
1

>  <freq>
1

>  <freq0>
0

>  <freq1>
1

>  <freqA>
0.9949851

$$$$

  MOE2015           2D

  9  9  0  0  0  0  0  0  0  0999 V2000
    5.5980   -1.5000    0.0000 O   0  0  0  0  0  0  0  0  0  0  0  0
    4.2990   -0.7500    0.0000 C   0  0  0  0  0  0  0  0  0  0  0  0
    4.2990    0.7500    0.0000 C   0  0  0  0  0  0  0  0  0  0  0  0
    3.0000    1.5000    0.0000 C   0  0  0  0  0  0  0  0  0  0  0  0
    3.0000    3.0000    0.0000 O   0  0  0  0  0  0  0  0  0  0  0  0
    1.7010    0.7500    0.0000 O   0  0  0  0  0  0  0  0  0  0  0  0
    1.7010   -0.7500    0.0000 C   0  0  0  0  0  0  0  0  0  0  0  0
    0.4020   -1.5000    0.0000 C   0  0  0  0  0  0  0  0  0  0  0  0
    3.0000   -1.5000    0.0000 C   0  0  0  0  0  0  0  0  0  0  0  0
  1  2  2  0  0  0  0
  2  3  1  0  0  0  0
  2  9  1  0  0  0  0
  3  4  2  0  0  0  0
  4  5  1  0  0  0  0
  4  6  1  0  0  0  0
  6  7  1  0  0  0  0
  7  8  1  0  0  0  0
  7  9  2  0  0  0  0
M  END
>  <name>
O=C1C=C(O)OC([C;olefin])=C1

>  <apo>
1

>  <freq>
1

>  <freq0>
0

>  <freq1>
1

>  <freqA>
0.9949851

$$$$

  MOE2015           2D

 30 33  0  0  1  0  0  0  0  0999 V2000
    0.0010   -0.2180    0.0000 O   0  0  0  0  0  0  0  0  0  0  0  0
    1.5010   -0.2080    0.0000 C   0  0  0  0  0  0  0  0  0  0  0  0
    2.2420    1.0960    0.0000 C   0  0  0  0  0  0  0  0  0  0  0  0
    3.7420    1.1060    0.0000 C   0  0  2  0  0  0  0  0  0  0  0  0
    4.4830    2.4100    0.0000 C   0  0  1  0  0  0  0  0  0  0  0  0
    3.7250    3.7040    0.0000 O   0  0  0  0  0  0  0  0  0  0  0  0
    5.9830    2.4200    0.0000 C   0  0  0  0  0  0  0  0  0  0  0  0
    6.7420    1.1260    0.0000 C   0  0  0  0  0  0  0  0  0  0  0  0
    8.2420    1.1360    0.0000 C   0  0  1  0  0  0  0  0  0  0  0  0
    7.6710    2.5230    0.0000 C   0  0  0  0  0  0  0  0  0  0  0  0
    9.0010   -0.1580    0.0000 C   0  0  1  0  0  0  0  0  0  0  0  0
    9.9110   -1.3500    0.0000 C   0  0  0  0  0  0  0  0  0  0  0  0
   10.4660    0.1640    0.0000 C   0  0  1  0  0  0  0  0  0  0  0  0
   11.5870   -0.8320    0.0000 C   0  0  1  0  0  0  0  0  0  0  0  0
   13.0100   -0.3590    0.0000 C   0  0  0  0  0  0  0  0  0  0  0  0
   14.1320   -1.3550    0.0000 C   0  0  0  0  0  0  0  0  0  0  0  0
   15.5550   -0.8820    0.0000 C   0  0  0  0  0  0  0  0  0  0  0  0
   16.6770   -1.8790    0.0000 C   0  0  0  0  0  0  0  0  0  0  0  0
   18.1000   -1.4050    0.0000 C   0  0  0  0  0  0  0  0  0  0  0  0
   16.3750   -3.3480    0.0000 C   0  0  0  0  0  0  0  0  0  0  0  0
   11.2850   -2.3020    0.0000 C   0  0  0  0  0  0  0  0  0  0  0  0
   10.6120    1.6570    0.0000 C   0  0  0  0  0  0  0  0  0  0  0  0
    9.2380    2.2580    0.0000 C   0  0  0  0  0  0  0  0  0  0  0  0
    8.2590   -1.4620    0.0000 C   0  0  0  0  0  0  0  0  0  0  0  0
    6.7590   -1.4720    0.0000 C   0  0  0  0  0  0  0  0  0  0  0  0
    6.0010   -0.1780    0.0000 C   0  0  0  0  0  0  0  0  0  0  0  0
    4.5010   -0.1880    0.0000 C   0  0  2  0  0  0  0  0  0  0  0  0
    5.3040   -1.4550    0.0000 C   0  0  0  0  0  0  0  0  0  0  0  0
    3.7590   -1.4920    0.0000 C   0  0  0  0  0  0  0  0  0  0  0  0
    2.2590   -1.5020    0.0000 C   0  0  0  0  0  0  0  0  0  0  0  0
  1  2  2  0  0  0  0
  2  3  1  0  0  0  0
  2 30  1  0  0  0  0
  4  3  1  6  0  0  0
  4  5  1  0  0  0  0
  4 27  1  0  0  0  0
  5  6  1  1  0  0  0
  5  7  1  0  0  0  0
  7  8  1  0  0  0  0
  8  9  1  0  0  0  0
  8 26  2  0  0  0  0
  9 10  1  1  0  0  0
  9 11  1  0  0  0  0
  9 23  1  0  0  0  0
 11 12  1  6  0  0  0
 11 13  1  0  0  0  0
 11 24  1  0  0  0  0
 13 14  1  0  0  0  0
 13 22  1  6  0  0  0
 14 15  1  0  0  0  0
 14 21  1  1  0  0  0
 15 16  1  0  0  0  0
 16 17  1  0  0  0  0
 17 18  1  0  0  0  0
 18 19  1  0  0  0  0
 18 20  1  0  0  0  0
 22 23  1  0  0  0  0
 24 25  1  0  0  0  0
 25 26  1  0  0  0  0
 26 27  1  0  0  0  0
 27 28  1  6  0  0  0
 27 29  1  0  0  0  0
 29 30  1  0  0  0  0
M  END
>  <name>
O=C1C[C@@H]2[C@@H]([O;ester])CC=3[C@@]4(C)[C@@](C)([C@@H]([C@@H](CCCC(C)C)C)CC4)CCC=3[C@@]2(C)CC1

>  <apo>
1

>  <freq>
1

>  <freq0>
0

>  <freq1>
1

>  <freqA>
0.9949851

$$$$

  MOE2015           2D

 27 30  0  0  1  0  0  0  0  0999 V2000
    1.4700    5.2660    0.0000 O   0  0  0  0  0  0  0  0  0  0  0  0
    2.7530    4.4900    0.0000 C   0  0  0  0  0  0  0  0  0  0  0  0
    4.0670    5.2130    0.0000 N   0  0  0  0  0  0  0  0  0  0  0  0
    4.0980    6.7120    0.0000 C   0  0  0  0  0  0  0  0  0  0  0  0
    5.3510    4.4360    0.0000 C   0  0  0  0  0  0  0  0  0  0  0  0
    5.3190    2.9360    0.0000 C   0  0  0  0  0  0  0  0  0  0  0  0
    6.4130    1.9100    0.0000 C   0  0  1  0  0  0  0  0  0  0  0  0
    5.7750    0.5520    0.0000 C   0  0  2  0  0  0  0  0  0  0  0  0
    4.2870    0.7400    0.0000 O   0  0  0  0  0  0  0  0  0  0  0  0
    4.0050    2.2130    0.0000 C   0  0  0  0  0  0  0  0  0  0  0  0
    2.7220    2.9900    0.0000 C   0  0  0  0  0  0  0  0  0  0  0  0
    1.4080    2.2670    0.0000 C   0  0  2  0  0  0  0  0  0  0  0  0
    2.6910    1.4900    0.0000 C   0  0  0  0  0  0  0  0  0  0  0  0
    0.6310    0.9840    0.0000 O   0  0  0  0  0  0  0  0  0  0  0  0
   -0.8690    1.0150    0.0000 C   0  0  2  0  0  0  0  0  0  0  0  0
   -0.9000   -0.4850    0.0000 C   0  0  0  0  0  0  0  0  0  0  0  0
    0.3830   -1.2610    0.0000 C   0  0  0  0  0  0  0  0  0  0  0  0
   -2.1830    0.2920    0.0000 C   0  0  0  0  0  0  0  0  0  0  0  0
   -1.5920    2.3290    0.0000 C   0  0  1  0  0  0  0  0  0  0  0  0
   -3.0910    2.3600    0.0000 C   0  0  0  0  0  0  0  0  0  0  0  0
   -0.8150    3.6120    0.0000 C   0  0  0  0  0  0  0  0  0  0  0  0
    0.6850    3.5810    0.0000 C   0  0  0  0  0  0  0  0  0  0  0  0
    6.6310   -0.6790    0.0000 C   0  0  0  0  0  0  0  0  0  0  0  0
    8.1260   -0.5530    0.0000 C   0  0  0  0  0  0  0  0  0  0  0  0
    8.9820   -1.7850    0.0000 O   0  0  0  0  0  0  0  0  0  0  0  0
    8.7640    0.8040    0.0000 C   0  0  0  0  0  0  0  0  0  0  0  0
    7.9080    2.0350    0.0000 C   0  0  0  0  0  0  0  0  0  0  0  0
  1  2  2  0  0  0  0
  2  3  1  0  0  0  0
  2 11  1  0  0  0  0
  3  4  1  0  0  0  0
  3  5  1  0  0  0  0
  5  6  2  0  0  0  0
  7  6  1  6  0  0  0
  6 10  1  0  0  0  0
  7  8  1  0  0  0  0
  7 27  1  0  0  0  0
  8  9  1  1  0  0  0
  8 23  1  0  0  0  0
  9 10  1  0  0  0  0
 10 11  2  0  0  0  0
 12 11  1  6  0  0  0
 12 13  1  1  0  0  0
 12 14  1  0  0  0  0
 12 22  1  0  0  0  0
 14 15  1  0  0  0  0
 15 16  1  1  0  0  0
 15 18  1  6  0  0  0
 15 19  1  0  0  0  0
 16 17  1  0  0  0  0
 19 20  1  1  0  0  0
 19 21  1  0  0  0  0
 21 22  1  0  0  0  0
 23 24  1  0  0  0  0
 24 25  2  0  0  0  0
 24 26  1  0  0  0  0
 26 27  1  0  0  0  0
M  END
>  <name>
O=C1N(C)C=C2[C@H;ether]3[C@H](OC2=C1[C@]1(C)O[C@]([C;olefin]C)(C)[C@@H](C)CC1)CC(=O)CC3

>  <apo>
2

>  <freq>
1

>  <freq0>
0

>  <freq1>
1

>  <freqA>
0.9949851

$$$$

  MOE2015           2D

 26 29  0  0  1  0  0  0  0  0999 V2000
    1.4180    5.1110    0.0000 O   0  0  0  0  0  0  0  0  0  0  0  0
    2.7040    4.3380    0.0000 C   0  0  0  0  0  0  0  0  0  0  0  0
    4.0160    5.0650    0.0000 N   0  0  0  0  0  0  0  0  0  0  0  0
    4.0420    6.5650    0.0000 C   0  0  0  0  0  0  0  0  0  0  0  0
    5.3010    4.2930    0.0000 C   0  0  0  0  0  0  0  0  0  0  0  0
    5.2750    2.7930    0.0000 C   0  0  0  0  0  0  0  0  0  0  0  0
    6.3720    1.7700    0.0000 C   0  0  1  0  0  0  0  0  0  0  0  0
    5.7370    0.4100    0.0000 C   0  0  2  0  0  0  0  0  0  0  0  0
    4.2490    0.5930    0.0000 O   0  0  0  0  0  0  0  0  0  0  0  0
    3.9630    2.0660    0.0000 C   0  0  0  0  0  0  0  0  0  0  0  0
    2.6770    2.8390    0.0000 C   0  0  0  0  0  0  0  0  0  0  0  0
    1.3650    2.1120    0.0000 C   0  0  2  0  0  0  0  0  0  0  0  0
    2.6510    1.3390    0.0000 C   0  0  0  0  0  0  0  0  0  0  0  0
    0.5920    0.8260    0.0000 O   0  0  0  0  0  0  0  0  0  0  0  0
   -0.9070    0.8520    0.0000 C   0  0  2  0  0  0  0  0  0  0  0  0
   -0.9340   -0.6470    0.0000 C   0  0  0  0  0  0  0  0  0  0  0  0
    0.3520   -1.4200    0.0000 C   0  0  0  0  0  0  0  0  0  0  0  0
   -2.2200    0.1250    0.0000 C   0  0  0  0  0  0  0  0  0  0  0  0
   -1.6340    2.1640    0.0000 C   0  0  2  0  0  0  0  0  0  0  0  0
   -3.1340    2.1910    0.0000 C   0  0  0  0  0  0  0  0  0  0  0  0
   -0.8620    3.4500    0.0000 C   0  0  0  0  0  0  0  0  0  0  0  0
    0.6380    3.4240    0.0000 C   0  0  0  0  0  0  0  0  0  0  0  0
    6.5980   -0.8190    0.0000 C   0  0  0  0  0  0  0  0  0  0  0  0
    8.0920   -0.6880    0.0000 C   0  0  0  0  0  0  0  0  0  0  0  0
    8.7260    0.6710    0.0000 C   0  0  0  0  0  0  0  0  0  0  0  0
    7.8660    1.9000    0.0000 C   0  0  0  0  0  0  0  0  0  0  0  0
  1  2  2  0  0  0  0
  2  3  1  0  0  0  0
  2 11  1  0  0  0  0
  3  4  1  0  0  0  0
  3  5  1  0  0  0  0
  5  6  2  0  0  0  0
  7  6  1  6  0  0  0
  6 10  1  0  0  0  0
  7  8  1  0  0  0  0
  7 26  1  0  0  0  0
  8  9  1  1  0  0  0
  8 23  1  0  0  0  0
  9 10  1  0  0  0  0
 10 11  2  0  0  0  0
 12 11  1  6  0  0  0
 12 13  1  1  0  0  0
 12 14  1  0  0  0  0
 12 22  1  0  0  0  0
 14 15  1  0  0  0  0
 15 16  1  1  0  0  0
 15 18  1  6  0  0  0
 15 19  1  0  0  0  0
 16 17  1  0  0  0  0
 19 20  1  6  0  0  0
 19 21  1  0  0  0  0
 21 22  1  0  0  0  0
 23 24  1  0  0  0  0
 24 25  1  0  0  0  0
 25 26  1  0  0  0  0
M  END
>  <name>
O=C1N(C)C=C2[C@H;ether]3[C@H](OC2=C1[C@]1(C)O[C@]([C;olefin]C)(C)[C@H](C)CC1)C[C;ether]CC3

>  <apo>
3

>  <freq>
1

>  <freq0>
0

>  <freq1>
1

>  <freqA>
0.9949851

$$$$

  MOE2015           2D

  8  8  0  0  0  0  0  0  0  0999 V2000
    5.4110   -0.8000    0.0000 O   0  0  0  0  0  0  0  0  0  0  0  0
    4.1120   -0.0500    0.0000 C   0  0  0  0  0  0  0  0  0  0  0  0
    2.8120   -0.8000    0.0000 N   0  0  0  0  0  0  0  0  0  0  0  0
    1.5130   -0.0500    0.0000 C   0  0  0  0  0  0  0  0  0  0  0  0
    0.2140   -0.8000    0.0000 O   0  0  0  0  0  0  0  0  0  0  0  0
    1.5130    1.4500    0.0000 C   0  0  0  0  0  0  0  0  0  0  0  0
    2.8120    2.2000    0.0000 C   0  0  0  0  0  0  0  0  0  0  0  0
    4.1120    1.4500    0.0000 C   0  0  0  0  0  0  0  0  0  0  0  0
  1  2  2  0  0  0  0
  2  3  1  0  0  0  0
  2  8  1  0  0  0  0
  3  4  1  0  0  0  0
  4  5  2  0  0  0  0
  4  6  1  0  0  0  0
  6  7  1  0  0  0  0
  7  8  1  0  0  0  0
M  END
>  <name>
O=C1NC(=O)CC[C;lactam]1

>  <apo>
1

>  <freq>
1

>  <freq0>
0

>  <freq1>
1

>  <freqA>
0.9949851

$$$$

  MOE2015           2D

 13 14  0  0  0  0  0  0  0  0999 V2000
    1.5700    3.9680    0.0000 O   0  0  0  0  0  0  0  0  0  0  0  0
    1.5700    2.4680    0.0000 C   0  0  0  0  0  0  0  0  0  0  0  0
    0.2710    1.7180    0.0000 N   0  0  0  0  0  0  0  0  0  0  0  0
    0.2710    0.2180    0.0000 C   0  0  0  0  0  0  0  0  0  0  0  0
   -1.0280   -0.5320    0.0000 N   0  0  0  0  0  0  0  0  0  0  0  0
    1.5700   -0.5320    0.0000 N   0  0  0  0  0  0  0  0  0  0  0  0
    2.8690    0.2180    0.0000 C   0  0  0  0  0  0  0  0  0  0  0  0
    4.1680   -0.5320    0.0000 N   0  0  0  0  0  0  0  0  0  0  0  0
    5.4670    0.2180    0.0000 C   0  0  0  0  0  0  0  0  0  0  0  0
    5.4670    1.7180    0.0000 C   0  0  0  0  0  0  0  0  0  0  0  0
    6.7660    2.4680    0.0000 C   0  0  0  0  0  0  0  0  0  0  0  0
    4.1680    2.4680    0.0000 N   0  0  0  0  0  0  0  0  0  0  0  0
    2.8690    1.7180    0.0000 C   0  0  0  0  0  0  0  0  0  0  0  0
  1  2  2  0  0  0  0
  2  3  1  0  0  0  0
  2 13  1  0  0  0  0
  3  4  1  0  0  0  0
  4  5  1  0  0  0  0
  4  6  2  0  0  0  0
  6  7  1  0  0  0  0
  7  8  1  0  0  0  0
  7 13  2  0  0  0  0
  8  9  2  0  0  0  0
  9 10  1  0  0  0  0
 10 11  1  0  0  0  0
 10 12  2  0  0  0  0
 12 13  1  0  0  0  0
M  END
>  <name>
O=C1NC(N)=Nc2ncc([C;amine])nc12

>  <apo>
1

>  <freq>
1

>  <freq0>
0

>  <freq1>
1

>  <freqA>
0.9949851

$$$$

  MOE2015           2D

  9  9  0  0  0  0  0  0  0  0999 V2000
    5.5980   -1.5000    0.0000 O   0  0  0  0  0  0  0  0  0  0  0  0
    4.2990   -0.7500    0.0000 C   0  0  0  0  0  0  0  0  0  0  0  0
    4.2990    0.7500    0.0000 O   0  0  0  0  0  0  0  0  0  0  0  0
    3.0000    1.5000    0.0000 C   0  0  0  0  0  0  0  0  0  0  0  0
    3.0000    3.0000    0.0000 C   0  0  0  0  0  0  0  0  0  0  0  0
    1.7010    0.7500    0.0000 C   0  0  0  0  0  0  0  0  0  0  0  0
    1.7010   -0.7500    0.0000 C   0  0  0  0  0  0  0  0  0  0  0  0
    0.4020   -1.5000    0.0000 O   0  0  0  0  0  0  0  0  0  0  0  0
    3.0000   -1.5000    0.0000 C   0  0  0  0  0  0  0  0  0  0  0  0
  1  2  2  0  0  0  0
  2  3  1  0  0  0  0
  2  9  1  0  0  0  0
  3  4  1  0  0  0  0
  4  5  1  0  0  0  0
  4  6  2  0  0  0  0
  6  7  1  0  0  0  0
  7  8  1  0  0  0  0
  7  9  2  0  0  0  0
M  END
>  <name>
O=C1OC([C;olefin])=CC(O)=C1

>  <apo>
1

>  <freq>
1

>  <freq0>
0

>  <freq1>
1

>  <freqA>
0.9949851

$$$$

  MOE2015           2D

 13 14  0  0  0  0  0  0  0  0999 V2000
    1.5700    3.9680    0.0000 O   0  0  0  0  0  0  0  0  0  0  0  0
    1.5700    2.4680    0.0000 C   0  0  0  0  0  0  0  0  0  0  0  0
    0.2710    1.7180    0.0000 O   0  0  0  0  0  0  0  0  0  0  0  0
    0.2710    0.2180    0.0000 C   0  0  0  0  0  0  0  0  0  0  0  0
   -1.0280   -0.5320    0.0000 C   0  0  0  0  0  0  0  0  0  0  0  0
    1.5700   -0.5320    0.0000 N   0  0  0  0  0  0  0  0  0  0  0  0
    2.8690    0.2180    0.0000 C   0  0  0  0  0  0  0  0  0  0  0  0
    2.8690    1.7180    0.0000 C   0  0  0  0  0  0  0  0  0  0  0  0
    4.1680    2.4680    0.0000 C   0  0  0  0  0  0  0  0  0  0  0  0
    5.4670    1.7180    0.0000 C   0  0  0  0  0  0  0  0  0  0  0  0
    6.7660    2.4680    0.0000 O   0  0  0  0  0  0  0  0  0  0  0  0
    5.4670    0.2180    0.0000 C   0  0  0  0  0  0  0  0  0  0  0  0
    4.1680   -0.5320    0.0000 C   0  0  0  0  0  0  0  0  0  0  0  0
  1  2  2  0  0  0  0
  2  3  1  0  0  0  0
  2  8  1  0  0  0  0
  3  4  1  0  0  0  0
  4  5  1  0  0  0  0
  4  6  2  0  0  0  0
  6  7  1  0  0  0  0
  7  8  1  0  0  0  0
  7 13  2  0  0  0  0
  8  9  2  0  0  0  0
  9 10  1  0  0  0  0
 10 11  1  0  0  0  0
 10 12  2  0  0  0  0
 12 13  1  0  0  0  0
M  END
>  <name>
O=C1OC([C;olefin])=Nc2c1cc(O)cc2

>  <apo>
1

>  <freq>
1

>  <freq0>
0

>  <freq1>
1

>  <freqA>
0.9949851

$$$$

  MOE2015           2D

 27 31  0  0  1  0  0  0  0  0999 V2000
   14.3580   -5.4760    0.0000 O   0  0  0  0  0  0  0  0  0  0  0  0
   13.2390   -4.4770    0.0000 C   0  0  0  0  0  0  0  0  0  0  0  0
   13.5450   -3.0090    0.0000 O   0  0  0  0  0  0  0  0  0  0  0  0
   12.4260   -2.0100    0.0000 C   0  0  0  0  0  0  0  0  0  0  0  0
   11.0010   -2.4790    0.0000 C   0  0  0  0  0  0  0  0  0  0  0  0
    9.8820   -1.4810    0.0000 C   0  0  2  0  0  0  0  0  0  0  0  0
    8.4160   -1.7990    0.0000 C   0  0  2  0  0  0  0  0  0  0  0  0
    9.2820   -3.0240    0.0000 C   0  0  0  0  0  0  0  0  0  0  0  0
    7.6610   -0.5030    0.0000 C   0  0  1  0  0  0  0  0  0  0  0  0
    7.0210    0.8540    0.0000 O   0  0  0  0  0  0  0  0  0  0  0  0
    6.1610   -0.5090    0.0000 C   0  0  1  0  0  0  0  0  0  0  0  0
    5.4160   -1.8120    0.0000 C   0  0  1  0  0  0  0  0  0  0  0  0
    3.9160   -1.8180    0.0000 C   0  0  2  0  0  0  0  0  0  0  0  0
    4.6720   -3.1140    0.0000 C   0  0  0  0  0  0  0  0  0  0  0  0
    3.1610   -0.5220    0.0000 C   0  0  0  0  0  0  0  0  0  0  0  0
    1.6610   -0.5290    0.0000 C   0  0  0  0  0  0  0  0  0  0  0  0
    0.9160   -1.8310    0.0000 C   0  0  0  0  0  0  0  0  0  0  0  0
    1.6720   -3.1270    0.0000 C   0  0  0  0  0  0  0  0  0  0  0  0
    3.1720   -3.1210    0.0000 C   0  0  0  0  0  0  0  0  0  0  0  0
    3.9050    0.7800    0.0000 C   0  0  0  0  0  0  0  0  0  0  0  0
    5.4050    0.7860    0.0000 C   0  0  0  0  0  0  0  0  0  0  0  0
    6.1720   -3.1080    0.0000 C   0  0  0  0  0  0  0  0  0  0  0  0
    7.6720   -3.1010    0.0000 C   0  0  0  0  0  0  0  0  0  0  0  0
    8.6600    0.6160    0.0000 C   0  0  0  0  0  0  0  0  0  0  0  0
   10.0320    0.0120    0.0000 C   0  0  0  0  0  0  0  0  0  0  0  0
   10.6960   -3.9480    0.0000 C   0  0  0  0  0  0  0  0  0  0  0  0
   11.8150   -4.9470    0.0000 C   0  0  0  0  0  0  0  0  0  0  0  0
  1  2  2  0  0  0  0
  2  3  1  0  0  0  0
  2 27  1  0  0  0  0
  3  4  1  0  0  0  0
  4  5  2  0  0  0  0
  6  5  1  6  0  0  0
  5 26  1  0  0  0  0
  6  7  1  0  0  0  0
  6 25  1  0  0  0  0
  7  8  1  6  0  0  0
  7  9  1  0  0  0  0
  7 23  1  0  0  0  0
  9 10  1  6  0  0  0
  9 11  1  0  0  0  0
  9 24  1  0  0  0  0
 11 12  1  0  0  0  0
 11 21  1  1  0  0  0
 12 13  1  0  0  0  0
 12 22  1  6  0  0  0
 13 14  1  6  0  0  0
 13 15  1  0  0  0  0
 13 19  1  0  0  0  0
 15 16  2  0  0  0  0
 15 20  1  0  0  0  0
 16 17  1  0  0  0  0
 17 18  1  0  0  0  0
 18 19  1  0  0  0  0
 20 21  1  0  0  0  0
 22 23  1  0  0  0  0
 24 25  1  0  0  0  0
 26 27  2  0  0  0  0
M  END
>  <name>
O=C1OC=C([C@@H]2[C@]3(C)[C@@](O)([C@H]4[C@@H]([C@]5(C)C(=C[C;ether]CC5)CC4)CC3)CC2)C=C1

>  <apo>
1

>  <freq>
1

>  <freq0>
0

>  <freq1>
1

>  <freqA>
0.9949851

$$$$

  MOE2015           2D

 16 18  0  0  1  0  0  0  0  0999 V2000
   12.2310    0.1900    0.0000 O   0  0  0  0  0  0  0  0  0  0  0  0
   10.7380    0.3360    0.0000 C   0  0  0  0  0  0  0  0  0  0  0  0
    9.9780    1.6290    0.0000 O   0  0  0  0  0  0  0  0  0  0  0  0
    8.5130    1.3060    0.0000 C   0  0  0  0  0  0  0  0  0  0  0  0
    8.3680   -0.1870    0.0000 C   0  0  3  0  0  0  0  0  0  0  0  0
    7.0740   -0.9460    0.0000 C   0  0  0  0  0  0  0  0  0  0  0  0
    5.7700   -0.2060    0.0000 C   0  0  0  0  0  0  0  0  0  0  0  0
    4.4760   -0.9660    0.0000 C   0  0  0  0  0  0  0  0  0  0  0  0
    3.1720   -0.2260    0.0000 C   0  0  0  0  0  0  0  0  0  0  0  0
    1.7490   -0.7000    0.0000 O   0  0  0  0  0  0  0  0  0  0  0  0
    0.8580    0.5070    0.0000 C   0  0  0  0  0  0  0  0  0  0  0  0
    1.7300    1.7270    0.0000 O   0  0  0  0  0  0  0  0  0  0  0  0
    3.1600    1.2740    0.0000 C   0  0  0  0  0  0  0  0  0  0  0  0
    4.4540    2.0340    0.0000 C   0  0  0  0  0  0  0  0  0  0  0  0
    5.7580    1.2940    0.0000 C   0  0  0  0  0  0  0  0  0  0  0  0
    9.7430   -0.7860    0.0000 C   0  0  0  0  0  0  0  0  0  0  0  0
  1  2  2  0  0  0  0
  2  3  1  0  0  0  0
  2 16  1  0  0  0  0
  3  4  1  0  0  0  0
  4  5  1  0  0  0  0
  5  6  1  0  0  0  0
  5 16  1  0  0  0  0
  6  7  1  0  0  0  0
  7  8  1  0  0  0  0
  7 15  2  0  0  0  0
  8  9  2  0  0  0  0
  9 10  1  0  0  0  0
  9 13  1  0  0  0  0
 10 11  1  0  0  0  0
 11 12  1  0  0  0  0
 12 13  1  0  0  0  0
 13 14  2  0  0  0  0
 14 15  1  0  0  0  0
M  END
>  <name>
O=C1OCC(Cc2cc3OCOc3cc2)[C;olefin]1

>  <apo>
1

>  <freq>
1

>  <freq0>
0

>  <freq1>
1

>  <freqA>
0.9949851

$$$$

  MOE2015           2D

 26 30  0  0  1  0  0  0  0  0999 V2000
   15.0100   -2.8790    0.0000 O   0  0  0  0  0  0  0  0  0  0  0  0
   13.5170   -2.7280    0.0000 C   0  0  0  0  0  0  0  0  0  0  0  0
   12.5180   -3.8470    0.0000 O   0  0  0  0  0  0  0  0  0  0  0  0
   11.1450   -3.2420    0.0000 C   0  0  0  0  0  0  0  0  0  0  0  0
   11.2960   -1.7500    0.0000 C   0  0  0  0  0  0  0  0  0  0  0  0
   10.1780   -0.7500    0.0000 C   0  0  2  0  0  0  0  0  0  0  0  0
    8.7120   -1.0680    0.0000 C   0  0  2  0  0  0  0  0  0  0  0  0
    9.5770   -2.2930    0.0000 C   0  0  0  0  0  0  0  0  0  0  0  0
    7.9570    0.2280    0.0000 C   0  0  1  0  0  0  0  0  0  0  0  0
    7.3170    1.5850    0.0000 O   0  0  0  0  0  0  0  0  0  0  0  0
    6.4570    0.2230    0.0000 C   0  0  1  0  0  0  0  0  0  0  0  0
    5.7120   -1.0790    0.0000 C   0  0  1  0  0  0  0  0  0  0  0  0
    4.2120   -1.0850    0.0000 C   0  0  2  0  0  0  0  0  0  0  0  0
    4.9670   -2.3810    0.0000 C   0  0  0  0  0  0  0  0  0  0  0  0
    3.4570    0.2110    0.0000 C   0  0  1  0  0  0  0  0  0  0  0  0
    4.2020    1.5130    0.0000 C   0  0  0  0  0  0  0  0  0  0  0  0
    5.7020    1.5190    0.0000 C   0  0  0  0  0  0  0  0  0  0  0  0
    1.9570    0.2050    0.0000 C   0  0  0  0  0  0  0  0  0  0  0  0
    1.2120   -1.0970    0.0000 C   0  0  0  0  0  0  0  0  0  0  0  0
    1.9670   -2.3930    0.0000 C   0  0  0  0  0  0  0  0  0  0  0  0
    3.4670   -2.3870    0.0000 C   0  0  0  0  0  0  0  0  0  0  0  0
    6.4670   -2.3750    0.0000 C   0  0  0  0  0  0  0  0  0  0  0  0
    7.9670   -2.3700    0.0000 C   0  0  0  0  0  0  0  0  0  0  0  0
    8.9560    1.3470    0.0000 C   0  0  0  0  0  0  0  0  0  0  0  0
   10.3290    0.7420    0.0000 C   0  0  0  0  0  0  0  0  0  0  0  0
   12.7620   -1.4320    0.0000 C   0  0  0  0  0  0  0  0  0  0  0  0
  1  2  2  0  0  0  0
  2  3  1  0  0  0  0
  2 26  1  0  0  0  0
  3  4  1  0  0  0  0
  4  5  1  0  0  0  0
  6  5  1  6  0  0  0
  5 26  2  0  0  0  0
  6  7  1  0  0  0  0
  6 25  1  0  0  0  0
  7  8  1  6  0  0  0
  7  9  1  0  0  0  0
  7 23  1  0  0  0  0
  9 10  1  6  0  0  0
  9 11  1  0  0  0  0
  9 24  1  0  0  0  0
 11 12  1  0  0  0  0
 11 17  1  1  0  0  0
 12 13  1  0  0  0  0
 12 22  1  6  0  0  0
 13 14  1  6  0  0  0
 13 15  1  0  0  0  0
 13 21  1  0  0  0  0
 15 16  1  6  0  0  0
 15 18  1  0  0  0  0
 16 17  1  0  0  0  0
 18 19  1  0  0  0  0
 19 20  1  0  0  0  0
 20 21  1  0  0  0  0
 22 23  1  0  0  0  0
 24 25  1  0  0  0  0
M  END
>  <name>
O=C1OCC([C@@H]2[C@]3(C)[C@@](O)([C@H]4[C@@H]([C@]5(C)[C@@H](CC4)C[C;ether]CC5)CC3)CC2)=C1

>  <apo>
1

>  <freq>
1

>  <freq0>
0

>  <freq1>
1

>  <freqA>
0.9949851

$$$$

  MOE2015           2D

 30 34  0  0  1  0  0  0  0  0999 V2000
   16.1530   -0.2720    0.0000 O   0  0  0  0  0  0  0  0  0  0  0  0
   14.6450   -0.2780    0.0000 C   0  0  0  0  0  0  0  0  0  0  0  0
   13.7800   -1.5040    0.0000 O   0  0  0  0  0  0  0  0  0  0  0  0
   12.3460   -1.0490    0.0000 C   0  0  0  0  0  0  0  0  0  0  0  0
   12.3140    0.4340    0.0000 C   0  0  0  0  0  0  0  0  0  0  0  0
   11.1210    1.3440    0.0000 C   0  0  2  0  0  0  0  0  0  0  0  0
    9.6710    1.0040    0.0000 C   0  0  2  0  0  0  0  0  0  0  0  0
   10.5290   -0.2220    0.0000 C   0  0  0  0  0  0  0  0  0  0  0  0
    8.8770    2.2840    0.0000 C   0  0  1  0  0  0  0  0  0  0  0  0
    8.2380    3.6440    0.0000 O   0  0  0  0  0  0  0  0  0  0  0  0
    7.3810    2.2510    0.0000 C   0  0  1  0  0  0  0  0  0  0  0  0
    6.6250    0.9480    0.0000 C   0  0  2  0  0  0  0  0  0  0  0  0
    7.4170   -0.3250    0.0000 C   0  0  2  0  0  0  0  0  0  0  0  0
    6.7420   -1.6710    0.0000 O   0  0  0  0  0  0  0  0  0  0  0  0
    8.9200   -0.2940    0.0000 C   0  0  0  0  0  0  0  0  0  0  0  0
    5.1060    0.9280    0.0000 C   0  0  1  0  0  0  0  0  0  0  0  0
    5.3760   -0.4950    0.0000 C   0  0  0  0  0  0  0  0  0  0  0  0
    4.0410   -1.4990    0.0000 O   0  0  0  0  0  0  0  0  0  0  0  0
    4.2880   -0.2790    0.0000 C   0  0  2  0  0  0  0  0  0  0  0  0
    5.3040   -1.4900    0.0000 O   0  0  0  0  0  0  0  0  0  0  0  0
    2.7760   -0.2740    0.0000 C   0  0  0  0  0  0  0  0  0  0  0  0
    2.0680    1.0560    0.0000 C   0  0  0  0  0  0  0  0  0  0  0  0
    2.8760    2.3020    0.0000 C   0  0  0  0  0  0  0  0  0  0  0  0
    4.3730    2.2740    0.0000 C   0  0  1  0  0  0  0  0  0  0  0  0
    3.6510    3.5760    0.0000 O   0  0  0  0  0  0  0  0  0  0  0  0
    5.1460    3.5460    0.0000 C   0  0  0  0  0  0  0  0  0  0  0  0
    6.6230    3.5540    0.0000 C   0  0  0  0  0  0  0  0  0  0  0  0
    9.8650    3.4210    0.0000 C   0  0  0  0  0  0  0  0  0  0  0  0
   11.2320    2.8670    0.0000 C   0  0  0  0  0  0  0  0  0  0  0  0
   13.7590    0.9220    0.0000 C   0  0  0  0  0  0  0  0  0  0  0  0
  1  2  2  0  0  0  0
  2  3  1  0  0  0  0
  2 30  1  0  0  0  0
  3  4  1  0  0  0  0
  4  5  1  0  0  0  0
  6  5  1  6  0  0  0
  5 30  2  0  0  0  0
  6  7  1  0  0  0  0
  6 29  1  0  0  0  0
  7  8  1  6  0  0  0
  7  9  1  0  0  0  0
  7 15  1  0  0  0  0
  9 10  1  6  0  0  0
  9 11  1  0  0  0  0
  9 28  1  0  0  0  0
 11 12  1  0  0  0  0
 11 27  1  1  0  0  0
 12 13  1  6  0  0  0
 12 16  1  0  0  0  0
 13 14  1  1  0  0  0
 13 15  1  0  0  0  0
 16 17  1  6  0  0  0
 16 19  1  0  0  0  0
 16 24  1  0  0  0  0
 17 18  1  0  0  0  0
 19 20  1  6  0  0  0
 19 21  1  0  0  0  0
 21 22  1  0  0  0  0
 22 23  1  0  0  0  0
 23 24  1  0  0  0  0
 24 25  1  1  0  0  0
 24 26  1  0  0  0  0
 26 27  1  0  0  0  0
 28 29  1  0  0  0  0
M  END
>  <name>
O=C1OCC([C@@H]2[C@]3(C)[C@@](O)([C@H]4[C@H]([C@H](O)C3)[C@@]3(CO)[C@H](O)C[C;ether]C[C@]3(O)CC4)CC2)=C1

>  <apo>
1

>  <freq>
1

>  <freq0>
0

>  <freq1>
1

>  <freqA>
0.9949851

$$$$

  MOE2015           2D

 27 31  0  0  1  0  0  0  0  0999 V2000
   14.7200   -3.0850    0.0000 O   0  0  0  0  0  0  0  0  0  0  0  0
   13.2270   -2.9330    0.0000 C   0  0  0  0  0  0  0  0  0  0  0  0
   12.2280   -4.0520    0.0000 O   0  0  0  0  0  0  0  0  0  0  0  0
   10.8550   -3.4470    0.0000 C   0  0  0  0  0  0  0  0  0  0  0  0
   11.0070   -1.9540    0.0000 C   0  0  0  0  0  0  0  0  0  0  0  0
    9.8880   -0.9550    0.0000 C   0  0  1  0  0  0  0  0  0  0  0  0
   10.0390    0.5380    0.0000 C   0  0  1  0  0  0  0  0  0  0  0  0
   11.3360    1.2920    0.0000 O   0  0  0  0  0  0  0  0  0  0  0  0
    8.6670    1.1430    0.0000 C   0  0  0  0  0  0  0  0  0  0  0  0
    7.6670    0.0240    0.0000 C   0  0  1  0  0  0  0  0  0  0  0  0
    7.0280    1.3810    0.0000 O   0  0  0  0  0  0  0  0  0  0  0  0
    8.4220   -1.2720    0.0000 C   0  0  1  0  0  0  0  0  0  0  0  0
    9.2870   -2.4970    0.0000 C   0  0  0  0  0  0  0  0  0  0  0  0
    7.6770   -2.5740    0.0000 C   0  0  0  0  0  0  0  0  0  0  0  0
    6.1770   -2.5790    0.0000 C   0  0  0  0  0  0  0  0  0  0  0  0
    5.4220   -1.2830    0.0000 C   0  0  2  0  0  0  0  0  0  0  0  0
    3.9220   -1.2880    0.0000 C   0  0  2  0  0  0  0  0  0  0  0  0
    4.6770   -2.5850    0.0000 C   0  0  0  0  0  0  0  0  0  0  0  0
    3.1670    0.0080    0.0000 C   0  0  1  0  0  0  0  0  0  0  0  0
    3.9130    1.3100    0.0000 C   0  0  0  0  0  0  0  0  0  0  0  0
    5.4130    1.3150    0.0000 C   0  0  0  0  0  0  0  0  0  0  0  0
    6.1670    0.0190    0.0000 C   0  0  1  0  0  0  0  0  0  0  0  0
    1.6670    0.0020    0.0000 C   0  0  0  0  0  0  0  0  0  0  0  0
    0.9220   -1.2990    0.0000 C   0  0  0  0  0  0  0  0  0  0  0  0
    1.6770   -2.5960    0.0000 C   0  0  0  0  0  0  0  0  0  0  0  0
    3.1770   -2.5900    0.0000 C   0  0  0  0  0  0  0  0  0  0  0  0
   12.4730   -1.6370    0.0000 C   0  0  0  0  0  0  0  0  0  0  0  0
  1  2  2  0  0  0  0
  2  3  1  0  0  0  0
  2 27  1  0  0  0  0
  3  4  1  0  0  0  0
  4  5  1  0  0  0  0
  6  5  1  6  0  0  0
  5 27  2  0  0  0  0
  6  7  1  0  0  0  0
  6 12  1  0  0  0  0
  7  8  1  6  0  0  0
  7  9  1  0  0  0  0
  9 10  1  0  0  0  0
 10 11  1  6  0  0  0
 10 12  1  0  0  0  0
 10 22  1  0  0  0  0
 12 13  1  6  0  0  0
 12 14  1  0  0  0  0
 14 15  1  0  0  0  0
 16 15  1  6  0  0  0
 16 17  1  0  0  0  0
 16 22  1  0  0  0  0
 17 18  1  6  0  0  0
 17 19  1  0  0  0  0
 17 26  1  0  0  0  0
 19 20  1  6  0  0  0
 19 23  1  0  0  0  0
 20 21  1  0  0  0  0
 22 21  1  1  0  0  0
 23 24  1  0  0  0  0
 24 25  1  0  0  0  0
 25 26  1  0  0  0  0
M  END
>  <name>
O=C1OCC([C@H]2[C@@H]([O;ester])C[C@@]3(O)[C@]2(C)CC[C@@H]2[C@]4(C)[C@@H](CC[C@@H]32)C[C;ether]CC4)=C1

>  <apo>
2

>  <freq>
1

>  <freq0>
0

>  <freq1>
1

>  <freqA>
0.9949851

$$$$

  MOE2015           2D

  7  7  0  0  1  0  0  0  0  0999 V2000
    0.3090   -1.5080    0.0000 O   0  0  0  0  0  0  0  0  0  0  0  0
    1.5670   -0.6910    0.0000 C   0  0  0  0  0  0  0  0  0  0  0  0
    1.6450    0.8070    0.0000 O   0  0  0  0  0  0  0  0  0  0  0  0
    3.0940    1.1950    0.0000 C   0  0  0  0  0  0  0  0  0  0  0  0
    3.9110   -0.0630    0.0000 C   0  0  1  0  0  0  0  0  0  0  0  0
    5.4090   -0.1420    0.0000 O   0  0  0  0  0  0  0  0  0  0  0  0
    2.9670   -1.2290    0.0000 C   0  0  0  0  0  0  0  0  0  0  0  0
  1  2  2  0  0  0  0
  2  3  1  0  0  0  0
  2  7  1  0  0  0  0
  3  4  1  0  0  0  0
  4  5  1  0  0  0  0
  5  6  1  1  0  0  0
  5  7  1  0  0  0  0
M  END
>  <name>
O=C1OC[C@@H](O)[C;olefin]1

>  <apo>
1

>  <freq>
1

>  <freq0>
0

>  <freq1>
1

>  <freqA>
0.9949851

$$$$

  MOE2015           2D

 16 18  0  0  1  0  0  0  0  0999 V2000
   12.2310    0.1900    0.0000 O   0  0  0  0  0  0  0  0  0  0  0  0
   10.7380    0.3360    0.0000 C   0  0  0  0  0  0  0  0  0  0  0  0
    9.9780    1.6290    0.0000 O   0  0  0  0  0  0  0  0  0  0  0  0
    8.5130    1.3060    0.0000 C   0  0  0  0  0  0  0  0  0  0  0  0
    8.3680   -0.1870    0.0000 C   0  0  2  0  0  0  0  0  0  0  0  0
    7.0740   -0.9460    0.0000 C   0  0  0  0  0  0  0  0  0  0  0  0
    5.7700   -0.2060    0.0000 C   0  0  0  0  0  0  0  0  0  0  0  0
    4.4760   -0.9660    0.0000 C   0  0  0  0  0  0  0  0  0  0  0  0
    3.1720   -0.2260    0.0000 C   0  0  0  0  0  0  0  0  0  0  0  0
    1.7490   -0.7000    0.0000 O   0  0  0  0  0  0  0  0  0  0  0  0
    0.8580    0.5070    0.0000 C   0  0  0  0  0  0  0  0  0  0  0  0
    1.7300    1.7270    0.0000 O   0  0  0  0  0  0  0  0  0  0  0  0
    3.1600    1.2740    0.0000 C   0  0  0  0  0  0  0  0  0  0  0  0
    4.4540    2.0340    0.0000 C   0  0  0  0  0  0  0  0  0  0  0  0
    5.7580    1.2940    0.0000 C   0  0  0  0  0  0  0  0  0  0  0  0
    9.7430   -0.7860    0.0000 C   0  0  0  0  0  0  0  0  0  0  0  0
  1  2  2  0  0  0  0
  2  3  1  0  0  0  0
  2 16  1  0  0  0  0
  3  4  1  0  0  0  0
  4  5  1  0  0  0  0
  5  6  1  1  0  0  0
  5 16  1  0  0  0  0
  6  7  1  0  0  0  0
  7  8  1  0  0  0  0
  7 15  2  0  0  0  0
  8  9  2  0  0  0  0
  9 10  1  0  0  0  0
  9 13  1  0  0  0  0
 10 11  1  0  0  0  0
 11 12  1  0  0  0  0
 12 13  1  0  0  0  0
 13 14  2  0  0  0  0
 14 15  1  0  0  0  0
M  END
>  <name>
O=C1OC[C@H](Cc2cc3OCOc3cc2)[C;olefin]1

>  <apo>
1

>  <freq>
1

>  <freq0>
0

>  <freq1>
1

>  <freqA>
0.9949851

$$$$

  MOE2015           2D

 22 25  0  0  0  0  0  0  0  0999 V2000
    5.6250    3.2480    0.0000 O   0  0  0  0  0  0  0  0  0  0  0  0
    4.8750    1.9490    0.0000 C   0  0  0  0  0  0  0  0  0  0  0  0
    3.3750    1.9490    0.0000 O   0  0  0  0  0  0  0  0  0  0  0  0
    2.6250    0.6500    0.0000 C   0  0  0  0  0  0  0  0  0  0  0  0
    1.1250    0.6500    0.0000 C   0  0  0  0  0  0  0  0  0  0  0  0
    0.3750    1.9490    0.0000 O   0  0  0  0  0  0  0  0  0  0  0  0
    0.3750   -0.6490    0.0000 C   0  0  0  0  0  0  0  0  0  0  0  0
   -1.1250   -0.6490    0.0000 O   0  0  0  0  0  0  0  0  0  0  0  0
    1.1250   -1.9480    0.0000 C   0  0  0  0  0  0  0  0  0  0  0  0
    2.6250   -1.9480    0.0000 C   0  0  0  0  0  0  0  0  0  0  0  0
    3.3750   -3.2470    0.0000 C   0  0  0  0  0  0  0  0  0  0  0  0
    2.6250   -4.5460    0.0000 O   0  0  0  0  0  0  0  0  0  0  0  0
    4.8750   -3.2470    0.0000 O   0  0  0  0  0  0  0  0  0  0  0  0
    5.6250   -1.9480    0.0000 C   0  0  0  0  0  0  0  0  0  0  0  0
    7.1250   -1.9480    0.0000 C   0  0  0  0  0  0  0  0  0  0  0  0
    7.8750   -3.2470    0.0000 O   0  0  0  0  0  0  0  0  0  0  0  0
    7.8750   -0.6490    0.0000 C   0  0  0  0  0  0  0  0  0  0  0  0
    9.3750   -0.6490    0.0000 O   0  0  0  0  0  0  0  0  0  0  0  0
    7.1250    0.6500    0.0000 C   0  0  0  0  0  0  0  0  0  0  0  0
    5.6250    0.6500    0.0000 C   0  0  0  0  0  0  0  0  0  0  0  0
    4.8750   -0.6490    0.0000 C   0  0  0  0  0  0  0  0  0  0  0  0
    3.3750   -0.6490    0.0000 C   0  0  0  0  0  0  0  0  0  0  0  0
  1  2  2  0  0  0  0
  2  3  1  0  0  0  0
  2 20  1  0  0  0  0
  3  4  1  0  0  0  0
  4  5  1  0  0  0  0
  4 22  2  0  0  0  0
  5  6  1  0  0  0  0
  5  7  2  0  0  0  0
  7  8  1  0  0  0  0
  7  9  1  0  0  0  0
  9 10  2  0  0  0  0
 10 11  1  0  0  0  0
 10 22  1  0  0  0  0
 11 12  2  0  0  0  0
 11 13  1  0  0  0  0
 13 14  1  0  0  0  0
 14 15  1  0  0  0  0
 14 21  2  0  0  0  0
 15 16  1  0  0  0  0
 15 17  2  0  0  0  0
 17 18  1  0  0  0  0
 17 19  1  0  0  0  0
 19 20  2  0  0  0  0
 20 21  1  0  0  0  0
 21 22  1  0  0  0  0
M  END
>  <name>
O=C1Oc2c(O)c(O)[c;biphenyl]c3C(=O)Oc4c(O)c(O)[c;biphenyl]c1c4-c23

>  <apo>
2

>  <freq>
1

>  <freq0>
0

>  <freq1>
1

>  <freqA>
0.9949851

$$$$

  MOE2015           2D

 32 36  0  0  1  0  0  0  0  0999 V2000
    0.0330   -3.5330    0.0000 O   0  0  0  0  0  0  0  0  0  0  0  0
    1.3320   -2.7830    0.0000 C   0  0  0  0  0  0  0  0  0  0  0  0
    1.3320   -1.2830    0.0000 O   0  0  0  0  0  0  0  0  0  0  0  0
    2.6310   -0.5330    0.0000 C   0  0  0  0  0  0  0  0  0  0  0  0
    3.9300   -1.2830    0.0000 C   0  0  0  0  0  0  0  0  0  0  0  0
    3.9300   -2.7830    0.0000 C   0  0  1  0  0  0  0  0  0  0  0  0
    5.2290   -3.5330    0.0000 C   0  0  0  0  0  0  0  0  0  0  0  0
    6.5280   -2.7830    0.0000 C   0  0  0  0  0  0  0  0  0  0  0  0
    7.8270   -3.5330    0.0000 C   0  0  0  0  0  0  0  0  0  0  0  0
    7.8270   -5.0330    0.0000 C   0  0  0  0  0  0  0  0  0  0  0  0
    9.1260   -5.7830    0.0000 O   0  0  0  0  0  0  0  0  0  0  0  0
    6.5280   -5.7830    0.0000 C   0  0  0  0  0  0  0  0  0  0  0  0
    5.2290   -5.0330    0.0000 C   0  0  0  0  0  0  0  0  0  0  0  0
    2.6310   -3.5330    0.0000 C   0  0  0  0  0  0  0  0  0  0  0  0
    5.2290   -0.5330    0.0000 C   0  0  0  0  0  0  0  0  0  0  0  0
    6.5280   -1.2830    0.0000 O   0  0  0  0  0  0  0  0  0  0  0  0
    7.8270   -0.5330    0.0000 C   0  0  1  0  0  0  0  0  0  0  0  0
    7.8270    0.9670    0.0000 C   0  0  2  0  0  0  0  0  0  0  0  0
    9.1260    1.7170    0.0000 O   0  0  0  0  0  0  0  0  0  0  0  0
    6.5280    1.7170    0.0000 C   0  0  0  0  0  0  0  0  0  0  0  0
    5.2290    0.9670    0.0000 C   0  0  0  0  0  0  0  0  0  0  0  0
    3.9300    1.7170    0.0000 C   0  0  0  0  0  0  0  0  0  0  0  0
    3.9300    3.2170    0.0000 O   0  0  0  0  0  0  0  0  0  0  0  0
    2.6310    0.9670    0.0000 C   0  0  0  0  0  0  0  0  0  0  0  0
    9.1260   -1.2830    0.0000 C   0  0  0  0  0  0  0  0  0  0  0  0
   10.4250   -0.5330    0.0000 C   0  0  0  0  0  0  0  0  0  0  0  0
   11.7240   -1.2830    0.0000 C   0  0  0  0  0  0  0  0  0  0  0  0
   13.0230   -0.5330    0.0000 O   0  0  0  0  0  0  0  0  0  0  0  0
   11.7240   -2.7830    0.0000 C   0  0  0  0  0  0  0  0  0  0  0  0
   13.0230   -3.5330    0.0000 O   0  0  0  0  0  0  0  0  0  0  0  0
   10.4250   -3.5330    0.0000 C   0  0  0  0  0  0  0  0  0  0  0  0
    9.1260   -2.7830    0.0000 C   0  0  0  0  0  0  0  0  0  0  0  0
  1  2  2  0  0  0  0
  2  3  1  0  0  0  0
  2 14  1  0  0  0  0
  3  4  1  0  0  0  0
  4  5  2  0  0  0  0
  4 24  1  0  0  0  0
  5  6  1  0  0  0  0
  5 15  1  0  0  0  0
  6  7  1  1  0  0  0
  6 14  1  0  0  0  0
  7  8  1  0  0  0  0
  7 13  2  0  0  0  0
  8  9  2  0  0  0  0
  9 10  1  0  0  0  0
 10 11  1  0  0  0  0
 10 12  2  0  0  0  0
 12 13  1  0  0  0  0
 15 16  1  0  0  0  0
 15 21  2  0  0  0  0
 16 17  1  0  0  0  0
 17 18  1  0  0  0  0
 17 25  1  1  0  0  0
 18 19  1  1  0  0  0
 18 20  1  0  0  0  0
 20 21  1  0  0  0  0
 21 22  1  0  0  0  0
 22 23  1  0  0  0  0
 22 24  2  0  0  0  0
 25 26  1  0  0  0  0
 25 32  2  0  0  0  0
 26 27  2  0  0  0  0
 27 28  1  0  0  0  0
 27 29  1  0  0  0  0
 29 30  1  0  0  0  0
 29 31  2  0  0  0  0
 31 32  1  0  0  0  0
M  END
>  <name>
O=C1Oc2c([C@@H](c3ccc(O)cc3)C1)c1O[C@@H]([C@H]([O;ester])Cc1c(O)c2)c1cc(O)c(O)cc1

>  <apo>
1

>  <freq>
1

>  <freq0>
0

>  <freq1>
1

>  <freqA>
0.9949851

$$$$

  MOE2015           2D

 12 13  0  0  0  0  0  0  0  0999 V2000
    0.1030   -0.3840    0.0000 O   0  0  0  0  0  0  0  0  0  0  0  0
    1.4020    0.3660    0.0000 C   0  0  0  0  0  0  0  0  0  0  0  0
    2.7010   -0.3840    0.0000 O   0  0  0  0  0  0  0  0  0  0  0  0
    4.0000    0.3660    0.0000 C   0  0  0  0  0  0  0  0  0  0  0  0
    4.0000    1.8660    0.0000 C   0  0  0  0  0  0  0  0  0  0  0  0
    5.2990    2.6160    0.0000 C   0  0  0  0  0  0  0  0  0  0  0  0
    6.5980    1.8660    0.0000 C   0  0  0  0  0  0  0  0  0  0  0  0
    6.5980    0.3660    0.0000 C   0  0  0  0  0  0  0  0  0  0  0  0
    7.8970   -0.3840    0.0000 O   0  0  0  0  0  0  0  0  0  0  0  0
    5.2990   -0.3840    0.0000 C   0  0  0  0  0  0  0  0  0  0  0  0
    2.7010    2.6160    0.0000 C   0  0  0  0  0  0  0  0  0  0  0  0
    1.4020    1.8660    0.0000 C   0  0  0  0  0  0  0  0  0  0  0  0
  1  2  2  0  0  0  0
  2  3  1  0  0  0  0
  2 12  1  0  0  0  0
  3  4  1  0  0  0  0
  4  5  1  0  0  0  0
  4 10  2  0  0  0  0
  5  6  2  0  0  0  0
  5 11  1  0  0  0  0
  6  7  1  0  0  0  0
  7  8  2  0  0  0  0
  8  9  1  0  0  0  0
  8 10  1  0  0  0  0
 11 12  2  0  0  0  0
M  END
>  <name>
O=C1Oc2c(ccc(O)[c;biphenyl]2)C=C1

>  <apo>
1

>  <freq>
1

>  <freq0>
0

>  <freq1>
1

>  <freqA>
0.9949851

$$$$

  MOE2015           2D

 12 13  0  0  0  0  0  0  0  0999 V2000
    0.1030   -0.3840    0.0000 O   0  0  0  0  0  0  0  0  0  0  0  0
    1.4020    0.3660    0.0000 C   0  0  0  0  0  0  0  0  0  0  0  0
    2.7010   -0.3840    0.0000 O   0  0  0  0  0  0  0  0  0  0  0  0
    4.0000    0.3660    0.0000 C   0  0  0  0  0  0  0  0  0  0  0  0
    4.0000    1.8660    0.0000 C   0  0  0  0  0  0  0  0  0  0  0  0
    5.2990    2.6160    0.0000 C   0  0  0  0  0  0  0  0  0  0  0  0
    6.5980    1.8660    0.0000 C   0  0  0  0  0  0  0  0  0  0  0  0
    6.5980    0.3660    0.0000 C   0  0  0  0  0  0  0  0  0  0  0  0
    7.8970   -0.3840    0.0000 O   0  0  0  0  0  0  0  0  0  0  0  0
    5.2990   -0.3840    0.0000 C   0  0  0  0  0  0  0  0  0  0  0  0
    2.7010    2.6160    0.0000 C   0  0  0  0  0  0  0  0  0  0  0  0
    1.4020    1.8660    0.0000 C   0  0  0  0  0  0  0  0  0  0  0  0
  1  2  2  0  0  0  0
  2  3  1  0  0  0  0
  2 12  1  0  0  0  0
  3  4  1  0  0  0  0
  4  5  1  0  0  0  0
  4 10  2  0  0  0  0
  5  6  2  0  0  0  0
  5 11  1  0  0  0  0
  6  7  1  0  0  0  0
  7  8  2  0  0  0  0
  8  9  1  0  0  0  0
  8 10  1  0  0  0  0
 11 12  2  0  0  0  0
M  END
>  <name>
O=C1Oc2c(ccc([O;ether])[c;biphenyl]2)C=C1

>  <apo>
2

>  <freq>
1

>  <freq0>
0

>  <freq1>
1

>  <freqA>
0.9949851

$$$$

  MOE2015           2D

 26 28  0  0  1  0  0  0  0  0999 V2000
    2.8630   -1.1360    0.0000 O   0  0  0  0  0  0  0  0  0  0  0  0
    3.6130    0.1630    0.0000 C   0  0  0  0  0  0  0  0  0  0  0  0
    2.8630    1.4620    0.0000 C   0  0  1  0  0  0  0  0  0  0  0  0
    2.1130    0.1630    0.0000 O   0  0  0  0  0  0  0  0  0  0  0  0
    3.6130    2.7610    0.0000 C   0  0  1  0  0  0  0  0  0  0  0  0
    4.3630    4.0600    0.0000 C   0  0  0  0  0  0  0  0  0  0  0  0
    2.8630    4.0600    0.0000 C   0  0  1  0  0  0  0  0  0  0  0  0
    3.6130    5.3590    0.0000 O   0  0  0  0  0  0  0  0  0  0  0  0
    1.3630    4.0600    0.0000 C   0  0  1  0  0  0  0  0  0  0  0  0
    0.6130    5.3590    0.0000 O   0  0  0  0  0  0  0  0  0  0  0  0
    0.6130    2.7610    0.0000 C   0  0  2  0  0  0  0  0  0  0  0  0
    1.3630    1.4620    0.0000 C   0  0  1  0  0  0  0  0  0  0  0  0
   -0.1370    1.4620    0.0000 C   0  0  0  0  0  0  0  0  0  0  0  0
    0.6130    0.1630    0.0000 C   0  0  1  0  0  0  0  0  0  0  0  0
    1.3630   -1.1360    0.0000 O   0  0  0  0  0  0  0  0  0  0  0  0
   -0.8870    0.1630    0.0000 C   0  0  0  0  0  0  0  0  0  0  0  0
   -1.6370    1.4620    0.0000 C   0  0  0  0  0  0  0  0  0  0  0  0
   -0.8870    2.7610    0.0000 C   0  0  0  0  0  0  0  0  0  0  0  0
   -2.1860    3.5110    0.0000 C   0  0  0  0  0  0  0  0  0  0  0  0
   -0.8870    4.2610    0.0000 C   0  0  0  0  0  0  0  0  0  0  0  0
    5.1130    2.7610    0.0000 O   0  0  0  0  0  0  0  0  0  0  0  0
    5.8630    1.4620    0.0000 C   0  0  2  0  0  0  0  0  0  0  0  0
    7.1630    0.7120    0.0000 C   0  0  0  0  0  0  0  0  0  0  0  0
    7.1630   -0.7880    0.0000 C   0  0  0  0  0  0  0  0  0  0  0  0
    7.1630    2.2120    0.0000 C   0  0  0  0  0  0  0  0  0  0  0  0
    5.1130    0.1630    0.0000 C   0  0  0  0  0  0  0  0  0  0  0  0
  1  2  2  0  0  0  0
  2  3  1  0  0  0  0
  2 26  1  0  0  0  0
  3  4  1  1  0  0  0
  3  5  1  0  0  0  0
  3 12  1  0  0  0  0
  5  6  1  6  0  0  0
  5  7  1  0  0  0  0
  5 21  1  0  0  0  0
  7  8  1  6  0  0  0
  7  9  1  0  0  0  0
  9 10  1  6  0  0  0
  9 11  1  0  0  0  0
 11 12  1  0  0  0  0
 11 18  1  6  0  0  0
 12 13  1  6  0  0  0
 12 14  1  0  0  0  0
 14 15  1  1  0  0  0
 14 16  1  0  0  0  0
 16 17  1  0  0  0  0
 17 18  1  0  0  0  0
 18 19  1  0  0  0  0
 18 20  1  0  0  0  0
 21 22  1  0  0  0  0
 22 23  1  1  0  0  0
 22 25  1  6  0  0  0
 22 26  1  0  0  0  0
 23 24  2  0  0  0  0
M  END
>  <name>
O=C1[C@@]2(O)[C@@](C)([C@@H]([O;ester])[C@@H](O)[C@@H]3[C@]2(C)[C@@H](O)CCC3(C)C)O[C@](C=C)(C)C1

>  <apo>
1

>  <freq>
1

>  <freq0>
0

>  <freq1>
1

>  <freqA>
0.9949851

$$$$

  MOE2015           2D

  8  8  0  0  1  0  0  0  0  0999 V2000
    0.4890   -1.1750    0.0000 O   0  0  0  0  0  0  0  0  0  0  0  0
    1.7880   -0.4250    0.0000 C   0  0  0  0  0  0  0  0  0  0  0  0
    1.7880    1.0750    0.0000 C   0  0  2  0  0  0  0  0  0  0  0  0
    0.4890    1.8250    0.0000 C   0  0  0  0  0  0  0  0  0  0  0  0
    3.0870    1.8250    0.0000 O   0  0  0  0  0  0  0  0  0  0  0  0
    4.3860    1.0750    0.0000 C   0  0  0  0  0  0  0  0  0  0  0  0
    4.3860   -0.4250    0.0000 C   0  0  0  0  0  0  0  0  0  0  0  0
    3.0870   -1.1750    0.0000 C   0  0  0  0  0  0  0  0  0  0  0  0
  1  2  2  0  0  0  0
  2  3  1  0  0  0  0
  2  8  1  0  0  0  0
  3  4  1  6  0  0  0
  3  5  1  0  0  0  0
  5  6  1  0  0  0  0
  6  7  1  0  0  0  0
  7  8  1  0  0  0  0
M  END
>  <name>
O=C1[C@H](C)O[C;ether]CC1

>  <apo>
1

>  <freq>
1

>  <freq0>
0

>  <freq1>
1

>  <freqA>
0.9949851

$$$$

  MOE2015           2D

 26 30  0  0  1  0  0  0  0  0999 V2000
    0.9550   -2.7490    0.0000 O   0  0  0  0  0  0  0  0  0  0  0  0
    2.1800   -1.8830    0.0000 C   0  0  0  0  0  0  0  0  0  0  0  0
    2.1990   -0.3830    0.0000 C   0  0  2  0  0  0  0  0  0  0  0  0
    0.7520   -0.7780    0.0000 O   0  0  0  0  0  0  0  0  0  0  0  0
    3.6320    0.0620    0.0000 C   0  0  2  0  0  0  0  0  0  0  0  0
    3.6510    1.5600    0.0000 C   0  0  2  0  0  0  0  0  0  0  0  0
    4.9570    2.2920    0.0000 C   0  0  2  0  0  0  0  0  0  0  0  0
    4.9760    3.7920    0.0000 O   0  0  0  0  0  0  0  0  0  0  0  0
    6.2450    1.5270    0.0000 C   0  0  0  0  0  0  0  0  0  0  0  0
    7.5490    2.2700    0.0000 O   0  0  0  0  0  0  0  0  0  0  0  0
    6.2470    0.0420    0.0000 C   0  0  1  0  0  0  0  0  0  0  0  0
    7.8280    0.4790    0.0000 C   0  0  2  0  0  0  0  0  0  0  0  0
    8.3810    1.8740    0.0000 O   0  0  0  0  0  0  0  0  0  0  0  0
    8.6690   -0.9060    0.0000 C   0  0  0  0  0  0  0  0  0  0  0  0
   10.1610   -1.0570    0.0000 O   0  0  0  0  0  0  0  0  0  0  0  0
    7.5530   -2.1100    0.0000 C   0  0  1  0  0  0  0  0  0  0  0  0
    7.4140   -0.7280    0.0000 C   0  0  0  0  0  0  0  0  0  0  0  0
    6.2410   -2.9610    0.0000 C   0  0  0  0  0  0  0  0  0  0  0  0
    4.9100   -2.2350    0.0000 C   0  0  0  0  0  0  0  0  0  0  0  0
    4.8980   -0.7150    0.0000 C   0  0  1  0  0  0  0  0  0  0  0  0
    2.2300    2.0440    0.0000 C   0  0  0  0  0  0  0  0  0  0  0  0
    1.1460    3.0810    0.0000 C   0  0  0  0  0  0  0  0  0  0  0  0
    2.6380    3.4880    0.0000 C   0  0  0  0  0  0  0  0  0  0  0  0
    1.3330    0.8420    0.0000 C   0  0  0  0  0  0  0  0  0  0  0  0
    4.4980   -1.1620    0.0000 C   0  0  0  0  0  0  0  0  0  0  0  0
    3.6000   -2.3650    0.0000 O   0  0  0  0  0  0  0  0  0  0  0  0
  1  2  2  0  0  0  0
  2  3  1  0  0  0  0
  2 26  1  0  0  0  0
  3  4  1  6  0  0  0
  5  3  1  6  0  0  0
  3 24  1  0  0  0  0
  5  6  1  0  0  0  0
  5 20  1  0  0  0  0
  5 25  1  1  0  0  0
  6  7  1  0  0  0  0
  6 21  1  1  0  0  0
  7  8  1  6  0  0  0
  7  9  1  0  0  0  0
  9 10  2  0  0  0  0
 11  9  1  1  0  0  0
 11 12  1  0  0  0  0
 11 17  1  0  0  0  0
 11 20  1  0  0  0  0
 12 13  1  6  0  0  0
 12 14  1  0  0  0  0
 14 15  2  0  0  0  0
 14 16  1  0  0  0  0
 16 17  1  0  0  0  0
 16 18  1  6  0  0  0
 18 19  1  0  0  0  0
 20 19  1  1  0  0  0
 21 22  1  0  0  0  0
 21 23  1  0  0  0  0
 21 24  1  0  0  0  0
 25 26  1  0  0  0  0
M  END
>  <name>
O=C1[C@]2(O)[C@@]3([C@H]([C@H](O)C(=O)[C@@]45[C@H]([O;ester])C(=O)[C@@H](C4)CC[C@@H]35)C(C)(C)C2)CO1

>  <apo>
1

>  <freq>
1

>  <freq0>
0

>  <freq1>
1

>  <freqA>
0.9949851

$$$$

  MOE2015           2D

 28 31  0  0  1  0  0  0  0  0999 V2000
    2.0840    5.5550    0.0000 O   0  0  0  0  0  0  0  0  0  0  0  0
    2.9620    4.3390    0.0000 C   0  0  0  0  0  0  0  0  0  0  0  0
    2.4940    2.9140    0.0000 N   0  0  0  0  0  0  0  0  0  0  0  0
    3.7050    2.0280    0.0000 C   0  0  3  0  0  0  0  0  0  0  0  0
    3.7010    0.5280    0.0000 C   0  0  0  0  0  0  0  0  0  0  0  0
    2.4000   -0.2180    0.0000 C   0  0  0  0  0  0  0  0  0  0  0  0
    1.1030    0.5360    0.0000 O   0  0  0  0  0  0  0  0  0  0  0  0
    2.3950   -1.7180    0.0000 C   0  0  0  0  0  0  0  0  0  0  0  0
    3.6920   -2.4720    0.0000 C   0  0  0  0  0  0  0  0  0  0  0  0
    3.6880   -3.9720    0.0000 O   0  0  0  0  0  0  0  0  0  0  0  0
    4.9930   -1.7250    0.0000 C   0  0  0  0  0  0  0  0  0  0  0  0
    4.9980   -0.2250    0.0000 C   0  0  0  0  0  0  0  0  0  0  0  0
    6.2990    0.5210    0.0000 O   0  0  0  0  0  0  0  0  0  0  0  0
    7.5960   -0.2330    0.0000 C   0  0  1  0  0  0  0  0  0  0  0  0
    7.5910   -1.7330    0.0000 C   0  0  2  0  0  0  0  0  0  0  0  0
    8.8880   -2.4870    0.0000 O   0  0  0  0  0  0  0  0  0  0  0  0
    6.2900   -2.4790    0.0000 C   0  0  0  0  0  0  0  0  0  0  0  0
    8.8970    0.5130    0.0000 C   0  0  0  0  0  0  0  0  0  0  0  0
    8.9010    2.0130    0.0000 C   0  0  0  0  0  0  0  0  0  0  0  0
   10.2030    2.7590    0.0000 C   0  0  0  0  0  0  0  0  0  0  0  0
   10.2070    4.2590    0.0000 O   0  0  0  0  0  0  0  0  0  0  0  0
   11.4990    2.0050    0.0000 C   0  0  0  0  0  0  0  0  0  0  0  0
   12.8010    2.7520    0.0000 O   0  0  0  0  0  0  0  0  0  0  0  0
   11.4950    0.5050    0.0000 C   0  0  0  0  0  0  0  0  0  0  0  0
   12.7920   -0.2480    0.0000 O   0  0  0  0  0  0  0  0  0  0  0  0
   10.1940   -0.2410    0.0000 C   0  0  0  0  0  0  0  0  0  0  0  0
    4.9210    2.9060    0.0000 C   0  0  0  0  0  0  0  0  0  0  0  0
    4.4620    4.3340    0.0000 C   0  0  0  0  0  0  0  0  0  0  0  0
  1  2  2  0  0  0  0
  2  3  1  0  0  0  0
  2 28  1  0  0  0  0
  3  4  1  0  0  0  0
  4  5  1  0  0  0  0
  4 27  1  0  0  0  0
  5  6  1  0  0  0  0
  5 12  2  0  0  0  0
  6  7  1  0  0  0  0
  6  8  2  0  0  0  0
  8  9  1  0  0  0  0
  9 10  1  0  0  0  0
  9 11  2  0  0  0  0
 11 12  1  0  0  0  0
 11 17  1  0  0  0  0
 12 13  1  0  0  0  0
 13 14  1  0  0  0  0
 14 15  1  0  0  0  0
 14 18  1  6  0  0  0
 15 16  1  6  0  0  0
 15 17  1  0  0  0  0
 18 19  2  0  0  0  0
 18 26  1  0  0  0  0
 19 20  1  0  0  0  0
 20 21  1  0  0  0  0
 20 22  2  0  0  0  0
 22 23  1  0  0  0  0
 22 24  1  0  0  0  0
 24 25  1  0  0  0  0
 24 26  2  0  0  0  0
 27 28  1  0  0  0  0
M  END
>  <name>
O=C1[N;lactam]C(c2c(O)cc(O)c3c2O[C@@H]([C@H]([O;ester])C3)c2cc(O)c(O)c(O)c2)CC1

>  <apo>
2

>  <freq>
1

>  <freq0>
0

>  <freq1>
1

>  <freqA>
0.9949851

$$$$

  MOE2015           2D

 28 31  0  0  1  0  0  0  0  0999 V2000
    2.0840    5.5550    0.0000 O   0  0  0  0  0  0  0  0  0  0  0  0
    2.9620    4.3390    0.0000 C   0  0  0  0  0  0  0  0  0  0  0  0
    2.4940    2.9140    0.0000 N   0  0  0  0  0  0  0  0  0  0  0  0
    3.7050    2.0280    0.0000 C   0  0  3  0  0  0  0  0  0  0  0  0
    3.7010    0.5280    0.0000 C   0  0  0  0  0  0  0  0  0  0  0  0
    2.4000   -0.2180    0.0000 C   0  0  0  0  0  0  0  0  0  0  0  0
    1.1030    0.5360    0.0000 O   0  0  0  0  0  0  0  0  0  0  0  0
    2.3950   -1.7180    0.0000 C   0  0  0  0  0  0  0  0  0  0  0  0
    3.6920   -2.4720    0.0000 C   0  0  0  0  0  0  0  0  0  0  0  0
    3.6880   -3.9720    0.0000 O   0  0  0  0  0  0  0  0  0  0  0  0
    4.9930   -1.7250    0.0000 C   0  0  0  0  0  0  0  0  0  0  0  0
    4.9980   -0.2250    0.0000 C   0  0  0  0  0  0  0  0  0  0  0  0
    6.2990    0.5210    0.0000 O   0  0  0  0  0  0  0  0  0  0  0  0
    7.5960   -0.2330    0.0000 C   0  0  2  0  0  0  0  0  0  0  0  0
    7.5910   -1.7330    0.0000 C   0  0  1  0  0  0  0  0  0  0  0  0
    8.8880   -2.4870    0.0000 O   0  0  0  0  0  0  0  0  0  0  0  0
    6.2900   -2.4790    0.0000 C   0  0  0  0  0  0  0  0  0  0  0  0
    8.8970    0.5130    0.0000 C   0  0  0  0  0  0  0  0  0  0  0  0
    8.9010    2.0130    0.0000 C   0  0  0  0  0  0  0  0  0  0  0  0
   10.2030    2.7590    0.0000 C   0  0  0  0  0  0  0  0  0  0  0  0
   10.2070    4.2590    0.0000 O   0  0  0  0  0  0  0  0  0  0  0  0
   11.4990    2.0050    0.0000 C   0  0  0  0  0  0  0  0  0  0  0  0
   12.8010    2.7520    0.0000 O   0  0  0  0  0  0  0  0  0  0  0  0
   11.4950    0.5050    0.0000 C   0  0  0  0  0  0  0  0  0  0  0  0
   12.7920   -0.2480    0.0000 O   0  0  0  0  0  0  0  0  0  0  0  0
   10.1940   -0.2410    0.0000 C   0  0  0  0  0  0  0  0  0  0  0  0
    4.9210    2.9060    0.0000 C   0  0  0  0  0  0  0  0  0  0  0  0
    4.4620    4.3340    0.0000 C   0  0  0  0  0  0  0  0  0  0  0  0
  1  2  2  0  0  0  0
  2  3  1  0  0  0  0
  2 28  1  0  0  0  0
  3  4  1  0  0  0  0
  4  5  1  0  0  0  0
  4 27  1  0  0  0  0
  5  6  1  0  0  0  0
  5 12  2  0  0  0  0
  6  7  1  0  0  0  0
  6  8  2  0  0  0  0
  8  9  1  0  0  0  0
  9 10  1  0  0  0  0
  9 11  2  0  0  0  0
 11 12  1  0  0  0  0
 11 17  1  0  0  0  0
 12 13  1  0  0  0  0
 13 14  1  0  0  0  0
 14 15  1  0  0  0  0
 14 18  1  1  0  0  0
 15 16  1  1  0  0  0
 15 17  1  0  0  0  0
 18 19  2  0  0  0  0
 18 26  1  0  0  0  0
 19 20  1  0  0  0  0
 20 21  1  0  0  0  0
 20 22  2  0  0  0  0
 22 23  1  0  0  0  0
 22 24  1  0  0  0  0
 24 25  1  0  0  0  0
 24 26  2  0  0  0  0
 27 28  1  0  0  0  0
M  END
>  <name>
O=C1[N;lactam]C(c2c(O)cc(O)c3c2O[C@H]([C@@H]([O;ester])C3)c2cc(O)c(O)c(O)c2)CC1

>  <apo>
2

>  <freq>
1

>  <freq0>
0

>  <freq1>
1

>  <freqA>
0.9949851

$$$$

  MOE2015           2D

 11 12  0  0  0  0  0  0  0  0999 V2000
    6.3170    2.4250    0.0000 O   0  0  0  0  0  0  0  0  0  0  0  0
    5.2030    1.4210    0.0000 C   0  0  0  0  0  0  0  0  0  0  0  0
    5.3600   -0.0700    0.0000 N   0  0  0  0  0  0  0  0  0  0  0  0
    3.9890   -0.6810    0.0000 C   0  0  0  0  0  0  0  0  0  0  0  0
    2.9860    0.4340    0.0000 C   0  0  0  0  0  0  0  0  0  0  0  0
    1.4860    0.4340    0.0000 C   0  0  0  0  0  0  0  0  0  0  0  0
    0.7360   -0.8650    0.0000 N   0  0  0  0  0  0  0  0  0  0  0  0
    0.7360    1.7330    0.0000 C   0  0  0  0  0  0  0  0  0  0  0  0
    1.4860    3.0320    0.0000 C   0  0  0  0  0  0  0  0  0  0  0  0
    2.9860    3.0320    0.0000 C   0  0  0  0  0  0  0  0  0  0  0  0
    3.7360    1.7330    0.0000 C   0  0  0  0  0  0  0  0  0  0  0  0
  1  2  2  0  0  0  0
  2  3  1  0  0  0  0
  2 11  1  0  0  0  0
  3  4  1  0  0  0  0
  4  5  1  0  0  0  0
  5  6  1  0  0  0  0
  5 11  2  0  0  0  0
  6  7  1  0  0  0  0
  6  8  2  0  0  0  0
  8  9  1  0  0  0  0
  9 10  2  0  0  0  0
 10 11  1  0  0  0  0
M  END
>  <name>
O=C1[N;lactam]Cc2c(N)cccc12

>  <apo>
1

>  <freq>
1

>  <freq0>
0

>  <freq1>
1

>  <freqA>
0.9949851

$$$$

  MOE2015           2D

 27 30  0  0  1  0  0  0  0  0999 V2000
   -0.2340    0.7250    0.0000 O   0  0  0  0  0  0  0  0  0  0  0  0
    0.9820    1.6030    0.0000 C   0  0  0  0  0  0  0  0  0  0  0  0
    2.4070    1.1350    0.0000 N   0  0  0  0  0  0  0  0  0  0  0  0
    3.2930    2.3460    0.0000 C   0  0  1  0  0  0  0  0  0  0  0  0
    4.7930    2.3410    0.0000 C   0  0  0  0  0  0  0  0  0  0  0  0
    5.5460    3.6380    0.0000 C   0  0  0  0  0  0  0  0  0  0  0  0
    4.8000    4.9390    0.0000 O   0  0  0  0  0  0  0  0  0  0  0  0
    7.0460    3.6330    0.0000 C   0  0  0  0  0  0  0  0  0  0  0  0
    7.7930    2.3320    0.0000 C   0  0  0  0  0  0  0  0  0  0  0  0
    9.2930    2.3270    0.0000 O   0  0  0  0  0  0  0  0  0  0  0  0
   10.0460    3.6240    0.0000 C   0  0  1  0  0  0  0  0  0  0  0  0
    9.3000    4.9250    0.0000 C   0  0  2  0  0  0  0  0  0  0  0  0
   10.0540    6.2220    0.0000 O   0  0  0  0  0  0  0  0  0  0  0  0
    7.8000    4.9300    0.0000 C   0  0  0  0  0  0  0  0  0  0  0  0
   11.5460    3.6190    0.0000 C   0  0  0  0  0  0  0  0  0  0  0  0
   12.2920    2.3180    0.0000 C   0  0  0  0  0  0  0  0  0  0  0  0
   13.7920    2.3130    0.0000 C   0  0  0  0  0  0  0  0  0  0  0  0
   14.5390    1.0120    0.0000 O   0  0  0  0  0  0  0  0  0  0  0  0
   14.5460    3.6100    0.0000 C   0  0  0  0  0  0  0  0  0  0  0  0
   16.0460    3.6060    0.0000 O   0  0  0  0  0  0  0  0  0  0  0  0
   13.8000    4.9110    0.0000 C   0  0  0  0  0  0  0  0  0  0  0  0
   12.3000    4.9160    0.0000 C   0  0  0  0  0  0  0  0  0  0  0  0
    7.0390    1.0350    0.0000 C   0  0  0  0  0  0  0  0  0  0  0  0
    5.5390    1.0400    0.0000 C   0  0  0  0  0  0  0  0  0  0  0  0
    4.7850   -0.2570    0.0000 O   0  0  0  0  0  0  0  0  0  0  0  0
    2.4150    3.5620    0.0000 C   0  0  0  0  0  0  0  0  0  0  0  0
    0.9870    3.1030    0.0000 C   0  0  0  0  0  0  0  0  0  0  0  0
  1  2  2  0  0  0  0
  2  3  1  0  0  0  0
  2 27  1  0  0  0  0
  3  4  1  0  0  0  0
  4  5  1  6  0  0  0
  4 26  1  0  0  0  0
  5  6  1  0  0  0  0
  5 24  2  0  0  0  0
  6  7  1  0  0  0  0
  6  8  2  0  0  0  0
  8  9  1  0  0  0  0
  8 14  1  0  0  0  0
  9 10  1  0  0  0  0
  9 23  2  0  0  0  0
 10 11  1  0  0  0  0
 11 12  1  0  0  0  0
 11 15  1  1  0  0  0
 12 13  1  1  0  0  0
 12 14  1  0  0  0  0
 15 16  1  0  0  0  0
 15 22  2  0  0  0  0
 16 17  2  0  0  0  0
 17 18  1  0  0  0  0
 17 19  1  0  0  0  0
 19 20  1  0  0  0  0
 19 21  2  0  0  0  0
 21 22  1  0  0  0  0
 23 24  1  0  0  0  0
 24 25  1  0  0  0  0
 26 27  1  0  0  0  0
M  END
>  <name>
O=C1[N;lactam][C@@H](c2c(O)c3c(O[C@@H]([C@H]([O;ester])C3)c3cc(O)c(O)cc3)cc2O)CC1

>  <apo>
2

>  <freq>
1

>  <freq0>
0

>  <freq1>
1

>  <freqA>
0.9949851

$$$$

  MOE2015           2D

 22 24  0  0  1  0  0  0  0  0999 V2000
    1.8410    3.1890    0.0000 O   0  0  0  0  0  0  0  0  0  0  0  0
    2.5910    1.8900    0.0000 C   0  0  0  0  0  0  0  0  0  0  0  0
    1.8410    0.5900    0.0000 C   0  0  0  0  0  0  0  0  0  0  0  0
    0.3410    0.5900    0.0000 C   0  0  0  0  0  0  0  0  0  0  0  0
   -0.4090    1.8900    0.0000 O   0  0  0  0  0  0  0  0  0  0  0  0
   -0.4090   -0.7090    0.0000 C   0  0  0  0  0  0  0  0  0  0  0  0
   -1.9090   -0.7090    0.0000 C   0  0  0  0  0  0  0  0  0  0  0  0
   -2.6590   -2.0080    0.0000 C   0  0  0  0  0  0  0  0  0  0  0  0
    0.3410   -2.0080    0.0000 C   0  0  0  0  0  0  0  0  0  0  0  0
   -0.4090   -3.3070    0.0000 O   0  0  0  0  0  0  0  0  0  0  0  0
    1.8410   -2.0080    0.0000 C   0  0  0  0  0  0  0  0  0  0  0  0
    2.5910   -0.7090    0.0000 C   0  0  0  0  0  0  0  0  0  0  0  0
    4.0910   -0.7090    0.0000 O   0  0  0  0  0  0  0  0  0  0  0  0
    4.8410    0.5900    0.0000 C   0  0  2  0  0  0  0  0  0  0  0  0
    6.3410    0.5900    0.0000 C   0  0  0  0  0  0  0  0  0  0  0  0
    7.0910    1.8900    0.0000 C   0  0  0  0  0  0  0  0  0  0  0  0
    8.5910    1.8900    0.0000 C   0  0  0  0  0  0  0  0  0  0  0  0
    9.3410    0.5900    0.0000 C   0  0  0  0  0  0  0  0  0  0  0  0
   10.8410    0.5900    0.0000 O   0  0  0  0  0  0  0  0  0  0  0  0
    8.5910   -0.7090    0.0000 C   0  0  0  0  0  0  0  0  0  0  0  0
    7.0910   -0.7090    0.0000 C   0  0  0  0  0  0  0  0  0  0  0  0
    4.0910    1.8900    0.0000 C   0  0  0  0  0  0  0  0  0  0  0  0
  1  2  2  0  0  0  0
  2  3  1  0  0  0  0
  2 22  1  0  0  0  0
  3  4  2  0  0  0  0
  3 12  1  0  0  0  0
  4  5  1  0  0  0  0
  4  6  1  0  0  0  0
  6  7  1  0  0  0  0
  6  9  2  0  0  0  0
  7  8  1  0  0  0  0
  9 10  1  0  0  0  0
  9 11  1  0  0  0  0
 11 12  2  0  0  0  0
 12 13  1  0  0  0  0
 13 14  1  0  0  0  0
 14 15  1  1  0  0  0
 14 22  1  0  0  0  0
 15 16  1  0  0  0  0
 15 21  2  0  0  0  0
 16 17  2  0  0  0  0
 17 18  1  0  0  0  0
 18 19  1  0  0  0  0
 18 20  2  0  0  0  0
 20 21  1  0  0  0  0
M  END
>  <name>
O=C1c2c(O)c(C[C;olefin])c(O)cc2O[C@H](c2ccc(O)cc2)C1

>  <apo>
1

>  <freq>
1

>  <freq0>
0

>  <freq1>
1

>  <freqA>
0.9949851

$$$$

  MOE2015           2D

 23 25  0  0  1  0  0  0  0  0999 V2000
    3.5330    3.5330    0.0000 O   0  0  0  0  0  0  0  0  0  0  0  0
    3.5330    2.0330    0.0000 C   0  0  0  0  0  0  0  0  0  0  0  0
    2.2340    1.2830    0.0000 C   0  0  0  0  0  0  0  0  0  0  0  0
    0.9350    2.0330    0.0000 C   0  0  0  0  0  0  0  0  0  0  0  0
    0.9350    3.5330    0.0000 O   0  0  0  0  0  0  0  0  0  0  0  0
   -0.3640    1.2830    0.0000 C   0  0  0  0  0  0  0  0  0  0  0  0
   -0.3640   -0.2170    0.0000 C   0  0  0  0  0  0  0  0  0  0  0  0
   -1.6630   -0.9670    0.0000 O   0  0  0  0  0  0  0  0  0  0  0  0
    0.9350   -0.9670    0.0000 C   0  0  0  0  0  0  0  0  0  0  0  0
    0.9350   -2.4670    0.0000 C   0  0  0  0  0  0  0  0  0  0  0  0
   -0.3640   -3.2170    0.0000 C   0  0  0  0  0  0  0  0  0  0  0  0
    2.2340   -0.2170    0.0000 C   0  0  0  0  0  0  0  0  0  0  0  0
    3.5330   -0.9670    0.0000 O   0  0  0  0  0  0  0  0  0  0  0  0
    4.8320   -0.2170    0.0000 C   0  0  2  0  0  0  0  0  0  0  0  0
    6.1310   -0.9670    0.0000 C   0  0  0  0  0  0  0  0  0  0  0  0
    7.4300   -0.2170    0.0000 C   0  0  0  0  0  0  0  0  0  0  0  0
    7.4300    1.2830    0.0000 O   0  0  0  0  0  0  0  0  0  0  0  0
    8.7290   -0.9670    0.0000 C   0  0  0  0  0  0  0  0  0  0  0  0
    8.7290   -2.4670    0.0000 C   0  0  0  0  0  0  0  0  0  0  0  0
   10.0280   -3.2170    0.0000 O   0  0  0  0  0  0  0  0  0  0  0  0
    7.4300   -3.2170    0.0000 C   0  0  0  0  0  0  0  0  0  0  0  0
    6.1310   -2.4670    0.0000 C   0  0  0  0  0  0  0  0  0  0  0  0
    4.8320    1.2830    0.0000 C   0  0  0  0  0  0  0  0  0  0  0  0
  1  2  2  0  0  0  0
  2  3  1  0  0  0  0
  2 23  1  0  0  0  0
  3  4  1  0  0  0  0
  3 12  2  0  0  0  0
  4  5  1  0  0  0  0
  4  6  2  0  0  0  0
  6  7  1  0  0  0  0
  7  8  1  0  0  0  0
  7  9  2  0  0  0  0
  9 10  1  0  0  0  0
  9 12  1  0  0  0  0
 10 11  1  0  0  0  0
 12 13  1  0  0  0  0
 13 14  1  0  0  0  0
 14 15  1  1  0  0  0
 14 23  1  0  0  0  0
 15 16  2  0  0  0  0
 15 22  1  0  0  0  0
 16 17  1  0  0  0  0
 16 18  1  0  0  0  0
 18 19  2  0  0  0  0
 19 20  1  0  0  0  0
 19 21  1  0  0  0  0
 21 22  2  0  0  0  0
M  END
>  <name>
O=C1c2c(O)cc(O)c(C[C;olefin])c2O[C@H](c2c(O)cc(O)cc2)C1

>  <apo>
1

>  <freq>
1

>  <freq0>
0

>  <freq1>
1

>  <freqA>
0.9949851

$$$$

  MOE2015           2D

 23 25  0  0  1  0  0  0  0  0999 V2000
    3.4850    3.4850    0.0000 O   0  0  0  0  0  0  0  0  0  0  0  0
    3.4850    1.9850    0.0000 C   0  0  0  0  0  0  0  0  0  0  0  0
    2.1860    1.2350    0.0000 C   0  0  0  0  0  0  0  0  0  0  0  0
    0.8870    1.9850    0.0000 C   0  0  0  0  0  0  0  0  0  0  0  0
    0.8870    3.4850    0.0000 O   0  0  0  0  0  0  0  0  0  0  0  0
   -0.4120    1.2350    0.0000 C   0  0  0  0  0  0  0  0  0  0  0  0
   -0.4120   -0.2650    0.0000 C   0  0  0  0  0  0  0  0  0  0  0  0
   -1.7110   -1.0150    0.0000 O   0  0  0  0  0  0  0  0  0  0  0  0
    0.8870   -1.0150    0.0000 C   0  0  0  0  0  0  0  0  0  0  0  0
    0.8870   -2.5150    0.0000 C   0  0  0  0  0  0  0  0  0  0  0  0
   -0.4120   -3.2650    0.0000 C   0  0  0  0  0  0  0  0  0  0  0  0
    2.1860   -0.2650    0.0000 C   0  0  0  0  0  0  0  0  0  0  0  0
    3.4850   -1.0150    0.0000 O   0  0  0  0  0  0  0  0  0  0  0  0
    4.7840   -0.2650    0.0000 C   0  0  2  0  0  0  0  0  0  0  0  0
    6.0830   -1.0150    0.0000 C   0  0  0  0  0  0  0  0  0  0  0  0
    7.3820   -0.2650    0.0000 C   0  0  0  0  0  0  0  0  0  0  0  0
    8.6810   -1.0150    0.0000 C   0  0  0  0  0  0  0  0  0  0  0  0
    9.9800   -0.2650    0.0000 O   0  0  0  0  0  0  0  0  0  0  0  0
    8.6810   -2.5150    0.0000 C   0  0  0  0  0  0  0  0  0  0  0  0
    9.9800   -3.2650    0.0000 O   0  0  0  0  0  0  0  0  0  0  0  0
    7.3820   -3.2650    0.0000 C   0  0  0  0  0  0  0  0  0  0  0  0
    6.0830   -2.5150    0.0000 C   0  0  0  0  0  0  0  0  0  0  0  0
    4.7840    1.2350    0.0000 C   0  0  0  0  0  0  0  0  0  0  0  0
  1  2  2  0  0  0  0
  2  3  1  0  0  0  0
  2 23  1  0  0  0  0
  3  4  1  0  0  0  0
  3 12  2  0  0  0  0
  4  5  1  0  0  0  0
  4  6  2  0  0  0  0
  6  7  1  0  0  0  0
  7  8  1  0  0  0  0
  7  9  2  0  0  0  0
  9 10  1  0  0  0  0
  9 12  1  0  0  0  0
 10 11  1  0  0  0  0
 12 13  1  0  0  0  0
 13 14  1  0  0  0  0
 14 15  1  1  0  0  0
 14 23  1  0  0  0  0
 15 16  1  0  0  0  0
 15 22  2  0  0  0  0
 16 17  2  0  0  0  0
 17 18  1  0  0  0  0
 17 19  1  0  0  0  0
 19 20  1  0  0  0  0
 19 21  2  0  0  0  0
 21 22  1  0  0  0  0
M  END
>  <name>
O=C1c2c(O)cc(O)c(C[C;olefin])c2O[C@H](c2cc(O)c(O)cc2)C1

>  <apo>
1

>  <freq>
1

>  <freq0>
0

>  <freq1>
1

>  <freqA>
0.9949851

$$$$

  MOE2015           2D

 20 22  0  0  0  0  0  0  0  0999 V2000
    1.4250    2.4680    0.0000 O   0  0  0  0  0  0  0  0  0  0  0  0
    2.1750    1.1690    0.0000 C   0  0  0  0  0  0  0  0  0  0  0  0
    1.4250   -0.1300    0.0000 C   0  0  0  0  0  0  0  0  0  0  0  0
   -0.0750   -0.1300    0.0000 C   0  0  0  0  0  0  0  0  0  0  0  0
   -0.8250    1.1690    0.0000 O   0  0  0  0  0  0  0  0  0  0  0  0
   -0.8250   -1.4290    0.0000 C   0  0  0  0  0  0  0  0  0  0  0  0
   -0.0750   -2.7280    0.0000 C   0  0  0  0  0  0  0  0  0  0  0  0
   -0.8250   -4.0270    0.0000 O   0  0  0  0  0  0  0  0  0  0  0  0
    1.4250   -2.7280    0.0000 C   0  0  0  0  0  0  0  0  0  0  0  0
    2.1750   -1.4290    0.0000 C   0  0  0  0  0  0  0  0  0  0  0  0
    3.6750   -1.4290    0.0000 O   0  0  0  0  0  0  0  0  0  0  0  0
    4.4250   -0.1300    0.0000 C   0  0  0  0  0  0  0  0  0  0  0  0
    5.9250   -0.1300    0.0000 C   0  0  0  0  0  0  0  0  0  0  0  0
    6.6750    1.1690    0.0000 C   0  0  0  0  0  0  0  0  0  0  0  0
    8.1750    1.1690    0.0000 C   0  0  0  0  0  0  0  0  0  0  0  0
    8.9250   -0.1300    0.0000 C   0  0  0  0  0  0  0  0  0  0  0  0
   10.4250   -0.1300    0.0000 O   0  0  0  0  0  0  0  0  0  0  0  0
    8.1750   -1.4290    0.0000 C   0  0  0  0  0  0  0  0  0  0  0  0
    6.6750   -1.4290    0.0000 C   0  0  0  0  0  0  0  0  0  0  0  0
    3.6750    1.1690    0.0000 C   0  0  0  0  0  0  0  0  0  0  0  0
  1  2  2  0  0  0  0
  2  3  1  0  0  0  0
  2 20  1  0  0  0  0
  3  4  1  0  0  0  0
  3 10  2  0  0  0  0
  4  5  1  0  0  0  0
  4  6  2  0  0  0  0
  6  7  1  0  0  0  0
  7  8  1  0  0  0  0
  7  9  2  0  0  0  0
  9 10  1  0  0  0  0
 10 11  1  0  0  0  0
 11 12  1  0  0  0  0
 12 13  1  0  0  0  0
 12 20  2  0  0  0  0
 13 14  1  0  0  0  0
 13 19  2  0  0  0  0
 14 15  2  0  0  0  0
 15 16  1  0  0  0  0
 16 17  1  0  0  0  0
 16 18  2  0  0  0  0
 18 19  1  0  0  0  0
M  END
>  <name>
O=C1c2c(O)cc(O)cc2OC(c2ccc(O)[c;biphenyl]c2)=C1

>  <apo>
1

>  <freq>
1

>  <freq0>
0

>  <freq1>
1

>  <freqA>
0.9949851

$$$$

  MOE2015           2D

 21 23  0  0  1  0  0  0  0  0999 V2000
    1.1790    2.0410    0.0000 O   0  0  0  0  0  0  0  0  0  0  0  0
    1.9290    0.7420    0.0000 C   0  0  0  0  0  0  0  0  0  0  0  0
    1.1790   -0.5570    0.0000 C   0  0  0  0  0  0  0  0  0  0  0  0
   -0.3210   -0.5570    0.0000 C   0  0  0  0  0  0  0  0  0  0  0  0
   -1.0710    0.7420    0.0000 O   0  0  0  0  0  0  0  0  0  0  0  0
   -1.0710   -1.8560    0.0000 C   0  0  0  0  0  0  0  0  0  0  0  0
   -0.3210   -3.1550    0.0000 C   0  0  0  0  0  0  0  0  0  0  0  0
   -1.0710   -4.4540    0.0000 O   0  0  0  0  0  0  0  0  0  0  0  0
    1.1790   -3.1550    0.0000 C   0  0  0  0  0  0  0  0  0  0  0  0
    1.9290   -1.8560    0.0000 C   0  0  0  0  0  0  0  0  0  0  0  0
    3.4290   -1.8560    0.0000 O   0  0  0  0  0  0  0  0  0  0  0  0
    4.1790   -0.5570    0.0000 C   0  0  1  0  0  0  0  0  0  0  0  0
    5.6790   -0.5570    0.0000 C   0  0  0  0  0  0  0  0  0  0  0  0
    6.4290    0.7420    0.0000 C   0  0  0  0  0  0  0  0  0  0  0  0
    7.9290    0.7420    0.0000 C   0  0  0  0  0  0  0  0  0  0  0  0
    8.6790    2.0410    0.0000 O   0  0  0  0  0  0  0  0  0  0  0  0
    8.6790   -0.5570    0.0000 C   0  0  0  0  0  0  0  0  0  0  0  0
   10.1790   -0.5570    0.0000 O   0  0  0  0  0  0  0  0  0  0  0  0
    7.9290   -1.8560    0.0000 C   0  0  0  0  0  0  0  0  0  0  0  0
    6.4290   -1.8560    0.0000 C   0  0  0  0  0  0  0  0  0  0  0  0
    3.4290    0.7420    0.0000 C   0  0  0  0  0  0  0  0  0  0  0  0
  1  2  2  0  0  0  0
  2  3  1  0  0  0  0
  2 21  1  0  0  0  0
  3  4  1  0  0  0  0
  3 10  2  0  0  0  0
  4  5  1  0  0  0  0
  4  6  2  0  0  0  0
  6  7  1  0  0  0  0
  7  8  1  0  0  0  0
  7  9  2  0  0  0  0
  9 10  1  0  0  0  0
 10 11  1  0  0  0  0
 11 12  1  0  0  0  0
 12 13  1  6  0  0  0
 12 21  1  0  0  0  0
 13 14  1  0  0  0  0
 13 20  2  0  0  0  0
 14 15  2  0  0  0  0
 15 16  1  0  0  0  0
 15 17  1  0  0  0  0
 17 18  1  0  0  0  0
 17 19  2  0  0  0  0
 19 20  1  0  0  0  0
M  END
>  <name>
O=C1c2c(O)cc(O)cc2O[C@@H](c2cc(O)c(O)cc2)[C;ether]1

>  <apo>
1

>  <freq>
1

>  <freq0>
0

>  <freq1>
1

>  <freqA>
0.9949851

$$$$

  MOE2015           2D

 19 21  0  0  1  0  0  0  0  0999 V2000
    1.3820    2.3930    0.0000 O   0  0  0  0  0  0  0  0  0  0  0  0
    2.1320    1.0940    0.0000 C   0  0  0  0  0  0  0  0  0  0  0  0
    1.3820   -0.2050    0.0000 C   0  0  0  0  0  0  0  0  0  0  0  0
    2.1320   -1.5040    0.0000 C   0  0  0  0  0  0  0  0  0  0  0  0
    3.6320   -1.5040    0.0000 O   0  0  0  0  0  0  0  0  0  0  0  0
    4.3820   -0.2050    0.0000 C   0  0  3  0  0  0  0  0  0  0  0  0
    5.8820   -0.2050    0.0000 C   0  0  0  0  0  0  0  0  0  0  0  0
    6.6320    1.0940    0.0000 C   0  0  0  0  0  0  0  0  0  0  0  0
    8.1320    1.0940    0.0000 C   0  0  0  0  0  0  0  0  0  0  0  0
    8.8820   -0.2050    0.0000 C   0  0  0  0  0  0  0  0  0  0  0  0
   10.3820   -0.2050    0.0000 O   0  0  0  0  0  0  0  0  0  0  0  0
    8.1320   -1.5040    0.0000 C   0  0  0  0  0  0  0  0  0  0  0  0
    6.6320   -1.5040    0.0000 C   0  0  0  0  0  0  0  0  0  0  0  0
    3.6320    1.0940    0.0000 C   0  0  0  0  0  0  0  0  0  0  0  0
    1.3820   -2.8030    0.0000 C   0  0  0  0  0  0  0  0  0  0  0  0
   -0.1180   -2.8030    0.0000 C   0  0  0  0  0  0  0  0  0  0  0  0
   -0.8680   -4.1020    0.0000 O   0  0  0  0  0  0  0  0  0  0  0  0
   -0.8680   -1.5040    0.0000 C   0  0  0  0  0  0  0  0  0  0  0  0
   -0.1180   -0.2050    0.0000 C   0  0  0  0  0  0  0  0  0  0  0  0
  1  2  2  0  0  0  0
  2  3  1  0  0  0  0
  2 14  1  0  0  0  0
  3  4  1  0  0  0  0
  3 19  2  0  0  0  0
  4  5  1  0  0  0  0
  4 15  2  0  0  0  0
  5  6  1  0  0  0  0
  6  7  1  0  0  0  0
  6 14  1  0  0  0  0
  7  8  1  0  0  0  0
  7 13  2  0  0  0  0
  8  9  2  0  0  0  0
  9 10  1  0  0  0  0
 10 11  1  0  0  0  0
 10 12  2  0  0  0  0
 12 13  1  0  0  0  0
 15 16  1  0  0  0  0
 16 17  1  0  0  0  0
 16 18  2  0  0  0  0
 18 19  1  0  0  0  0
M  END
>  <name>
O=C1c2c(OC(c3ccc([O;ether])cc3)C1)cc(O)cc2

>  <apo>
1

>  <freq>
1

>  <freq0>
0

>  <freq1>
1

>  <freqA>
0.9949851

$$$$

  MOE2015           2D

 21 23  0  0  1  0  0  0  0  0999 V2000
    1.7140    2.9690    0.0000 O   0  0  0  0  0  0  0  0  0  0  0  0
    2.4640    1.6700    0.0000 C   0  0  0  0  0  0  0  0  0  0  0  0
    1.7140    0.3710    0.0000 C   0  0  0  0  0  0  0  0  0  0  0  0
    2.4640   -0.9280    0.0000 C   0  0  0  0  0  0  0  0  0  0  0  0
    3.9640   -0.9280    0.0000 O   0  0  0  0  0  0  0  0  0  0  0  0
    4.7140    0.3710    0.0000 C   0  0  2  0  0  0  0  0  0  0  0  0
    6.2140    0.3710    0.0000 C   0  0  0  0  0  0  0  0  0  0  0  0
    6.9640    1.6700    0.0000 C   0  0  0  0  0  0  0  0  0  0  0  0
    8.4640    1.6700    0.0000 C   0  0  0  0  0  0  0  0  0  0  0  0
    9.2140    0.3710    0.0000 C   0  0  0  0  0  0  0  0  0  0  0  0
   10.7140    0.3710    0.0000 O   0  0  0  0  0  0  0  0  0  0  0  0
    8.4640   -0.9280    0.0000 C   0  0  0  0  0  0  0  0  0  0  0  0
    6.9640   -0.9280    0.0000 C   0  0  0  0  0  0  0  0  0  0  0  0
    3.9640    1.6700    0.0000 C   0  0  0  0  0  0  0  0  0  0  0  0
    1.7140   -2.2270    0.0000 C   0  0  0  0  0  0  0  0  0  0  0  0
    0.2140   -2.2270    0.0000 C   0  0  0  0  0  0  0  0  0  0  0  0
   -0.5360   -3.5260    0.0000 O   0  0  0  0  0  0  0  0  0  0  0  0
   -0.5360   -0.9280    0.0000 C   0  0  0  0  0  0  0  0  0  0  0  0
   -2.0360   -0.9280    0.0000 C   0  0  0  0  0  0  0  0  0  0  0  0
   -2.7860    0.3710    0.0000 C   0  0  0  0  0  0  0  0  0  0  0  0
    0.2140    0.3710    0.0000 C   0  0  0  0  0  0  0  0  0  0  0  0
  1  2  2  0  0  0  0
  2  3  1  0  0  0  0
  2 14  1  0  0  0  0
  3  4  1  0  0  0  0
  3 21  2  0  0  0  0
  4  5  1  0  0  0  0
  4 15  2  0  0  0  0
  5  6  1  0  0  0  0
  6  7  1  1  0  0  0
  6 14  1  0  0  0  0
  7  8  1  0  0  0  0
  7 13  2  0  0  0  0
  8  9  2  0  0  0  0
  9 10  1  0  0  0  0
 10 11  1  0  0  0  0
 10 12  2  0  0  0  0
 12 13  1  0  0  0  0
 15 16  1  0  0  0  0
 16 17  1  0  0  0  0
 16 18  2  0  0  0  0
 18 19  1  0  0  0  0
 18 21  1  0  0  0  0
 19 20  1  0  0  0  0
M  END
>  <name>
O=C1c2c(O[C@H](c3ccc(O)cc3)C1)cc(O)c(C[C;olefin])c2

>  <apo>
1

>  <freq>
1

>  <freq0>
0

>  <freq1>
1

>  <freqA>
0.9949851

$$$$

  MOE2015           2D

 11 11  0  0  0  0  0  0  0  0999 V2000
    5.1450   -3.3700    0.0000 O   0  0  0  0  0  0  0  0  0  0  0  0
    3.6450   -3.3700    0.0000 C   0  0  0  0  0  0  0  0  0  0  0  0
    2.8950   -2.0710    0.0000 C   0  0  0  0  0  0  0  0  0  0  0  0
    1.3950   -2.0710    0.0000 C   0  0  0  0  0  0  0  0  0  0  0  0
    1.3950   -3.5710    0.0000 C   0  0  0  0  0  0  0  0  0  0  0  0
    0.0960   -2.8210    0.0000 C   0  0  0  0  0  0  0  0  0  0  0  0
    0.6450   -0.7720    0.0000 C   0  0  0  0  0  0  0  0  0  0  0  0
    1.3950    0.5270    0.0000 C   0  0  0  0  0  0  0  0  0  0  0  0
    2.8950    0.5270    0.0000 C   0  0  0  0  0  0  0  0  0  0  0  0
    3.6450   -0.7720    0.0000 C   0  0  0  0  0  0  0  0  0  0  0  0
    5.1450   -0.7720    0.0000 C   0  0  0  0  0  0  0  0  0  0  0  0
  1  2  2  0  0  0  0
  2  3  1  0  0  0  0
  3  4  1  0  0  0  0
  3 10  2  0  0  0  0
  4  5  1  0  0  0  0
  4  6  1  0  0  0  0
  4  7  1  0  0  0  0
  7  8  1  0  0  0  0
  8  9  1  0  0  0  0
  9 10  1  0  0  0  0
 10 11  1  0  0  0  0
M  END
>  <name>
O=CC=1C(C)(C)C[C;ether]CC=1C

>  <apo>
1

>  <freq>
1

>  <freq0>
0

>  <freq1>
1

>  <freqA>
0.9949851

$$$$

  MOE2015           2D

 14 14  0  0  1  0  0  0  0  0999 V2000
    3.5840    3.1020    0.0000 O   0  0  0  0  0  0  0  0  0  0  0  0
    3.8960    1.6350    0.0000 C   0  0  0  0  0  0  0  0  0  0  0  0
    2.7810    0.6310    0.0000 C   0  0  0  0  0  0  0  0  0  0  0  0
    2.9380   -0.8600    0.0000 N   0  3  3  0  0  0  0  0  0  0  0  0
    4.2370   -1.6100    0.0000 C   0  0  0  0  0  0  0  0  0  0  0  0
    5.5360   -0.8600    0.0000 C   0  0  0  0  0  0  0  0  0  0  0  0
    6.8350   -1.6100    0.0000 C   0  0  0  0  0  0  0  0  0  0  0  0
    8.1340   -0.8600    0.0000 C   0  0  0  0  0  0  0  0  0  0  0  0
    9.4330   -1.6100    0.0000 N   0  0  0  0  0  0  0  0  0  0  0  0
    1.5680   -1.4710    0.0000 C   0  0  0  0  0  0  0  0  0  0  0  0
    1.2560   -2.9380    0.0000 C   0  0  0  0  0  0  0  0  0  0  0  0
   -0.1710   -3.4010    0.0000 O   0  0  0  0  0  0  0  0  0  0  0  0
    0.5640   -0.3560    0.0000 C   0  0  0  0  0  0  0  0  0  0  0  0
    1.3140    0.9430    0.0000 C   0  0  0  0  0  0  0  0  0  0  0  0
  1  2  2  0  0  0  0
  2  3  1  0  0  0  0
  3  4  1  0  0  0  0
  3 14  2  0  0  0  0
  4  5  1  0  0  0  0
  4 10  1  0  0  0  0
  5  6  1  0  0  0  0
  6  7  1  0  0  0  0
  7  8  1  0  0  0  0
  8  9  1  0  0  0  0
 10 11  1  0  0  0  0
 10 13  2  0  0  0  0
 11 12  1  0  0  0  0
 13 14  1  0  0  0  0
M  CHG  1   4   1
M  END
>  <name>
O=CC=1[N+](CCCC[N;amide])C(CO)=CC=1

>  <apo>
1

>  <freq>
1

>  <freq0>
0

>  <freq1>
1

>  <freqA>
0.9949851

$$$$

  MOE2015           2D

 12 11  0  0  0  0  0  0  0  0999 V2000
   -0.7700    2.8730    0.0000 O   0  0  0  0  0  0  0  0  0  0  0  0
    0.5290    3.6230    0.0000 C   0  0  0  0  0  0  0  0  0  0  0  0
    1.8280    2.8730    0.0000 N   0  0  0  0  0  0  0  0  0  0  0  0
    3.1270    3.6230    0.0000 C   0  0  0  0  0  0  0  0  0  0  0  0
    4.4260    2.8730    0.0000 C   0  0  0  0  0  0  0  0  0  0  0  0
    5.7250    3.6230    0.0000 C   0  0  0  0  0  0  0  0  0  0  0  0
    7.0250    2.8730    0.0000 C   0  0  0  0  0  0  0  0  0  0  0  0
    8.3240    3.6230    0.0000 N   0  0  0  0  0  0  0  0  0  0  0  0
    9.6230    2.8730    0.0000 C   0  0  0  0  0  0  0  0  0  0  0  0
   10.9220    3.6230    0.0000 C   0  0  0  0  0  0  0  0  0  0  0  0
   12.2210    2.8730    0.0000 C   0  0  0  0  0  0  0  0  0  0  0  0
   13.5200    3.6230    0.0000 N   0  0  0  0  0  0  0  0  0  0  0  0
  1  2  2  0  0  0  0
  2  3  1  0  0  0  0
  3  4  1  0  0  0  0
  4  5  1  0  0  0  0
  5  6  1  0  0  0  0
  6  7  1  0  0  0  0
  7  8  1  0  0  0  0
  8  9  1  0  0  0  0
  9 10  1  0  0  0  0
 10 11  1  0  0  0  0
 11 12  1  0  0  0  0
M  END
>  <name>
O=CNCCCC[N;amide]CCC[N;amide]

>  <apo>
2

>  <freq>
1

>  <freq0>
0

>  <freq1>
1

>  <freqA>
0.9949851

$$$$

  MOE2015           2D

 13 13  0  0  1  0  0  0  0  0999 V2000
    9.0540   -1.0640    0.0000 O   0  0  0  0  0  0  0  0  0  0  0  0
    7.7550   -1.8140    0.0000 C   0  0  0  0  0  0  0  0  0  0  0  0
    6.4560   -1.0640    0.0000 O   0  0  0  0  0  0  0  0  0  0  0  0
    5.1570   -1.8140    0.0000 C   0  0  3  0  0  0  0  0  0  0  0  0
    3.8580   -1.0640    0.0000 C   0  0  3  0  0  0  0  0  0  0  0  0
    4.6080    0.2350    0.0000 O   0  0  0  0  0  0  0  0  0  0  0  0
    3.1080    0.2350    0.0000 C   0  0  0  0  0  0  0  0  0  0  0  0
    1.6080    0.2350    0.0000 O   0  0  0  0  0  0  0  0  0  0  0  0
    2.5590   -1.8140    0.0000 C   0  0  0  0  0  0  0  0  0  0  0  0
    2.5590   -3.3140    0.0000 C   0  0  0  0  0  0  0  0  0  0  0  0
    1.2600   -4.0640    0.0000 O   0  0  0  0  0  0  0  0  0  0  0  0
    3.8580   -4.0640    0.0000 C   0  0  0  0  0  0  0  0  0  0  0  0
    5.1570   -3.3140    0.0000 C   0  0  0  0  0  0  0  0  0  0  0  0
  1  2  2  0  0  0  0
  2  3  1  0  0  0  0
  3  4  1  0  0  0  0
  4  5  1  0  0  0  0
  4 13  1  0  0  0  0
  5  6  1  0  0  0  0
  5  7  1  0  0  0  0
  5  9  1  0  0  0  0
  7  8  2  0  0  0  0
  9 10  1  0  0  0  0
 10 11  2  0  0  0  0
 10 12  1  0  0  0  0
 12 13  2  0  0  0  0
M  END
>  <name>
O=COC1C(O)([C;ester]=O)[C;ether]C(=O)C=C1

>  <apo>
2

>  <freq>
1

>  <freq0>
0

>  <freq1>
1

>  <freqA>
0.9949851

$$$$

  MOE2015           2D

  3  2  0  0  0  0  0  0  0  0999 V2000
   -0.0490    0.1830    0.0000 O   0  0  0  0  0  0  0  0  0  0  0  0
    1.2500    0.9330    0.0000 C   0  0  0  0  0  0  0  0  0  0  0  0
    2.5490    0.1830    0.0000 C   0  0  0  0  0  0  0  0  0  0  0  0
  1  2  2  0  0  0  0
  2  3  1  0  0  0  0
M  END
>  <name>
O=C[C;olefin]

>  <apo>
1

>  <freq>
1

>  <freq0>
0

>  <freq1>
1

>  <freqA>
0.9949851

$$$$

  MOE2015           2D

 11 11  0  0  1  0  0  0  0  0999 V2000
    8.2240   -2.2040    0.0000 O   0  0  0  0  0  0  0  0  0  0  0  0
    6.9250   -1.4540    0.0000 C   0  0  0  0  0  0  0  0  0  0  0  0
    5.6260   -2.2040    0.0000 C   0  0  1  0  0  0  0  0  0  0  0  0
    5.6260   -3.7040    0.0000 N   0  0  0  0  0  0  0  0  0  0  0  0
    4.3270   -1.4540    0.0000 C   0  0  0  0  0  0  0  0  0  0  0  0
    3.0280   -2.2040    0.0000 C   0  0  3  0  0  0  0  0  0  0  0  0
    1.6570   -1.5930    0.0000 C   0  0  0  0  0  0  0  0  0  0  0  0
    1.3450   -0.1260    0.0000 O   0  0  0  0  0  0  0  0  0  0  0  0
    0.6540   -2.7080    0.0000 N   0  0  0  0  0  0  0  0  0  0  0  0
    1.4040   -4.0070    0.0000 C   0  0  0  0  0  0  0  0  0  0  0  0
    2.8710   -3.6950    0.0000 C   0  0  0  0  0  0  0  0  0  0  0  0
  1  2  2  0  0  0  0
  2  3  1  0  0  0  0
  3  4  1  1  0  0  0
  3  5  1  0  0  0  0
  5  6  1  0  0  0  0
  6  7  1  0  0  0  0
  6 11  1  0  0  0  0
  7  8  2  0  0  0  0
  7  9  1  0  0  0  0
  9 10  1  0  0  0  0
 10 11  1  0  0  0  0
M  END
>  <name>
O=C[C@@H]([N;amide])CC1C(=O)NCC1

>  <apo>
1

>  <freq>
1

>  <freq0>
0

>  <freq1>
1

>  <freqA>
0.9949851

$$$$

  MOE2015           2D

 12 11  0  0  1  0  0  0  0  0999 V2000
   -0.4220    2.3240    0.0000 O   0  0  0  0  0  0  0  0  0  0  0  0
    0.8770    1.5740    0.0000 C   0  0  0  0  0  0  0  0  0  0  0  0
    2.1760    2.3240    0.0000 C   0  0  2  0  0  0  0  0  0  0  0  0
    2.1760    3.8240    0.0000 O   0  0  0  0  0  0  0  0  0  0  0  0
    3.4750    1.5740    0.0000 C   0  0  1  0  0  0  0  0  0  0  0  0
    3.4750    0.0740    0.0000 O   0  0  0  0  0  0  0  0  0  0  0  0
    4.7750    2.3240    0.0000 C   0  0  2  0  0  0  0  0  0  0  0  0
    4.7750    3.8240    0.0000 O   0  0  0  0  0  0  0  0  0  0  0  0
    6.0740    1.5740    0.0000 C   0  0  2  0  0  0  0  0  0  0  0  0
    6.0740    0.0740    0.0000 O   0  0  0  0  0  0  0  0  0  0  0  0
    7.3730    2.3240    0.0000 C   0  0  0  0  0  0  0  0  0  0  0  0
    8.6720    1.5740    0.0000 O   0  0  0  0  0  0  0  0  0  0  0  0
  1  2  2  0  0  0  0
  2  3  1  0  0  0  0
  3  4  1  6  0  0  0
  3  5  1  0  0  0  0
  5  6  1  6  0  0  0
  5  7  1  0  0  0  0
  7  8  1  6  0  0  0
  7  9  1  0  0  0  0
  9 10  1  1  0  0  0
  9 11  1  0  0  0  0
 11 12  1  0  0  0  0
M  END
>  <name>
O=C[C@H]([O;ester])[C@@H]([O;ester])[C@H]([O;ester])[C@H](O)C[O;ester]

>  <apo>
4

>  <freq>
1

>  <freq0>
0

>  <freq1>
1

>  <freqA>
0.9949851

$$$$

  MOE2015           2D

 25 26  0  0  1  0  0  0  0  0999 V2000
    1.1790   -1.1790    0.0000 O   0  0  0  0  0  0  0  0  0  0  0  0
    2.4780   -0.4290    0.0000 C   0  0  0  0  0  0  0  0  0  0  0  0
    2.4780    1.0710    0.0000 C   0  0  3  0  0  0  0  0  0  0  0  0
    3.7770    1.8210    0.0000 C   0  0  3  0  0  0  0  0  0  0  0  0
    3.7770    3.3210    0.0000 O   0  0  0  0  0  0  0  0  0  0  0  0
    5.0760    1.0710    0.0000 C   0  0  0  0  0  0  0  0  0  0  0  0
    6.3750    1.8210    0.0000 C   0  0  0  0  0  0  0  0  0  0  0  0
    7.6740    1.0710    0.0000 C   0  0  0  0  0  0  0  0  0  0  0  0
    8.9730    1.8210    0.0000 O   0  0  0  0  0  0  0  0  0  0  0  0
    8.9730    3.3210    0.0000 C   0  0  0  0  0  0  0  0  0  0  0  0
    7.6740   -0.4290    0.0000 C   0  0  0  0  0  0  0  0  0  0  0  0
    8.9730   -1.1790    0.0000 O   0  0  0  0  0  0  0  0  0  0  0  0
    6.3750   -1.1790    0.0000 C   0  0  0  0  0  0  0  0  0  0  0  0
    5.0760   -0.4290    0.0000 C   0  0  0  0  0  0  0  0  0  0  0  0
    1.1790    1.8210    0.0000 C   0  0  0  0  0  0  0  0  0  0  0  0
   -0.1200    1.0710    0.0000 C   0  0  0  0  0  0  0  0  0  0  0  0
   -0.1200   -0.4290    0.0000 O   0  0  0  0  0  0  0  0  0  0  0  0
   -1.4190    1.8210    0.0000 C   0  0  0  0  0  0  0  0  0  0  0  0
   -2.7180    1.0710    0.0000 O   0  0  0  0  0  0  0  0  0  0  0  0
   -4.0170    1.8210    0.0000 C   0  0  0  0  0  0  0  0  0  0  0  0
   -1.4190    3.3210    0.0000 C   0  0  0  0  0  0  0  0  0  0  0  0
   -0.1200    4.0710    0.0000 C   0  0  0  0  0  0  0  0  0  0  0  0
   -0.1200    5.5710    0.0000 C   0  0  0  0  0  0  0  0  0  0  0  0
   -1.4190    6.3210    0.0000 C   0  0  0  0  0  0  0  0  0  0  0  0
    1.1790    3.3210    0.0000 C   0  0  0  0  0  0  0  0  0  0  0  0
  1  2  2  0  0  0  0
  2  3  1  0  0  0  0
  3  4  1  0  0  0  0
  3 15  1  0  0  0  0
  4  5  1  0  0  0  0
  4  6  1  0  0  0  0
  6  7  1  0  0  0  0
  6 14  2  0  0  0  0
  7  8  2  0  0  0  0
  8  9  1  0  0  0  0
  8 11  1  0  0  0  0
  9 10  1  0  0  0  0
 11 12  1  0  0  0  0
 11 13  2  0  0  0  0
 13 14  1  0  0  0  0
 15 16  1  0  0  0  0
 15 25  2  0  0  0  0
 16 17  1  0  0  0  0
 16 18  2  0  0  0  0
 18 19  1  0  0  0  0
 18 21  1  0  0  0  0
 19 20  1  0  0  0  0
 21 22  2  0  0  0  0
 22 23  1  0  0  0  0
 22 25  1  0  0  0  0
 23 24  1  0  0  0  0
M  END
>  <name>
O=[C;amide]C(C(O)c1cc(OC)c(O)cc1)c1c(O)c(OC)cc(C[C;olefin])c1

>  <apo>
2

>  <freq>
1

>  <freq0>
0

>  <freq1>
1

>  <freqA>
0.9949851

$$$$

  MOE2015           2D

 16 16  0  0  1  0  0  0  0  0999 V2000
    8.6970   -1.5800    0.0000 O   0  0  0  0  0  0  0  0  0  0  0  0
    7.3980   -2.3300    0.0000 C   0  0  0  0  0  0  0  0  0  0  0  0
    6.0990   -1.5800    0.0000 C   0  0  3  0  0  0  0  0  0  0  0  0
    6.0990   -0.0800    0.0000 C   0  0  0  0  0  0  0  0  0  0  0  0
    7.3980    0.6700    0.0000 C   0  0  0  0  0  0  0  0  0  0  0  0
    4.8000   -2.3300    0.0000 C   0  0  1  0  0  0  0  0  0  0  0  0
    6.0990   -3.0800    0.0000 O   0  0  0  0  0  0  0  0  0  0  0  0
    4.0500   -3.6290    0.0000 O   0  0  0  0  0  0  0  0  0  0  0  0
    2.5500   -3.6290    0.0000 C   0  0  1  0  0  0  0  0  0  0  0  0
    1.8000   -4.9280    0.0000 C   0  0  0  0  0  0  0  0  0  0  0  0
    1.8000   -2.3300    0.0000 C   0  0  0  0  0  0  0  0  0  0  0  0
    0.5010   -1.5800    0.0000 C   0  0  0  0  0  0  0  0  0  0  0  0
    0.5010   -3.0800    0.0000 C   0  0  0  0  0  0  0  0  0  0  0  0
    2.5500   -1.0310    0.0000 C   0  0  1  0  0  0  0  0  0  0  0  0
    1.8000    0.2680    0.0000 O   0  0  0  0  0  0  0  0  0  0  0  0
    4.0500   -1.0310    0.0000 C   0  0  0  0  0  0  0  0  0  0  0  0
  1  2  2  0  0  0  0
  2  3  1  0  0  0  0
  3  4  1  0  0  0  0
  6  3  1  1  0  0  0
  4  5  1  0  0  0  0
  6  7  1  6  0  0  0
  6  8  1  0  0  0  0
  6 16  1  0  0  0  0
  8  9  1  0  0  0  0
  9 10  1  1  0  0  0
  9 11  1  0  0  0  0
 11 12  1  0  0  0  0
 11 13  1  0  0  0  0
 11 14  1  0  0  0  0
 14 15  1  1  0  0  0
 14 16  1  0  0  0  0
M  END
>  <name>
O=[C;amide]C(CC)[C@@]1(O)O[C@@H]([C;olefin])C(C)(C)[C@@H](O)C1

>  <apo>
2

>  <freq>
1

>  <freq0>
0

>  <freq1>
1

>  <freqA>
0.9949851

$$$$

  MOE2015           2D

 14 14  0  0  0  0  0  0  0  0999 V2000
   10.0820   -2.7010    0.0000 O   0  0  0  0  0  0  0  0  0  0  0  0
    8.7830   -1.9510    0.0000 C   0  0  0  0  0  0  0  0  0  0  0  0
    7.4840   -2.7010    0.0000 C   0  0  0  0  0  0  0  0  0  0  0  0
    7.4840   -4.2010    0.0000 O   0  0  0  0  0  0  0  0  0  0  0  0
    6.1850   -1.9510    0.0000 C   0  0  0  0  0  0  0  0  0  0  0  0
    4.8860   -2.7010    0.0000 C   0  0  0  0  0  0  0  0  0  0  0  0
    3.5860   -1.9510    0.0000 C   0  0  0  0  0  0  0  0  0  0  0  0
    2.2870   -2.7010    0.0000 C   0  0  0  0  0  0  0  0  0  0  0  0
    0.9880   -1.9510    0.0000 O   0  0  0  0  0  0  0  0  0  0  0  0
    0.9880   -0.4510    0.0000 C   0  0  0  0  0  0  0  0  0  0  0  0
    2.2870   -4.2010    0.0000 C   0  0  0  0  0  0  0  0  0  0  0  0
    0.9880   -4.9510    0.0000 O   0  0  0  0  0  0  0  0  0  0  0  0
    3.5860   -4.9510    0.0000 C   0  0  0  0  0  0  0  0  0  0  0  0
    4.8860   -4.2010    0.0000 C   0  0  0  0  0  0  0  0  0  0  0  0
  1  2  2  0  0  0  0
  2  3  1  0  0  0  0
  3  4  1  0  0  0  0
  3  5  2  0  0  0  0
  5  6  1  0  0  0  0
  6  7  1  0  0  0  0
  6 14  2  0  0  0  0
  7  8  2  0  0  0  0
  8  9  1  0  0  0  0
  8 11  1  0  0  0  0
  9 10  1  0  0  0  0
 11 12  1  0  0  0  0
 11 13  2  0  0  0  0
 13 14  1  0  0  0  0
M  END
>  <name>
O=[C;amide]C(O)=Cc1cc(OC)c(O)cc1

>  <apo>
1

>  <freq>
1

>  <freq0>
0

>  <freq1>
1

>  <freqA>
0.9949851

$$$$

  MOE2015           2D

  5  4  0  0  1  0  0  0  0  0999 V2000
    3.8780   -1.0390    0.0000 O   0  0  0  0  0  0  0  0  0  0  0  0
    2.5790   -1.7890    0.0000 C   0  0  0  0  0  0  0  0  0  0  0  0
    1.2800   -1.0390    0.0000 C   0  0  3  0  0  0  0  0  0  0  0  0
   -0.0190   -1.7890    0.0000 N   0  0  0  0  0  0  0  0  0  0  0  0
    1.2800    0.4610    0.0000 C   0  0  0  0  0  0  0  0  0  0  0  0
  1  2  2  0  0  0  0
  2  3  1  0  0  0  0
  3  4  1  0  0  0  0
  3  5  1  0  0  0  0
M  END
>  <name>
O=[C;amide]C([N;amide])C

>  <apo>
2

>  <freq>
1

>  <freq0>
0

>  <freq1>
1

>  <freqA>
0.9949851

$$$$

  MOE2015           2D

  7  6  0  0  1  0  0  0  0  0999 V2000
    5.3550   -0.7920    0.0000 O   0  0  0  0  0  0  0  0  0  0  0  0
    4.0560   -1.5420    0.0000 C   0  0  0  0  0  0  0  0  0  0  0  0
    2.7570   -0.7920    0.0000 C   0  0  3  0  0  0  0  0  0  0  0  0
    2.7570    0.7080    0.0000 N   0  0  0  0  0  0  0  0  0  0  0  0
    1.4580   -1.5420    0.0000 C   0  0  0  0  0  0  0  0  0  0  0  0
    1.4580   -3.0420    0.0000 C   0  0  0  0  0  0  0  0  0  0  0  0
    0.1590   -0.7920    0.0000 C   0  0  0  0  0  0  0  0  0  0  0  0
  1  2  2  0  0  0  0
  2  3  1  0  0  0  0
  3  4  1  0  0  0  0
  3  5  1  0  0  0  0
  5  6  1  0  0  0  0
  5  7  1  0  0  0  0
M  END
>  <name>
O=[C;amide]C([N;amide])C(C)C

>  <apo>
2

>  <freq>
1

>  <freq0>
0

>  <freq1>
1

>  <freqA>
0.9949851

$$$$

  MOE2015           2D

  8  7  0  0  1  0  0  0  0  0999 V2000
   -0.2480   -1.6740    0.0000 O   0  0  0  0  0  0  0  0  0  0  0  0
    1.0510   -0.9240    0.0000 C   0  0  0  0  0  0  0  0  0  0  0  0
    2.3500   -1.6740    0.0000 C   0  0  3  0  0  0  0  0  0  0  0  0
    2.3500   -3.1740    0.0000 N   0  0  0  0  0  0  0  0  0  0  0  0
    3.6500   -0.9240    0.0000 C   0  0  3  0  0  0  0  0  0  0  0  0
    4.9490   -1.6740    0.0000 C   0  0  0  0  0  0  0  0  0  0  0  0
    6.2480   -0.9240    0.0000 C   0  0  0  0  0  0  0  0  0  0  0  0
    3.6500    0.5760    0.0000 C   0  0  0  0  0  0  0  0  0  0  0  0
  1  2  2  0  0  0  0
  2  3  1  0  0  0  0
  3  4  1  0  0  0  0
  3  5  1  0  0  0  0
  5  6  1  0  0  0  0
  5  8  1  0  0  0  0
  6  7  1  0  0  0  0
M  END
>  <name>
O=[C;amide]C([N;amide])C(CC)C

>  <apo>
2

>  <freq>
1

>  <freq0>
0

>  <freq1>
1

>  <freqA>
0.9949851

$$$$

  MOE2015           2D

  8  7  0  0  1  0  0  0  0  0999 V2000
    6.3160   -1.8800    0.0000 O   0  0  0  0  0  0  0  0  0  0  0  0
    5.0170   -2.6300    0.0000 C   0  0  0  0  0  0  0  0  0  0  0  0
    3.7180   -1.8800    0.0000 C   0  0  3  0  0  0  0  0  0  0  0  0
    3.7180   -0.3800    0.0000 N   0  0  0  0  0  0  0  0  0  0  0  0
    2.4190   -2.6300    0.0000 C   0  0  0  0  0  0  0  0  0  0  0  0
    1.1200   -1.8800    0.0000 C   0  0  0  0  0  0  0  0  0  0  0  0
   -0.1790   -2.6300    0.0000 C   0  0  0  0  0  0  0  0  0  0  0  0
    1.1200   -0.3800    0.0000 C   0  0  0  0  0  0  0  0  0  0  0  0
  1  2  2  0  0  0  0
  2  3  1  0  0  0  0
  3  4  1  0  0  0  0
  3  5  1  0  0  0  0
  5  6  1  0  0  0  0
  6  7  1  0  0  0  0
  6  8  1  0  0  0  0
M  END
>  <name>
O=[C;amide]C([N;amide])CC(C)C

>  <apo>
2

>  <freq>
1

>  <freq0>
0

>  <freq1>
1

>  <freqA>
0.9949851

$$$$

  MOE2015           2D

 21 23  0  0  1  0  0  0  0  0999 V2000
    5.5020    2.8690    0.0000 O   0  0  0  0  0  0  0  0  0  0  0  0
    5.6590    1.3770    0.0000 C   0  0  0  0  0  0  0  0  0  0  0  0
    4.4460    0.4960    0.0000 C   0  0  3  0  0  0  0  0  0  0  0  0
    4.4460   -1.0040    0.0000 C   0  0  3  0  0  0  0  0  0  0  0  0
    5.6590   -1.8860    0.0000 C   0  0  0  0  0  0  0  0  0  0  0  0
    7.0290   -1.2760    0.0000 C   0  0  0  0  0  0  0  0  0  0  0  0
    8.2430   -2.1570    0.0000 C   0  0  0  0  0  0  0  0  0  0  0  0
    9.6130   -1.5470    0.0000 O   0  0  0  0  0  0  0  0  0  0  0  0
    8.0860   -3.6490    0.0000 C   0  0  0  0  0  0  0  0  0  0  0  0
    9.3000   -4.5310    0.0000 O   0  0  0  0  0  0  0  0  0  0  0  0
    6.7160   -4.2590    0.0000 C   0  0  0  0  0  0  0  0  0  0  0  0
    5.5020   -3.3780    0.0000 C   0  0  0  0  0  0  0  0  0  0  0  0
    3.0190   -1.4680    0.0000 C   0  0  0  0  0  0  0  0  0  0  0  0
    2.1370   -0.2540    0.0000 C   0  0  0  0  0  0  0  0  0  0  0  0
    0.6450   -0.4110    0.0000 C   0  0  0  0  0  0  0  0  0  0  0  0
    0.0350   -1.7810    0.0000 C   0  0  0  0  0  0  0  0  0  0  0  0
   -1.4560   -1.9380    0.0000 O   0  0  0  0  0  0  0  0  0  0  0  0
    0.9170   -2.9950    0.0000 C   0  0  0  0  0  0  0  0  0  0  0  0
    0.3070   -4.3650    0.0000 O   0  0  0  0  0  0  0  0  0  0  0  0
    2.4090   -2.8380    0.0000 C   0  0  0  0  0  0  0  0  0  0  0  0
    3.0190    0.9590    0.0000 C   0  0  0  0  0  0  0  0  0  0  0  0
  1  2  2  0  0  0  0
  2  3  1  0  0  0  0
  3  4  1  0  0  0  0
  3 21  1  0  0  0  0
  4  5  1  0  0  0  0
  4 13  1  0  0  0  0
  5  6  1  0  0  0  0
  5 12  2  0  0  0  0
  6  7  2  0  0  0  0
  7  8  1  0  0  0  0
  7  9  1  0  0  0  0
  9 10  1  0  0  0  0
  9 11  2  0  0  0  0
 11 12  1  0  0  0  0
 13 14  1  0  0  0  0
 13 20  2  0  0  0  0
 14 15  2  0  0  0  0
 14 21  1  0  0  0  0
 15 16  1  0  0  0  0
 16 17  1  0  0  0  0
 16 18  2  0  0  0  0
 18 19  1  0  0  0  0
 18 20  1  0  0  0  0
M  END
>  <name>
O=[C;amide]C1C(c2cc(O)c(O)cc2)c2c(cc(O)c(O)c2)[C;olefin]1

>  <apo>
2

>  <freq>
1

>  <freq0>
0

>  <freq1>
1

>  <freqA>
0.9949851

$$$$

  MOE2015           2D

 21 23  0  0  1  0  0  0  0  0999 V2000
    2.5310    5.6850    0.0000 O   0  0  0  0  0  0  0  0  0  0  0  0
    3.5350    4.5700    0.0000 C   0  0  0  0  0  0  0  0  0  0  0  0
    3.0710    3.1430    0.0000 C   0  0  3  0  0  0  0  0  0  0  0  0
    3.9530    1.9300    0.0000 C   0  0  3  0  0  0  0  0  0  0  0  0
    5.4530    1.9300    0.0000 C   0  0  0  0  0  0  0  0  0  0  0  0
    6.2030    3.2290    0.0000 C   0  0  0  0  0  0  0  0  0  0  0  0
    7.7030    3.2290    0.0000 C   0  0  0  0  0  0  0  0  0  0  0  0
    8.4530    1.9300    0.0000 C   0  0  0  0  0  0  0  0  0  0  0  0
    9.9530    1.9300    0.0000 O   0  0  0  0  0  0  0  0  0  0  0  0
    7.7030    0.6310    0.0000 C   0  0  0  0  0  0  0  0  0  0  0  0
    6.2030    0.6310    0.0000 C   0  0  0  0  0  0  0  0  0  0  0  0
    3.0710    0.7160    0.0000 O   0  0  0  0  0  0  0  0  0  0  0  0
    1.6450    1.1800    0.0000 C   0  0  0  0  0  0  0  0  0  0  0  0
    0.3460    0.4300    0.0000 C   0  0  0  0  0  0  0  0  0  0  0  0
    0.3460   -1.0700    0.0000 O   0  0  0  0  0  0  0  0  0  0  0  0
   -0.9540   -1.8200    0.0000 C   0  0  0  0  0  0  0  0  0  0  0  0
   -0.9540    1.1800    0.0000 C   0  0  0  0  0  0  0  0  0  0  0  0
   -0.9540    2.6800    0.0000 C   0  0  0  0  0  0  0  0  0  0  0  0
   -2.2530    3.4300    0.0000 C   0  0  0  0  0  0  0  0  0  0  0  0
    0.3460    3.4300    0.0000 C   0  0  0  0  0  0  0  0  0  0  0  0
    1.6450    2.6800    0.0000 C   0  0  0  0  0  0  0  0  0  0  0  0
  1  2  2  0  0  0  0
  2  3  1  0  0  0  0
  3  4  1  0  0  0  0
  3 21  1  0  0  0  0
  4  5  1  0  0  0  0
  4 12  1  0  0  0  0
  5  6  1  0  0  0  0
  5 11  2  0  0  0  0
  6  7  2  0  0  0  0
  7  8  1  0  0  0  0
  8  9  1  0  0  0  0
  8 10  2  0  0  0  0
 10 11  1  0  0  0  0
 12 13  1  0  0  0  0
 13 14  1  0  0  0  0
 13 21  2  0  0  0  0
 14 15  1  0  0  0  0
 14 17  2  0  0  0  0
 15 16  1  0  0  0  0
 17 18  1  0  0  0  0
 18 19  1  0  0  0  0
 18 20  2  0  0  0  0
 20 21  1  0  0  0  0
M  END
>  <name>
O=[C;amide]C1C(c2ccc(O)cc2)Oc2c(OC)cc([C;olefin])cc12

>  <apo>
2

>  <freq>
1

>  <freq0>
0

>  <freq1>
1

>  <freqA>
0.9949851

$$$$

  MOE2015           2D

 19 21  0  0  1  0  0  0  0  0999 V2000
    2.1410    1.8700    0.0000 O   0  0  0  0  0  0  0  0  0  0  0  0
    3.1450    0.7550    0.0000 C   0  0  0  0  0  0  0  0  0  0  0  0
    2.6810   -0.6710    0.0000 C   0  0  3  0  0  0  0  0  0  0  0  0
    3.5630   -1.8850    0.0000 C   0  0  3  0  0  0  0  0  0  0  0  0
    5.0630   -1.8850    0.0000 C   0  0  0  0  0  0  0  0  0  0  0  0
    5.8130   -0.5860    0.0000 C   0  0  0  0  0  0  0  0  0  0  0  0
    7.3130   -0.5860    0.0000 C   0  0  0  0  0  0  0  0  0  0  0  0
    8.0630   -1.8850    0.0000 C   0  0  0  0  0  0  0  0  0  0  0  0
    9.5630   -1.8850    0.0000 O   0  0  0  0  0  0  0  0  0  0  0  0
    7.3130   -3.1840    0.0000 C   0  0  0  0  0  0  0  0  0  0  0  0
    5.8130   -3.1840    0.0000 C   0  0  0  0  0  0  0  0  0  0  0  0
    2.6810   -3.0980    0.0000 O   0  0  0  0  0  0  0  0  0  0  0  0
    1.2550   -2.6350    0.0000 C   0  0  0  0  0  0  0  0  0  0  0  0
    1.2550   -1.1350    0.0000 C   0  0  0  0  0  0  0  0  0  0  0  0
   -0.0450   -0.3850    0.0000 C   0  0  0  0  0  0  0  0  0  0  0  0
   -1.3440   -1.1350    0.0000 C   0  0  0  0  0  0  0  0  0  0  0  0
   -2.6430   -0.3850    0.0000 C   0  0  0  0  0  0  0  0  0  0  0  0
   -1.3440   -2.6350    0.0000 C   0  0  0  0  0  0  0  0  0  0  0  0
   -0.0450   -3.3850    0.0000 C   0  0  0  0  0  0  0  0  0  0  0  0
  1  2  2  0  0  0  0
  2  3  1  0  0  0  0
  3  4  1  0  0  0  0
  3 14  1  0  0  0  0
  4  5  1  0  0  0  0
  4 12  1  0  0  0  0
  5  6  1  0  0  0  0
  5 11  2  0  0  0  0
  6  7  2  0  0  0  0
  7  8  1  0  0  0  0
  8  9  1  0  0  0  0
  8 10  2  0  0  0  0
 10 11  1  0  0  0  0
 12 13  1  0  0  0  0
 13 14  1  0  0  0  0
 13 19  2  0  0  0  0
 14 15  2  0  0  0  0
 15 16  1  0  0  0  0
 16 17  1  0  0  0  0
 16 18  2  0  0  0  0
 18 19  1  0  0  0  0
M  END
>  <name>
O=[C;amide]C1C(c2ccc(O)cc2)Oc2c1cc([C;olefin])cc2

>  <apo>
2

>  <freq>
1

>  <freq0>
0

>  <freq1>
1

>  <freqA>
0.9949851

$$$$

  MOE2015           2D

 20 19  0  0  0  0  0  0  0  0999 V2000
   -1.4660    6.2210    0.0000 O   0  0  0  0  0  0  0  0  0  0  0  0
   -0.1670    5.4710    0.0000 C   0  0  0  0  0  0  0  0  0  0  0  0
    1.1320    6.2210    0.0000 C   0  0  0  0  0  0  0  0  0  0  0  0
    2.4310    5.4710    0.0000 C   0  0  0  0  0  0  0  0  0  0  0  0
    3.7300    6.2210    0.0000 C   0  0  0  0  0  0  0  0  0  0  0  0
    5.0290    5.4710    0.0000 C   0  0  0  0  0  0  0  0  0  0  0  0
    6.3280    6.2210    0.0000 C   0  0  0  0  0  0  0  0  0  0  0  0
    7.6270    5.4710    0.0000 C   0  0  0  0  0  0  0  0  0  0  0  0
    8.9260    6.2210    0.0000 C   0  0  0  0  0  0  0  0  0  0  0  0
   10.2250    5.4710    0.0000 C   0  0  0  0  0  0  0  0  0  0  0  0
   11.5250    6.2210    0.0000 C   0  0  0  0  0  0  0  0  0  0  0  0
   12.8240    5.4710    0.0000 C   0  0  0  0  0  0  0  0  0  0  0  0
   14.1230    6.2210    0.0000 C   0  0  0  0  0  0  0  0  0  0  0  0
   15.4220    5.4710    0.0000 C   0  0  0  0  0  0  0  0  0  0  0  0
   16.7210    6.2210    0.0000 C   0  0  0  0  0  0  0  0  0  0  0  0
   18.0200    5.4710    0.0000 C   0  0  0  0  0  0  0  0  0  0  0  0
   19.3190    6.2210    0.0000 C   0  0  0  0  0  0  0  0  0  0  0  0
   20.6180    5.4710    0.0000 C   0  0  0  0  0  0  0  0  0  0  0  0
   21.9170    6.2210    0.0000 C   0  0  0  0  0  0  0  0  0  0  0  0
   23.2160    5.4710    0.0000 O   0  0  0  0  0  0  0  0  0  0  0  0
  1  2  2  0  0  0  0
  2  3  1  0  0  0  0
  3  4  1  0  0  0  0
  4  5  1  0  0  0  0
  5  6  1  0  0  0  0
  6  7  1  0  0  0  0
  7  8  1  0  0  0  0
  8  9  1  0  0  0  0
  9 10  1  0  0  0  0
 10 11  1  0  0  0  0
 11 12  1  0  0  0  0
 12 13  1  0  0  0  0
 13 14  1  0  0  0  0
 14 15  1  0  0  0  0
 15 16  1  0  0  0  0
 16 17  1  0  0  0  0
 17 18  1  0  0  0  0
 18 19  1  0  0  0  0
 19 20  1  0  0  0  0
M  END
>  <name>
O=[C;amide]CCCCCCCCCCCCCCCCC[O;ester]

>  <apo>
2

>  <freq>
1

>  <freq0>
0

>  <freq1>
1

>  <freqA>
0.9949851

$$$$

  MOE2015           2D

  7  6  0  0  0  0  0  0  0  0999 V2000
   -0.3610   -1.9920    0.0000 O   0  0  0  0  0  0  0  0  0  0  0  0
    0.9380   -1.2420    0.0000 C   0  0  0  0  0  0  0  0  0  0  0  0
    2.2370   -1.9920    0.0000 C   0  0  0  0  0  0  0  0  0  0  0  0
    3.5360   -1.2420    0.0000 C   0  0  0  0  0  0  0  0  0  0  0  0
    4.8350   -1.9920    0.0000 C   0  0  0  0  0  0  0  0  0  0  0  0
    6.1340   -1.2420    0.0000 C   0  0  0  0  0  0  0  0  0  0  0  0
    7.4330   -1.9920    0.0000 C   0  0  0  0  0  0  0  0  0  0  0  0
  1  2  2  0  0  0  0
  2  3  1  0  0  0  0
  3  4  1  0  0  0  0
  4  5  1  0  0  0  0
  5  6  1  0  0  0  0
  6  7  1  0  0  0  0
M  END
>  <name>
O=[C;amide]CCCC[C;olefin]

>  <apo>
2

>  <freq>
1

>  <freq0>
0

>  <freq1>
1

>  <freqA>
0.9949851

$$$$

  MOE2015           2D

 23 24  0  0  0  0  0  0  0  0999 V2000
   12.8150   -7.3990    0.0000 O   0  0  0  0  0  0  0  0  0  0  0  0
   12.0650   -6.1000    0.0000 C   0  0  0  0  0  0  0  0  0  0  0  0
   10.5650   -6.1000    0.0000 C   0  0  0  0  0  0  0  0  0  0  0  0
    9.8150   -4.8010    0.0000 C   0  0  0  0  0  0  0  0  0  0  0  0
    8.3150   -4.8010    0.0000 C   0  0  0  0  0  0  0  0  0  0  0  0
    7.5650   -3.5020    0.0000 C   0  0  0  0  0  0  0  0  0  0  0  0
    6.0650   -3.5020    0.0000 C   0  0  0  0  0  0  0  0  0  0  0  0
    5.3150   -2.2030    0.0000 O   0  0  0  0  0  0  0  0  0  0  0  0
    6.0650   -0.9040    0.0000 C   0  0  0  0  0  0  0  0  0  0  0  0
    5.3150   -4.8010    0.0000 C   0  0  0  0  0  0  0  0  0  0  0  0
    3.8150   -4.8010    0.0000 O   0  0  0  0  0  0  0  0  0  0  0  0
    3.0650   -6.1000    0.0000 C   0  0  0  0  0  0  0  0  0  0  0  0
    1.5650   -6.1000    0.0000 C   0  0  0  0  0  0  0  0  0  0  0  0
    0.8150   -4.8010    0.0000 O   0  0  0  0  0  0  0  0  0  0  0  0
    0.8150   -7.3990    0.0000 C   0  0  0  0  0  0  0  0  0  0  0  0
   -0.6850   -7.3990    0.0000 O   0  0  0  0  0  0  0  0  0  0  0  0
   -1.4350   -8.6980    0.0000 C   0  0  0  0  0  0  0  0  0  0  0  0
    1.5650   -8.6980    0.0000 C   0  0  0  0  0  0  0  0  0  0  0  0
    3.0650   -8.6980    0.0000 C   0  0  0  0  0  0  0  0  0  0  0  0
    3.8150   -9.9970    0.0000 C   0  0  0  0  0  0  0  0  0  0  0  0
    3.8150   -7.3990    0.0000 C   0  0  0  0  0  0  0  0  0  0  0  0
    6.0650   -6.1000    0.0000 C   0  0  0  0  0  0  0  0  0  0  0  0
    7.5650   -6.1000    0.0000 C   0  0  0  0  0  0  0  0  0  0  0  0
  1  2  2  0  0  0  0
  2  3  1  0  0  0  0
  3  4  1  0  0  0  0
  4  5  1  0  0  0  0
  5  6  1  0  0  0  0
  5 23  2  0  0  0  0
  6  7  2  0  0  0  0
  7  8  1  0  0  0  0
  7 10  1  0  0  0  0
  8  9  1  0  0  0  0
 10 11  1  0  0  0  0
 10 22  2  0  0  0  0
 11 12  1  0  0  0  0
 12 13  1  0  0  0  0
 12 21  2  0  0  0  0
 13 14  1  0  0  0  0
 13 15  2  0  0  0  0
 15 16  1  0  0  0  0
 15 18  1  0  0  0  0
 16 17  1  0  0  0  0
 18 19  2  0  0  0  0
 19 20  1  0  0  0  0
 19 21  1  0  0  0  0
 22 23  1  0  0  0  0
M  END
>  <name>
O=[C;amide]CCc1cc(OC)c(Oc2c(O)c(OC)cc([C;olefin])c2)cc1

>  <apo>
2

>  <freq>
1

>  <freq0>
0

>  <freq1>
1

>  <freqA>
0.9949851

$$$$

  MOE2015           2D

  4  3  0  0  0  0  0  0  0  0999 V2000
   -0.0740   -1.0250    0.0000 O   0  0  0  0  0  0  0  0  0  0  0  0
    1.2250   -0.2750    0.0000 C   0  0  0  0  0  0  0  0  0  0  0  0
    2.5250   -1.0250    0.0000 C   0  0  0  0  0  0  0  0  0  0  0  0
    3.8240   -0.2750    0.0000 N   0  0  0  0  0  0  0  0  0  0  0  0
  1  2  2  0  0  0  0
  2  3  1  0  0  0  0
  3  4  1  0  0  0  0
M  END
>  <name>
O=[C;amide]C[N;amide]

>  <apo>
2

>  <freq>
1

>  <freq0>
0

>  <freq1>
1

>  <freqA>
0.9949851

$$$$

  MOE2015           2D

 10 10  0  0  0  0  0  0  0  0999 V2000
    8.5770   -2.8980    0.0000 O   0  0  0  0  0  0  0  0  0  0  0  0
    7.2770   -3.6480    0.0000 C   0  0  0  0  0  0  0  0  0  0  0  0
    5.9780   -2.8980    0.0000 C   0  0  0  0  0  0  0  0  0  0  0  0
    4.6790   -3.6480    0.0000 C   0  0  0  0  0  0  0  0  0  0  0  0
    3.3800   -2.8980    0.0000 C   0  0  0  0  0  0  0  0  0  0  0  0
    2.0810   -3.6480    0.0000 C   0  0  0  0  0  0  0  0  0  0  0  0
    0.7820   -2.8980    0.0000 C   0  0  0  0  0  0  0  0  0  0  0  0
    0.7820   -1.3980    0.0000 C   0  0  0  0  0  0  0  0  0  0  0  0
    2.0810   -0.6480    0.0000 C   0  0  0  0  0  0  0  0  0  0  0  0
    3.3800   -1.3980    0.0000 C   0  0  0  0  0  0  0  0  0  0  0  0
  1  2  2  0  0  0  0
  2  3  1  0  0  0  0
  3  4  1  0  0  0  0
  4  5  1  0  0  0  0
  5  6  1  0  0  0  0
  5 10  2  0  0  0  0
  6  7  2  0  0  0  0
  7  8  1  0  0  0  0
  8  9  2  0  0  0  0
  9 10  1  0  0  0  0
M  END
>  <name>
O=[C;amide][C;amine]Cc1ccccc1

>  <apo>
2

>  <freq>
1

>  <freq0>
0

>  <freq1>
1

>  <freqA>
0.9949851

$$$$

  MOE2015           2D

  3  2  0  0  0  0  0  0  0  0999 V2000
   -0.0490    0.1830    0.0000 O   0  0  0  0  0  0  0  0  0  0  0  0
    1.2500    0.9330    0.0000 C   0  0  0  0  0  0  0  0  0  0  0  0
    2.5490    0.1830    0.0000 C   0  0  0  0  0  0  0  0  0  0  0  0
  1  2  2  0  0  0  0
  2  3  1  0  0  0  0
M  END
>  <name>
O=[C;amide][C;ether]

>  <apo>
2

>  <freq>
1

>  <freq0>
0

>  <freq1>
1

>  <freqA>
0.9949851

$$$$

  MOE2015           2D

 11 11  0  0  1  0  0  0  0  0999 V2000
    8.1690   -3.0070    0.0000 O   0  0  0  0  0  0  0  0  0  0  0  0
    6.8700   -3.7570    0.0000 C   0  0  0  0  0  0  0  0  0  0  0  0
    5.5710   -3.0070    0.0000 C   0  0  1  0  0  0  0  0  0  0  0  0
    5.5710   -1.5070    0.0000 N   0  0  0  0  0  0  0  0  0  0  0  0
    4.2720   -3.7570    0.0000 C   0  0  0  0  0  0  0  0  0  0  0  0
    2.9730   -3.0070    0.0000 C   0  0  0  0  0  0  0  0  0  0  0  0
    1.6740   -3.7570    0.0000 C   0  0  0  0  0  0  0  0  0  0  0  0
    0.3750   -3.0070    0.0000 C   0  0  0  0  0  0  0  0  0  0  0  0
    0.3750   -1.5070    0.0000 C   0  0  0  0  0  0  0  0  0  0  0  0
    1.6740   -0.7570    0.0000 C   0  0  0  0  0  0  0  0  0  0  0  0
    2.9730   -1.5070    0.0000 C   0  0  0  0  0  0  0  0  0  0  0  0
  1  2  2  0  0  0  0
  2  3  1  0  0  0  0
  3  4  1  6  0  0  0
  3  5  1  0  0  0  0
  5  6  1  0  0  0  0
  6  7  1  0  0  0  0
  6 11  2  0  0  0  0
  7  8  2  0  0  0  0
  8  9  1  0  0  0  0
  9 10  2  0  0  0  0
 10 11  1  0  0  0  0
M  END
>  <name>
O=[C;amide][C@@H]([N;amide])Cc1ccccc1

>  <apo>
2

>  <freq>
1

>  <freq0>
0

>  <freq1>
1

>  <freqA>
0.9949851

$$$$

  MOE2015           2D

  7  6  0  0  1  0  0  0  0  0999 V2000
    5.3550   -0.7920    0.0000 O   0  0  0  0  0  0  0  0  0  0  0  0
    4.0560   -1.5420    0.0000 C   0  0  0  0  0  0  0  0  0  0  0  0
    2.7570   -0.7920    0.0000 C   0  0  1  0  0  0  0  0  0  0  0  0
    2.7570    0.7080    0.0000 N   0  0  0  0  0  0  0  0  0  0  0  0
    1.4580   -1.5420    0.0000 C   0  0  2  0  0  0  0  0  0  0  0  0
    1.4580   -3.0420    0.0000 O   0  0  0  0  0  0  0  0  0  0  0  0
    0.1590   -0.7920    0.0000 C   0  0  0  0  0  0  0  0  0  0  0  0
  1  2  2  0  0  0  0
  2  3  1  0  0  0  0
  3  4  1  6  0  0  0
  3  5  1  0  0  0  0
  5  6  1  0  0  0  0
  5  7  1  6  0  0  0
M  END
>  <name>
O=[C;amide][C@@H]([N;amide])[C@H]([O;ester])C

>  <apo>
3

>  <freq>
1

>  <freq0>
0

>  <freq1>
1

>  <freqA>
0.9949851

$$$$

  MOE2015           2D

  8  7  0  0  1  0  0  0  0  0999 V2000
    6.3160   -1.8800    0.0000 O   0  0  0  0  0  0  0  0  0  0  0  0
    5.0170   -2.6300    0.0000 C   0  0  0  0  0  0  0  0  0  0  0  0
    3.7180   -1.8800    0.0000 C   0  0  1  0  0  0  0  0  0  0  0  0
    3.7180   -0.3800    0.0000 O   0  0  0  0  0  0  0  0  0  0  0  0
    2.4190   -2.6300    0.0000 C   0  0  0  0  0  0  0  0  0  0  0  0
    1.1200   -1.8800    0.0000 C   0  0  0  0  0  0  0  0  0  0  0  0
   -0.1790   -2.6300    0.0000 C   0  0  0  0  0  0  0  0  0  0  0  0
    1.1200   -0.3800    0.0000 C   0  0  0  0  0  0  0  0  0  0  0  0
  1  2  2  0  0  0  0
  2  3  1  0  0  0  0
  3  4  1  6  0  0  0
  3  5  1  0  0  0  0
  5  6  1  0  0  0  0
  6  7  1  0  0  0  0
  6  8  1  0  0  0  0
M  END
>  <name>
O=[C;amide][C@@H]([O;ester])CC(C)C

>  <apo>
2

>  <freq>
1

>  <freq0>
0

>  <freq1>
1

>  <freqA>
0.9949851

$$$$

  MOE2015           2D

 13 13  0  0  1  0  0  0  0  0999 V2000
    6.5770    0.0000    0.0000 O   0  0  0  0  0  0  0  0  0  0  0  0
    5.0770    0.0000    0.0000 C   0  0  0  0  0  0  0  0  0  0  0  0
    4.3270   -1.2990    0.0000 C   0  0  2  0  0  0  0  0  0  0  0  0
    5.0770   -2.5980    0.0000 C   0  0  0  0  0  0  0  0  0  0  0  0
    4.3270   -3.8970    0.0000 C   0  0  0  0  0  0  0  0  0  0  0  0
    6.5770   -2.5980    0.0000 C   0  0  0  0  0  0  0  0  0  0  0  0
    2.8270   -1.2990    0.0000 N   0  0  0  0  0  0  0  0  0  0  0  0
    2.0770    0.0000    0.0000 C   0  0  0  0  0  0  0  0  0  0  0  0
    2.8270    1.2990    0.0000 O   0  0  0  0  0  0  0  0  0  0  0  0
    0.5770    0.0000    0.0000 N   0  0  0  0  0  0  0  0  0  0  0  0
   -0.1730   -1.2990    0.0000 C   0  0  0  0  0  0  0  0  0  0  0  0
    0.5770   -2.5980    0.0000 C   0  0  0  0  0  0  0  0  0  0  0  0
    2.0770   -2.5980    0.0000 C   0  0  0  0  0  0  0  0  0  0  0  0
  1  2  2  0  0  0  0
  3  2  1  6  0  0  0
  3  4  1  0  0  0  0
  3  7  1  0  0  0  0
  4  5  1  0  0  0  0
  4  6  1  0  0  0  0
  7  8  1  0  0  0  0
  7 13  1  0  0  0  0
  8  9  2  0  0  0  0
  8 10  1  0  0  0  0
 10 11  1  0  0  0  0
 11 12  1  0  0  0  0
 12 13  1  0  0  0  0
M  END
>  <name>
O=[C;amide][C@H](C(C)C)N1C(=O)NCCC1

>  <apo>
1

>  <freq>
1

>  <freq0>
0

>  <freq1>
1

>  <freqA>
0.9949851

$$$$

  MOE2015           2D

  9  8  0  0  1  0  0  0  0  0999 V2000
    0.3130   -4.3540    0.0000 O   0  0  0  0  0  0  0  0  0  0  0  0
    0.3130   -2.8540    0.0000 C   0  0  0  0  0  0  0  0  0  0  0  0
    1.6120   -2.1040    0.0000 C   0  0  2  0  0  0  0  0  0  0  0  0
    1.6120   -0.6040    0.0000 N   0  0  0  0  0  0  0  0  0  0  0  0
    0.3130    0.1460    0.0000 C   0  0  0  0  0  0  0  0  0  0  0  0
    2.9110   -2.8540    0.0000 C   0  0  0  0  0  0  0  0  0  0  0  0
    4.2100   -2.1040    0.0000 C   0  0  0  0  0  0  0  0  0  0  0  0
    5.5090   -2.8540    0.0000 C   0  0  0  0  0  0  0  0  0  0  0  0
    4.2100   -0.6040    0.0000 C   0  0  0  0  0  0  0  0  0  0  0  0
  1  2  2  0  0  0  0
  3  2  1  6  0  0  0
  3  4  1  0  0  0  0
  3  6  1  0  0  0  0
  4  5  1  0  0  0  0
  6  7  1  0  0  0  0
  7  8  1  0  0  0  0
  7  9  1  0  0  0  0
M  END
>  <name>
O=[C;amide][C@H]([N;amide]C)CC(C)C

>  <apo>
2

>  <freq>
1

>  <freq0>
0

>  <freq1>
1

>  <freqA>
0.9949851

$$$$

  MOE2015           2D

 20 21  0  0  1  0  0  0  0  0999 V2000
    1.8370    3.0530    0.0000 O   0  0  0  0  0  0  0  0  0  0  0  0
    2.5870    1.7540    0.0000 C   0  0  0  0  0  0  0  0  0  0  0  0
    1.8370    0.4550    0.0000 C   0  0  2  0  0  0  0  0  0  0  0  0
    2.5880   -0.8440    0.0000 N   0  0  0  0  0  0  0  0  0  0  0  0
    4.0880   -0.8440    0.0000 C   0  0  0  0  0  0  0  0  0  0  0  0
    4.8380    0.4550    0.0000 C   0  0  0  0  0  0  0  0  0  0  0  0
    6.3380    0.4550    0.0000 C   0  0  0  0  0  0  0  0  0  0  0  0
    7.0880   -0.8440    0.0000 C   0  0  0  0  0  0  0  0  0  0  0  0
    8.5880   -0.8440    0.0000 C   0  0  0  0  0  0  0  0  0  0  0  0
    8.5880    0.6560    0.0000 C   0  0  0  0  0  0  0  0  0  0  0  0
   10.0880   -0.8440    0.0000 C   0  0  0  0  0  0  0  0  0  0  0  0
    8.5880   -2.3440    0.0000 C   0  0  0  0  0  0  0  0  0  0  0  0
    6.3380   -2.1430    0.0000 C   0  0  0  0  0  0  0  0  0  0  0  0
    4.8380   -2.1430    0.0000 C   0  0  0  0  0  0  0  0  0  0  0  0
    0.3370    0.4550    0.0000 C   0  0  0  0  0  0  0  0  0  0  0  0
   -0.4130    1.7540    0.0000 C   0  0  0  0  0  0  0  0  0  0  0  0
   -1.9130    1.7540    0.0000 N   0  0  0  0  0  0  0  0  0  0  0  0
   -2.6630    0.4550    0.0000 C   0  0  0  0  0  0  0  0  0  0  0  0
   -1.9130   -0.8440    0.0000 C   0  0  0  0  0  0  0  0  0  0  0  0
   -0.4130   -0.8440    0.0000 C   0  0  0  0  0  0  0  0  0  0  0  0
  1  2  2  0  0  0  0
  3  2  1  6  0  0  0
  3  4  1  0  0  0  0
  3 15  1  0  0  0  0
  4  5  1  0  0  0  0
  5  6  1  0  0  0  0
  5 14  2  0  0  0  0
  6  7  2  0  0  0  0
  7  8  1  0  0  0  0
  8  9  1  0  0  0  0
  8 13  2  0  0  0  0
  9 10  1  0  0  0  0
  9 11  1  0  0  0  0
  9 12  1  0  0  0  0
 13 14  1  0  0  0  0
 15 16  2  0  0  0  0
 15 20  1  0  0  0  0
 16 17  1  0  0  0  0
 17 18  2  0  0  0  0
 18 19  1  0  0  0  0
 19 20  2  0  0  0  0
M  END
>  <name>
O=[C;amide][C@H]([N;amide]c1ccc(C(C)(C)C)cc1)c1cnccc1

>  <apo>
2

>  <freq>
1

>  <freq0>
0

>  <freq1>
1

>  <freqA>
0.9949851

$$$$

  MOE2015           2D

  9  9  0  0  0  0  0  0  0  0999 V2000
    6.0000   -3.4640    0.0000 O   0  0  0  0  0  0  0  0  0  0  0  0
    5.2500   -2.1650    0.0000 C   0  0  0  0  0  0  0  0  0  0  0  0
    3.7500   -2.1650    0.0000 C   0  0  0  0  0  0  0  0  0  0  0  0
    3.0000   -0.8660    0.0000 C   0  0  0  0  0  0  0  0  0  0  0  0
    1.5000   -0.8660    0.0000 C   0  0  0  0  0  0  0  0  0  0  0  0
    0.7500   -2.1650    0.0000 C   0  0  0  0  0  0  0  0  0  0  0  0
   -0.7500   -2.1650    0.0000 N   0  0  0  0  0  0  0  0  0  0  0  0
    1.5000   -3.4640    0.0000 C   0  0  0  0  0  0  0  0  0  0  0  0
    3.0000   -3.4640    0.0000 C   0  0  0  0  0  0  0  0  0  0  0  0
  1  2  2  0  0  0  0
  2  3  1  0  0  0  0
  3  4  1  0  0  0  0
  3  9  2  0  0  0  0
  4  5  2  0  0  0  0
  5  6  1  0  0  0  0
  6  7  1  0  0  0  0
  6  8  2  0  0  0  0
  8  9  1  0  0  0  0
M  END
>  <name>
O=[C;amide]c1ccc([N;amine])cc1

>  <apo>
2

>  <freq>
1

>  <freq0>
0

>  <freq1>
1

>  <freqA>
0.9949851

$$$$

  MOE2015           2D

  7  7  0  0  0  0  0  0  0  0999 V2000
    4.9030   -0.6040    0.0000 O   0  0  0  0  0  0  0  0  0  0  0  0
    4.1530   -1.9030    0.0000 C   0  0  0  0  0  0  0  0  0  0  0  0
    2.6530   -1.9030    0.0000 C   0  0  0  0  0  0  0  0  0  0  0  0
    1.7710   -3.1160    0.0000 O   0  0  0  0  0  0  0  0  0  0  0  0
    0.3450   -2.6530    0.0000 C   0  0  0  0  0  0  0  0  0  0  0  0
    0.3450   -1.1530    0.0000 C   0  0  0  0  0  0  0  0  0  0  0  0
    1.7710   -0.6890    0.0000 C   0  0  0  0  0  0  0  0  0  0  0  0
  1  2  2  0  0  0  0
  2  3  1  0  0  0  0
  3  4  1  0  0  0  0
  3  7  2  0  0  0  0
  4  5  1  0  0  0  0
  5  6  2  0  0  0  0
  6  7  1  0  0  0  0
M  END
>  <name>
O=[C;amide]c1occc1

>  <apo>
1

>  <freq>
1

>  <freq0>
0

>  <freq1>
1

>  <freqA>
0.9949851

$$$$

  MOE2015           2D

  6  5  0  0  0  0  0  0  0  0999 V2000
    4.0400   -1.0830    0.0000 O   0  0  0  0  0  0  0  0  0  0  0  0
    2.7410   -1.8330    0.0000 C   0  0  0  0  0  0  0  0  0  0  0  0
    1.4420   -1.0830    0.0000 C   0  0  0  0  0  0  0  0  0  0  0  0
    2.1920    0.2170    0.0000 C   0  0  0  0  0  0  0  0  0  0  0  0
    0.6920   -2.3820    0.0000 C   0  0  0  0  0  0  0  0  0  0  0  0
    0.1430   -0.3330    0.0000 C   0  0  0  0  0  0  0  0  0  0  0  0
  1  2  2  0  0  0  0
  2  3  1  0  0  0  0
  3  4  1  0  0  0  0
  3  5  1  0  0  0  0
  3  6  1  0  0  0  0
M  END
>  <name>
O=[C;ester]C(C)(C)C

>  <apo>
1

>  <freq>
1

>  <freq0>
0

>  <freq1>
1

>  <freqA>
0.9949851

$$$$

  MOE2015           2D

  5  4  0  0  0  0  0  0  0  0999 V2000
    3.8780   -1.0390    0.0000 O   0  0  0  0  0  0  0  0  0  0  0  0
    2.5790   -1.7890    0.0000 C   0  0  0  0  0  0  0  0  0  0  0  0
    1.2800   -1.0390    0.0000 C   0  0  0  0  0  0  0  0  0  0  0  0
   -0.0190   -1.7890    0.0000 C   0  0  0  0  0  0  0  0  0  0  0  0
    1.2800    0.4610    0.0000 C   0  0  0  0  0  0  0  0  0  0  0  0
  1  2  2  0  0  0  0
  2  3  1  0  0  0  0
  3  4  1  0  0  0  0
  3  5  1  0  0  0  0
M  END
>  <name>
O=[C;ester]C(C)C

>  <apo>
1

>  <freq>
1

>  <freq0>
0

>  <freq1>
1

>  <freqA>
0.9949851

$$$$

  MOE2015           2D

  8  7  0  0  1  0  0  0  0  0999 V2000
   -0.2480   -1.6740    0.0000 O   0  0  0  0  0  0  0  0  0  0  0  0
    1.0510   -0.9240    0.0000 C   0  0  0  0  0  0  0  0  0  0  0  0
    2.3500   -1.6740    0.0000 C   0  0  0  0  0  0  0  0  0  0  0  0
    3.6500   -0.9240    0.0000 C   0  0  1  0  0  0  0  0  0  0  0  0
    3.6500    0.5760    0.0000 O   0  0  0  0  0  0  0  0  0  0  0  0
    4.9490   -1.6740    0.0000 C   0  0  0  0  0  0  0  0  0  0  0  0
    6.2480   -0.9240    0.0000 O   0  0  0  0  0  0  0  0  0  0  0  0
    2.3500   -3.1740    0.0000 C   0  0  0  0  0  0  0  0  0  0  0  0
  1  2  2  0  0  0  0
  2  3  1  0  0  0  0
  3  4  1  0  0  0  0
  3  8  2  0  0  0  0
  4  5  1  1  0  0  0
  4  6  1  0  0  0  0
  6  7  1  0  0  0  0
M  END
>  <name>
O=[C;ester]C([C@@H](O)CO)=C

>  <apo>
1

>  <freq>
1

>  <freq0>
0

>  <freq1>
1

>  <freqA>
0.9949851

$$$$

  MOE2015           2D

 10 10  0  0  1  0  0  0  0  0999 V2000
    4.9940   -2.8830    0.0000 O   0  0  0  0  0  0  0  0  0  0  0  0
    4.2440   -1.5840    0.0000 C   0  0  0  0  0  0  0  0  0  0  0  0
    2.7440   -1.5840    0.0000 C   0  0  3  0  0  0  0  0  0  0  0  0
    3.4940   -0.2850    0.0000 O   0  0  0  0  0  0  0  0  0  0  0  0
    1.4450   -0.8340    0.0000 C   0  0  0  0  0  0  0  0  0  0  0  0
    1.4450    0.6660    0.0000 O   0  0  0  0  0  0  0  0  0  0  0  0
    0.1460   -1.5840    0.0000 C   0  0  0  0  0  0  0  0  0  0  0  0
    0.1460   -3.0840    0.0000 C   0  0  0  0  0  0  0  0  0  0  0  0
    1.4450   -3.8340    0.0000 C   0  0  0  0  0  0  0  0  0  0  0  0
    2.7440   -3.0840    0.0000 C   0  0  0  0  0  0  0  0  0  0  0  0
  1  2  2  0  0  0  0
  2  3  1  0  0  0  0
  3  4  1  0  0  0  0
  3  5  1  0  0  0  0
  3 10  1  0  0  0  0
  5  6  2  0  0  0  0
  5  7  1  0  0  0  0
  7  8  1  0  0  0  0
  8  9  1  0  0  0  0
  9 10  2  0  0  0  0
M  END
>  <name>
O=[C;ester]C1(O)C(=O)CCC=C1

>  <apo>
1

>  <freq>
1

>  <freq0>
0

>  <freq1>
1

>  <freqA>
0.9949851

$$$$

  MOE2015           2D

 12 12  0  0  1  0  0  0  0  0999 V2000
   -0.2170    0.3750    0.0000 O   0  0  0  0  0  0  0  0  0  0  0  0
    0.5330    1.6740    0.0000 C   0  0  0  0  0  0  0  0  0  0  0  0
    2.0330    1.6740    0.0000 C   0  0  3  0  0  0  0  0  0  0  0  0
    1.2830    0.3750    0.0000 O   0  0  0  0  0  0  0  0  0  0  0  0
    3.3330    0.9240    0.0000 C   0  0  3  0  0  0  0  0  0  0  0  0
    3.3330   -0.5760    0.0000 O   0  0  0  0  0  0  0  0  0  0  0  0
    4.6320    1.6740    0.0000 C   0  0  0  0  0  0  0  0  0  0  0  0
    5.9310    0.9240    0.0000 O   0  0  0  0  0  0  0  0  0  0  0  0
    4.6320    3.1740    0.0000 C   0  0  0  0  0  0  0  0  0  0  0  0
    3.3330    3.9240    0.0000 C   0  0  0  0  0  0  0  0  0  0  0  0
    2.0330    3.1740    0.0000 C   0  0  3  0  0  0  0  0  0  0  0  0
    0.7340    3.9240    0.0000 O   0  0  0  0  0  0  0  0  0  0  0  0
  1  2  2  0  0  0  0
  2  3  1  0  0  0  0
  3  4  1  0  0  0  0
  3  5  1  0  0  0  0
  3 11  1  0  0  0  0
  5  6  1  0  0  0  0
  5  7  1  0  0  0  0
  7  8  2  0  0  0  0
  7  9  1  0  0  0  0
  9 10  2  0  0  0  0
 10 11  1  0  0  0  0
 11 12  1  0  0  0  0
M  END
>  <name>
O=[C;ester]C1(O)C(O)C(=O)C=CC1O

>  <apo>
1

>  <freq>
1

>  <freq0>
0

>  <freq1>
1

>  <freqA>
0.9949851

$$$$

  MOE2015           2D

 28 32  0  0  1  0  0  0  0  0999 V2000
   -0.1310    0.2080    0.0000 O   0  0  0  0  0  0  0  0  0  0  0  0
    0.5190    1.5600    0.0000 C   0  0  0  0  0  0  0  0  0  0  0  0
    2.0140    1.6740    0.0000 C   0  0  3  0  0  0  0  0  0  0  0  0
    3.4820    1.6620    0.0000 N   0  0  0  0  0  0  0  0  0  0  0  0
    4.2260    2.9270    0.0000 C   0  0  0  0  0  0  0  0  0  0  0  0
    3.5050    4.1980    0.0000 N   0  0  0  0  0  0  0  0  0  0  0  0
    2.0430    4.2200    0.0000 C   0  0  3  0  0  0  0  0  0  0  0  0
    0.5430    4.2110    0.0000 O   0  0  0  0  0  0  0  0  0  0  0  0
   -0.2140    5.5060    0.0000 C   0  0  3  0  0  0  0  0  0  0  0  0
   -1.7140    5.4970    0.0000 C   0  0  0  0  0  0  0  0  0  0  0  0
    0.5280    6.8090    0.0000 C   0  0  0  0  0  0  0  0  0  0  0  0
    2.0280    6.8180    0.0000 C   0  0  0  0  0  0  0  0  0  0  0  0
    2.7860    5.5230    0.0000 C   0  0  0  0  0  0  0  0  0  0  0  0
    1.2940    2.9560    0.0000 C   0  0  0  0  0  0  0  0  0  0  0  0
    5.6910    2.9040    0.0000 N   0  0  0  0  0  0  0  0  0  0  0  0
    6.4120    1.6330    0.0000 C   0  0  3  0  0  0  0  0  0  0  0  0
    7.0870    2.9720    0.0000 O   0  0  0  0  0  0  0  0  0  0  0  0
    8.5560    3.2770    0.0000 C   0  0  3  0  0  0  0  0  0  0  0  0
    8.9180    4.7330    0.0000 C   0  0  0  0  0  0  0  0  0  0  0  0
   10.3600    5.1470    0.0000 C   0  0  0  0  0  0  0  0  0  0  0  0
    9.7110    2.3200    0.0000 C   0  0  0  0  0  0  0  0  0  0  0  0
    9.6830    0.8200    0.0000 C   0  0  0  0  0  0  0  0  0  0  0  0
    8.4930   -0.0930    0.0000 C   0  0  0  0  0  0  0  0  0  0  0  0
    7.0370    0.2690    0.0000 C   0  0  0  0  0  0  0  0  0  0  0  0
    5.6660    0.3690    0.0000 C   0  0  0  0  0  0  0  0  0  0  0  0
    4.2020    0.3810    0.0000 C   0  0  3  0  0  0  0  0  0  0  0  0
    3.2040   -0.7350    0.0000 C   0  0  0  0  0  0  0  0  0  0  0  0
    1.6040    0.2220    0.0000 C   0  0  0  0  0  0  0  0  0  0  0  0
  1  2  2  0  0  0  0
  2  3  1  0  0  0  0
  3  4  1  0  0  0  0
  3 14  1  0  0  0  0
  3 28  1  0  0  0  0
  4  5  1  0  0  0  0
  4 26  1  0  0  0  0
  5  6  2  0  0  0  0
  5 15  1  0  0  0  0
  6  7  1  0  0  0  0
  7  8  1  0  0  0  0
  7 13  1  0  0  0  0
  7 14  1  0  0  0  0
  8  9  1  0  0  0  0
  9 10  1  0  0  0  0
  9 11  1  0  0  0  0
 11 12  1  0  0  0  0
 12 13  1  0  0  0  0
 15 16  1  0  0  0  0
 16 17  1  0  0  0  0
 16 24  1  0  0  0  0
 16 25  1  0  0  0  0
 17 18  1  0  0  0  0
 18 19  1  0  0  0  0
 18 21  1  0  0  0  0
 19 20  1  0  0  0  0
 21 22  2  0  0  0  0
 22 23  1  0  0  0  0
 23 24  1  0  0  0  0
 25 26  1  0  0  0  0
 26 27  1  0  0  0  0
 27 28  1  0  0  0  0
M  END
>  <name>
O=[C;ester]C12N3C(=NC4(OC(C)CCC4)C1)NC1(OC(CC)C=CCC1)CC3CC2

>  <apo>
1

>  <freq>
1

>  <freq0>
0

>  <freq1>
1

>  <freqA>
0.9949851

$$$$

  MOE2015           2D

 17 19  0  0  1  0  0  0  0  0999 V2000
   10.0060   -2.4420    0.0000 O   0  0  0  0  0  0  0  0  0  0  0  0
    8.6750   -1.7510    0.0000 C   0  0  0  0  0  0  0  0  0  0  0  0
    7.4100   -2.5590    0.0000 C   0  0  3  0  0  0  0  0  0  0  0  0
    6.0790   -1.8680    0.0000 C   0  0  3  0  0  0  0  0  0  0  0  0
    6.0120   -0.3690    0.0000 C   0  0  0  0  0  0  0  0  0  0  0  0
    4.8150   -2.6750    0.0000 C   0  0  0  0  0  0  0  0  0  0  0  0
    3.3690   -2.2760    0.0000 C   0  0  0  0  0  0  0  0  0  0  0  0
    2.6980   -0.9340    0.0000 C   0  0  0  0  0  0  0  0  0  0  0  0
    3.5250    0.3180    0.0000 O   0  0  0  0  0  0  0  0  0  0  0  0
    1.2010   -0.8440    0.0000 C   0  0  0  0  0  0  0  0  0  0  0  0
    0.3740   -2.0960    0.0000 C   0  0  0  0  0  0  0  0  0  0  0  0
    1.0450   -3.4380    0.0000 C   0  0  0  0  0  0  0  0  0  0  0  0
    2.5430   -3.5280    0.0000 C   0  0  0  0  0  0  0  0  0  0  0  0
    3.4780   -4.7000    0.0000 N   0  0  0  0  0  0  0  0  0  0  0  0
    4.8820   -4.1730    0.0000 C   0  0  0  0  0  0  0  0  0  0  0  0
    6.2130   -4.8640    0.0000 C   0  0  0  0  0  0  0  0  0  0  0  0
    7.4780   -4.0570    0.0000 N   0  0  0  0  0  0  0  0  0  0  0  0
  1  2  2  0  0  0  0
  2  3  1  0  0  0  0
  3  4  1  0  0  0  0
  3 17  1  0  0  0  0
  4  5  1  0  0  0  0
  4  6  1  0  0  0  0
  6  7  1  0  0  0  0
  6 15  2  0  0  0  0
  7  8  1  0  0  0  0
  7 13  2  0  0  0  0
  8  9  1  0  0  0  0
  8 10  2  0  0  0  0
 10 11  1  0  0  0  0
 11 12  2  0  0  0  0
 12 13  1  0  0  0  0
 13 14  1  0  0  0  0
 14 15  1  0  0  0  0
 15 16  1  0  0  0  0
 16 17  2  0  0  0  0
M  END
>  <name>
O=[C;ester]C1C(C)c2c3c([O;ether])cccc3[nH]c2C=N1

>  <apo>
2

>  <freq>
1

>  <freq0>
0

>  <freq1>
1

>  <freqA>
0.9949851

$$$$

  MOE2015           2D

  7  7  0  0  1  0  0  0  0  0999 V2000
   -0.4340    1.6780    0.0000 O   0  0  0  0  0  0  0  0  0  0  0  0
    0.8650    0.9280    0.0000 C   0  0  0  0  0  0  0  0  0  0  0  0
    2.1640    1.6780    0.0000 C   0  0  3  0  0  0  0  0  0  0  0  0
    3.6640    1.6780    0.0000 C   0  0  3  0  0  0  0  0  0  0  0  0
    4.9630    0.9280    0.0000 C   0  0  0  0  0  0  0  0  0  0  0  0
    6.2620    1.6780    0.0000 O   0  0  0  0  0  0  0  0  0  0  0  0
    2.9140    2.9770    0.0000 O   0  0  0  0  0  0  0  0  0  0  0  0
  1  2  2  0  0  0  0
  2  3  1  0  0  0  0
  3  4  1  0  0  0  0
  3  7  1  0  0  0  0
  4  5  1  0  0  0  0
  4  7  1  0  0  0  0
  5  6  2  0  0  0  0
M  END
>  <name>
O=[C;ester]C1C([C;amide]=O)O1

>  <apo>
2

>  <freq>
1

>  <freq0>
0

>  <freq1>
1

>  <freqA>
0.9949851

$$$$

  MOE2015           2D

 24 26  0  0  1  0  0  0  0  0999 V2000
    4.4450    7.6980    0.0000 O   0  0  0  0  0  0  0  0  0  0  0  0
    5.1950    6.3990    0.0000 C   0  0  0  0  0  0  0  0  0  0  0  0
    4.4450    5.1000    0.0000 C   0  0  3  0  0  0  0  0  0  0  0  0
    2.9960    4.7120    0.0000 C   0  0  3  0  0  0  0  0  0  0  0  0
    1.6970    5.4620    0.0000 C   0  0  0  0  0  0  0  0  0  0  0  0
    1.6970    6.9620    0.0000 O   0  0  0  0  0  0  0  0  0  0  0  0
    3.3840    3.2630    0.0000 C   0  0  3  0  0  0  0  0  0  0  0  0
    2.6340    1.9640    0.0000 C   0  0  0  0  0  0  0  0  0  0  0  0
    1.1340    1.9640    0.0000 C   0  0  0  0  0  0  0  0  0  0  0  0
    0.3840    0.6650    0.0000 C   0  0  0  0  0  0  0  0  0  0  0  0
   -1.1160    0.6650    0.0000 O   0  0  0  0  0  0  0  0  0  0  0  0
    1.1340   -0.6340    0.0000 C   0  0  0  0  0  0  0  0  0  0  0  0
    0.3840   -1.9330    0.0000 O   0  0  0  0  0  0  0  0  0  0  0  0
    2.6340   -0.6340    0.0000 C   0  0  0  0  0  0  0  0  0  0  0  0
    3.3840    0.6650    0.0000 C   0  0  0  0  0  0  0  0  0  0  0  0
    4.8330    3.6510    0.0000 C   0  0  3  0  0  0  0  0  0  0  0  0
    6.1320    2.9010    0.0000 C   0  0  0  0  0  0  0  0  0  0  0  0
    7.4310    3.6510    0.0000 C   0  0  0  0  0  0  0  0  0  0  0  0
    8.7300    2.9010    0.0000 C   0  0  0  0  0  0  0  0  0  0  0  0
   10.0290    3.6510    0.0000 O   0  0  0  0  0  0  0  0  0  0  0  0
    8.7300    1.4010    0.0000 C   0  0  0  0  0  0  0  0  0  0  0  0
   10.0290    0.6510    0.0000 O   0  0  0  0  0  0  0  0  0  0  0  0
    7.4310    0.6510    0.0000 C   0  0  0  0  0  0  0  0  0  0  0  0
    6.1320    1.4010    0.0000 C   0  0  0  0  0  0  0  0  0  0  0  0
  1  2  2  0  0  0  0
  2  3  1  0  0  0  0
  3  4  1  0  0  0  0
  3 16  1  0  0  0  0
  4  5  1  0  0  0  0
  4  7  1  0  0  0  0
  5  6  2  0  0  0  0
  7  8  1  0  0  0  0
  7 16  1  0  0  0  0
  8  9  1  0  0  0  0
  8 15  2  0  0  0  0
  9 10  2  0  0  0  0
 10 11  1  0  0  0  0
 10 12  1  0  0  0  0
 12 13  1  0  0  0  0
 12 14  2  0  0  0  0
 14 15  1  0  0  0  0
 16 17  1  0  0  0  0
 17 18  1  0  0  0  0
 17 24  2  0  0  0  0
 18 19  2  0  0  0  0
 19 20  1  0  0  0  0
 19 21  1  0  0  0  0
 21 22  1  0  0  0  0
 21 23  2  0  0  0  0
 23 24  1  0  0  0  0
M  END
>  <name>
O=[C;ester]C1C([C;ester]=O)C(c2cc(O)c(O)cc2)C1c1cc(O)c(O)cc1

>  <apo>
2

>  <freq>
1

>  <freq0>
0

>  <freq1>
1

>  <freqA>
0.9949851

$$$$

  MOE2015           2D

 11 11  0  0  1  0  0  0  0  0999 V2000
    6.5450   -1.4170    0.0000 O   0  0  0  0  0  0  0  0  0  0  0  0
    5.7950   -2.7160    0.0000 C   0  0  0  0  0  0  0  0  0  0  0  0
    4.2950   -2.7160    0.0000 C   0  0  0  0  0  0  0  0  0  0  0  0
    3.5450   -4.0150    0.0000 C   0  0  0  0  0  0  0  0  0  0  0  0
    2.0450   -4.0150    0.0000 C   0  0  3  0  0  0  0  0  0  0  0  0
    1.2950   -5.3140    0.0000 O   0  0  0  0  0  0  0  0  0  0  0  0
    1.2950   -2.7160    0.0000 C   0  0  0  0  0  0  0  0  0  0  0  0
   -0.2050   -2.7160    0.0000 O   0  0  0  0  0  0  0  0  0  0  0  0
    2.0450   -1.4170    0.0000 C   0  0  3  0  0  0  0  0  0  0  0  0
    1.2950   -0.1180    0.0000 O   0  0  0  0  0  0  0  0  0  0  0  0
    3.5450   -1.4170    0.0000 C   0  0  0  0  0  0  0  0  0  0  0  0
  1  2  2  0  0  0  0
  2  3  1  0  0  0  0
  3  4  1  0  0  0  0
  3 11  1  0  0  0  0
  4  5  1  0  0  0  0
  5  6  1  0  0  0  0
  5  7  1  0  0  0  0
  7  8  1  0  0  0  0
  7  9  1  0  0  0  0
  9 10  1  0  0  0  0
  9 11  1  0  0  0  0
M  END
>  <name>
O=[C;ester]C1CC(O)C(O)C(O)C1

>  <apo>
1

>  <freq>
1

>  <freq0>
0

>  <freq1>
1

>  <freqA>
0.9949851

$$$$

  MOE2015           2D

 21 23  0  0  1  0  0  0  0  0999 V2000
   -0.3130   -0.2800    0.0000 O   0  0  0  0  0  0  0  0  0  0  0  0
   -0.4820   -1.7710    0.0000 C   0  0  0  0  0  0  0  0  0  0  0  0
    0.7250   -2.6620    0.0000 C   0  0  3  0  0  0  0  0  0  0  0  0
    2.1550   -2.2090    0.0000 O   0  0  0  0  0  0  0  0  0  0  0  0
    3.0280   -3.4290    0.0000 C   0  0  3  0  0  0  0  0  0  0  0  0
    4.5270   -3.4410    0.0000 C   0  0  0  0  0  0  0  0  0  0  0  0
    5.2870   -2.1470    0.0000 C   0  0  0  0  0  0  0  0  0  0  0  0
    6.7870   -2.1590    0.0000 C   0  0  0  0  0  0  0  0  0  0  0  0
    7.5470   -0.8660    0.0000 O   0  0  0  0  0  0  0  0  0  0  0  0
    7.5270   -3.4640    0.0000 C   0  0  0  0  0  0  0  0  0  0  0  0
    9.0270   -3.4750    0.0000 O   0  0  0  0  0  0  0  0  0  0  0  0
    6.7670   -4.7570    0.0000 C   0  0  0  0  0  0  0  0  0  0  0  0
    5.2670   -4.7450    0.0000 C   0  0  0  0  0  0  0  0  0  0  0  0
    2.1370   -4.6360    0.0000 C   0  0  0  0  0  0  0  0  0  0  0  0
    2.4370   -6.1060    0.0000 C   0  0  0  0  0  0  0  0  0  0  0  0
    3.8600   -6.5800    0.0000 O   0  0  0  0  0  0  0  0  0  0  0  0
    1.3150   -7.1010    0.0000 C   0  0  0  0  0  0  0  0  0  0  0  0
   -0.1080   -6.6260    0.0000 C   0  0  0  0  0  0  0  0  0  0  0  0
   -0.4090   -5.1570    0.0000 C   0  0  0  0  0  0  0  0  0  0  0  0
   -1.8320   -4.6820    0.0000 C   0  0  0  0  0  0  0  0  0  0  0  0
    0.7140   -4.1610    0.0000 C   0  0  0  0  0  0  0  0  0  0  0  0
  1  2  2  0  0  0  0
  2  3  1  0  0  0  0
  3  4  1  0  0  0  0
  3 21  1  0  0  0  0
  4  5  1  0  0  0  0
  5  6  1  0  0  0  0
  5 14  1  0  0  0  0
  6  7  1  0  0  0  0
  6 13  2  0  0  0  0
  7  8  2  0  0  0  0
  8  9  1  0  0  0  0
  8 10  1  0  0  0  0
 10 11  1  0  0  0  0
 10 12  2  0  0  0  0
 12 13  1  0  0  0  0
 14 15  1  0  0  0  0
 14 21  2  0  0  0  0
 15 16  1  0  0  0  0
 15 17  2  0  0  0  0
 17 18  1  0  0  0  0
 18 19  2  0  0  0  0
 19 20  1  0  0  0  0
 19 21  1  0  0  0  0
M  END
>  <name>
O=[C;ester]C1OC(c2cc(O)c(O)cc2)c2c(O)ccc([C;olefin])c12

>  <apo>
2

>  <freq>
1

>  <freq0>
0

>  <freq1>
1

>  <freqA>
0.9949851

$$$$

  MOE2015           2D

 24 26  0  0  1  0  0  0  0  0999 V2000
    5.8170    2.2450    0.0000 O   0  0  0  0  0  0  0  0  0  0  0  0
    5.8170    0.7450    0.0000 C   0  0  0  0  0  0  0  0  0  0  0  0
    4.5180   -0.0050    0.0000 C   0  0  0  0  0  0  0  0  0  0  0  0
    4.5180   -1.5050    0.0000 C   0  0  3  0  0  0  0  0  0  0  0  0
    5.8170   -2.2550    0.0000 C   0  0  0  0  0  0  0  0  0  0  0  0
    7.1160   -1.5050    0.0000 C   0  0  0  0  0  0  0  0  0  0  0  0
    8.4160   -2.2550    0.0000 C   0  0  0  0  0  0  0  0  0  0  0  0
    9.7150   -1.5050    0.0000 O   0  0  0  0  0  0  0  0  0  0  0  0
    8.4160   -3.7550    0.0000 C   0  0  0  0  0  0  0  0  0  0  0  0
    9.7150   -4.5050    0.0000 O   0  0  0  0  0  0  0  0  0  0  0  0
    7.1160   -4.5050    0.0000 C   0  0  0  0  0  0  0  0  0  0  0  0
    5.8170   -3.7550    0.0000 C   0  0  0  0  0  0  0  0  0  0  0  0
    3.2190   -2.2550    0.0000 C   0  0  3  0  0  0  0  0  0  0  0  0
    3.2190   -3.7550    0.0000 C   0  0  0  0  0  0  0  0  0  0  0  0
    1.9200   -4.5050    0.0000 O   0  0  0  0  0  0  0  0  0  0  0  0
    1.9200   -1.5050    0.0000 C   0  0  0  0  0  0  0  0  0  0  0  0
    0.6210   -2.2550    0.0000 C   0  0  0  0  0  0  0  0  0  0  0  0
    0.6210   -3.7550    0.0000 O   0  0  0  0  0  0  0  0  0  0  0  0
   -0.6780   -1.5050    0.0000 C   0  0  0  0  0  0  0  0  0  0  0  0
   -1.9770   -2.2550    0.0000 O   0  0  0  0  0  0  0  0  0  0  0  0
   -0.6780   -0.0050    0.0000 C   0  0  0  0  0  0  0  0  0  0  0  0
    0.6210    0.7450    0.0000 C   0  0  0  0  0  0  0  0  0  0  0  0
    1.9200   -0.0050    0.0000 C   0  0  0  0  0  0  0  0  0  0  0  0
    3.2190    0.7450    0.0000 C   0  0  0  0  0  0  0  0  0  0  0  0
  1  2  2  0  0  0  0
  2  3  1  0  0  0  0
  3  4  1  0  0  0  0
  3 24  2  0  0  0  0
  4  5  1  0  0  0  0
  4 13  1  0  0  0  0
  5  6  1  0  0  0  0
  5 12  2  0  0  0  0
  6  7  2  0  0  0  0
  7  8  1  0  0  0  0
  7  9  1  0  0  0  0
  9 10  1  0  0  0  0
  9 11  2  0  0  0  0
 11 12  1  0  0  0  0
 13 14  1  0  0  0  0
 13 16  1  0  0  0  0
 14 15  2  0  0  0  0
 16 17  1  0  0  0  0
 16 23  2  0  0  0  0
 17 18  1  0  0  0  0
 17 19  2  0  0  0  0
 19 20  1  0  0  0  0
 19 21  1  0  0  0  0
 21 22  2  0  0  0  0
 22 23  1  0  0  0  0
 23 24  1  0  0  0  0
M  END
>  <name>
O=[C;ester]C=1C(c2cc(O)c(O)cc2)C([C;ester]=O)c2c(O)c(O)ccc2C=1

>  <apo>
2

>  <freq>
1

>  <freq0>
0

>  <freq1>
1

>  <freqA>
0.9949851

$$$$

  MOE2015           2D

 14 15  0  0  0  0  0  0  0  0999 V2000
    7.8750    4.5470    0.0000 O   0  0  0  0  0  0  0  0  0  0  0  0
    7.1250    3.2480    0.0000 C   0  0  0  0  0  0  0  0  0  0  0  0
    5.6250    3.2480    0.0000 C   0  0  0  0  0  0  0  0  0  0  0  0
    4.8750    1.9490    0.0000 O   0  0  0  0  0  0  0  0  0  0  0  0
    3.3750    1.9490    0.0000 C   0  0  0  0  0  0  0  0  0  0  0  0
    2.6250    3.2480    0.0000 C   0  0  0  0  0  0  0  0  0  0  0  0
    1.1250    3.2480    0.0000 C   0  0  0  0  0  0  0  0  0  0  0  0
    0.3750    4.5470    0.0000 O   0  0  0  0  0  0  0  0  0  0  0  0
    0.3750    1.9490    0.0000 C   0  0  0  0  0  0  0  0  0  0  0  0
    1.1250    0.6500    0.0000 C   0  0  0  0  0  0  0  0  0  0  0  0
    2.6250    0.6500    0.0000 C   0  0  0  0  0  0  0  0  0  0  0  0
    3.3750    4.5470    0.0000 C   0  0  0  0  0  0  0  0  0  0  0  0
    2.6250    5.8460    0.0000 O   0  0  0  0  0  0  0  0  0  0  0  0
    4.8750    4.5470    0.0000 C   0  0  0  0  0  0  0  0  0  0  0  0
  1  2  2  0  0  0  0
  2  3  1  0  0  0  0
  3  4  1  0  0  0  0
  3 14  2  0  0  0  0
  4  5  1  0  0  0  0
  5  6  1  0  0  0  0
  5 11  2  0  0  0  0
  6  7  2  0  0  0  0
  6 12  1  0  0  0  0
  7  8  1  0  0  0  0
  7  9  1  0  0  0  0
  9 10  2  0  0  0  0
 10 11  1  0  0  0  0
 12 13  2  0  0  0  0
 12 14  1  0  0  0  0
M  END
>  <name>
O=[C;ester]C=1Oc2c(c(O)ccc2)C(=O)C=1

>  <apo>
1

>  <freq>
1

>  <freq0>
0

>  <freq1>
1

>  <freqA>
0.9949851

$$$$

  MOE2015           2D

  4  3  0  0  0  0  0  0  0  0999 V2000
   -0.0740   -0.2750    0.0000 O   0  0  0  0  0  0  0  0  0  0  0  0
    1.2250   -1.0250    0.0000 C   0  0  0  0  0  0  0  0  0  0  0  0
    2.5250   -0.2750    0.0000 C   0  0  0  0  0  0  0  0  0  0  0  0
    3.8240   -1.0250    0.0000 C   0  0  0  0  0  0  0  0  0  0  0  0
  1  2  2  0  0  0  0
  2  3  1  0  0  0  0
  3  4  1  0  0  0  0
M  END
>  <name>
O=[C;ester]CC

>  <apo>
1

>  <freq>
1

>  <freq0>
0

>  <freq1>
1

>  <freqA>
0.9949851

$$$$

  MOE2015           2D

 11 10  0  0  1  0  0  0  0  0999 V2000
    9.0870   -2.4350    0.0000 O   0  0  0  0  0  0  0  0  0  0  0  0
    7.7880   -1.6850    0.0000 C   0  0  0  0  0  0  0  0  0  0  0  0
    6.4890   -2.4350    0.0000 C   0  0  0  0  0  0  0  0  0  0  0  0
    5.1900   -1.6850    0.0000 C   0  0  2  0  0  0  0  0  0  0  0  0
    5.1900   -0.1850    0.0000 O   0  0  0  0  0  0  0  0  0  0  0  0
    3.8910   -2.4350    0.0000 C   0  0  2  0  0  0  0  0  0  0  0  0
    3.8910   -3.9350    0.0000 N   0  0  0  0  0  0  0  0  0  0  0  0
    2.5920   -1.6850    0.0000 C   0  0  2  0  0  0  0  0  0  0  0  0
    1.2930   -2.4350    0.0000 C   0  0  0  0  0  0  0  0  0  0  0  0
   -0.0060   -1.6850    0.0000 C   0  0  0  0  0  0  0  0  0  0  0  0
    2.5920   -0.1850    0.0000 C   0  0  0  0  0  0  0  0  0  0  0  0
  1  2  2  0  0  0  0
  2  3  1  0  0  0  0
  3  4  1  0  0  0  0
  4  5  1  1  0  0  0
  4  6  1  0  0  0  0
  6  7  1  6  0  0  0
  6  8  1  0  0  0  0
  8  9  1  0  0  0  0
  8 11  1  6  0  0  0
  9 10  1  0  0  0  0
M  END
>  <name>
O=[C;ester]C[C@H](O)[C@H]([N;amide])[C@H](CC)C

>  <apo>
2

>  <freq>
1

>  <freq0>
0

>  <freq1>
1

>  <freqA>
0.9949851

$$$$

  MOE2015           2D

  7  6  0  0  1  0  0  0  0  0999 V2000
    6.5550   -1.7560    0.0000 O   0  0  0  0  0  0  0  0  0  0  0  0
    5.2560   -1.0060    0.0000 C   0  0  0  0  0  0  0  0  0  0  0  0
    3.9570   -1.7560    0.0000 C   0  0  0  0  0  0  0  0  0  0  0  0
    2.6580   -1.0060    0.0000 C   0  0  2  0  0  0  0  0  0  0  0  0
    1.3590   -1.7560    0.0000 C   0  0  0  0  0  0  0  0  0  0  0  0
    0.0590   -1.0060    0.0000 C   0  0  0  0  0  0  0  0  0  0  0  0
    2.6580    0.4940    0.0000 C   0  0  0  0  0  0  0  0  0  0  0  0
  1  2  2  0  0  0  0
  2  3  1  0  0  0  0
  3  4  1  0  0  0  0
  4  5  1  0  0  0  0
  4  7  1  6  0  0  0
  5  6  1  0  0  0  0
M  END
>  <name>
O=[C;ester][C;amine][C@H](CC)C

>  <apo>
2

>  <freq>
1

>  <freq0>
0

>  <freq1>
1

>  <freqA>
0.9949851

$$$$

  MOE2015           2D

  4  3  0  0  0  0  0  0  0  0999 V2000
   -0.0740   -0.2750    0.0000 O   0  0  0  0  0  0  0  0  0  0  0  0
    1.2250   -1.0250    0.0000 C   0  0  0  0  0  0  0  0  0  0  0  0
    2.5250   -0.2750    0.0000 C   0  0  0  0  0  0  0  0  0  0  0  0
    3.8240   -1.0250    0.0000 C   0  0  0  0  0  0  0  0  0  0  0  0
  1  2  2  0  0  0  0
  2  3  1  0  0  0  0
  3  4  1  0  0  0  0
M  END
>  <name>
O=[C;ester][C;olefin]C

>  <apo>
2

>  <freq>
1

>  <freq0>
0

>  <freq1>
1

>  <freqA>
0.9949851

$$$$

  MOE2015           2D

 14 14  0  0  1  0  0  0  0  0999 V2000
    0.3210    2.1250    0.0000 O   0  0  0  0  0  0  0  0  0  0  0  0
    1.6200    1.3750    0.0000 C   0  0  0  0  0  0  0  0  0  0  0  0
    1.6200   -0.1250    0.0000 C   0  0  1  0  0  0  0  0  0  0  0  0
    0.3210   -0.8750    0.0000 N   0  0  0  0  0  0  0  0  0  0  0  0
    0.3210   -2.3750    0.0000 C   0  0  0  0  0  0  0  0  0  0  0  0
    2.9190   -0.8750    0.0000 C   0  0  0  0  0  0  0  0  0  0  0  0
    4.2180   -0.1250    0.0000 C   0  0  0  0  0  0  0  0  0  0  0  0
    4.2180    1.3750    0.0000 C   0  0  0  0  0  0  0  0  0  0  0  0
    5.5170    2.1250    0.0000 C   0  0  0  0  0  0  0  0  0  0  0  0
    6.8160    1.3750    0.0000 C   0  0  0  0  0  0  0  0  0  0  0  0
    8.1150    2.1250    0.0000 O   0  0  0  0  0  0  0  0  0  0  0  0
    9.4140    1.3750    0.0000 C   0  0  0  0  0  0  0  0  0  0  0  0
    6.8160   -0.1250    0.0000 C   0  0  0  0  0  0  0  0  0  0  0  0
    5.5170   -0.8750    0.0000 C   0  0  0  0  0  0  0  0  0  0  0  0
  1  2  2  0  0  0  0
  3  2  1  6  0  0  0
  3  4  1  0  0  0  0
  3  6  1  0  0  0  0
  4  5  1  0  0  0  0
  6  7  1  0  0  0  0
  7  8  1  0  0  0  0
  7 14  2  0  0  0  0
  8  9  2  0  0  0  0
  9 10  1  0  0  0  0
 10 11  1  0  0  0  0
 10 13  2  0  0  0  0
 11 12  1  0  0  0  0
 13 14  1  0  0  0  0
M  END
>  <name>
O=[C;ester][C@@H]([N;amide]C)Cc1ccc(OC)cc1

>  <apo>
2

>  <freq>
1

>  <freq0>
0

>  <freq1>
1

>  <freqA>
0.9949851

$$$$

  MOE2015           2D

 35 39  0  0  1  0  0  0  0  0999 V2000
    0.0000   -3.8060    0.0000 O   0  0  0  0  0  0  0  0  0  0  0  0
    1.5000   -3.8060    0.0000 C   0  0  0  0  0  0  0  0  0  0  0  0
    2.2500   -2.5070    0.0000 C   0  0  1  0  0  0  0  0  0  0  0  0
    3.0000   -3.8060    0.0000 C   0  0  2  0  0  0  0  0  0  0  0  0
    2.2500   -5.1050    0.0000 O   0  0  0  0  0  0  0  0  0  0  0  0
    4.5000   -3.8060    0.0000 C   0  0  0  0  0  0  0  0  0  0  0  0
    5.2500   -2.5070    0.0000 C   0  0  1  0  0  0  0  0  0  0  0  0
    6.0000   -3.8060    0.0000 C   0  0  0  0  0  0  0  0  0  0  0  0
    6.7500   -2.5070    0.0000 C   0  0  1  0  0  0  0  0  0  0  0  0
    8.2500   -2.5070    0.0000 C   0  0  0  0  0  0  0  0  0  0  0  0
    7.5000   -1.2080    0.0000 C   0  0  1  0  0  0  0  0  0  0  0  0
    9.0000   -1.2080    0.0000 C   0  0  2  0  0  0  0  0  0  0  0  0
    8.2500    0.0910    0.0000 C   0  0  0  0  0  0  0  0  0  0  0  0
    9.7500   -2.5070    0.0000 C   0  0  2  0  0  0  0  0  0  0  0  0
   11.2500   -2.5070    0.0000 C   0  0  0  0  0  0  0  0  0  0  0  0
   11.2500   -4.0070    0.0000 C   0  0  0  0  0  0  0  0  0  0  0  0
   12.5490   -4.7570    0.0000 O   0  0  0  0  0  0  0  0  0  0  0  0
   12.5490   -3.2570    0.0000 C   0  0  0  0  0  0  0  0  0  0  0  0
   13.8480   -2.5070    0.0000 O   0  0  0  0  0  0  0  0  0  0  0  0
   12.0000   -1.2080    0.0000 C   0  0  0  0  0  0  0  0  0  0  0  0
   11.2500    0.0910    0.0000 C   0  0  1  0  0  0  0  0  0  0  0  0
   12.0000    1.3900    0.0000 O   0  0  0  0  0  0  0  0  0  0  0  0
    9.7500    0.0910    0.0000 C   0  0  0  0  0  0  0  0  0  0  0  0
    9.0000   -3.8060    0.0000 C   0  0  0  0  0  0  0  0  0  0  0  0
    7.5000   -3.8060    0.0000 C   0  0  0  0  0  0  0  0  0  0  0  0
    6.7500    0.0910    0.0000 C   0  0  0  0  0  0  0  0  0  0  0  0
    5.2500    0.0910    0.0000 C   0  0  0  0  0  0  0  0  0  0  0  0
    4.5000   -1.2080    0.0000 C   0  0  0  0  0  0  0  0  0  0  0  0
    3.0000   -1.2080    0.0000 C   0  0  2  0  0  0  0  0  0  0  0  0
    2.2500    0.0910    0.0000 C   0  0  0  0  0  0  0  0  0  0  0  0
    0.7500    0.0910    0.0000 C   0  0  0  0  0  0  0  0  0  0  0  0
   -0.5490    0.8410    0.0000 C   0  0  0  0  0  0  0  0  0  0  0  0
    0.7500    1.5910    0.0000 C   0  0  0  0  0  0  0  0  0  0  0  0
    0.0000   -1.2080    0.0000 C   0  0  0  0  0  0  0  0  0  0  0  0
    0.7500   -2.5070    0.0000 C   0  0  0  0  0  0  0  0  0  0  0  0
  1  2  2  0  0  0  0
  3  2  1  6  0  0  0
  3  4  1  0  0  0  0
  3 29  1  0  0  0  0
  3 35  1  0  0  0  0
  4  5  1  1  0  0  0
  4  6  1  0  0  0  0
  6  7  1  0  0  0  0
  7  8  1  1  0  0  0
  7  9  1  0  0  0  0
  7 28  1  0  0  0  0
  9 10  1  6  0  0  0
  9 11  1  0  0  0  0
  9 25  1  0  0  0  0
 11 12  1  0  0  0  0
 11 26  1  6  0  0  0
 12 13  1  6  0  0  0
 12 14  1  0  0  0  0
 12 23  1  0  0  0  0
 14 15  1  0  0  0  0
 14 24  1  6  0  0  0
 15 16  1  0  0  0  0
 15 18  1  0  0  0  0
 15 20  1  0  0  0  0
 16 17  1  0  0  0  0
 18 19  1  0  0  0  0
 20 21  1  0  0  0  0
 21 22  1  6  0  0  0
 21 23  1  0  0  0  0
 24 25  1  0  0  0  0
 26 27  1  0  0  0  0
 27 28  2  0  0  0  0
 28 29  1  0  0  0  0
 29 30  1  1  0  0  0
 30 31  1  0  0  0  0
 31 32  1  0  0  0  0
 31 33  1  0  0  0  0
 31 34  1  0  0  0  0
 34 35  1  0  0  0  0
M  END
>  <name>
O=[C;ester][C@@]12[C@H](O)C[C@@]3(C)[C@@]4(C)[C@@H]([C@]5(C)[C@H](C(CO)(CO)[C;ether][C@@H](O)C5)CC4)CC=C3[C@@H]1CC(C)(C)CC2

>  <apo>
2

>  <freq>
1

>  <freq0>
0

>  <freq1>
1

>  <freqA>
0.9949851

$$$$

  MOE2015           2D

 14 15  0  0  1  0  0  0  0  0999 V2000
    6.6680    0.2800    0.0000 O   0  0  0  0  0  0  0  0  0  0  0  0
    5.9280    1.5850    0.0000 C   0  0  0  0  0  0  0  0  0  0  0  0
    4.4280    1.5970    0.0000 C   0  0  1  0  0  0  0  0  0  0  0  0
    3.6880    2.9020    0.0000 C   0  0  2  0  0  0  0  0  0  0  0  0
    5.1750    3.0990    0.0000 O   0  0  0  0  0  0  0  0  0  0  0  0
    2.1880    2.9130    0.0000 C   0  0  1  0  0  0  0  0  0  0  0  0
    1.4280    1.6200    0.0000 C   0  0  2  0  0  0  0  0  0  0  0  0
   -0.0720    1.6320    0.0000 O   0  0  0  0  0  0  0  0  0  0  0  0
    2.1680    0.3150    0.0000 C   0  0  0  0  0  0  0  0  0  0  0  0
    1.4080   -0.9780    0.0000 C   0  0  0  0  0  0  0  0  0  0  0  0
    3.6680    0.3040    0.0000 C   0  0  0  0  0  0  0  0  0  0  0  0
    1.7360    4.3440    0.0000 O   0  0  0  0  0  0  0  0  0  0  0  0
    2.9570    5.2160    0.0000 C   0  0  0  0  0  0  0  0  0  0  0  0
    4.1630    4.3250    0.0000 C   0  0  0  0  0  0  0  0  0  0  0  0
  1  2  2  0  0  0  0
  3  2  1  6  0  0  0
  3  4  1  0  0  0  0
  3 11  1  0  0  0  0
  4  5  1  1  0  0  0
  4  6  1  0  0  0  0
  4 14  1  0  0  0  0
  6  7  1  0  0  0  0
  6 12  1  1  0  0  0
  7  8  1  1  0  0  0
  7  9  1  0  0  0  0
  9 10  1  0  0  0  0
  9 11  2  0  0  0  0
 12 13  1  0  0  0  0
 13 14  1  0  0  0  0
M  END
>  <name>
O=[C;ester][C@H]1[C@]2(O)[C@@H]([C@H](O)C(C)=C1)OC[C;olefin]2

>  <apo>
2

>  <freq>
1

>  <freq0>
0

>  <freq1>
1

>  <freqA>
0.9949851

$$$$

  MOE2015           2D

 32 36  0  0  1  0  0  0  0  0999 V2000
   13.4420    6.9310    0.0000 O   0  0  0  0  0  0  0  0  0  0  0  0
   12.1430    7.6810    0.0000 C   0  0  0  0  0  0  0  0  0  0  0  0
   10.8440    6.9310    0.0000 C   0  0  2  0  0  0  0  0  0  0  0  0
   10.8440    8.4310    0.0000 C   0  0  0  0  0  0  0  0  0  0  0  0
    9.3440    6.9310    0.0000 C   0  0  0  0  0  0  0  0  0  0  0  0
    8.5940    5.6320    0.0000 C   0  0  2  0  0  0  0  0  0  0  0  0
    9.3440    4.3330    0.0000 C   0  0  1  0  0  0  0  0  0  0  0  0
   10.0940    3.0340    0.0000 C   0  0  0  0  0  0  0  0  0  0  0  0
    8.5940    3.0340    0.0000 C   0  0  0  0  0  0  0  0  0  0  0  0
    7.0940    3.0340    0.0000 C   0  0  0  0  0  0  0  0  0  0  0  0
    6.3440    4.3330    0.0000 C   0  0  1  0  0  0  0  0  0  0  0  0
    5.5940    3.0340    0.0000 C   0  0  0  0  0  0  0  0  0  0  0  0
    4.8440    4.3330    0.0000 C   0  0  1  0  0  0  0  0  0  0  0  0
    3.3440    4.3330    0.0000 C   0  0  0  0  0  0  0  0  0  0  0  0
    4.0940    5.6320    0.0000 C   0  0  2  0  0  0  0  0  0  0  0  0
    4.8440    6.9310    0.0000 C   0  0  0  0  0  0  0  0  0  0  0  0
    4.0940    8.2300    0.0000 O   0  0  0  0  0  0  0  0  0  0  0  0
    6.3440    6.9310    0.0000 C   0  0  0  0  0  0  0  0  0  0  0  0
    7.0940    5.6320    0.0000 C   0  0  0  0  0  0  0  0  0  0  0  0
    2.5940    5.6320    0.0000 C   0  0  2  0  0  0  0  0  0  0  0  0
    3.3440    6.9310    0.0000 C   0  0  0  0  0  0  0  0  0  0  0  0
    1.8440    4.3330    0.0000 C   0  0  1  0  0  0  0  0  0  0  0  0
    0.3440    4.3330    0.0000 C   0  0  0  0  0  0  0  0  0  0  0  0
   -0.9550    3.5830    0.0000 C   0  0  0  0  0  0  0  0  0  0  0  0
    0.3440    2.8330    0.0000 C   0  0  0  0  0  0  0  0  0  0  0  0
   -0.4060    5.6320    0.0000 C   0  0  0  0  0  0  0  0  0  0  0  0
    0.3440    6.9310    0.0000 C   0  0  0  0  0  0  0  0  0  0  0  0
    1.8440    6.9310    0.0000 C   0  0  0  0  0  0  0  0  0  0  0  0
    2.5940    3.0340    0.0000 C   0  0  0  0  0  0  0  0  0  0  0  0
    4.0940    3.0340    0.0000 C   0  0  0  0  0  0  0  0  0  0  0  0
   10.8440    4.3330    0.0000 C   0  0  0  0  0  0  0  0  0  0  0  0
   11.5940    5.6320    0.0000 C   0  0  0  0  0  0  0  0  0  0  0  0
  1  2  2  0  0  0  0
  3  2  1  1  0  0  0
  3  4  1  6  0  0  0
  3  5  1  0  0  0  0
  3 32  1  0  0  0  0
  6  5  1  6  0  0  0
  6  7  1  0  0  0  0
  6 19  1  0  0  0  0
  7  8  1  1  0  0  0
  7  9  1  0  0  0  0
  7 31  1  0  0  0  0
  9 10  1  0  0  0  0
 10 11  1  0  0  0  0
 11 12  1  6  0  0  0
 11 13  1  0  0  0  0
 11 19  1  0  0  0  0
 13 14  1  1  0  0  0
 13 15  1  0  0  0  0
 13 30  1  0  0  0  0
 15 16  1  1  0  0  0
 15 20  1  0  0  0  0
 16 17  2  0  0  0  0
 16 18  1  0  0  0  0
 18 19  2  0  0  0  0
 20 21  1  1  0  0  0
 20 22  1  0  0  0  0
 20 28  1  0  0  0  0
 22 23  1  6  0  0  0
 22 29  1  0  0  0  0
 23 24  1  0  0  0  0
 23 25  1  0  0  0  0
 23 26  1  0  0  0  0
 26 27  1  0  0  0  0
 27 28  1  0  0  0  0
 29 30  1  0  0  0  0
 31 32  1  0  0  0  0
M  END
>  <name>
O=[C;ester][C@]1(C)C[C@@H]2[C@@](C)(CC[C@@]3(C)[C@@]4(C)[C@H](C(=O)C=C23)[C@]2(C)[C@@H](C(C)(C)[C;ether]CC2)CC4)CC1

>  <apo>
2

>  <freq>
1

>  <freq0>
0

>  <freq1>
1

>  <freqA>
0.9949851

$$$$

  MOE2015           2D

 10 10  0  0  0  0  0  0  0  0999 V2000
    0.0000    0.0000    0.0000 O   0  0  0  0  0  0  0  0  0  0  0  0
    1.5000    0.0000    0.0000 C   0  0  0  0  0  0  0  0  0  0  0  0
    2.2500    1.2990    0.0000 C   0  0  0  0  0  0  0  0  0  0  0  0
    3.7500    1.2990    0.0000 C   0  0  0  0  0  0  0  0  0  0  0  0
    4.5000    0.0000    0.0000 C   0  0  0  0  0  0  0  0  0  0  0  0
    6.0000    0.0000    0.0000 O   0  0  0  0  0  0  0  0  0  0  0  0
    4.5000    2.5980    0.0000 C   0  0  0  0  0  0  0  0  0  0  0  0
    3.7500    3.8970    0.0000 C   0  0  0  0  0  0  0  0  0  0  0  0
    2.2500    3.8970    0.0000 C   0  0  0  0  0  0  0  0  0  0  0  0
    1.5000    2.5980    0.0000 C   0  0  0  0  0  0  0  0  0  0  0  0
  1  2  2  0  0  0  0
  2  3  1  0  0  0  0
  3  4  1  0  0  0  0
  3 10  2  0  0  0  0
  4  5  1  0  0  0  0
  4  7  2  0  0  0  0
  5  6  2  0  0  0  0
  7  8  1  0  0  0  0
  8  9  2  0  0  0  0
  9 10  1  0  0  0  0
M  END
>  <name>
O=[C;ester]c1c([C;ester]=O)cccc1

>  <apo>
2

>  <freq>
1

>  <freq0>
0

>  <freq1>
1

>  <freqA>
0.9949851

$$$$

  MOE2015           2D

 14 14  0  0  0  0  0  0  0  0999 V2000
    7.3360   -3.7870    0.0000 O   0  0  0  0  0  0  0  0  0  0  0  0
    6.0370   -4.5370    0.0000 C   0  0  0  0  0  0  0  0  0  0  0  0
    4.7380   -3.7870    0.0000 C   0  0  0  0  0  0  0  0  0  0  0  0
    3.4390   -4.5370    0.0000 C   0  0  0  0  0  0  0  0  0  0  0  0
    2.1400   -3.7870    0.0000 C   0  0  0  0  0  0  0  0  0  0  0  0
    0.8410   -4.5370    0.0000 O   0  0  0  0  0  0  0  0  0  0  0  0
    0.8410   -6.0370    0.0000 C   0  0  0  0  0  0  0  0  0  0  0  0
    2.1400   -2.2870    0.0000 C   0  0  0  0  0  0  0  0  0  0  0  0
    0.8410   -1.5370    0.0000 O   0  0  0  0  0  0  0  0  0  0  0  0
   -0.4580   -2.2870    0.0000 C   0  0  0  0  0  0  0  0  0  0  0  0
    3.4390   -1.5370    0.0000 C   0  0  0  0  0  0  0  0  0  0  0  0
    3.4390   -0.0370    0.0000 O   0  0  0  0  0  0  0  0  0  0  0  0
    4.7380    0.7130    0.0000 C   0  0  0  0  0  0  0  0  0  0  0  0
    4.7380   -2.2870    0.0000 C   0  0  0  0  0  0  0  0  0  0  0  0
  1  2  2  0  0  0  0
  2  3  1  0  0  0  0
  3  4  1  0  0  0  0
  3 14  2  0  0  0  0
  4  5  2  0  0  0  0
  5  6  1  0  0  0  0
  5  8  1  0  0  0  0
  6  7  1  0  0  0  0
  8  9  1  0  0  0  0
  8 11  2  0  0  0  0
  9 10  1  0  0  0  0
 11 12  1  0  0  0  0
 11 14  1  0  0  0  0
 12 13  1  0  0  0  0
M  END
>  <name>
O=[C;ester]c1cc(OC)c(OC)c(OC)c1

>  <apo>
1

>  <freq>
1

>  <freq0>
0

>  <freq1>
1

>  <freqA>
0.9949851

$$$$

  MOE2015           2D

  2  1  0  0  0  0  0  0  0  0999 V2000
    0.0000    0.0000    0.0000 O   0  0  0  0  0  0  0  0  0  0  0  0
    1.5000    0.0000    0.0000 C   0  0  0  0  0  0  0  0  0  0  0  0
  1  2  2  0  0  0  0
M  END
>  <name>
O=[C;urea]

>  <apo>
1

>  <freq>
1

>  <freq0>
0

>  <freq1>
1

>  <freqA>
0.9949851

$$$$

  MOE2015           2D

  3  2  0  0  0  0  0  0  0  0999 V2000
   -0.0490    0.1830    0.0000 O   0  0  0  0  0  0  0  0  0  0  0  0
    1.2500    0.9330    0.0000 C   0  0  0  0  0  0  0  0  0  0  0  0
    2.5490    0.1830    0.0000 N   0  0  0  0  0  0  0  0  0  0  0  0
  1  2  2  0  0  0  0
  2  3  1  0  0  0  0
M  END
>  <name>
O=[C;urea]N

>  <apo>
1

>  <freq>
1

>  <freq0>
0

>  <freq1>
1

>  <freqA>
0.9949851

$$$$

  MOE2015           2D

 11 10  0  0  1  0  0  0  0  0999 V2000
    2.1450   -2.1450    0.0000 O   0  0  0  0  0  0  0  0  0  0  0  0
    2.1450   -0.6450    0.0000 C   0  0  3  0  0  0  0  0  0  0  0  0
    0.8460    0.1050    0.0000 C   0  0  3  0  0  0  0  0  0  0  0  0
    0.8460    1.6050    0.0000 O   0  0  0  0  0  0  0  0  0  0  0  0
   -0.4530   -0.6450    0.0000 C   0  0  3  0  0  0  0  0  0  0  0  0
   -1.7520    0.1050    0.0000 O   0  0  0  0  0  0  0  0  0  0  0  0
   -0.4530   -2.1450    0.0000 C   0  0  0  0  0  0  0  0  0  0  0  0
    3.4440    0.1050    0.0000 C   0  0  3  0  0  0  0  0  0  0  0  0
    3.4440    1.6050    0.0000 O   0  0  0  0  0  0  0  0  0  0  0  0
    4.7430   -0.6450    0.0000 C   0  0  0  0  0  0  0  0  0  0  0  0
    6.0420    0.1050    0.0000 O   0  0  0  0  0  0  0  0  0  0  0  0
  1  2  1  0  0  0  0
  2  3  1  0  0  0  0
  2  8  1  0  0  0  0
  3  4  1  0  0  0  0
  3  5  1  0  0  0  0
  5  6  1  0  0  0  0
  5  7  1  0  0  0  0
  8  9  1  0  0  0  0
  8 10  1  0  0  0  0
 10 11  1  0  0  0  0
M  END
>  <name>
OC(C(O)C(O)[C;ether])C(O)CO

>  <apo>
1

>  <freq>
1

>  <freq0>
0

>  <freq1>
1

>  <freqA>
0.9949851

$$$$

  MOE2015           2D

 28 31  0  0  1  0  0  0  0  0999 V2000
   17.0030   -6.5230    0.0000 O   0  0  0  0  0  0  0  0  0  0  0  0
   15.8880   -5.5200    0.0000 C   0  0  0  0  0  0  0  0  0  0  0  0
   14.7730   -4.5160    0.0000 C   0  0  0  0  0  0  0  0  0  0  0  0
   13.3460   -4.9810    0.0000 C   0  0  0  0  0  0  0  0  0  0  0  0
   12.2310   -3.9770    0.0000 C   0  0  0  0  0  0  0  0  0  0  0  0
   10.8050   -4.4410    0.0000 C   0  0  3  0  0  0  0  0  0  0  0  0
   10.4930   -5.9090    0.0000 C   0  0  0  0  0  0  0  0  0  0  0  0
    9.6900   -3.4380    0.0000 C   0  0  3  0  0  0  0  0  0  0  0  0
    8.2230   -3.7510    0.0000 C   0  0  3  0  0  0  0  0  0  0  0  0
    9.0830   -4.9790    0.0000 C   0  0  0  0  0  0  0  0  0  0  0  0
    7.4720   -2.4520    0.0000 C   0  0  3  0  0  0  0  0  0  0  0  0
    5.9720   -2.4520    0.0000 C   0  0  3  0  0  0  0  0  0  0  0  0
    5.2230   -3.7520    0.0000 C   0  0  3  0  0  0  0  0  0  0  0  0
    3.7230   -3.7520    0.0000 C   0  0  3  0  0  0  0  0  0  0  0  0
    4.4730   -5.0510    0.0000 C   0  0  0  0  0  0  0  0  0  0  0  0
    2.9720   -2.4540    0.0000 C   0  0  0  0  0  0  0  0  0  0  0  0
    3.7210   -1.1540    0.0000 C   0  0  0  0  0  0  0  0  0  0  0  0
    5.2210   -1.1540    0.0000 C   0  0  0  0  0  0  0  0  0  0  0  0
    1.4720   -2.4540    0.0000 C   0  0  0  0  0  0  0  0  0  0  0  0
    0.7230   -3.7540    0.0000 C   0  0  0  0  0  0  0  0  0  0  0  0
    1.4730   -5.0520    0.0000 C   0  0  0  0  0  0  0  0  0  0  0  0
    2.9730   -5.0520    0.0000 C   0  0  0  0  0  0  0  0  0  0  0  0
    5.9730   -5.0500    0.0000 C   0  0  0  0  0  0  0  0  0  0  0  0
    7.4730   -5.0500    0.0000 C   0  0  0  0  0  0  0  0  0  0  0  0
    8.4750   -1.3370    0.0000 C   0  0  0  0  0  0  0  0  0  0  0  0
    9.8460   -1.9460    0.0000 C   0  0  0  0  0  0  0  0  0  0  0  0
   14.8850   -6.6350    0.0000 C   0  0  0  0  0  0  0  0  0  0  0  0
   16.8910   -4.4050    0.0000 C   0  0  0  0  0  0  0  0  0  0  0  0
  1  2  1  0  0  0  0
  2  3  1  0  0  0  0
  2 27  1  0  0  0  0
  2 28  1  0  0  0  0
  3  4  1  0  0  0  0
  4  5  1  0  0  0  0
  5  6  1  0  0  0  0
  6  7  1  0  0  0  0
  6  8  1  0  0  0  0
  8  9  1  0  0  0  0
  8 26  1  0  0  0  0
  9 10  1  0  0  0  0
  9 11  1  0  0  0  0
  9 24  1  0  0  0  0
 11 12  1  0  0  0  0
 11 25  1  0  0  0  0
 12 13  1  0  0  0  0
 12 18  1  0  0  0  0
 13 14  1  0  0  0  0
 13 23  1  0  0  0  0
 14 15  1  0  0  0  0
 14 16  1  0  0  0  0
 14 22  1  0  0  0  0
 16 17  2  0  0  0  0
 16 19  1  0  0  0  0
 17 18  1  0  0  0  0
 19 20  1  0  0  0  0
 20 21  1  0  0  0  0
 21 22  1  0  0  0  0
 23 24  1  0  0  0  0
 25 26  1  0  0  0  0
M  END
>  <name>
OC(CCCC(C)C1C2(C)C(C3C(C4(C)C(=CC3)C[C;ether]CC4)CC2)CC1)(C)C

>  <apo>
1

>  <freq>
1

>  <freq0>
0

>  <freq1>
1

>  <freqA>
0.9949851

$$$$

  MOE2015           2D

 28 31  0  0  1  0  0  0  0  0999 V2000
    5.3010    7.3000    0.0000 O   0  0  0  0  0  0  0  0  0  0  0  0
    5.7650    5.8730    0.0000 C   0  0  0  0  0  0  0  0  0  0  0  0
    4.3390    5.4090    0.0000 C   0  0  0  0  0  0  0  0  0  0  0  0
    3.2240    6.4120    0.0000 C   0  0  0  0  0  0  0  0  0  0  0  0
    1.7980    5.9480    0.0000 C   0  0  1  0  0  0  0  0  0  0  0  0
    1.4860    4.4810    0.0000 C   0  0  0  0  0  0  0  0  0  0  0  0
    0.6820    6.9520    0.0000 C   0  0  2  0  0  0  0  0  0  0  0  0
   -0.7850    6.6390    0.0000 C   0  0  2  0  0  0  0  0  0  0  0  0
    0.0760    5.4110    0.0000 C   0  0  0  0  0  0  0  0  0  0  0  0
   -1.5350    7.9380    0.0000 C   0  0  2  0  0  0  0  0  0  0  0  0
   -3.0350    7.9370    0.0000 C   0  0  1  0  0  0  0  0  0  0  0  0
   -3.7850    6.6380    0.0000 C   0  0  1  0  0  0  0  0  0  0  0  0
   -5.2850    6.6380    0.0000 C   0  0  2  0  0  0  0  0  0  0  0  0
   -4.5340    5.3390    0.0000 C   0  0  0  0  0  0  0  0  0  0  0  0
   -6.0350    7.9360    0.0000 C   0  0  0  0  0  0  0  0  0  0  0  0
   -5.2860    9.2360    0.0000 C   0  0  0  0  0  0  0  0  0  0  0  0
   -3.7860    9.2360    0.0000 C   0  0  0  0  0  0  0  0  0  0  0  0
   -7.5350    7.9360    0.0000 C   0  0  0  0  0  0  0  0  0  0  0  0
   -8.2850    6.6360    0.0000 C   0  0  1  0  0  0  0  0  0  0  0  0
   -9.7850    6.6360    0.0000 O   0  0  0  0  0  0  0  0  0  0  0  0
   -7.5340    5.3380    0.0000 C   0  0  0  0  0  0  0  0  0  0  0  0
   -6.0340    5.3380    0.0000 C   0  0  0  0  0  0  0  0  0  0  0  0
   -3.0340    5.3390    0.0000 C   0  0  0  0  0  0  0  0  0  0  0  0
   -1.5340    5.3400    0.0000 C   0  0  0  0  0  0  0  0  0  0  0  0
   -0.5320    9.0530    0.0000 C   0  0  0  0  0  0  0  0  0  0  0  0
    0.8390    8.4440    0.0000 C   0  0  0  0  0  0  0  0  0  0  0  0
    6.2300    4.4470    0.0000 C   0  0  0  0  0  0  0  0  0  0  0  0
    7.1920    6.3370    0.0000 C   0  0  0  0  0  0  0  0  0  0  0  0
  1  2  1  0  0  0  0
  2  3  1  0  0  0  0
  2 27  1  0  0  0  0
  2 28  1  0  0  0  0
  3  4  1  0  0  0  0
  4  5  1  0  0  0  0
  5  6  1  1  0  0  0
  5  7  1  0  0  0  0
  7  8  1  0  0  0  0
  7 26  1  6  0  0  0
  8  9  1  6  0  0  0
  8 10  1  0  0  0  0
  8 24  1  0  0  0  0
 10 11  1  0  0  0  0
 10 25  1  6  0  0  0
 11 12  1  0  0  0  0
 11 17  1  1  0  0  0
 12 13  1  0  0  0  0
 12 23  1  6  0  0  0
 13 14  1  6  0  0  0
 13 15  1  0  0  0  0
 13 22  1  0  0  0  0
 15 16  2  0  0  0  0
 15 18  1  0  0  0  0
 16 17  1  0  0  0  0
 18 19  1  0  0  0  0
 19 20  1  6  0  0  0
 19 21  1  0  0  0  0
 21 22  1  0  0  0  0
 23 24  1  0  0  0  0
 25 26  1  0  0  0  0
M  END
>  <name>
OC(CC[C@@H](C)[C@@H]1[C@]2(C)[C@H]([C@H]3[C@@H]([C@]4(C)C(=CC3)C[C@@H]([O;ester])CC4)CC2)CC1)(C)C

>  <apo>
1

>  <freq>
1

>  <freq0>
0

>  <freq1>
1

>  <freqA>
0.9949851

$$$$

  MOE2015           2D

 11 11  0  0  1  0  0  0  0  0999 V2000
    5.1140   -0.1180    0.0000 O   0  0  0  0  0  0  0  0  0  0  0  0
    4.3640   -1.4170    0.0000 C   0  0  3  0  0  0  0  0  0  0  0  0
    5.1140   -2.7160    0.0000 C   0  0  0  0  0  0  0  0  0  0  0  0
    6.6140   -2.7160    0.0000 N   0  0  0  0  0  0  0  0  0  0  0  0
    2.8640   -1.4170    0.0000 C   0  0  0  0  0  0  0  0  0  0  0  0
    2.1140   -2.7160    0.0000 C   0  0  0  0  0  0  0  0  0  0  0  0
    0.6140   -2.7160    0.0000 C   0  0  0  0  0  0  0  0  0  0  0  0
   -0.1360   -1.4170    0.0000 C   0  0  0  0  0  0  0  0  0  0  0  0
   -1.6360   -1.4170    0.0000 O   0  0  0  0  0  0  0  0  0  0  0  0
    0.6140   -0.1180    0.0000 C   0  0  0  0  0  0  0  0  0  0  0  0
    2.1140   -0.1180    0.0000 C   0  0  0  0  0  0  0  0  0  0  0  0
  1  2  1  0  0  0  0
  2  3  1  0  0  0  0
  2  5  1  0  0  0  0
  3  4  1  0  0  0  0
  5  6  1  0  0  0  0
  5 11  2  0  0  0  0
  6  7  2  0  0  0  0
  7  8  1  0  0  0  0
  8  9  1  0  0  0  0
  8 10  2  0  0  0  0
 10 11  1  0  0  0  0
M  END
>  <name>
OC(C[N;amide])c1ccc(O)cc1

>  <apo>
1

>  <freq>
1

>  <freq0>
0

>  <freq1>
1

>  <freqA>
0.9949851

$$$$

  MOE2015           2D

  5  4  0  0  0  0  0  0  0  0999 V2000
    3.0000    0.0000    0.0000 O   0  0  0  0  0  0  0  0  0  0  0  0
    1.5000    0.0000    0.0000 C   0  0  0  0  0  0  0  0  0  0  0  0
    1.5000    1.5000    0.0000 C   0  0  0  0  0  0  0  0  0  0  0  0
    0.0000    0.0000    0.0000 C   0  0  0  0  0  0  0  0  0  0  0  0
    1.5000   -1.5000    0.0000 C   0  0  0  0  0  0  0  0  0  0  0  0
  1  2  1  0  0  0  0
  2  3  1  0  0  0  0
  2  4  1  0  0  0  0
  2  5  1  0  0  0  0
M  END
>  <name>
OC([C;olefin])(C)C

>  <apo>
1

>  <freq>
1

>  <freq0>
0

>  <freq1>
1

>  <freqA>
0.9949851

$$$$

  MOE2015           2D

 10 10  0  0  1  0  0  0  0  0999 V2000
    1.0500    2.3380    0.0000 O   0  0  0  0  0  0  0  0  0  0  0  0
    1.8000    1.0390    0.0000 C   0  0  3  0  0  0  0  0  0  0  0  0
    3.3000    1.0390    0.0000 C   0  0  3  0  0  0  0  0  0  0  0  0
    4.0500    2.3380    0.0000 O   0  0  0  0  0  0  0  0  0  0  0  0
    4.0500   -0.2600    0.0000 C   0  0  3  0  0  0  0  0  0  0  0  0
    5.5500   -0.2600    0.0000 C   0  0  0  0  0  0  0  0  0  0  0  0
    3.3000   -1.5590    0.0000 C   0  0  0  0  0  0  0  0  0  0  0  0
    1.8000   -1.5590    0.0000 O   0  0  0  0  0  0  0  0  0  0  0  0
    1.0500   -0.2600    0.0000 C   0  0  3  0  0  0  0  0  0  0  0  0
   -0.4500   -0.2600    0.0000 O   0  0  0  0  0  0  0  0  0  0  0  0
  1  2  1  0  0  0  0
  2  3  1  0  0  0  0
  2  9  1  0  0  0  0
  3  4  1  0  0  0  0
  3  5  1  0  0  0  0
  5  6  1  0  0  0  0
  5  7  1  0  0  0  0
  7  8  1  0  0  0  0
  8  9  1  0  0  0  0
  9 10  1  0  0  0  0
M  END
>  <name>
OC1C(O)C(C)[C;ether]OC1O

>  <apo>
1

>  <freq>
1

>  <freq0>
0

>  <freq1>
1

>  <freqA>
0.9949851

$$$$

  MOE2015           2D

 10 10  0  0  1  0  0  0  0  0999 V2000
    1.0500    2.3380    0.0000 O   0  0  0  0  0  0  0  0  0  0  0  0
    1.8000    1.0390    0.0000 C   0  0  3  0  0  0  0  0  0  0  0  0
    3.3000    1.0390    0.0000 C   0  0  3  0  0  0  0  0  0  0  0  0
    4.0500    2.3380    0.0000 O   0  0  0  0  0  0  0  0  0  0  0  0
    4.0500   -0.2600    0.0000 C   0  0  3  0  0  0  0  0  0  0  0  0
    5.5500   -0.2600    0.0000 O   0  0  0  0  0  0  0  0  0  0  0  0
    3.3000   -1.5590    0.0000 C   0  0  0  0  0  0  0  0  0  0  0  0
    1.8000   -1.5590    0.0000 O   0  0  0  0  0  0  0  0  0  0  0  0
    1.0500   -0.2600    0.0000 C   0  0  3  0  0  0  0  0  0  0  0  0
   -0.4500   -0.2600    0.0000 O   0  0  0  0  0  0  0  0  0  0  0  0
  1  2  1  0  0  0  0
  2  3  1  0  0  0  0
  2  9  1  0  0  0  0
  3  4  1  0  0  0  0
  3  5  1  0  0  0  0
  5  6  1  0  0  0  0
  5  7  1  0  0  0  0
  7  8  1  0  0  0  0
  8  9  1  0  0  0  0
  9 10  1  0  0  0  0
M  END
>  <name>
OC1C(O)C(O)[C;ether]OC1O

>  <apo>
1

>  <freq>
1

>  <freq0>
0

>  <freq1>
1

>  <freqA>
0.9949851

$$$$

  MOE2015           2D

  8  8  0  0  1  0  0  0  0  0999 V2000
    0.4890   -1.1750    0.0000 O   0  0  0  0  0  0  0  0  0  0  0  0
    1.7880   -0.4250    0.0000 C   0  0  3  0  0  0  0  0  0  0  0  0
    1.7880    1.0750    0.0000 C   0  0  3  0  0  0  0  0  0  0  0  0
    0.4890    1.8250    0.0000 O   0  0  0  0  0  0  0  0  0  0  0  0
    3.0870    1.8250    0.0000 C   0  0  0  0  0  0  0  0  0  0  0  0
    4.3860    1.0750    0.0000 C   0  0  0  0  0  0  0  0  0  0  0  0
    4.3860   -0.4250    0.0000 O   0  0  0  0  0  0  0  0  0  0  0  0
    3.0870   -1.1750    0.0000 C   0  0  0  0  0  0  0  0  0  0  0  0
  1  2  1  0  0  0  0
  2  3  1  0  0  0  0
  2  8  1  0  0  0  0
  3  4  1  0  0  0  0
  3  5  1  0  0  0  0
  5  6  1  0  0  0  0
  6  7  1  0  0  0  0
  7  8  1  0  0  0  0
M  END
>  <name>
OC1C(O)[C;ether][C;ether]O[C;ether]1

>  <apo>
3

>  <freq>
1

>  <freq0>
0

>  <freq1>
1

>  <freqA>
0.9949851

$$$$

  MOE2015           2D

 10 10  0  0  1  0  0  0  0  0999 V2000
    1.3700   -2.3730    0.0000 O   0  0  0  0  0  0  0  0  0  0  0  0
    2.1200   -1.0740    0.0000 C   0  0  3  0  0  0  0  0  0  0  0  0
    3.6200   -1.0740    0.0000 C   0  0  0  0  0  0  0  0  0  0  0  0
    4.3700    0.2250    0.0000 C   0  0  0  0  0  0  0  0  0  0  0  0
    5.6690   -0.5250    0.0000 C   0  0  0  0  0  0  0  0  0  0  0  0
    5.6690    0.9750    0.0000 C   0  0  0  0  0  0  0  0  0  0  0  0
    3.6200    1.5240    0.0000 C   0  0  0  0  0  0  0  0  0  0  0  0
    2.1200    1.5240    0.0000 C   0  0  0  0  0  0  0  0  0  0  0  0
    1.3700    2.8230    0.0000 C   0  0  0  0  0  0  0  0  0  0  0  0
    1.3700    0.2250    0.0000 C   0  0  0  0  0  0  0  0  0  0  0  0
  1  2  1  0  0  0  0
  2  3  1  0  0  0  0
  2 10  1  0  0  0  0
  3  4  1  0  0  0  0
  4  5  1  0  0  0  0
  4  6  1  0  0  0  0
  4  7  1  0  0  0  0
  7  8  2  0  0  0  0
  8  9  1  0  0  0  0
  8 10  1  0  0  0  0
M  END
>  <name>
OC1CC(C)(C)[C;olefin]=C(C)C1

>  <apo>
1

>  <freq>
1

>  <freq0>
0

>  <freq1>
1

>  <freqA>
0.9949851

$$$$

  MOE2015           2D

  8  8  0  0  0  0  0  0  0  0999 V2000
    0.0000    0.0000    0.0000 O   0  0  0  0  0  0  0  0  0  0  0  0
    1.5000    0.0000    0.0000 C   0  0  0  0  0  0  0  0  0  0  0  0
    2.2500   -1.2990    0.0000 C   0  0  0  0  0  0  0  0  0  0  0  0
    3.7500   -1.2990    0.0000 C   0  0  0  0  0  0  0  0  0  0  0  0
    4.5000    0.0000    0.0000 C   0  0  0  0  0  0  0  0  0  0  0  0
    6.0000    0.0000    0.0000 C   0  0  0  0  0  0  0  0  0  0  0  0
    3.7500    1.2990    0.0000 C   0  0  0  0  0  0  0  0  0  0  0  0
    2.2500    1.2990    0.0000 C   0  0  0  0  0  0  0  0  0  0  0  0
  1  2  1  0  0  0  0
  2  3  1  0  0  0  0
  2  8  1  0  0  0  0
  3  4  1  0  0  0  0
  4  5  1  0  0  0  0
  5  6  2  0  0  0  0
  5  7  1  0  0  0  0
  7  8  1  0  0  0  0
M  END
>  <name>
OC1C[C;olefin]C(=C)CC1

>  <apo>
1

>  <freq>
1

>  <freq0>
0

>  <freq1>
1

>  <freqA>
0.9949851

$$$$

  MOE2015           2D

  8  8  0  0  1  0  0  0  0  0999 V2000
    0.0000    0.0000    0.0000 O   0  0  0  0  0  0  0  0  0  0  0  0
    1.5000    0.0000    0.0000 C   0  0  3  0  0  0  0  0  0  0  0  0
    2.2500   -1.2990    0.0000 C   0  0  0  0  0  0  0  0  0  0  0  0
    3.7500   -1.2990    0.0000 O   0  0  0  0  0  0  0  0  0  0  0  0
    4.5000    0.0000    0.0000 C   0  0  3  0  0  0  0  0  0  0  0  0
    6.0000    0.0000    0.0000 C   0  0  0  0  0  0  0  0  0  0  0  0
    3.7500    1.2990    0.0000 C   0  0  0  0  0  0  0  0  0  0  0  0
    2.2500    1.2990    0.0000 C   0  0  0  0  0  0  0  0  0  0  0  0
  1  2  1  0  0  0  0
  2  3  1  0  0  0  0
  2  8  1  0  0  0  0
  3  4  1  0  0  0  0
  4  5  1  0  0  0  0
  5  6  1  0  0  0  0
  5  7  1  0  0  0  0
  7  8  1  0  0  0  0
M  END
>  <name>
OC1[C;ether]OC(C)[C;ether][C;ether]1

>  <apo>
3

>  <freq>
1

>  <freq0>
0

>  <freq1>
1

>  <freqA>
0.9949851

$$$$

  MOE2015           2D

 33 37  0  0  1  0  0  0  0  0999 V2000
    0.0000   -3.7790    0.0000 O   0  0  0  0  0  0  0  0  0  0  0  0
    1.5000   -3.7790    0.0000 C   0  0  0  0  0  0  0  0  0  0  0  0
    2.2500   -2.4800    0.0000 C   0  0  3  0  0  0  0  0  0  0  0  0
    3.0000   -3.7790    0.0000 C   0  0  3  0  0  0  0  0  0  0  0  0
    2.2500   -5.0780    0.0000 O   0  0  0  0  0  0  0  0  0  0  0  0
    4.5000   -3.7790    0.0000 C   0  0  0  0  0  0  0  0  0  0  0  0
    5.2500   -2.4800    0.0000 C   0  0  3  0  0  0  0  0  0  0  0  0
    6.0000   -3.7790    0.0000 C   0  0  0  0  0  0  0  0  0  0  0  0
    6.7500   -2.4800    0.0000 C   0  0  3  0  0  0  0  0  0  0  0  0
    8.2500   -2.4800    0.0000 C   0  0  0  0  0  0  0  0  0  0  0  0
    7.5000   -1.1810    0.0000 C   0  0  3  0  0  0  0  0  0  0  0  0
    9.0000   -1.1810    0.0000 C   0  0  3  0  0  0  0  0  0  0  0  0
    8.2500    0.1180    0.0000 C   0  0  0  0  0  0  0  0  0  0  0  0
    9.7500   -2.4800    0.0000 C   0  0  3  0  0  0  0  0  0  0  0  0
   11.2500   -2.4800    0.0000 C   0  0  3  0  0  0  0  0  0  0  0  0
   12.5490   -3.2300    0.0000 C   0  0  0  0  0  0  0  0  0  0  0  0
   13.8480   -2.4800    0.0000 O   0  0  0  0  0  0  0  0  0  0  0  0
   11.2500   -3.9800    0.0000 C   0  0  0  0  0  0  0  0  0  0  0  0
   12.0000   -1.1810    0.0000 C   0  0  0  0  0  0  0  0  0  0  0  0
   11.2500    0.1180    0.0000 C   0  0  0  0  0  0  0  0  0  0  0  0
    9.7500    0.1180    0.0000 C   0  0  0  0  0  0  0  0  0  0  0  0
    9.0000   -3.7790    0.0000 C   0  0  0  0  0  0  0  0  0  0  0  0
    7.5000   -3.7790    0.0000 C   0  0  0  0  0  0  0  0  0  0  0  0
    6.7500    0.1180    0.0000 C   0  0  0  0  0  0  0  0  0  0  0  0
    5.2500    0.1180    0.0000 C   0  0  0  0  0  0  0  0  0  0  0  0
    4.5000   -1.1810    0.0000 C   0  0  0  0  0  0  0  0  0  0  0  0
    3.0000   -1.1810    0.0000 C   0  0  0  0  0  0  0  0  0  0  0  0
    2.2500    0.1180    0.0000 C   0  0  0  0  0  0  0  0  0  0  0  0
    0.7500    0.1180    0.0000 C   0  0  0  0  0  0  0  0  0  0  0  0
   -0.5490    0.8680    0.0000 C   0  0  0  0  0  0  0  0  0  0  0  0
    0.7500    1.6180    0.0000 C   0  0  0  0  0  0  0  0  0  0  0  0
    0.0000   -1.1810    0.0000 C   0  0  0  0  0  0  0  0  0  0  0  0
    0.7500   -2.4800    0.0000 C   0  0  0  0  0  0  0  0  0  0  0  0
  1  2  1  0  0  0  0
  2  3  1  0  0  0  0
  3  4  1  0  0  0  0
  3 27  1  0  0  0  0
  3 33  1  0  0  0  0
  4  5  1  0  0  0  0
  4  6  1  0  0  0  0
  6  7  1  0  0  0  0
  7  8  1  0  0  0  0
  7  9  1  0  0  0  0
  7 26  1  0  0  0  0
  9 10  1  0  0  0  0
  9 11  1  0  0  0  0
  9 23  1  0  0  0  0
 11 12  1  0  0  0  0
 11 24  1  0  0  0  0
 12 13  1  0  0  0  0
 12 14  1  0  0  0  0
 12 21  1  0  0  0  0
 14 15  1  0  0  0  0
 14 22  1  0  0  0  0
 15 16  1  0  0  0  0
 15 18  1  0  0  0  0
 15 19  1  0  0  0  0
 16 17  1  0  0  0  0
 19 20  1  0  0  0  0
 20 21  1  0  0  0  0
 22 23  1  0  0  0  0
 24 25  2  0  0  0  0
 25 26  1  0  0  0  0
 26 27  2  0  0  0  0
 27 28  1  0  0  0  0
 28 29  1  0  0  0  0
 29 30  1  0  0  0  0
 29 31  1  0  0  0  0
 29 32  1  0  0  0  0
 32 33  1  0  0  0  0
M  END
>  <name>
OCC12C(O)CC3(C)C4(C)C(C5(C)C(C(CO)(C)[C;ether]CC5)CC4)C=CC3=C1CC(C)(C)CC2

>  <apo>
1

>  <freq>
1

>  <freq0>
0

>  <freq1>
1

>  <freqA>
0.9949851

$$$$

  MOE2015           2D

 32 36  0  0  1  0  0  0  0  0999 V2000
    0.0000   -3.8160    0.0000 O   0  0  0  0  0  0  0  0  0  0  0  0
    1.5000   -3.8160    0.0000 C   0  0  0  0  0  0  0  0  0  0  0  0
    2.2500   -2.5170    0.0000 C   0  0  3  0  0  0  0  0  0  0  0  0
    3.0000   -3.8160    0.0000 C   0  0  3  0  0  0  0  0  0  0  0  0
    2.2500   -5.1150    0.0000 O   0  0  0  0  0  0  0  0  0  0  0  0
    4.5000   -3.8160    0.0000 C   0  0  0  0  0  0  0  0  0  0  0  0
    5.2500   -2.5170    0.0000 C   0  0  3  0  0  0  0  0  0  0  0  0
    6.0000   -3.8160    0.0000 C   0  0  0  0  0  0  0  0  0  0  0  0
    6.7500   -2.5170    0.0000 C   0  0  3  0  0  0  0  0  0  0  0  0
    8.2500   -2.5170    0.0000 C   0  0  0  0  0  0  0  0  0  0  0  0
    7.5000   -1.2180    0.0000 C   0  0  3  0  0  0  0  0  0  0  0  0
    9.0000   -1.2180    0.0000 C   0  0  3  0  0  0  0  0  0  0  0  0
    8.2500    0.0810    0.0000 C   0  0  0  0  0  0  0  0  0  0  0  0
    9.7500   -2.5170    0.0000 C   0  0  3  0  0  0  0  0  0  0  0  0
   11.2500   -2.5170    0.0000 C   0  0  3  0  0  0  0  0  0  0  0  0
   12.5490   -3.2670    0.0000 O   0  0  0  0  0  0  0  0  0  0  0  0
   11.2500   -4.0170    0.0000 C   0  0  0  0  0  0  0  0  0  0  0  0
   12.0000   -1.2180    0.0000 C   0  0  0  0  0  0  0  0  0  0  0  0
   11.2500    0.0810    0.0000 C   0  0  0  0  0  0  0  0  0  0  0  0
    9.7500    0.0810    0.0000 C   0  0  0  0  0  0  0  0  0  0  0  0
    9.0000   -3.8160    0.0000 C   0  0  0  0  0  0  0  0  0  0  0  0
    7.5000   -3.8160    0.0000 C   0  0  0  0  0  0  0  0  0  0  0  0
    6.7500    0.0810    0.0000 C   0  0  0  0  0  0  0  0  0  0  0  0
    5.2500    0.0810    0.0000 C   0  0  0  0  0  0  0  0  0  0  0  0
    4.5000   -1.2180    0.0000 C   0  0  3  0  0  0  0  0  0  0  0  0
    3.0000   -1.2180    0.0000 C   0  0  3  0  0  0  0  0  0  0  0  0
    2.2500    0.0810    0.0000 C   0  0  0  0  0  0  0  0  0  0  0  0
    0.7500    0.0810    0.0000 C   0  0  0  0  0  0  0  0  0  0  0  0
   -0.5490    0.8310    0.0000 C   0  0  0  0  0  0  0  0  0  0  0  0
    0.7500    1.5810    0.0000 C   0  0  0  0  0  0  0  0  0  0  0  0
    0.0000   -1.2180    0.0000 C   0  0  0  0  0  0  0  0  0  0  0  0
    0.7500   -2.5170    0.0000 C   0  0  0  0  0  0  0  0  0  0  0  0
  1  2  1  0  0  0  0
  2  3  1  0  0  0  0
  3  4  1  0  0  0  0
  3 26  1  0  0  0  0
  3 32  1  0  0  0  0
  4  5  1  0  0  0  0
  4  6  1  0  0  0  0
  6  7  1  0  0  0  0
  7  8  1  0  0  0  0
  7  9  1  0  0  0  0
  7 25  1  0  0  0  0
  9 10  1  0  0  0  0
  9 11  1  0  0  0  0
  9 22  1  0  0  0  0
 11 12  1  0  0  0  0
 11 23  1  0  0  0  0
 12 13  1  0  0  0  0
 12 14  1  0  0  0  0
 12 20  1  0  0  0  0
 14 15  1  0  0  0  0
 14 21  1  0  0  0  0
 15 16  1  0  0  0  0
 15 17  1  0  0  0  0
 15 18  1  0  0  0  0
 18 19  1  0  0  0  0
 19 20  1  0  0  0  0
 21 22  1  0  0  0  0
 23 24  2  0  0  0  0
 24 25  1  0  0  0  0
 25 26  1  0  0  0  0
 26 27  1  0  0  0  0
 27 28  1  0  0  0  0
 28 29  1  0  0  0  0
 28 30  1  0  0  0  0
 28 31  1  0  0  0  0
 31 32  1  0  0  0  0
M  END
>  <name>
OCC12C(O)CC3(C)C4(C)C(C5(C)C(C(O)(C)[C;ether]CC5)CC4)C=CC3C1CC(C)(C)CC2

>  <apo>
1

>  <freq>
1

>  <freq0>
0

>  <freq1>
1

>  <freqA>
0.9949851

$$$$

  MOE2015           2D

 35 39  0  0  1  0  0  0  0  0999 V2000
    0.5640   -1.8620    0.0000 O   0  0  0  0  0  0  0  0  0  0  0  0
    1.9740   -1.3490    0.0000 C   0  0  0  0  0  0  0  0  0  0  0  0
    2.2340    0.1280    0.0000 C   0  0  3  0  0  0  0  0  0  0  0  0
    0.7340    0.1280    0.0000 C   0  0  1  0  0  0  0  0  0  0  0  0
   -0.4150   -0.8360    0.0000 O   0  0  0  0  0  0  0  0  0  0  0  0
   -0.0160    1.4270    0.0000 C   0  0  3  0  0  0  0  0  0  0  0  0
   -1.5160    1.4270    0.0000 O   0  0  0  0  0  0  0  0  0  0  0  0
    0.7340    2.7260    0.0000 C   0  0  0  0  0  0  0  0  0  0  0  0
   -0.5650    3.4760    0.0000 C   0  0  0  0  0  0  0  0  0  0  0  0
    0.7340    4.2260    0.0000 C   0  0  0  0  0  0  0  0  0  0  0  0
    2.2340    2.7260    0.0000 C   0  0  0  0  0  0  0  0  0  0  0  0
    2.9840    1.4270    0.0000 C   0  0  3  0  0  0  0  0  0  0  0  0
    4.4840    1.4270    0.0000 C   0  0  0  0  0  0  0  0  0  0  0  0
    5.2340    0.1280    0.0000 C   0  0  2  0  0  0  0  0  0  0  0  0
    5.9840   -1.1710    0.0000 C   0  0  0  0  0  0  0  0  0  0  0  0
    6.7340    0.1280    0.0000 C   0  0  3  0  0  0  0  0  0  0  0  0
    8.2340    0.1280    0.0000 C   0  0  0  0  0  0  0  0  0  0  0  0
    7.4840    1.4270    0.0000 C   0  0  3  0  0  0  0  0  0  0  0  0
    8.9840    1.4270    0.0000 C   0  0  3  0  0  0  0  0  0  0  0  0
    8.2340    2.7260    0.0000 C   0  0  0  0  0  0  0  0  0  0  0  0
    9.7340    0.1280    0.0000 C   0  0  3  0  0  0  0  0  0  0  0  0
   11.2340    0.1280    0.0000 C   0  0  2  0  0  0  0  0  0  0  0  0
   12.5330   -0.6220    0.0000 C   0  0  0  0  0  0  0  0  0  0  0  0
   13.8320    0.1280    0.0000 O   0  0  0  0  0  0  0  0  0  0  0  0
   11.2340   -1.3720    0.0000 C   0  0  0  0  0  0  0  0  0  0  0  0
   11.9840    1.4270    0.0000 C   0  0  0  0  0  0  0  0  0  0  0  0
   11.2340    2.7260    0.0000 C   0  0  0  0  0  0  0  0  0  0  0  0
    9.7340    2.7260    0.0000 C   0  0  0  0  0  0  0  0  0  0  0  0
    8.9840   -1.1710    0.0000 C   0  0  0  0  0  0  0  0  0  0  0  0
    7.4840   -1.1710    0.0000 C   0  0  0  0  0  0  0  0  0  0  0  0
    6.7340    2.7260    0.0000 C   0  0  0  0  0  0  0  0  0  0  0  0
    5.2340    2.7260    0.0000 C   0  0  0  0  0  0  0  0  0  0  0  0
    4.4840   -1.1710    0.0000 C   0  0  0  0  0  0  0  0  0  0  0  0
    2.9840   -1.1710    0.0000 C   0  0  1  0  0  0  0  0  0  0  0  0
    2.2340   -2.4700    0.0000 O   0  0  0  0  0  0  0  0  0  0  0  0
  1  2  1  0  0  0  0
  2  3  1  0  0  0  0
  3  4  1  0  0  0  0
  3 12  1  0  0  0  0
  3 34  1  0  0  0  0
  4  5  1  1  0  0  0
  4  6  1  0  0  0  0
  6  7  1  0  0  0  0
  6  8  1  0  0  0  0
  8  9  1  0  0  0  0
  8 10  1  0  0  0  0
  8 11  1  0  0  0  0
 11 12  1  0  0  0  0
 12 13  1  0  0  0  0
 13 14  1  0  0  0  0
 13 32  2  0  0  0  0
 14 15  1  1  0  0  0
 14 16  1  0  0  0  0
 14 33  1  0  0  0  0
 16 17  1  0  0  0  0
 16 18  1  0  0  0  0
 16 30  1  0  0  0  0
 18 19  1  0  0  0  0
 18 31  1  0  0  0  0
 19 20  1  0  0  0  0
 19 21  1  0  0  0  0
 19 28  1  0  0  0  0
 21 22  1  0  0  0  0
 21 29  1  0  0  0  0
 22 23  1  6  0  0  0
 22 25  1  1  0  0  0
 22 26  1  0  0  0  0
 23 24  1  0  0  0  0
 26 27  1  0  0  0  0
 27 28  1  0  0  0  0
 29 30  1  0  0  0  0
 31 32  1  0  0  0  0
 33 34  1  0  0  0  0
 34 35  1  1  0  0  0
M  END
>  <name>
OCC12[C@@H]([O;ester])C([O;ester])C(C)(C)CC1C=1[C@](C)(C3(C)C(C4(C)C([C@](CO)(C)[C;ether]CC4)CC3)CC=1)C[C@H]2O

>  <apo>
3

>  <freq>
1

>  <freq0>
0

>  <freq1>
1

>  <freqA>
0.9949851

$$$$

  MOE2015           2D

 11 11  0  0  1  0  0  0  0  0999 V2000
    6.5450    0.4720    0.0000 O   0  0  0  0  0  0  0  0  0  0  0  0
    5.7950    1.7710    0.0000 C   0  0  0  0  0  0  0  0  0  0  0  0
    4.2950    1.7710    0.0000 C   0  0  3  0  0  0  0  0  0  0  0  0
    3.5450    3.0700    0.0000 C   0  0  3  0  0  0  0  0  0  0  0  0
    4.2950    4.3690    0.0000 O   0  0  0  0  0  0  0  0  0  0  0  0
    2.0450    3.0700    0.0000 C   0  0  3  0  0  0  0  0  0  0  0  0
    1.2950    4.3690    0.0000 O   0  0  0  0  0  0  0  0  0  0  0  0
    1.2950    1.7710    0.0000 C   0  0  3  0  0  0  0  0  0  0  0  0
   -0.2050    1.7710    0.0000 O   0  0  0  0  0  0  0  0  0  0  0  0
    2.0450    0.4720    0.0000 C   0  0  0  0  0  0  0  0  0  0  0  0
    3.5450    0.4720    0.0000 O   0  0  0  0  0  0  0  0  0  0  0  0
  1  2  1  0  0  0  0
  2  3  1  0  0  0  0
  3  4  1  0  0  0  0
  3 11  1  0  0  0  0
  4  5  1  0  0  0  0
  4  6  1  0  0  0  0
  6  7  1  0  0  0  0
  6  8  1  0  0  0  0
  8  9  1  0  0  0  0
  8 10  1  0  0  0  0
 10 11  1  0  0  0  0
M  END
>  <name>
OCC1C(O)C(O)C([O;ester])[C;ether]O1

>  <apo>
2

>  <freq>
1

>  <freq0>
0

>  <freq1>
1

>  <freqA>
0.9949851

$$$$

  MOE2015           2D

 17 16  0  0  0  0  0  0  0  0999 V2000
   -1.2160   -5.2430    0.0000 O   0  0  0  0  0  0  0  0  0  0  0  0
    0.0830   -4.4930    0.0000 C   0  0  0  0  0  0  0  0  0  0  0  0
    1.3820   -5.2430    0.0000 C   0  0  0  0  0  0  0  0  0  0  0  0
    2.6810   -4.4930    0.0000 C   0  0  0  0  0  0  0  0  0  0  0  0
    3.9800   -5.2430    0.0000 C   0  0  0  0  0  0  0  0  0  0  0  0
    5.2790   -4.4930    0.0000 C   0  0  0  0  0  0  0  0  0  0  0  0
    6.5780   -5.2430    0.0000 C   0  0  0  0  0  0  0  0  0  0  0  0
    7.8770   -4.4930    0.0000 C   0  0  0  0  0  0  0  0  0  0  0  0
    9.1760   -5.2430    0.0000 C   0  0  0  0  0  0  0  0  0  0  0  0
   10.4760   -4.4930    0.0000 C   0  0  0  0  0  0  0  0  0  0  0  0
   11.7750   -5.2430    0.0000 C   0  0  0  0  0  0  0  0  0  0  0  0
   13.0740   -4.4930    0.0000 C   0  0  0  0  0  0  0  0  0  0  0  0
   14.3730   -5.2430    0.0000 C   0  0  0  0  0  0  0  0  0  0  0  0
   15.6720   -4.4930    0.0000 C   0  0  0  0  0  0  0  0  0  0  0  0
   16.9710   -5.2430    0.0000 C   0  0  0  0  0  0  0  0  0  0  0  0
   18.2700   -4.4930    0.0000 C   0  0  0  0  0  0  0  0  0  0  0  0
   19.5690   -5.2430    0.0000 C   0  0  0  0  0  0  0  0  0  0  0  0
  1  2  1  0  0  0  0
  2  3  1  0  0  0  0
  3  4  1  0  0  0  0
  4  5  1  0  0  0  0
  5  6  1  0  0  0  0
  6  7  1  0  0  0  0
  7  8  1  0  0  0  0
  8  9  1  0  0  0  0
  9 10  1  0  0  0  0
 10 11  1  0  0  0  0
 11 12  1  0  0  0  0
 12 13  1  0  0  0  0
 13 14  1  0  0  0  0
 14 15  1  0  0  0  0
 15 16  1  0  0  0  0
 16 17  1  0  0  0  0
M  END
>  <name>
OCCCCCCCCCCCCCCC[C;ether]

>  <apo>
1

>  <freq>
1

>  <freq0>
0

>  <freq1>
1

>  <freqA>
0.9949851

$$$$

  MOE2015           2D

  3  2  0  0  0  0  0  0  0  0999 V2000
   -0.0490    0.1830    0.0000 O   0  0  0  0  0  0  0  0  0  0  0  0
    1.2500    0.9330    0.0000 C   0  0  0  0  0  0  0  0  0  0  0  0
    2.5490    0.1830    0.0000 C   0  0  0  0  0  0  0  0  0  0  0  0
  1  2  1  0  0  0  0
  2  3  1  0  0  0  0
M  END
>  <name>
OC[C;ether]

>  <apo>
1

>  <freq>
1

>  <freq0>
0

>  <freq1>
1

>  <freqA>
0.9949851

$$$$

  MOE2015           2D

  6  5  0  0  0  0  0  0  0  0999 V2000
   -0.2480   -1.6740    0.0000 O   0  0  0  0  0  0  0  0  0  0  0  0
    1.0510   -0.9240    0.0000 C   0  0  0  0  0  0  0  0  0  0  0  0
    2.3500   -1.6740    0.0000 C   0  0  0  0  0  0  0  0  0  0  0  0
    3.6500   -0.9240    0.0000 C   0  0  0  0  0  0  0  0  0  0  0  0
    4.9490   -1.6740    0.0000 C   0  0  0  0  0  0  0  0  0  0  0  0
    6.2480   -0.9240    0.0000 C   0  0  0  0  0  0  0  0  0  0  0  0
  1  2  1  0  0  0  0
  2  3  1  0  0  0  0
  3  4  1  0  0  0  0
  4  5  1  0  0  0  0
  5  6  1  0  0  0  0
M  END
>  <name>
OC[C;olefin]CC[C;olefin]

>  <apo>
2

>  <freq>
1

>  <freq0>
0

>  <freq1>
1

>  <freqA>
0.9949851

$$$$

  MOE2015           2D

  6  5  0  0  1  0  0  0  0  0999 V2000
    4.8480   -1.2990    0.0000 O   0  0  0  0  0  0  0  0  0  0  0  0
    3.5490   -2.0490    0.0000 C   0  0  0  0  0  0  0  0  0  0  0  0
    2.2500   -1.2990    0.0000 C   0  0  1  0  0  0  0  0  0  0  0  0
    0.9510   -2.0490    0.0000 C   0  0  0  0  0  0  0  0  0  0  0  0
   -0.3480   -1.2990    0.0000 C   0  0  0  0  0  0  0  0  0  0  0  0
    2.2500    0.2010    0.0000 C   0  0  0  0  0  0  0  0  0  0  0  0
  1  2  1  0  0  0  0
  2  3  1  0  0  0  0
  3  4  1  0  0  0  0
  3  6  1  1  0  0  0
  4  5  1  0  0  0  0
M  END
>  <name>
OC[C@@H](CC)[C;olefin]

>  <apo>
1

>  <freq>
1

>  <freq0>
0

>  <freq1>
1

>  <freqA>
0.9949851

$$$$

  MOE2015           2D

 12 12  0  0  1  0  0  0  0  0999 V2000
    6.5630    0.9740    0.0000 O   0  0  0  0  0  0  0  0  0  0  0  0
    5.8120    2.2730    0.0000 C   0  0  0  0  0  0  0  0  0  0  0  0
    4.3130    2.2730    0.0000 C   0  0  2  0  0  0  0  0  0  0  0  0
    3.5630    3.5720    0.0000 C   0  0  1  0  0  0  0  0  0  0  0  0
    4.3130    4.8710    0.0000 O   0  0  0  0  0  0  0  0  0  0  0  0
    2.0620    3.5720    0.0000 C   0  0  2  0  0  0  0  0  0  0  0  0
    1.3130    4.8710    0.0000 O   0  0  0  0  0  0  0  0  0  0  0  0
    1.3120    2.2730    0.0000 C   0  0  1  0  0  0  0  0  0  0  0  0
   -0.1880    2.2730    0.0000 O   0  0  0  0  0  0  0  0  0  0  0  0
    2.0620    0.9740    0.0000 C   0  0  1  0  0  0  0  0  0  0  0  0
    1.3120   -0.3250    0.0000 O   0  0  0  0  0  0  0  0  0  0  0  0
    3.5620    0.9740    0.0000 O   0  0  0  0  0  0  0  0  0  0  0  0
  1  2  1  0  0  0  0
  3  2  1  1  0  0  0
  3  4  1  0  0  0  0
  3 12  1  0  0  0  0
  4  5  1  6  0  0  0
  4  6  1  0  0  0  0
  6  7  1  1  0  0  0
  6  8  1  0  0  0  0
  8  9  1  6  0  0  0
  8 10  1  0  0  0  0
 10 11  1  6  0  0  0
 10 12  1  0  0  0  0
M  END
>  <name>
OC[C@@H]1[C@@H](O)[C@H](O)[C@@H](O)[C@@H]([O;ester])O1

>  <apo>
1

>  <freq>
1

>  <freq0>
0

>  <freq1>
1

>  <freqA>
0.9949851

$$$$

  MOE2015           2D

 33 37  0  0  1  0  0  0  0  0999 V2000
   14.7110   -5.1230    0.0000 O   0  0  0  0  0  0  0  0  0  0  0  0
   13.4120   -5.8730    0.0000 C   0  0  0  0  0  0  0  0  0  0  0  0
   12.1130   -5.1230    0.0000 C   0  0  1  0  0  0  0  0  0  0  0  0
   12.1130   -6.6230    0.0000 C   0  0  0  0  0  0  0  0  0  0  0  0
   10.6130   -5.1230    0.0000 C   0  0  1  0  0  0  0  0  0  0  0  0
    9.8630   -3.8240    0.0000 C   0  0  1  0  0  0  0  0  0  0  0  0
    9.1130   -2.5250    0.0000 C   0  0  0  0  0  0  0  0  0  0  0  0
    8.3630   -3.8240    0.0000 C   0  0  2  0  0  0  0  0  0  0  0  0
    7.6130   -5.1230    0.0000 C   0  0  2  0  0  0  0  0  0  0  0  0
    6.8630   -6.4220    0.0000 C   0  0  0  0  0  0  0  0  0  0  0  0
    6.1130   -5.1230    0.0000 C   0  0  1  0  0  0  0  0  0  0  0  0
    4.6130   -5.1230    0.0000 C   0  0  0  0  0  0  0  0  0  0  0  0
    5.3630   -3.8240    0.0000 C   0  0  0  0  0  0  0  0  0  0  0  0
    3.8630   -3.8240    0.0000 C   0  0  0  0  0  0  0  0  0  0  0  0
    3.1130   -5.1230    0.0000 C   0  0  1  0  0  0  0  0  0  0  0  0
    2.3630   -6.4220    0.0000 C   0  0  0  0  0  0  0  0  0  0  0  0
    0.8630   -6.4220    0.0000 O   0  0  0  0  0  0  0  0  0  0  0  0
    3.8630   -6.4220    0.0000 C   0  0  2  0  0  0  0  0  0  0  0  0
    3.1130   -7.7210    0.0000 O   0  0  0  0  0  0  0  0  0  0  0  0
    5.3630   -6.4220    0.0000 C   0  0  0  0  0  0  0  0  0  0  0  0
    1.6130   -5.1230    0.0000 C   0  0  0  0  0  0  0  0  0  0  0  0
    0.8630   -3.8240    0.0000 C   0  0  0  0  0  0  0  0  0  0  0  0
    1.6130   -2.5250    0.0000 C   0  0  0  0  0  0  0  0  0  0  0  0
    1.6130   -1.0250    0.0000 C   0  0  0  0  0  0  0  0  0  0  0  0
    0.3140   -1.7750    0.0000 C   0  0  0  0  0  0  0  0  0  0  0  0
    3.1130   -2.5250    0.0000 C   0  0  0  0  0  0  0  0  0  0  0  0
    6.1130   -2.5250    0.0000 C   0  0  0  0  0  0  0  0  0  0  0  0
    7.6130   -2.5250    0.0000 C   0  0  0  0  0  0  0  0  0  0  0  0
    8.3630   -6.4220    0.0000 C   0  0  0  0  0  0  0  0  0  0  0  0
    9.8630   -6.4220    0.0000 C   0  0  0  0  0  0  0  0  0  0  0  0
   10.6130   -2.5250    0.0000 C   0  0  0  0  0  0  0  0  0  0  0  0
   12.1130   -2.5250    0.0000 C   0  0  0  0  0  0  0  0  0  0  0  0
   12.8630   -3.8240    0.0000 C   0  0  0  0  0  0  0  0  0  0  0  0
  1  2  1  0  0  0  0
  3  2  1  1  0  0  0
  3  4  1  6  0  0  0
  3  5  1  0  0  0  0
  3 33  1  0  0  0  0
  5  6  1  0  0  0  0
  5 30  1  6  0  0  0
  6  7  1  6  0  0  0
  6  8  1  0  0  0  0
  6 31  1  0  0  0  0
  8  9  1  0  0  0  0
  8 28  1  6  0  0  0
  9 10  1  6  0  0  0
  9 11  1  0  0  0  0
  9 29  1  0  0  0  0
 11 12  1  1  0  0  0
 11 13  1  0  0  0  0
 11 20  1  0  0  0  0
 13 14  2  0  0  0  0
 13 27  1  0  0  0  0
 14 15  1  0  0  0  0
 14 26  1  0  0  0  0
 15 16  1  6  0  0  0
 15 18  1  0  0  0  0
 15 21  1  0  0  0  0
 16 17  1  0  0  0  0
 18 19  1  1  0  0  0
 18 20  1  0  0  0  0
 21 22  1  0  0  0  0
 22 23  1  0  0  0  0
 23 24  1  0  0  0  0
 23 25  1  0  0  0  0
 23 26  1  0  0  0  0
 27 28  2  0  0  0  0
 29 30  1  0  0  0  0
 31 32  1  0  0  0  0
 32 33  1  0  0  0  0
M  END
>  <name>
OC[C@@]1(C)[C@H]2[C@@](C)([C@@H]3[C@](C)([C@@]4(C)C(=C5[C@@](CO)([C@H](O)C4)CCC(C)(C)C5)C=C3)CC2)CC[C;ether]1

>  <apo>
1

>  <freq>
1

>  <freq0>
0

>  <freq1>
1

>  <freqA>
0.9949851

$$$$

  MOE2015           2D

 33 38  0  0  1  0  0  0  0  0999 V2000
   14.0550   -4.9180    0.0000 O   0  0  0  0  0  0  0  0  0  0  0  0
   12.7660   -5.6860    0.0000 C   0  0  0  0  0  0  0  0  0  0  0  0
   11.4570   -4.9550    0.0000 C   0  0  1  0  0  0  0  0  0  0  0  0
   11.4910   -6.4540    0.0000 C   0  0  0  0  0  0  0  0  0  0  0  0
    9.9570   -4.9560    0.0000 C   0  0  1  0  0  0  0  0  0  0  0  0
    9.2060   -3.6570    0.0000 C   0  0  1  0  0  0  0  0  0  0  0  0
   10.7060   -3.6300    0.0000 C   0  0  0  0  0  0  0  0  0  0  0  0
    7.7060   -3.6590    0.0000 C   0  0  2  0  0  0  0  0  0  0  0  0
    6.9570   -4.9580    0.0000 C   0  0  2  0  0  0  0  0  0  0  0  0
    6.7240   -6.4400    0.0000 C   0  0  0  0  0  0  0  0  0  0  0  0
    5.4560   -4.9570    0.0000 C   0  0  1  0  0  0  0  0  0  0  0  0
    5.7430   -6.4290    0.0000 C   0  0  0  0  0  0  0  0  0  0  0  0
    4.7070   -3.6640    0.0000 C   0  0  1  0  0  0  0  0  0  0  0  0
    4.9430   -5.1760    0.0000 O   0  0  0  0  0  0  0  0  0  0  0  0
    3.6320   -5.9000    0.0000 C   0  0  0  0  0  0  0  0  0  0  0  0
    2.4770   -4.8980    0.0000 C   0  0  1  0  0  0  0  0  0  0  0  0
    3.1740   -6.2160    0.0000 C   0  0  1  0  0  0  0  0  0  0  0  0
    2.3890   -7.4950    0.0000 O   0  0  0  0  0  0  0  0  0  0  0  0
    4.6760   -6.2410    0.0000 C   0  0  0  0  0  0  0  0  0  0  0  0
    3.2150   -3.5970    0.0000 C   0  0  1  0  0  0  0  0  0  0  0  0
    2.4560   -2.3020    0.0000 C   0  0  0  0  0  0  0  0  0  0  0  0
    0.9560   -2.3130    0.0000 C   0  0  0  0  0  0  0  0  0  0  0  0
   -0.3540   -1.5840    0.0000 C   0  0  0  0  0  0  0  0  0  0  0  0
    0.9250   -0.8140    0.0000 C   0  0  0  0  0  0  0  0  0  0  0  0
    0.2150   -3.6160    0.0000 C   0  0  0  0  0  0  0  0  0  0  0  0
    0.9760   -4.9090    0.0000 C   0  0  0  0  0  0  0  0  0  0  0  0
    5.4550   -2.3610    0.0000 C   0  0  0  0  0  0  0  0  0  0  0  0
    6.9550   -2.3600    0.0000 C   0  0  0  0  0  0  0  0  0  0  0  0
    7.7080   -6.2570    0.0000 C   0  0  0  0  0  0  0  0  0  0  0  0
    9.2080   -6.2560    0.0000 C   0  0  0  0  0  0  0  0  0  0  0  0
    9.9550   -2.3580    0.0000 C   0  0  0  0  0  0  0  0  0  0  0  0
   11.4550   -2.3570    0.0000 C   0  0  0  0  0  0  0  0  0  0  0  0
   12.2060   -3.6550    0.0000 C   0  0  0  0  0  0  0  0  0  0  0  0
  1  2  1  0  0  0  0
  3  2  1  1  0  0  0
  3  4  1  6  0  0  0
  3  5  1  0  0  0  0
  3 33  1  0  0  0  0
  5  6  1  0  0  0  0
  5 30  1  6  0  0  0
  6  7  1  6  0  0  0
  6  8  1  0  0  0  0
  6 31  1  0  0  0  0
  8  9  1  0  0  0  0
  8 28  1  6  0  0  0
  9 10  1  6  0  0  0
  9 11  1  0  0  0  0
  9 29  1  0  0  0  0
 11 12  1  1  0  0  0
 11 13  1  0  0  0  0
 11 19  1  0  0  0  0
 13 14  1  6  0  0  0
 13 20  1  0  0  0  0
 13 27  1  0  0  0  0
 14 15  1  0  0  0  0
 16 15  1  6  0  0  0
 16 17  1  0  0  0  0
 16 20  1  0  0  0  0
 16 26  1  0  0  0  0
 17 18  1  6  0  0  0
 17 19  1  0  0  0  0
 20 21  1  1  0  0  0
 21 22  1  0  0  0  0
 22 23  1  0  0  0  0
 22 24  1  0  0  0  0
 22 25  1  0  0  0  0
 25 26  1  0  0  0  0
 27 28  2  0  0  0  0
 29 30  1  0  0  0  0
 31 32  1  0  0  0  0
 32 33  1  0  0  0  0
M  END
>  <name>
OC[C@@]1(C)[C@H]2[C@@](C)([C@@H]3[C@](C)([C@@]4(C)[C@]5(OC[C@@]6([C@@H](O)C4)[C@H]5CC(C)(C)CC6)C=C3)CC2)CC[C;ether]1

>  <apo>
1

>  <freq>
1

>  <freq0>
0

>  <freq1>
1

>  <freqA>
0.9949851

$$$$

  MOE2015           2D

 33 38  0  0  1  0  0  0  0  0999 V2000
   14.0550   -4.9180    0.0000 O   0  0  0  0  0  0  0  0  0  0  0  0
   12.7660   -5.6860    0.0000 C   0  0  0  0  0  0  0  0  0  0  0  0
   11.4570   -4.9550    0.0000 C   0  0  1  0  0  0  0  0  0  0  0  0
   11.4910   -6.4540    0.0000 C   0  0  0  0  0  0  0  0  0  0  0  0
    9.9570   -4.9560    0.0000 C   0  0  1  0  0  0  0  0  0  0  0  0
    9.2060   -3.6570    0.0000 C   0  0  1  0  0  0  0  0  0  0  0  0
   10.7060   -3.6300    0.0000 C   0  0  0  0  0  0  0  0  0  0  0  0
    7.7060   -3.6590    0.0000 C   0  0  2  0  0  0  0  0  0  0  0  0
    6.9570   -4.9580    0.0000 C   0  0  2  0  0  0  0  0  0  0  0  0
    6.7240   -6.4400    0.0000 C   0  0  0  0  0  0  0  0  0  0  0  0
    5.4560   -4.9570    0.0000 C   0  0  1  0  0  0  0  0  0  0  0  0
    5.7430   -6.4290    0.0000 C   0  0  0  0  0  0  0  0  0  0  0  0
    4.7070   -3.6640    0.0000 C   0  0  1  0  0  0  0  0  0  0  0  0
    4.9430   -5.1760    0.0000 O   0  0  0  0  0  0  0  0  0  0  0  0
    3.6320   -5.9000    0.0000 C   0  0  0  0  0  0  0  0  0  0  0  0
    2.4770   -4.8980    0.0000 C   0  0  1  0  0  0  0  0  0  0  0  0
    3.1740   -6.2160    0.0000 C   0  0  2  0  0  0  0  0  0  0  0  0
    2.3890   -7.4950    0.0000 O   0  0  0  0  0  0  0  0  0  0  0  0
    4.6760   -6.2410    0.0000 C   0  0  0  0  0  0  0  0  0  0  0  0
    3.2150   -3.5970    0.0000 C   0  0  1  0  0  0  0  0  0  0  0  0
    2.4560   -2.3020    0.0000 C   0  0  0  0  0  0  0  0  0  0  0  0
    0.9560   -2.3130    0.0000 C   0  0  0  0  0  0  0  0  0  0  0  0
   -0.3540   -1.5840    0.0000 C   0  0  0  0  0  0  0  0  0  0  0  0
    0.9250   -0.8140    0.0000 C   0  0  0  0  0  0  0  0  0  0  0  0
    0.2150   -3.6160    0.0000 C   0  0  0  0  0  0  0  0  0  0  0  0
    0.9760   -4.9090    0.0000 C   0  0  0  0  0  0  0  0  0  0  0  0
    5.4550   -2.3610    0.0000 C   0  0  0  0  0  0  0  0  0  0  0  0
    6.9550   -2.3600    0.0000 C   0  0  0  0  0  0  0  0  0  0  0  0
    7.7080   -6.2570    0.0000 C   0  0  0  0  0  0  0  0  0  0  0  0
    9.2080   -6.2560    0.0000 C   0  0  0  0  0  0  0  0  0  0  0  0
    9.9550   -2.3580    0.0000 C   0  0  0  0  0  0  0  0  0  0  0  0
   11.4550   -2.3570    0.0000 C   0  0  0  0  0  0  0  0  0  0  0  0
   12.2060   -3.6550    0.0000 C   0  0  0  0  0  0  0  0  0  0  0  0
  1  2  1  0  0  0  0
  3  2  1  1  0  0  0
  3  4  1  6  0  0  0
  3  5  1  0  0  0  0
  3 33  1  0  0  0  0
  5  6  1  0  0  0  0
  5 30  1  6  0  0  0
  6  7  1  6  0  0  0
  6  8  1  0  0  0  0
  6 31  1  0  0  0  0
  8  9  1  0  0  0  0
  8 28  1  6  0  0  0
  9 10  1  6  0  0  0
  9 11  1  0  0  0  0
  9 29  1  0  0  0  0
 11 12  1  1  0  0  0
 11 13  1  0  0  0  0
 11 19  1  0  0  0  0
 13 14  1  6  0  0  0
 13 20  1  0  0  0  0
 13 27  1  0  0  0  0
 14 15  1  0  0  0  0
 16 15  1  6  0  0  0
 16 17  1  0  0  0  0
 16 20  1  0  0  0  0
 16 26  1  0  0  0  0
 17 18  1  1  0  0  0
 17 19  1  0  0  0  0
 20 21  1  1  0  0  0
 21 22  1  0  0  0  0
 22 23  1  0  0  0  0
 22 24  1  0  0  0  0
 22 25  1  0  0  0  0
 25 26  1  0  0  0  0
 27 28  2  0  0  0  0
 29 30  1  0  0  0  0
 31 32  1  0  0  0  0
 32 33  1  0  0  0  0
M  END
>  <name>
OC[C@@]1(C)[C@H]2[C@@](C)([C@@H]3[C@](C)([C@@]4(C)[C@]5(OC[C@@]6([C@H](O)C4)[C@H]5CC(C)(C)CC6)C=C3)CC2)CC[C;ether]1

>  <apo>
1

>  <freq>
1

>  <freq0>
0

>  <freq1>
1

>  <freqA>
0.9949851

$$$$

  MOE2015           2D

  8  8  0  0  1  0  0  0  0  0999 V2000
    5.9390    1.4640    0.0000 O   0  0  0  0  0  0  0  0  0  0  0  0
    4.6100    0.7670    0.0000 C   0  0  0  0  0  0  0  0  0  0  0  0
    3.3430    1.5680    0.0000 C   0  0  1  0  0  0  0  0  0  0  0  0
    3.2460    3.0650    0.0000 O   0  0  0  0  0  0  0  0  0  0  0  0
    1.7930    3.4360    0.0000 C   0  0  0  0  0  0  0  0  0  0  0  0
    0.9910    2.1680    0.0000 C   0  0  2  0  0  0  0  0  0  0  0  0
   -0.5060    2.0720    0.0000 O   0  0  0  0  0  0  0  0  0  0  0  0
    1.9490    1.0140    0.0000 C   0  0  0  0  0  0  0  0  0  0  0  0
  1  2  1  0  0  0  0
  3  2  1  6  0  0  0
  3  4  1  0  0  0  0
  3  8  1  0  0  0  0
  4  5  1  0  0  0  0
  5  6  1  0  0  0  0
  6  7  1  1  0  0  0
  6  8  1  0  0  0  0
M  END
>  <name>
OC[C@H]1O[C;NaroC][C@H](O)C1

>  <apo>
1

>  <freq>
1

>  <freq0>
0

>  <freq1>
1

>  <freqA>
0.9949851

$$$$

  MOE2015           2D

 18 19  0  0  1  0  0  0  0  0999 V2000
   -0.2890    6.0210    0.0000 O   0  0  0  0  0  0  0  0  0  0  0  0
   -0.2890    4.5210    0.0000 C   0  0  0  0  0  0  0  0  0  0  0  0
    1.0100    3.7710    0.0000 C   0  0  2  0  0  0  0  0  0  0  0  0
    1.0100    5.2710    0.0000 C   0  0  0  0  0  0  0  0  0  0  0  0
    0.2600    2.4720    0.0000 C   0  0  2  0  0  0  0  0  0  0  0  0
   -1.2400    2.4720    0.0000 O   0  0  0  0  0  0  0  0  0  0  0  0
    1.0100    1.1730    0.0000 C   0  0  0  0  0  0  0  0  0  0  0  0
    2.5100    1.1730    0.0000 C   0  0  0  0  0  0  0  0  0  0  0  0
    3.2600    2.4720    0.0000 C   0  0  1  0  0  0  0  0  0  0  0  0
    4.0100    1.1730    0.0000 C   0  0  0  0  0  0  0  0  0  0  0  0
    4.7600    2.4720    0.0000 C   0  0  2  0  0  0  0  0  0  0  0  0
    5.5100    1.1730    0.0000 C   0  0  0  0  0  0  0  0  0  0  0  0
    7.0100    1.1730    0.0000 C   0  0  0  0  0  0  0  0  0  0  0  0
    5.5100    3.7710    0.0000 C   0  0  0  0  0  0  0  0  0  0  0  0
    7.0100    3.7710    0.0000 C   0  0  0  0  0  0  0  0  0  0  0  0
    4.7600    5.0700    0.0000 C   0  0  0  0  0  0  0  0  0  0  0  0
    3.2600    5.0700    0.0000 C   0  0  0  0  0  0  0  0  0  0  0  0
    2.5100    3.7710    0.0000 C   0  0  2  0  0  0  0  0  0  0  0  0
  1  2  1  0  0  0  0
  3  2  1  1  0  0  0
  3  4  1  6  0  0  0
  3  5  1  0  0  0  0
  3 18  1  0  0  0  0
  5  6  1  1  0  0  0
  5  7  1  0  0  0  0
  7  8  1  0  0  0  0
  8  9  1  0  0  0  0
  9 10  1  1  0  0  0
  9 11  1  0  0  0  0
  9 18  1  0  0  0  0
 11 12  1  1  0  0  0
 11 14  1  0  0  0  0
 12 13  1  0  0  0  0
 14 15  2  0  0  0  0
 14 16  1  0  0  0  0
 16 17  1  0  0  0  0
 18 17  1  1  0  0  0
M  END
>  <name>
OC[C@]1(C)[C@H](O)CC[C@@]2(C)[C@H](C[C;olefin])C(=C)CC[C@H]12

>  <apo>
1

>  <freq>
1

>  <freq0>
0

>  <freq1>
1

>  <freqA>
0.9949851

$$$$

  MOE2015           2D

 25 28  0  0  1  0  0  0  0  0999 V2000
    0.0000    0.0140    0.0000 O   0  0  0  0  0  0  0  0  0  0  0  0
    1.5000    0.0110    0.0000 C   0  0  2  0  0  0  0  0  0  0  0  0
    2.2520    1.3080    0.0000 C   0  0  0  0  0  0  0  0  0  0  0  0
    3.7520    1.3060    0.0000 C   0  0  0  0  0  0  0  0  0  0  0  0
    4.5000    0.0050    0.0000 C   0  0  1  0  0  0  0  0  0  0  0  0
    5.2920   -1.2680    0.0000 C   0  0  0  0  0  0  0  0  0  0  0  0
    6.0000    0.0030    0.0000 C   0  0  2  0  0  0  0  0  0  0  0  0
    6.7520    1.3000    0.0000 C   0  0  2  0  0  0  0  0  0  0  0  0
    8.2520    1.2970    0.0000 C   0  0  1  0  0  0  0  0  0  0  0  0
    9.0000   -0.0030    0.0000 C   0  0  1  0  0  0  0  0  0  0  0  0
    9.9000   -1.2030    0.0000 C   0  0  0  0  0  0  0  0  0  0  0  0
   10.4680    0.3060    0.0000 C   0  0  1  0  0  0  0  0  0  0  0  0
   11.5810   -0.7000    0.0000 C   0  0  1  0  0  0  0  0  0  0  0  0
   13.0080   -0.2390    0.0000 C   0  0  0  0  0  0  0  0  0  0  0  0
   14.1210   -1.2440    0.0000 C   0  0  0  0  0  0  0  0  0  0  0  0
   15.5480   -0.7830    0.0000 C   0  0  0  0  0  0  0  0  0  0  0  0
   11.2660   -2.1660    0.0000 C   0  0  0  0  0  0  0  0  0  0  0  0
   10.6270    1.7980    0.0000 C   0  0  0  0  0  0  0  0  0  0  0  0
    9.2580    2.4100    0.0000 C   0  0  0  0  0  0  0  0  0  0  0  0
    8.2470   -1.3010    0.0000 C   0  0  0  0  0  0  0  0  0  0  0  0
    6.7470   -1.2980    0.0000 C   0  0  0  0  0  0  0  0  0  0  0  0
    6.0050    2.6010    0.0000 C   0  0  0  0  0  0  0  0  0  0  0  0
    4.5050    2.6030    0.0000 C   0  0  0  0  0  0  0  0  0  0  0  0
    3.7470   -1.2920    0.0000 C   0  0  0  0  0  0  0  0  0  0  0  0
    2.2470   -1.2900    0.0000 C   0  0  0  0  0  0  0  0  0  0  0  0
  2  1  1  6  0  0  0
  2  3  1  0  0  0  0
  2 25  1  0  0  0  0
  3  4  1  0  0  0  0
  4  5  1  0  0  0  0
  4 23  2  0  0  0  0
  5  6  1  6  0  0  0
  5  7  1  0  0  0  0
  5 24  1  0  0  0  0
  7  8  1  0  0  0  0
  7 21  1  6  0  0  0
  8  9  1  0  0  0  0
  8 22  1  1  0  0  0
  9 10  1  0  0  0  0
  9 19  1  6  0  0  0
 10 11  1  6  0  0  0
 10 12  1  0  0  0  0
 10 20  1  0  0  0  0
 12 13  1  0  0  0  0
 12 18  1  6  0  0  0
 13 14  1  0  0  0  0
 13 17  1  1  0  0  0
 14 15  1  0  0  0  0
 15 16  1  0  0  0  0
 18 19  1  0  0  0  0
 20 21  1  0  0  0  0
 22 23  1  0  0  0  0
 24 25  1  0  0  0  0
M  END
>  <name>
O[C@@H]1CC=2[C@@](C)([C@@H]3[C@H]([C@H]4[C@@](C)([C@@H]([C@@H](CC[C;olefin])C)CC4)CC3)CC=2)CC1

>  <apo>
1

>  <freq>
1

>  <freq0>
0

>  <freq1>
1

>  <freqA>
0.9949851

$$$$

  MOE2015           2D

 29 32  0  0  1  0  0  0  0  0999 V2000
    0.0000    0.1370    0.0000 O   0  0  0  0  0  0  0  0  0  0  0  0
    1.5000    0.1320    0.0000 C   0  0  2  0  0  0  0  0  0  0  0  0
    2.2550    1.4280    0.0000 C   0  0  0  0  0  0  0  0  0  0  0  0
    3.7550    1.4230    0.0000 C   0  0  1  0  0  0  0  0  0  0  0  0
    2.9640    2.6980    0.0000 O   0  0  0  0  0  0  0  0  0  0  0  0
    4.5000    0.1210    0.0000 C   0  0  1  0  0  0  0  0  0  0  0  0
    5.2910   -1.1530    0.0000 C   0  0  0  0  0  0  0  0  0  0  0  0
    6.0000    0.1160    0.0000 C   0  0  2  0  0  0  0  0  0  0  0  0
    6.7550    1.4130    0.0000 C   0  0  2  0  0  0  0  0  0  0  0  0
    8.2550    1.4070    0.0000 C   0  0  1  0  0  0  0  0  0  0  0  0
    9.0000    0.1060    0.0000 C   0  0  1  0  0  0  0  0  0  0  0  0
    9.8990   -1.0950    0.0000 C   0  0  0  0  0  0  0  0  0  0  0  0
   10.4680    0.4130    0.0000 C   0  0  1  0  0  0  0  0  0  0  0  0
   11.5800   -0.5950    0.0000 C   0  0  1  0  0  0  0  0  0  0  0  0
   13.0080   -0.1360    0.0000 C   0  0  0  0  0  0  0  0  0  0  0  0
   14.1190   -1.1440    0.0000 C   0  0  0  0  0  0  0  0  0  0  0  0
   15.5470   -0.6850    0.0000 C   0  0  0  0  0  0  0  0  0  0  0  0
   16.6590   -1.6930    0.0000 C   0  0  0  0  0  0  0  0  0  0  0  0
   18.0870   -1.2340    0.0000 C   0  0  0  0  0  0  0  0  0  0  0  0
   16.3420   -3.1590    0.0000 C   0  0  0  0  0  0  0  0  0  0  0  0
   11.2630   -2.0610    0.0000 C   0  0  0  0  0  0  0  0  0  0  0  0
   10.6300    1.9040    0.0000 C   0  0  0  0  0  0  0  0  0  0  0  0
    9.2620    2.5190    0.0000 C   0  0  0  0  0  0  0  0  0  0  0  0
    8.2460   -1.1910    0.0000 C   0  0  0  0  0  0  0  0  0  0  0  0
    6.7460   -1.1850    0.0000 C   0  0  0  0  0  0  0  0  0  0  0  0
    6.0090    2.7140    0.0000 C   0  0  0  0  0  0  0  0  0  0  0  0
    4.5090    2.7200    0.0000 C   0  0  0  0  0  0  0  0  0  0  0  0
    3.7460   -1.1750    0.0000 C   0  0  0  0  0  0  0  0  0  0  0  0
    2.2460   -1.1700    0.0000 C   0  0  0  0  0  0  0  0  0  0  0  0
  2  1  1  6  0  0  0
  2  3  1  0  0  0  0
  2 29  1  0  0  0  0
  3  4  1  0  0  0  0
  4  5  1  1  0  0  0
  4  6  1  0  0  0  0
  4 27  1  0  0  0  0
  6  7  1  6  0  0  0
  6  8  1  0  0  0  0
  6 28  1  0  0  0  0
  8  9  1  0  0  0  0
  8 25  1  6  0  0  0
  9 10  1  0  0  0  0
  9 26  1  1  0  0  0
 10 11  1  0  0  0  0
 10 23  1  6  0  0  0
 11 12  1  6  0  0  0
 11 13  1  0  0  0  0
 11 24  1  0  0  0  0
 13 14  1  0  0  0  0
 13 22  1  6  0  0  0
 14 15  1  0  0  0  0
 14 21  1  1  0  0  0
 15 16  1  0  0  0  0
 16 17  1  0  0  0  0
 17 18  1  0  0  0  0
 18 19  1  0  0  0  0
 18 20  1  0  0  0  0
 22 23  1  0  0  0  0
 24 25  1  0  0  0  0
 26 27  1  0  0  0  0
 28 29  1  0  0  0  0
M  END
>  <name>
O[C@@H]1C[C@@]2([O;ester])[C@@](C)([C@@H]3[C@H]([C@H]4[C@@](C)([C@@H]([C@@H](CCCC(C)C)C)CC4)CC3)CC2)CC1

>  <apo>
1

>  <freq>
1

>  <freq0>
0

>  <freq1>
1

>  <freqA>
0.9949851

$$$$

  MOE2015           2D

 23 26  0  0  1  0  0  0  0  0999 V2000
   13.4710    0.0420    0.0000 O   0  0  0  0  0  0  0  0  0  0  0  0
   11.9710    0.0330    0.0000 C   0  0  2  0  0  0  0  0  0  0  0  0
   11.2130    1.3270    0.0000 C   0  0  0  0  0  0  0  0  0  0  0  0
    9.7130    1.3180    0.0000 C   0  0  1  0  0  0  0  0  0  0  0  0
    8.9710    0.0140    0.0000 C   0  0  1  0  0  0  0  0  0  0  0  0
    8.1840   -1.2630    0.0000 C   0  0  0  0  0  0  0  0  0  0  0  0
    7.4710    0.0050    0.0000 C   0  0  2  0  0  0  0  0  0  0  0  0
    6.7130    1.2990    0.0000 C   0  0  0  0  0  0  0  0  0  0  0  0
    5.2130    1.2900    0.0000 C   0  0  1  0  0  0  0  0  0  0  0  0
    4.4710   -0.0140    0.0000 C   0  0  1  0  0  0  0  0  0  0  0  0
    3.5760   -1.2180    0.0000 C   0  0  0  0  0  0  0  0  0  0  0  0
    3.0020    0.2890    0.0000 C   0  0  1  0  0  0  0  0  0  0  0  0
    1.8930   -0.7220    0.0000 C   0  0  0  0  0  0  0  0  0  0  0  0
    2.2140   -2.1870    0.0000 C   0  0  0  0  0  0  0  0  0  0  0  0
    0.4640   -0.2680    0.0000 C   0  0  0  0  0  0  0  0  0  0  0  0
    2.8360    1.7790    0.0000 C   0  0  0  0  0  0  0  0  0  0  0  0
    4.2020    2.3980    0.0000 C   0  0  0  0  0  0  0  0  0  0  0  0
    5.2290   -1.3080    0.0000 C   0  0  0  0  0  0  0  0  0  0  0  0
    6.7290   -1.2990    0.0000 C   0  0  0  0  0  0  0  0  0  0  0  0
    7.4550    2.6030    0.0000 C   0  0  0  0  0  0  0  0  0  0  0  0
    8.9550    2.6120    0.0000 C   0  0  0  0  0  0  0  0  0  0  0  0
    9.7290   -1.2800    0.0000 C   0  0  0  0  0  0  0  0  0  0  0  0
   11.2290   -1.2710    0.0000 C   0  0  0  0  0  0  0  0  0  0  0  0
  2  1  1  1  0  0  0
  2  3  1  0  0  0  0
  2 23  1  0  0  0  0
  3  4  1  0  0  0  0
  4  5  1  0  0  0  0
  4 21  1  1  0  0  0
  5  6  1  1  0  0  0
  5  7  1  0  0  0  0
  5 22  1  0  0  0  0
  7  8  1  0  0  0  0
  7 19  1  1  0  0  0
  8  9  1  0  0  0  0
  8 20  2  0  0  0  0
  9 10  1  0  0  0  0
  9 17  1  1  0  0  0
 10 11  1  1  0  0  0
 10 12  1  0  0  0  0
 10 18  1  0  0  0  0
 12 13  1  1  0  0  0
 12 16  1  0  0  0  0
 13 14  1  0  0  0  0
 13 15  1  0  0  0  0
 16 17  1  0  0  0  0
 18 19  1  0  0  0  0
 20 21  1  0  0  0  0
 22 23  1  0  0  0  0
M  END
>  <name>
O[C@@H]1C[C@H]2[C@@](C)([C@@H]3C([C@H]4[C@@](C)([C@@H](C(C)[C;olefin])CC4)CC3)=CC2)CC1

>  <apo>
1

>  <freq>
1

>  <freq0>
0

>  <freq1>
1

>  <freqA>
0.9949851

$$$$

  MOE2015           2D

  8  8  0  0  1  0  0  0  0  0999 V2000
    5.4110   -0.8000    0.0000 O   0  0  0  0  0  0  0  0  0  0  0  0
    4.1120   -0.0500    0.0000 C   0  0  2  0  0  0  0  0  0  0  0  0
    2.8120   -0.8000    0.0000 C   0  0  0  0  0  0  0  0  0  0  0  0
    1.5130   -0.0500    0.0000 C   0  0  1  0  0  0  0  0  0  0  0  0
    0.2140   -0.8000    0.0000 O   0  0  0  0  0  0  0  0  0  0  0  0
    1.5130    1.4500    0.0000 C   0  0  0  0  0  0  0  0  0  0  0  0
    2.8120    2.2000    0.0000 O   0  0  0  0  0  0  0  0  0  0  0  0
    4.1120    1.4500    0.0000 C   0  0  0  0  0  0  0  0  0  0  0  0
  2  1  1  6  0  0  0
  2  3  1  0  0  0  0
  2  8  1  0  0  0  0
  3  4  1  0  0  0  0
  4  5  1  1  0  0  0
  4  6  1  0  0  0  0
  6  7  1  0  0  0  0
  7  8  1  0  0  0  0
M  END
>  <name>
O[C@@H]1[C;ether][C@@H](O)CO[C;ether]1

>  <apo>
2

>  <freq>
1

>  <freq0>
0

>  <freq1>
1

>  <freqA>
0.9949851

$$$$

  MOE2015           2D

  8  8  0  0  1  0  0  0  0  0999 V2000
    5.4110   -0.8000    0.0000 O   0  0  0  0  0  0  0  0  0  0  0  0
    4.1120   -0.0500    0.0000 C   0  0  2  0  0  0  0  0  0  0  0  0
    2.8120   -0.8000    0.0000 C   0  0  0  0  0  0  0  0  0  0  0  0
    1.5130   -0.0500    0.0000 C   0  0  2  0  0  0  0  0  0  0  0  0
    0.2140   -0.8000    0.0000 C   0  0  0  0  0  0  0  0  0  0  0  0
    1.5130    1.4500    0.0000 O   0  0  0  0  0  0  0  0  0  0  0  0
    2.8120    2.2000    0.0000 C   0  0  0  0  0  0  0  0  0  0  0  0
    4.1120    1.4500    0.0000 C   0  0  0  0  0  0  0  0  0  0  0  0
  2  1  1  6  0  0  0
  2  3  1  0  0  0  0
  2  8  1  0  0  0  0
  3  4  1  0  0  0  0
  4  5  1  6  0  0  0
  4  6  1  0  0  0  0
  6  7  1  0  0  0  0
  7  8  1  0  0  0  0
M  END
>  <name>
O[C@@H]1[C;ether][C@H](C)O[C;ether]C1

>  <apo>
2

>  <freq>
1

>  <freq0>
0

>  <freq1>
1

>  <freqA>
0.9949851

$$$$

  MOE2015           2D

  9  9  0  0  1  0  0  0  0  0999 V2000
    2.3330   -2.3330    0.0000 O   0  0  0  0  0  0  0  0  0  0  0  0
    2.3330   -0.8330    0.0000 C   0  0  2  0  0  0  0  0  0  0  0  0
    3.6320   -0.0830    0.0000 C   0  0  1  0  0  0  0  0  0  0  0  0
    4.9310   -0.8330    0.0000 C   0  0  0  0  0  0  0  0  0  0  0  0
    3.6320    1.4170    0.0000 O   0  0  0  0  0  0  0  0  0  0  0  0
    2.3330    2.1670    0.0000 C   0  0  0  0  0  0  0  0  0  0  0  0
    1.0340    1.4170    0.0000 C   0  0  0  0  0  0  0  0  0  0  0  0
    1.0340   -0.0830    0.0000 C   0  0  2  0  0  0  0  0  0  0  0  0
   -0.2650   -0.8330    0.0000 O   0  0  0  0  0  0  0  0  0  0  0  0
  2  1  1  1  0  0  0
  2  3  1  0  0  0  0
  2  8  1  0  0  0  0
  3  4  1  6  0  0  0
  3  5  1  0  0  0  0
  5  6  1  0  0  0  0
  6  7  1  0  0  0  0
  7  8  1  0  0  0  0
  8  9  1  1  0  0  0
M  END
>  <name>
O[C@@H]1[C@@H](C)O[C;ether]C[C@@H]1O

>  <apo>
1

>  <freq>
1

>  <freq0>
0

>  <freq1>
1

>  <freqA>
0.9949851

$$$$

  MOE2015           2D

  9  9  0  0  1  0  0  0  0  0999 V2000
    1.3330    2.3090    0.0000 O   0  0  0  0  0  0  0  0  0  0  0  0
    2.0830    1.0100    0.0000 C   0  0  2  0  0  0  0  0  0  0  0  0
    1.3330   -0.2890    0.0000 C   0  0  1  0  0  0  0  0  0  0  0  0
   -0.1670   -0.2890    0.0000 O   0  0  0  0  0  0  0  0  0  0  0  0
    2.0830   -1.5880    0.0000 C   0  0  0  0  0  0  0  0  0  0  0  0
    3.5830   -1.5880    0.0000 O   0  0  0  0  0  0  0  0  0  0  0  0
    4.3330   -0.2890    0.0000 C   0  0  2  0  0  0  0  0  0  0  0  0
    5.8330   -0.2890    0.0000 O   0  0  0  0  0  0  0  0  0  0  0  0
    3.5830    1.0100    0.0000 C   0  0  0  0  0  0  0  0  0  0  0  0
  2  1  1  1  0  0  0
  2  3  1  0  0  0  0
  2  9  1  0  0  0  0
  3  4  1  6  0  0  0
  3  5  1  0  0  0  0
  5  6  1  0  0  0  0
  6  7  1  0  0  0  0
  7  8  1  1  0  0  0
  7  9  1  0  0  0  0
M  END
>  <name>
O[C@@H]1[C@@H](O)CO[C@H]([O;ester])[C;ether]1

>  <apo>
2

>  <freq>
1

>  <freq0>
0

>  <freq1>
1

>  <freqA>
0.9949851

$$$$

  MOE2015           2D

 32 37  0  0  1  0  0  0  0  0999 V2000
    0.8840   -4.6570    0.0000 O   0  0  0  0  0  0  0  0  0  0  0  0
    1.6680   -3.3790    0.0000 C   0  0  2  0  0  0  0  0  0  0  0  0
    0.9700   -2.0590    0.0000 C   0  0  1  0  0  0  0  0  0  0  0  0
    1.7070   -0.7570    0.0000 C   0  0  2  0  0  0  0  0  0  0  0  0
    3.2000   -0.8240    0.0000 C   0  0  2  0  0  0  0  0  0  0  0  0
    3.9490   -2.1190    0.0000 C   0  0  2  0  0  0  0  0  0  0  0  0
    4.2370   -3.5910    0.0000 C   0  0  0  0  0  0  0  0  0  0  0  0
    5.4510   -2.1190    0.0000 C   0  0  1  0  0  0  0  0  0  0  0  0
    5.2180   -3.6010    0.0000 C   0  0  0  0  0  0  0  0  0  0  0  0
    6.1990   -0.8190    0.0000 C   0  0  1  0  0  0  0  0  0  0  0  0
    7.6990   -0.8180    0.0000 C   0  0  2  0  0  0  0  0  0  0  0  0
    9.1990   -0.7900    0.0000 C   0  0  0  0  0  0  0  0  0  0  0  0
    8.4510   -2.1160    0.0000 C   0  0  1  0  0  0  0  0  0  0  0  0
    9.9510   -2.1140    0.0000 C   0  0  0  0  0  0  0  0  0  0  0  0
    9.9850   -3.6140    0.0000 C   0  0  0  0  0  0  0  0  0  0  0  0
   11.2600   -2.8450    0.0000 C   0  0  0  0  0  0  0  0  0  0  0  0
   10.6990   -0.8140    0.0000 C   0  0  0  0  0  0  0  0  0  0  0  0
    9.9480    0.4840    0.0000 C   0  0  0  0  0  0  0  0  0  0  0  0
    8.4480    0.4820    0.0000 C   0  0  0  0  0  0  0  0  0  0  0  0
    7.7020   -3.4160    0.0000 C   0  0  0  0  0  0  0  0  0  0  0  0
    6.2020   -3.4170    0.0000 C   0  0  0  0  0  0  0  0  0  0  0  0
    5.4480    0.4790    0.0000 C   0  0  0  0  0  0  0  0  0  0  0  0
    3.9470    0.4780    0.0000 C   0  0  0  0  0  0  0  0  0  0  0  0
    3.1710   -3.4030    0.0000 C   0  0  0  0  0  0  0  0  0  0  0  0
    3.4360   -2.3360    0.0000 O   0  0  0  0  0  0  0  0  0  0  0  0
    2.1260   -3.0610    0.0000 C   0  0  0  0  0  0  0  0  0  0  0  0
    0.9480    0.5380    0.0000 C   0  0  0  0  0  0  0  0  0  0  0  0
   -0.5520    0.5250    0.0000 C   0  0  0  0  0  0  0  0  0  0  0  0
   -1.8630    1.2540    0.0000 C   0  0  0  0  0  0  0  0  0  0  0  0
   -0.5840    2.0240    0.0000 C   0  0  0  0  0  0  0  0  0  0  0  0
   -1.2920   -0.7800    0.0000 C   0  0  0  0  0  0  0  0  0  0  0  0
   -0.5310   -2.0730    0.0000 C   0  0  0  0  0  0  0  0  0  0  0  0
  2  1  1  6  0  0  0
  2  3  1  0  0  0  0
  2 24  1  0  0  0  0
  3  4  1  0  0  0  0
  3 26  1  6  0  0  0
  3 32  1  0  0  0  0
  5  4  1  1  0  0  0
  4 27  1  1  0  0  0
  5  6  1  0  0  0  0
  5 23  1  0  0  0  0
  5 25  1  6  0  0  0
  6  7  1  1  0  0  0
  6  8  1  0  0  0  0
  6 24  1  0  0  0  0
  8  9  1  6  0  0  0
  8 10  1  0  0  0  0
  8 21  1  0  0  0  0
 10 11  1  0  0  0  0
 10 22  1  6  0  0  0
 11 12  1  6  0  0  0
 11 13  1  0  0  0  0
 11 19  1  0  0  0  0
 13 14  1  0  0  0  0
 13 20  1  1  0  0  0
 14 15  1  0  0  0  0
 14 16  1  0  0  0  0
 14 17  1  0  0  0  0
 17 18  1  0  0  0  0
 18 19  1  0  0  0  0
 20 21  1  0  0  0  0
 22 23  2  0  0  0  0
 25 26  1  0  0  0  0
 27 28  1  0  0  0  0
 28 29  1  0  0  0  0
 28 30  1  0  0  0  0
 28 31  1  0  0  0  0
 31 32  1  0  0  0  0
M  END
>  <name>
O[C@@H]1[C@@]23[C@H]([C@@]4([C@](C)([C@@]5(C)[C@@H]([C@]6(C)[C@@H](C(C)(C)[C;ether]CC6)CC5)C=C4)C1)OC2)CC(C)(C)CC3

>  <apo>
1

>  <freq>
1

>  <freq0>
0

>  <freq1>
1

>  <freqA>
0.9949851

$$$$

  MOE2015           2D

  9  9  0  0  1  0  0  0  0  0999 V2000
    1.3330    2.3090    0.0000 O   0  0  0  0  0  0  0  0  0  0  0  0
    2.0830    1.0100    0.0000 C   0  0  2  0  0  0  0  0  0  0  0  0
    1.3330   -0.2890    0.0000 C   0  0  2  0  0  0  0  0  0  0  0  0
   -0.1670   -0.2890    0.0000 O   0  0  0  0  0  0  0  0  0  0  0  0
    2.0830   -1.5880    0.0000 C   0  0  0  0  0  0  0  0  0  0  0  0
    3.5830   -1.5880    0.0000 O   0  0  0  0  0  0  0  0  0  0  0  0
    4.3330   -0.2890    0.0000 C   0  0  1  0  0  0  0  0  0  0  0  0
    5.8330   -0.2890    0.0000 C   0  0  0  0  0  0  0  0  0  0  0  0
    3.5830    1.0100    0.0000 C   0  0  0  0  0  0  0  0  0  0  0  0
  2  1  1  1  0  0  0
  2  3  1  0  0  0  0
  2  9  1  0  0  0  0
  3  4  1  1  0  0  0
  3  5  1  0  0  0  0
  5  6  1  0  0  0  0
  6  7  1  0  0  0  0
  7  8  1  6  0  0  0
  7  9  1  0  0  0  0
M  END
>  <name>
O[C@@H]1[C@H](O)[C;ether]O[C@@H](C)[C;ether]1

>  <apo>
2

>  <freq>
1

>  <freq0>
0

>  <freq1>
1

>  <freqA>
0.9949851

$$$$

  MOE2015           2D

 16 18  0  0  1  0  0  0  0  0999 V2000
    1.3020    2.8410    0.0000 O   0  0  0  0  0  0  0  0  0  0  0  0
    2.2810    1.7050    0.0000 C   0  0  2  0  0  0  0  0  0  0  0  0
    1.6820    0.3290    0.0000 C   0  0  0  0  0  0  0  0  0  0  0  0
    2.3830   -0.9970    0.0000 C   0  0  0  0  0  0  0  0  0  0  0  0
    3.8560   -1.2770    0.0000 N   0  0  0  0  0  0  0  0  0  0  0  0
    4.9930   -0.2970    0.0000 C   0  0  0  0  0  0  0  0  0  0  0  0
    4.9360    1.2030    0.0000 C   0  0  0  0  0  0  0  0  0  0  0  0
    6.2060    2.0010    0.0000 C   0  0  0  0  0  0  0  0  0  0  0  0
    7.5330    1.3000    0.0000 C   0  0  0  0  0  0  0  0  0  0  0  0
    7.5890   -0.2000    0.0000 C   0  0  0  0  0  0  0  0  0  0  0  0
    6.3190   -0.9980    0.0000 C   0  0  0  0  0  0  0  0  0  0  0  0
    3.7300    2.0940    0.0000 C   0  0  0  0  0  0  0  0  0  0  0  0
    1.5840   -2.2670    0.0000 C   0  0  0  0  0  0  0  0  0  0  0  0
    0.0860   -2.2110    0.0000 C   0  0  0  0  0  0  0  0  0  0  0  0
   -0.6150   -0.8840    0.0000 C   0  0  0  0  0  0  0  0  0  0  0  0
    0.1830    0.3860    0.0000 C   0  0  0  0  0  0  0  0  0  0  0  0
  2  1  1  1  0  0  0
  2  3  1  0  0  0  0
  2 12  1  0  0  0  0
  3  4  2  0  0  0  0
  3 16  1  0  0  0  0
  4  5  1  0  0  0  0
  4 13  1  0  0  0  0
  5  6  1  0  0  0  0
  6  7  2  0  0  0  0
  6 11  1  0  0  0  0
  7  8  1  0  0  0  0
  7 12  1  0  0  0  0
  8  9  2  0  0  0  0
  9 10  1  0  0  0  0
 10 11  2  0  0  0  0
 13 14  2  0  0  0  0
 14 15  1  0  0  0  0
 15 16  2  0  0  0  0
M  END
>  <name>
O[C@@H]1c2c([N;urea]c3c(cccc3)C1)cccc2

>  <apo>
1

>  <freq>
1

>  <freq0>
0

>  <freq1>
1

>  <freqA>
0.9949851

$$$$

  MOE2015           2D

 10  9  0  0  1  0  0  0  0  0999 V2000
   -0.2070   -1.8240    0.0000 O   0  0  0  0  0  0  0  0  0  0  0  0
    1.0920   -1.0740    0.0000 C   0  0  2  0  0  0  0  0  0  0  0  0
    2.3910   -1.8240    0.0000 C   0  0  3  0  0  0  0  0  0  0  0  0
    2.3910   -3.3240    0.0000 O   0  0  0  0  0  0  0  0  0  0  0  0
    3.6900   -1.0740    0.0000 C   0  0  2  0  0  0  0  0  0  0  0  0
    4.9890   -1.8240    0.0000 C   0  0  0  0  0  0  0  0  0  0  0  0
    6.2880   -1.0740    0.0000 C   0  0  0  0  0  0  0  0  0  0  0  0
    7.5870   -1.8240    0.0000 C   0  0  0  0  0  0  0  0  0  0  0  0
    3.6900    0.4260    0.0000 C   0  0  0  0  0  0  0  0  0  0  0  0
    1.0920    0.4260    0.0000 C   0  0  0  0  0  0  0  0  0  0  0  0
  2  1  1  1  0  0  0
  2  3  1  0  0  0  0
  2 10  1  0  0  0  0
  3  4  1  0  0  0  0
  3  5  1  0  0  0  0
  5  6  1  0  0  0  0
  5  9  1  1  0  0  0
  6  7  1  0  0  0  0
  7  8  1  0  0  0  0
M  END
>  <name>
O[C@H](C(O)[C@H]([C;ether][C;olefin]C)C)[C;olefin]

>  <apo>
3

>  <freq>
1

>  <freq0>
0

>  <freq1>
1

>  <freqA>
0.9949851

$$$$

  MOE2015           2D

 21 22  0  0  1  0  0  0  0  0999 V2000
    1.1670    2.4040    0.0000 O   0  0  0  0  0  0  0  0  0  0  0  0
    1.1670    0.9040    0.0000 C   0  0  2  0  0  0  0  0  0  0  0  0
   -0.1320    0.1540    0.0000 C   0  0  1  0  0  0  0  0  0  0  0  0
   -0.1320   -1.3460    0.0000 N   0  0  0  0  0  0  0  0  0  0  0  0
   -1.4310    0.9040    0.0000 C   0  0  0  0  0  0  0  0  0  0  0  0
   -2.7300    0.1540    0.0000 C   0  0  0  0  0  0  0  0  0  0  0  0
   -4.0290    0.9040    0.0000 C   0  0  0  0  0  0  0  0  0  0  0  0
   -5.3280    0.1540    0.0000 C   0  0  0  0  0  0  0  0  0  0  0  0
   -5.3280   -1.3460    0.0000 C   0  0  0  0  0  0  0  0  0  0  0  0
   -4.0290   -2.0960    0.0000 C   0  0  0  0  0  0  0  0  0  0  0  0
   -2.7300   -1.3460    0.0000 C   0  0  0  0  0  0  0  0  0  0  0  0
    2.4660    0.1540    0.0000 C   0  0  0  0  0  0  0  0  0  0  0  0
    3.7650    0.9040    0.0000 C   0  0  1  0  0  0  0  0  0  0  0  0
    3.7650    2.4040    0.0000 N   0  0  0  0  0  0  0  0  0  0  0  0
    5.0640    0.1540    0.0000 C   0  0  0  0  0  0  0  0  0  0  0  0
    6.3630    0.9040    0.0000 C   0  0  0  0  0  0  0  0  0  0  0  0
    6.3630    2.4040    0.0000 C   0  0  0  0  0  0  0  0  0  0  0  0
    7.6620    3.1540    0.0000 C   0  0  0  0  0  0  0  0  0  0  0  0
    8.9610    2.4040    0.0000 C   0  0  0  0  0  0  0  0  0  0  0  0
    8.9610    0.9040    0.0000 C   0  0  0  0  0  0  0  0  0  0  0  0
    7.6620    0.1540    0.0000 C   0  0  0  0  0  0  0  0  0  0  0  0
  2  1  1  1  0  0  0
  2  3  1  0  0  0  0
  2 12  1  0  0  0  0
  3  4  1  1  0  0  0
  3  5  1  0  0  0  0
  5  6  1  0  0  0  0
  6  7  1  0  0  0  0
  6 11  2  0  0  0  0
  7  8  2  0  0  0  0
  8  9  1  0  0  0  0
  9 10  2  0  0  0  0
 10 11  1  0  0  0  0
 12 13  1  0  0  0  0
 13 14  1  1  0  0  0
 13 15  1  0  0  0  0
 15 16  1  0  0  0  0
 16 17  1  0  0  0  0
 16 21  2  0  0  0  0
 17 18  2  0  0  0  0
 18 19  1  0  0  0  0
 19 20  2  0  0  0  0
 20 21  1  0  0  0  0
M  END
>  <name>
O[C@H]([C@@H]([N;amide])Cc1ccccc1)C[C@@H]([N;amide])Cc1ccccc1

>  <apo>
2

>  <freq>
1

>  <freq0>
0

>  <freq1>
1

>  <freqA>
0.9949851

$$$$

  MOE2015           2D

  9  9  0  0  1  0  0  0  0  0999 V2000
    0.0690   -0.2560    0.0000 O   0  0  0  0  0  0  0  0  0  0  0  0
    1.3680    0.4940    0.0000 C   0  0  1  0  0  0  0  0  0  0  0  0
    2.6670   -0.2560    0.0000 C   0  0  0  0  0  0  0  0  0  0  0  0
    2.6670   -1.7560    0.0000 O   0  0  0  0  0  0  0  0  0  0  0  0
    3.9660    0.4940    0.0000 C   0  0  1  0  0  0  0  0  0  0  0  0
    5.2650   -0.2560    0.0000 O   0  0  0  0  0  0  0  0  0  0  0  0
    3.9660    1.9940    0.0000 C   0  0  0  0  0  0  0  0  0  0  0  0
    2.6670    2.7440    0.0000 O   0  0  0  0  0  0  0  0  0  0  0  0
    1.3680    1.9940    0.0000 C   0  0  0  0  0  0  0  0  0  0  0  0
  2  1  1  6  0  0  0
  2  3  1  0  0  0  0
  2  9  1  0  0  0  0
  3  4  1  0  0  0  0
  3  5  1  0  0  0  0
  5  6  1  6  0  0  0
  5  7  1  0  0  0  0
  7  8  1  0  0  0  0
  8  9  1  0  0  0  0
M  END
>  <name>
O[C@H]1C(O)[C@@H](O)[C;ether]OC1

>  <apo>
1

>  <freq>
1

>  <freq0>
0

>  <freq1>
1

>  <freqA>
0.9949851

$$$$

  MOE2015           2D

  9  9  0  0  1  0  0  0  0  0999 V2000
    0.0690   -0.2560    0.0000 O   0  0  0  0  0  0  0  0  0  0  0  0
    1.3680    0.4940    0.0000 C   0  0  1  0  0  0  0  0  0  0  0  0
    2.6670   -0.2560    0.0000 C   0  0  0  0  0  0  0  0  0  0  0  0
    2.6670   -1.7560    0.0000 O   0  0  0  0  0  0  0  0  0  0  0  0
    3.9660    0.4940    0.0000 C   0  0  1  0  0  0  0  0  0  0  0  0
    5.2650   -0.2560    0.0000 O   0  0  0  0  0  0  0  0  0  0  0  0
    3.9660    1.9940    0.0000 C   0  0  0  0  0  0  0  0  0  0  0  0
    2.6670    2.7440    0.0000 O   0  0  0  0  0  0  0  0  0  0  0  0
    1.3680    1.9940    0.0000 C   0  0  0  0  0  0  0  0  0  0  0  0
  2  1  1  6  0  0  0
  2  3  1  0  0  0  0
  2  9  1  0  0  0  0
  3  4  1  0  0  0  0
  3  5  1  0  0  0  0
  5  6  1  6  0  0  0
  5  7  1  0  0  0  0
  7  8  1  0  0  0  0
  8  9  1  0  0  0  0
M  END
>  <name>
O[C@H]1C(O)[C@@H]([O;ester])[C;ether]O[C;ether]1

>  <apo>
3

>  <freq>
1

>  <freq0>
0

>  <freq1>
1

>  <freqA>
0.9949851

$$$$

  MOE2015           2D

  9  9  0  0  1  0  0  0  0  0999 V2000
    0.0690   -0.2560    0.0000 O   0  0  0  0  0  0  0  0  0  0  0  0
    1.3680    0.4940    0.0000 C   0  0  1  0  0  0  0  0  0  0  0  0
    2.6670   -0.2560    0.0000 C   0  0  0  0  0  0  0  0  0  0  0  0
    2.6670   -1.7560    0.0000 O   0  0  0  0  0  0  0  0  0  0  0  0
    3.9660    0.4940    0.0000 C   0  0  2  0  0  0  0  0  0  0  0  0
    5.2650   -0.2560    0.0000 O   0  0  0  0  0  0  0  0  0  0  0  0
    3.9660    1.9940    0.0000 C   0  0  0  0  0  0  0  0  0  0  0  0
    2.6670    2.7440    0.0000 O   0  0  0  0  0  0  0  0  0  0  0  0
    1.3680    1.9940    0.0000 C   0  0  0  0  0  0  0  0  0  0  0  0
  2  1  1  6  0  0  0
  2  3  1  0  0  0  0
  2  9  1  0  0  0  0
  3  4  1  0  0  0  0
  3  5  1  0  0  0  0
  5  6  1  1  0  0  0
  5  7  1  0  0  0  0
  7  8  1  0  0  0  0
  8  9  1  0  0  0  0
M  END
>  <name>
O[C@H]1C([O;ester])[C@H](O)[C;ether]O[C;ether]1

>  <apo>
3

>  <freq>
1

>  <freq0>
0

>  <freq1>
1

>  <freqA>
0.9949851

$$$$

  MOE2015           2D

  8  8  0  0  1  0  0  0  0  0999 V2000
    0.4890   -1.1750    0.0000 O   0  0  0  0  0  0  0  0  0  0  0  0
    1.7880   -0.4250    0.0000 C   0  0  1  0  0  0  0  0  0  0  0  0
    1.7880    1.0750    0.0000 C   0  0  2  0  0  0  0  0  0  0  0  0
    0.4890    1.8250    0.0000 O   0  0  0  0  0  0  0  0  0  0  0  0
    3.0870    1.8250    0.0000 C   0  0  0  0  0  0  0  0  0  0  0  0
    4.3860    1.0750    0.0000 C   0  0  0  0  0  0  0  0  0  0  0  0
    4.3860   -0.4250    0.0000 O   0  0  0  0  0  0  0  0  0  0  0  0
    3.0870   -1.1750    0.0000 C   0  0  0  0  0  0  0  0  0  0  0  0
  2  1  1  1  0  0  0
  2  3  1  0  0  0  0
  2  8  1  0  0  0  0
  3  4  1  6  0  0  0
  3  5  1  0  0  0  0
  5  6  1  0  0  0  0
  6  7  1  0  0  0  0
  7  8  1  0  0  0  0
M  END
>  <name>
O[C@H]1[C@H](O)[C;ether][C;ether]O[C;ether]1

>  <apo>
3

>  <freq>
1

>  <freq0>
0

>  <freq1>
1

>  <freqA>
0.9949851

$$$$

  MOE2015           2D

 32 37  0  0  1  0  0  0  0  0999 V2000
   -0.0070   -0.0030    0.0000 O   0  0  0  0  0  0  0  0  0  0  0  0
    1.4930    0.0000    0.0000 C   0  0  0  0  0  0  0  0  0  0  0  0
    2.2460   -1.2970    0.0000 C   0  0  0  0  0  0  0  0  0  0  0  0
    1.4990   -2.5980    0.0000 C   0  0  3  0  0  0  0  0  0  0  0  0
    3.0000   -2.6020    0.0000 O   0  0  0  0  0  0  0  0  0  0  0  0
    3.7510   -3.9040    0.0000 C   0  0  0  0  0  0  0  0  0  0  0  0
    2.9990   -5.2030    0.0000 C   0  0  0  0  0  0  0  0  0  0  0  0
    3.7510   -6.5020    0.0000 C   0  0  0  0  0  0  0  0  0  0  0  0
    5.2470   -6.5030    0.0000 C   0  0  0  0  0  0  0  0  0  0  0  0
    5.9980   -5.2050    0.0000 C   0  0  0  0  0  0  0  0  0  0  0  0
    7.4980   -5.2060    0.0000 O   0  0  0  0  0  0  0  0  0  0  0  0
    5.2490   -3.9050    0.0000 C   0  0  0  0  0  0  0  0  0  0  0  0
    1.5000   -5.2020    0.0000 C   0  0  3  0  0  0  0  0  0  0  0  0
    0.7490   -3.9000    0.0000 C   0  0  3  0  0  0  0  0  0  0  0  0
   -0.7490   -3.8980    0.0000 C   0  0  3  0  0  0  0  0  0  0  0  0
   -1.5010   -2.5960    0.0000 C   0  0  0  0  0  0  0  0  0  0  0  0
   -3.0000   -2.5950    0.0000 C   0  0  0  0  0  0  0  0  0  0  0  0
   -3.7520   -3.8930    0.0000 O   0  0  0  0  0  0  0  0  0  0  0  0
   -3.7480   -1.2960    0.0000 C   0  0  0  0  0  0  0  0  0  0  0  0
   -2.9970    0.0020    0.0000 C   0  0  0  0  0  0  0  0  0  0  0  0
   -1.4970    0.0010    0.0000 C   0  0  0  0  0  0  0  0  0  0  0  0
   -0.7490   -1.3020    0.0000 C   0  0  0  0  0  0  0  0  0  0  0  0
    0.7510   -1.3040    0.0000 O   0  0  0  0  0  0  0  0  0  0  0  0
   -1.5020   -5.1990    0.0000 C   0  0  0  0  0  0  0  0  0  0  0  0
   -0.7520   -6.4940    0.0000 C   0  0  0  0  0  0  0  0  0  0  0  0
   -1.5020   -7.7930    0.0000 C   0  0  0  0  0  0  0  0  0  0  0  0
    0.7480   -6.4950    0.0000 C   0  0  0  0  0  0  0  0  0  0  0  0
    3.7460   -1.2930    0.0000 C   0  0  0  0  0  0  0  0  0  0  0  0
    4.4930    0.0080    0.0000 C   0  0  0  0  0  0  0  0  0  0  0  0
    3.7390    1.3050    0.0000 C   0  0  0  0  0  0  0  0  0  0  0  0
    4.4860    2.6060    0.0000 O   0  0  0  0  0  0  0  0  0  0  0  0
    2.2390    1.3010    0.0000 C   0  0  0  0  0  0  0  0  0  0  0  0
  1  2  1  0  0  0  0
  2  3  1  0  0  0  0
  2 32  2  0  0  0  0
  3  4  1  0  0  0  0
  3 28  2  0  0  0  0
  4  5  1  0  0  0  0
  4 14  1  0  0  0  0
  4 23  1  0  0  0  0
  5  6  1  0  0  0  0
  6  7  1  0  0  0  0
  6 12  2  0  0  0  0
  7  8  2  0  0  0  0
  7 13  1  0  0  0  0
  8  9  1  0  0  0  0
  9 10  2  0  0  0  0
 10 11  1  0  0  0  0
 10 12  1  0  0  0  0
 13 14  1  0  0  0  0
 13 27  1  0  0  0  0
 14 15  1  0  0  0  0
 15 16  1  0  0  0  0
 15 24  1  0  0  0  0
 16 17  1  0  0  0  0
 16 22  2  0  0  0  0
 17 18  1  0  0  0  0
 17 19  2  0  0  0  0
 19 20  1  0  0  0  0
 20 21  2  0  0  0  0
 21 22  1  0  0  0  0
 22 23  1  0  0  0  0
 24 25  2  0  0  0  0
 25 26  1  0  0  0  0
 25 27  1  0  0  0  0
 28 29  1  0  0  0  0
 29 30  2  0  0  0  0
 30 31  1  0  0  0  0
 30 32  1  0  0  0  0
M  END
>  <name>
Oc1c(C23Oc4c(ccc(O)c4)C4C2C(c2c(O)c[c;biphenyl]cc2O3)C=C(C)C4)ccc(O)c1

>  <apo>
1

>  <freq>
1

>  <freq0>
0

>  <freq1>
1

>  <freqA>
0.9949851

$$$$

  MOE2015           2D

 10 10  0  0  0  0  0  0  0  0999 V2000
    1.1560    3.4940    0.0000 O   0  0  0  0  0  0  0  0  0  0  0  0
    1.1560    1.9940    0.0000 C   0  0  0  0  0  0  0  0  0  0  0  0
    2.4550    1.2440    0.0000 C   0  0  0  0  0  0  0  0  0  0  0  0
    3.7540    1.9940    0.0000 C   0  0  0  0  0  0  0  0  0  0  0  0
    5.0530    1.2440    0.0000 C   0  0  0  0  0  0  0  0  0  0  0  0
    6.3520    1.9940    0.0000 C   0  0  0  0  0  0  0  0  0  0  0  0
    2.4550   -0.2560    0.0000 C   0  0  0  0  0  0  0  0  0  0  0  0
    1.1560   -1.0060    0.0000 C   0  0  0  0  0  0  0  0  0  0  0  0
   -0.1430   -0.2560    0.0000 C   0  0  0  0  0  0  0  0  0  0  0  0
   -0.1430    1.2440    0.0000 C   0  0  0  0  0  0  0  0  0  0  0  0
  1  2  1  0  0  0  0
  2  3  1  0  0  0  0
  2 10  2  0  0  0  0
  3  4  1  0  0  0  0
  3  7  2  0  0  0  0
  4  5  1  0  0  0  0
  5  6  2  0  0  0  0
  7  8  1  0  0  0  0
  8  9  2  0  0  0  0
  9 10  1  0  0  0  0
M  END
>  <name>
Oc1c(CC=C)c[c;biphenyl]cc1

>  <apo>
1

>  <freq>
1

>  <freq0>
0

>  <freq1>
1

>  <freqA>
0.9949851

$$$$

  MOE2015           2D

 15 15  0  0  0  0  0  0  0  0999 V2000
    0.1760   -2.0430    0.0000 O   0  0  0  0  0  0  0  0  0  0  0  0
    1.4750   -1.2930    0.0000 C   0  0  0  0  0  0  0  0  0  0  0  0
    1.4750    0.2070    0.0000 C   0  0  0  0  0  0  0  0  0  0  0  0
    0.1760    0.9570    0.0000 C   0  0  0  0  0  0  0  0  0  0  0  0
   -1.1230    0.2070    0.0000 C   0  0  0  0  0  0  0  0  0  0  0  0
    2.7740    0.9570    0.0000 C   0  0  0  0  0  0  0  0  0  0  0  0
    2.7740    2.4570    0.0000 O   0  0  0  0  0  0  0  0  0  0  0  0
    4.0730    0.2070    0.0000 C   0  0  0  0  0  0  0  0  0  0  0  0
    4.0730   -1.2930    0.0000 C   0  0  0  0  0  0  0  0  0  0  0  0
    5.3720   -2.0430    0.0000 C   0  0  0  0  0  0  0  0  0  0  0  0
    6.6710   -1.2930    0.0000 C   0  0  0  0  0  0  0  0  0  0  0  0
    7.9700   -2.0430    0.0000 C   0  0  0  0  0  0  0  0  0  0  0  0
    9.2690   -1.2930    0.0000 C   0  0  0  0  0  0  0  0  0  0  0  0
   10.5680   -2.0430    0.0000 C   0  0  0  0  0  0  0  0  0  0  0  0
    2.7740   -2.0430    0.0000 C   0  0  0  0  0  0  0  0  0  0  0  0
  1  2  1  0  0  0  0
  2  3  1  0  0  0  0
  2 15  2  0  0  0  0
  3  4  1  0  0  0  0
  3  6  2  0  0  0  0
  4  5  1  0  0  0  0
  6  7  1  0  0  0  0
  6  8  1  0  0  0  0
  8  9  2  0  0  0  0
  9 10  1  0  0  0  0
  9 15  1  0  0  0  0
 10 11  1  0  0  0  0
 11 12  1  0  0  0  0
 12 13  1  0  0  0  0
 13 14  1  0  0  0  0
M  END
>  <name>
Oc1c(C[C;olefin])c(O)cc(CCCCC)c1

>  <apo>
1

>  <freq>
1

>  <freq0>
0

>  <freq1>
1

>  <freqA>
0.9949851

$$$$

  MOE2015           2D

 26 29  0  0  1  0  0  0  0  0999 V2000
    1.0020    1.7350    0.0000 O   0  0  0  0  0  0  0  0  0  0  0  0
    1.7520    0.4360    0.0000 C   0  0  0  0  0  0  0  0  0  0  0  0
    3.2520    0.4360    0.0000 C   0  0  0  0  0  0  0  0  0  0  0  0
    4.0020    1.7350    0.0000 C   0  0  0  0  0  0  0  0  0  0  0  0
    3.2520    3.0340    0.0000 C   0  0  0  0  0  0  0  0  0  0  0  0
    4.0020   -0.8630    0.0000 C   0  0  0  0  0  0  0  0  0  0  0  0
    5.5020   -0.8630    0.0000 C   0  0  1  0  0  0  0  0  0  0  0  0
    6.2520   -2.1620    0.0000 O   0  0  0  0  0  0  0  0  0  0  0  0
    7.7520   -2.1620    0.0000 C   0  0  0  0  0  0  0  0  0  0  0  0
    8.5020   -0.8630    0.0000 C   0  0  0  0  0  0  0  0  0  0  0  0
   10.0020   -0.8630    0.0000 C   0  0  0  0  0  0  0  0  0  0  0  0
   10.7520   -2.1620    0.0000 C   0  0  0  0  0  0  0  0  0  0  0  0
   10.0020   -3.4610    0.0000 C   0  0  0  0  0  0  0  0  0  0  0  0
   10.7520   -4.7600    0.0000 O   0  0  0  0  0  0  0  0  0  0  0  0
    8.5020   -3.4610    0.0000 C   0  0  0  0  0  0  0  0  0  0  0  0
    7.7520    0.4360    0.0000 C   0  0  0  0  0  0  0  0  0  0  0  0
    6.2520    0.4360    0.0000 C   0  0  0  0  0  0  0  0  0  0  0  0
    3.2520   -2.1620    0.0000 C   0  0  0  0  0  0  0  0  0  0  0  0
    1.7520   -2.1620    0.0000 C   0  0  0  0  0  0  0  0  0  0  0  0
    1.0020   -0.8630    0.0000 C   0  0  0  0  0  0  0  0  0  0  0  0
   -0.4980   -0.8630    0.0000 O   0  0  0  0  0  0  0  0  0  0  0  0
   -1.2480   -2.1620    0.0000 C   0  0  0  0  0  0  0  0  0  0  0  0
   -2.5470   -2.9120    0.0000 C   0  0  0  0  0  0  0  0  0  0  0  0
   -2.5470   -1.4120    0.0000 C   0  0  0  0  0  0  0  0  0  0  0  0
   -0.4980   -3.4610    0.0000 C   0  0  0  0  0  0  0  0  0  0  0  0
    1.0020   -3.4610    0.0000 C   0  0  0  0  0  0  0  0  0  0  0  0
  1  2  1  0  0  0  0
  2  3  1  0  0  0  0
  2 20  2  0  0  0  0
  3  4  1  0  0  0  0
  3  6  2  0  0  0  0
  4  5  1  0  0  0  0
  7  6  1  6  0  0  0
  6 18  1  0  0  0  0
  7  8  1  0  0  0  0
  7 17  1  0  0  0  0
  8  9  1  0  0  0  0
  9 10  1  0  0  0  0
  9 15  2  0  0  0  0
 10 11  2  0  0  0  0
 10 16  1  0  0  0  0
 11 12  1  0  0  0  0
 12 13  2  0  0  0  0
 13 14  1  0  0  0  0
 13 15  1  0  0  0  0
 16 17  1  0  0  0  0
 18 19  2  0  0  0  0
 19 20  1  0  0  0  0
 19 26  1  0  0  0  0
 20 21  1  0  0  0  0
 21 22  1  0  0  0  0
 22 23  1  0  0  0  0
 22 24  1  0  0  0  0
 22 25  1  0  0  0  0
 25 26  2  0  0  0  0
M  END
>  <name>
Oc1c(C[C;olefin])c([C@H]2Oc3c(ccc(O)c3)CC2)cc2c1OC(C)(C)C=C2

>  <apo>
1

>  <freq>
1

>  <freq0>
0

>  <freq1>
1

>  <freqA>
0.9949851

$$$$

  MOE2015           2D

  8  8  0  0  0  0  0  0  0  0999 V2000
    0.4890   -1.1750    0.0000 O   0  0  0  0  0  0  0  0  0  0  0  0
    1.7880   -0.4250    0.0000 C   0  0  0  0  0  0  0  0  0  0  0  0
    1.7880    1.0750    0.0000 C   0  0  0  0  0  0  0  0  0  0  0  0
    0.4890    1.8250    0.0000 O   0  0  0  0  0  0  0  0  0  0  0  0
    3.0870    1.8250    0.0000 C   0  0  0  0  0  0  0  0  0  0  0  0
    4.3860    1.0750    0.0000 C   0  0  0  0  0  0  0  0  0  0  0  0
    4.3860   -0.4250    0.0000 C   0  0  0  0  0  0  0  0  0  0  0  0
    3.0870   -1.1750    0.0000 C   0  0  0  0  0  0  0  0  0  0  0  0
  1  2  1  0  0  0  0
  2  3  1  0  0  0  0
  2  8  2  0  0  0  0
  3  4  1  0  0  0  0
  3  5  2  0  0  0  0
  5  6  1  0  0  0  0
  6  7  2  0  0  0  0
  7  8  1  0  0  0  0
M  END
>  <name>
Oc1c(O)c[c;biphenyl]cc1

>  <apo>
1

>  <freq>
1

>  <freq0>
0

>  <freq1>
1

>  <freqA>
0.9949851

$$$$

  MOE2015           2D

  9  9  0  0  0  0  0  0  0  0999 V2000
    2.3330   -2.3330    0.0000 O   0  0  0  0  0  0  0  0  0  0  0  0
    2.3330   -0.8330    0.0000 C   0  0  0  0  0  0  0  0  0  0  0  0
    3.6320   -0.0830    0.0000 C   0  0  0  0  0  0  0  0  0  0  0  0
    4.9310   -0.8330    0.0000 O   0  0  0  0  0  0  0  0  0  0  0  0
    3.6320    1.4170    0.0000 C   0  0  0  0  0  0  0  0  0  0  0  0
    2.3330    2.1670    0.0000 C   0  0  0  0  0  0  0  0  0  0  0  0
    1.0340    1.4170    0.0000 C   0  0  0  0  0  0  0  0  0  0  0  0
    1.0340   -0.0830    0.0000 C   0  0  0  0  0  0  0  0  0  0  0  0
   -0.2650   -0.8330    0.0000 O   0  0  0  0  0  0  0  0  0  0  0  0
  1  2  1  0  0  0  0
  2  3  1  0  0  0  0
  2  8  2  0  0  0  0
  3  4  1  0  0  0  0
  3  5  2  0  0  0  0
  5  6  1  0  0  0  0
  6  7  2  0  0  0  0
  7  8  1  0  0  0  0
  8  9  1  0  0  0  0
M  END
>  <name>
Oc1c(O)c[c;biphenyl]cc1O

>  <apo>
1

>  <freq>
1

>  <freq0>
0

>  <freq1>
1

>  <freqA>
0.9949851

$$$$

  MOE2015           2D

 45 50  0  0  1  0  0  0  0  0999 V2000
    0.1390   -0.2400    0.0000 O   0  0  0  0  0  0  0  0  0  0  0  0
    0.8890    1.0590    0.0000 C   0  0  0  0  0  0  0  0  0  0  0  0
    0.1390    2.3580    0.0000 C   0  0  0  0  0  0  0  0  0  0  0  0
   -1.3610    2.3580    0.0000 O   0  0  0  0  0  0  0  0  0  0  0  0
    0.8890    3.6570    0.0000 C   0  0  0  0  0  0  0  0  0  0  0  0
    2.3890    3.6570    0.0000 C   0  0  0  0  0  0  0  0  0  0  0  0
    3.1390    4.9560    0.0000 C   0  0  3  0  0  0  0  0  0  0  0  0
    2.3890    6.2550    0.0000 C   0  0  3  0  0  0  0  0  0  0  0  0
    0.8890    6.2550    0.0000 O   0  0  0  0  0  0  0  0  0  0  0  0
    3.1390    7.5540    0.0000 C   0  0  0  0  0  0  0  0  0  0  0  0
    4.6390    7.5540    0.0000 C   0  0  0  0  0  0  0  0  0  0  0  0
    5.3890    8.8530    0.0000 C   0  0  0  0  0  0  0  0  0  0  0  0
    4.6390   10.1520    0.0000 O   0  0  0  0  0  0  0  0  0  0  0  0
    6.8890    8.8530    0.0000 C   0  0  0  0  0  0  0  0  0  0  0  0
    7.6390    7.5540    0.0000 C   0  0  0  0  0  0  0  0  0  0  0  0
    9.0480    8.0670    0.0000 O   0  0  0  0  0  0  0  0  0  0  0  0
    6.8890    6.2550    0.0000 C   0  0  0  0  0  0  0  0  0  0  0  0
    8.0380    5.2910    0.0000 C   0  0  0  0  0  0  0  0  0  0  0  0
    7.7770    3.8140    0.0000 C   0  0  0  0  0  0  0  0  0  0  0  0
    6.4780    3.0640    0.0000 C   0  0  0  0  0  0  0  0  0  0  0  0
    5.3290    4.0280    0.0000 O   0  0  0  0  0  0  0  0  0  0  0  0
    6.4780    1.5640    0.0000 C   0  0  0  0  0  0  0  0  0  0  0  0
    7.7770    0.8140    0.0000 C   0  0  0  0  0  0  0  0  0  0  0  0
    7.7770   -0.6860    0.0000 O   0  0  0  0  0  0  0  0  0  0  0  0
    9.0760    1.5640    0.0000 C   0  0  0  0  0  0  0  0  0  0  0  0
    9.0760    3.0640    0.0000 C   0  0  0  0  0  0  0  0  0  0  0  0
   10.3750    3.8140    0.0000 O   0  0  0  0  0  0  0  0  0  0  0  0
   11.6740    3.0640    0.0000 C   0  0  3  0  0  0  0  0  0  0  0  0
   12.9730    3.8140    0.0000 C   0  0  0  0  0  0  0  0  0  0  0  0
   12.9730    5.3140    0.0000 C   0  0  0  0  0  0  0  0  0  0  0  0
   14.2720    6.0640    0.0000 C   0  0  0  0  0  0  0  0  0  0  0  0
   14.2720    7.5640    0.0000 O   0  0  0  0  0  0  0  0  0  0  0  0
   15.5710    5.3140    0.0000 C   0  0  0  0  0  0  0  0  0  0  0  0
   16.8700    6.0640    0.0000 O   0  0  0  0  0  0  0  0  0  0  0  0
   15.5710    3.8140    0.0000 C   0  0  0  0  0  0  0  0  0  0  0  0
   16.8700    3.0640    0.0000 O   0  0  0  0  0  0  0  0  0  0  0  0
   14.2720    3.0640    0.0000 C   0  0  0  0  0  0  0  0  0  0  0  0
   11.6740    1.5640    0.0000 C   0  0  3  0  0  0  0  0  0  0  0  0
   12.9730    0.8140    0.0000 O   0  0  0  0  0  0  0  0  0  0  0  0
   10.3750    0.8140    0.0000 C   0  0  0  0  0  0  0  0  0  0  0  0
    5.3890    6.2550    0.0000 C   0  0  0  0  0  0  0  0  0  0  0  0
    4.6390    4.9560    0.0000 O   0  0  0  0  0  0  0  0  0  0  0  0
    3.1390    2.3580    0.0000 C   0  0  0  0  0  0  0  0  0  0  0  0
    2.3890    1.0590    0.0000 C   0  0  0  0  0  0  0  0  0  0  0  0
    3.1390   -0.2400    0.0000 O   0  0  0  0  0  0  0  0  0  0  0  0
  1  2  1  0  0  0  0
  2  3  1  0  0  0  0
  2 44  2  0  0  0  0
  3  4  1  0  0  0  0
  3  5  2  0  0  0  0
  5  6  1  0  0  0  0
  6  7  1  0  0  0  0
  6 43  2  0  0  0  0
  7  8  1  0  0  0  0
  7 42  1  0  0  0  0
  8  9  1  0  0  0  0
  8 10  1  0  0  0  0
 10 11  1  0  0  0  0
 11 12  1  0  0  0  0
 11 41  2  0  0  0  0
 12 13  1  0  0  0  0
 12 14  2  0  0  0  0
 14 15  1  0  0  0  0
 15 16  1  0  0  0  0
 15 17  2  0  0  0  0
 17 18  1  0  0  0  0
 17 41  1  0  0  0  0
 18 19  1  0  0  0  0
 19 20  1  0  0  0  0
 19 26  2  0  0  0  0
 20 21  1  0  0  0  0
 20 22  2  0  0  0  0
 22 23  1  0  0  0  0
 23 24  1  0  0  0  0
 23 25  2  0  0  0  0
 25 26  1  0  0  0  0
 25 40  1  0  0  0  0
 26 27  1  0  0  0  0
 27 28  1  0  0  0  0
 28 29  1  0  0  0  0
 28 38  1  0  0  0  0
 29 30  1  0  0  0  0
 29 37  2  0  0  0  0
 30 31  2  0  0  0  0
 31 32  1  0  0  0  0
 31 33  1  0  0  0  0
 33 34  1  0  0  0  0
 33 35  2  0  0  0  0
 35 36  1  0  0  0  0
 35 37  1  0  0  0  0
 38 39  1  0  0  0  0
 38 40  1  0  0  0  0
 41 42  1  0  0  0  0
 43 44  1  0  0  0  0
 44 45  1  0  0  0  0
M  END
>  <name>
Oc1c(O)cc(C2C([O;ester])Cc3c(O)cc(O)c(Cc4c(O)cc(O)c5c4OC(c4cc(O)c(O)c(O)c4)C([O;ester])C5)c3O2)cc1O

>  <apo>
2

>  <freq>
1

>  <freq0>
0

>  <freq1>
1

>  <freqA>
0.9949851

$$$$

  MOE2015           2D

  9  9  0  0  0  0  0  0  0  0999 V2000
    1.3330    2.3090    0.0000 O   0  0  0  0  0  0  0  0  0  0  0  0
    2.0830    1.0100    0.0000 C   0  0  0  0  0  0  0  0  0  0  0  0
    1.3330   -0.2890    0.0000 C   0  0  0  0  0  0  0  0  0  0  0  0
   -0.1670   -0.2890    0.0000 O   0  0  0  0  0  0  0  0  0  0  0  0
    2.0830   -1.5880    0.0000 C   0  0  0  0  0  0  0  0  0  0  0  0
    3.5830   -1.5880    0.0000 C   0  0  0  0  0  0  0  0  0  0  0  0
    4.3330   -0.2890    0.0000 C   0  0  0  0  0  0  0  0  0  0  0  0
    5.8330   -0.2890    0.0000 O   0  0  0  0  0  0  0  0  0  0  0  0
    3.5830    1.0100    0.0000 C   0  0  0  0  0  0  0  0  0  0  0  0
  1  2  1  0  0  0  0
  2  3  1  0  0  0  0
  2  9  2  0  0  0  0
  3  4  1  0  0  0  0
  3  5  2  0  0  0  0
  5  6  1  0  0  0  0
  6  7  2  0  0  0  0
  7  8  1  0  0  0  0
  7  9  1  0  0  0  0
M  END
>  <name>
Oc1c(O)ccc([O;ester])c1

>  <apo>
1

>  <freq>
1

>  <freq0>
0

>  <freq1>
1

>  <freqA>
0.9949851

$$$$

  MOE2015           2D

 10 10  0  0  0  0  0  0  0  0999 V2000
    1.0500    2.3380    0.0000 O   0  0  0  0  0  0  0  0  0  0  0  0
    1.8000    1.0390    0.0000 C   0  0  0  0  0  0  0  0  0  0  0  0
    3.3000    1.0390    0.0000 C   0  0  0  0  0  0  0  0  0  0  0  0
    4.0500    2.3380    0.0000 C   0  0  0  0  0  0  0  0  0  0  0  0
    4.0500   -0.2600    0.0000 C   0  0  0  0  0  0  0  0  0  0  0  0
    5.5500   -0.2600    0.0000 C   0  0  0  0  0  0  0  0  0  0  0  0
    3.3000   -1.5590    0.0000 C   0  0  0  0  0  0  0  0  0  0  0  0
    1.8000   -1.5590    0.0000 C   0  0  0  0  0  0  0  0  0  0  0  0
    1.0500   -0.2600    0.0000 C   0  0  0  0  0  0  0  0  0  0  0  0
   -0.4500   -0.2600    0.0000 O   0  0  0  0  0  0  0  0  0  0  0  0
  1  2  1  0  0  0  0
  2  3  1  0  0  0  0
  2  9  2  0  0  0  0
  3  4  1  0  0  0  0
  3  5  2  0  0  0  0
  5  6  1  0  0  0  0
  5  7  1  0  0  0  0
  7  8  2  0  0  0  0
  8  9  1  0  0  0  0
  9 10  1  0  0  0  0
M  END
>  <name>
Oc1c([C;olefin])c([C;olefin])ccc1O

>  <apo>
2

>  <freq>
1

>  <freq0>
0

>  <freq1>
1

>  <freqA>
0.9949851

$$$$

  MOE2015           2D

  8  8  0  0  0  0  0  0  0  0999 V2000
    0.4890   -1.1750    0.0000 O   0  0  0  0  0  0  0  0  0  0  0  0
    1.7880   -0.4250    0.0000 C   0  0  0  0  0  0  0  0  0  0  0  0
    1.7880    1.0750    0.0000 C   0  0  0  0  0  0  0  0  0  0  0  0
    0.4890    1.8250    0.0000 C   0  0  0  0  0  0  0  0  0  0  0  0
    3.0870    1.8250    0.0000 C   0  0  0  0  0  0  0  0  0  0  0  0
    4.3860    1.0750    0.0000 C   0  0  0  0  0  0  0  0  0  0  0  0
    4.3860   -0.4250    0.0000 C   0  0  0  0  0  0  0  0  0  0  0  0
    3.0870   -1.1750    0.0000 C   0  0  0  0  0  0  0  0  0  0  0  0
  1  2  1  0  0  0  0
  2  3  1  0  0  0  0
  2  8  2  0  0  0  0
  3  4  1  0  0  0  0
  3  5  2  0  0  0  0
  5  6  1  0  0  0  0
  6  7  2  0  0  0  0
  7  8  1  0  0  0  0
M  END
>  <name>
Oc1c([C;olefin])cccc1

>  <apo>
1

>  <freq>
1

>  <freq0>
0

>  <freq1>
1

>  <freqA>
0.9949851

$$$$

  MOE2015           2D

  9  9  0  0  0  0  0  0  0  0999 V2000
    1.3330    2.3090    0.0000 O   0  0  0  0  0  0  0  0  0  0  0  0
    2.0830    1.0100    0.0000 C   0  0  0  0  0  0  0  0  0  0  0  0
    1.3330   -0.2890    0.0000 C   0  0  0  0  0  0  0  0  0  0  0  0
   -0.1670   -0.2890    0.0000 O   0  0  0  0  0  0  0  0  0  0  0  0
    2.0830   -1.5880    0.0000 C   0  0  0  0  0  0  0  0  0  0  0  0
    3.5830   -1.5880    0.0000 C   0  0  0  0  0  0  0  0  0  0  0  0
    4.3330   -0.2890    0.0000 C   0  0  0  0  0  0  0  0  0  0  0  0
    5.8330   -0.2890    0.0000 C   0  0  0  0  0  0  0  0  0  0  0  0
    3.5830    1.0100    0.0000 C   0  0  0  0  0  0  0  0  0  0  0  0
  1  2  1  0  0  0  0
  2  3  1  0  0  0  0
  2  9  2  0  0  0  0
  3  4  1  0  0  0  0
  3  5  2  0  0  0  0
  5  6  1  0  0  0  0
  6  7  2  0  0  0  0
  7  8  1  0  0  0  0
  7  9  1  0  0  0  0
M  END
>  <name>
Oc1c([O;ether])ccc([C;olefin])c1

>  <apo>
2

>  <freq>
1

>  <freq0>
0

>  <freq1>
1

>  <freqA>
0.9949851

$$$$

  MOE2015           2D

 19 21  0  0  1  0  0  0  0  0999 V2000
    2.9790   -0.8200    0.0000 O   0  0  0  0  0  0  0  0  0  0  0  0
    3.7290    0.4790    0.0000 C   0  0  0  0  0  0  0  0  0  0  0  0
    2.9790    1.7780    0.0000 C   0  0  0  0  0  0  0  0  0  0  0  0
    1.4790    1.7780    0.0000 C   0  0  1  0  0  0  0  0  0  0  0  0
    0.7290    3.0770    0.0000 C   0  0  2  0  0  0  0  0  0  0  0  0
    1.4790    4.3760    0.0000 C   0  0  0  0  0  0  0  0  0  0  0  0
    0.1800    5.1260    0.0000 C   0  0  0  0  0  0  0  0  0  0  0  0
    1.4790    5.8760    0.0000 C   0  0  0  0  0  0  0  0  0  0  0  0
    2.9790    4.3760    0.0000 O   0  0  0  0  0  0  0  0  0  0  0  0
    3.7290    3.0770    0.0000 C   0  0  0  0  0  0  0  0  0  0  0  0
    5.2290    3.0770    0.0000 C   0  0  0  0  0  0  0  0  0  0  0  0
    5.9790    1.7780    0.0000 C   0  0  0  0  0  0  0  0  0  0  0  0
    7.4790    1.7780    0.0000 C   0  0  0  0  0  0  0  0  0  0  0  0
    5.2290    0.4790    0.0000 C   0  0  0  0  0  0  0  0  0  0  0  0
   -0.7710    3.0770    0.0000 C   0  0  0  0  0  0  0  0  0  0  0  0
   -1.5210    1.7780    0.0000 C   0  0  0  0  0  0  0  0  0  0  0  0
   -0.7710    0.4790    0.0000 C   0  0  0  0  0  0  0  0  0  0  0  0
   -1.5210   -0.8200    0.0000 C   0  0  0  0  0  0  0  0  0  0  0  0
    0.7290    0.4790    0.0000 C   0  0  0  0  0  0  0  0  0  0  0  0
  1  2  1  0  0  0  0
  2  3  2  0  0  0  0
  2 14  1  0  0  0  0
  4  3  1  6  0  0  0
  3 10  1  0  0  0  0
  4  5  1  0  0  0  0
  4 19  1  0  0  0  0
  5  6  1  1  0  0  0
  5 15  1  0  0  0  0
  6  7  1  0  0  0  0
  6  8  1  0  0  0  0
  6  9  1  0  0  0  0
  9 10  1  0  0  0  0
 10 11  2  0  0  0  0
 11 12  1  0  0  0  0
 12 13  1  0  0  0  0
 12 14  2  0  0  0  0
 15 16  1  0  0  0  0
 16 17  2  0  0  0  0
 17 18  1  0  0  0  0
 17 19  1  0  0  0  0
M  END
>  <name>
Oc1c2[C@H]3[C@H](C(C)(C)Oc2cc([C;olefin])c1)CC=C(C)C3

>  <apo>
1

>  <freq>
1

>  <freq0>
0

>  <freq1>
1

>  <freqA>
0.9949851

$$$$

  MOE2015           2D

 19 21  0  0  1  0  0  0  0  0999 V2000
   10.5580    0.0000    0.0000 O   0  0  0  0  0  0  0  0  0  0  0  0
    9.0580    0.0000    0.0000 C   0  0  0  0  0  0  0  0  0  0  0  0
    8.3080   -1.2990    0.0000 C   0  0  0  0  0  0  0  0  0  0  0  0
    6.8080   -1.2990    0.0000 C   0  0  0  0  0  0  0  0  0  0  0  0
    6.0580   -2.5980    0.0000 C   0  0  0  0  0  0  0  0  0  0  0  0
    6.0580    0.0000    0.0000 C   0  0  0  0  0  0  0  0  0  0  0  0
    4.5580    0.0000    0.0000 C   0  0  1  0  0  0  0  0  0  0  0  0
    3.8080    1.2990    0.0000 C   0  0  2  0  0  0  0  0  0  0  0  0
    4.5580    2.5980    0.0000 C   0  0  0  0  0  0  0  0  0  0  0  0
    4.5580    4.0980    0.0000 C   0  0  0  0  0  0  0  0  0  0  0  0
    3.2590    3.3480    0.0000 C   0  0  0  0  0  0  0  0  0  0  0  0
    6.0580    2.5980    0.0000 O   0  0  0  0  0  0  0  0  0  0  0  0
    6.8080    1.2990    0.0000 C   0  0  0  0  0  0  0  0  0  0  0  0
    8.3080    1.2990    0.0000 C   0  0  0  0  0  0  0  0  0  0  0  0
    2.3080    1.2990    0.0000 C   0  0  0  0  0  0  0  0  0  0  0  0
    1.5580    0.0000    0.0000 C   0  0  0  0  0  0  0  0  0  0  0  0
    2.3080   -1.2990    0.0000 C   0  0  0  0  0  0  0  0  0  0  0  0
    1.5580   -2.5980    0.0000 C   0  0  0  0  0  0  0  0  0  0  0  0
    3.8080   -1.2990    0.0000 C   0  0  0  0  0  0  0  0  0  0  0  0
  1  2  1  0  0  0  0
  2  3  2  0  0  0  0
  2 14  1  0  0  0  0
  3  4  1  0  0  0  0
  4  5  1  0  0  0  0
  4  6  2  0  0  0  0
  7  6  1  6  0  0  0
  6 13  1  0  0  0  0
  7  8  1  0  0  0  0
  7 19  1  0  0  0  0
  8  9  1  1  0  0  0
  8 15  1  0  0  0  0
  9 10  1  0  0  0  0
  9 11  1  0  0  0  0
  9 12  1  0  0  0  0
 12 13  1  0  0  0  0
 13 14  2  0  0  0  0
 15 16  1  0  0  0  0
 16 17  2  0  0  0  0
 17 18  1  0  0  0  0
 17 19  1  0  0  0  0
M  END
>  <name>
Oc1cc([C;olefin])c2[C@H]3[C@H](C(C)(C)Oc2c1)CC=C(C)C3

>  <apo>
1

>  <freq>
1

>  <freq0>
0

>  <freq1>
1

>  <freqA>
0.9949851

$$$$

  MOE2015           2D

 23 26  0  0  1  0  0  0  0  0999 V2000
   13.8980    0.5960    0.0000 O   0  0  0  0  0  0  0  0  0  0  0  0
   12.5460    1.2460    0.0000 C   0  0  0  0  0  0  0  0  0  0  0  0
   11.3070    0.4000    0.0000 C   0  0  0  0  0  0  0  0  0  0  0  0
    9.9560    1.0500    0.0000 C   0  0  0  0  0  0  0  0  0  0  0  0
    8.5680    0.4800    0.0000 N   0  0  0  0  0  0  0  0  0  0  0  0
    7.5970    1.6240    0.0000 C   0  0  0  0  0  0  0  0  0  0  0  0
    8.3850    2.9000    0.0000 C   0  0  0  0  0  0  0  0  0  0  0  0
    9.8430    2.5450    0.0000 C   0  0  0  0  0  0  0  0  0  0  0  0
   11.0810    3.3910    0.0000 C   0  0  0  0  0  0  0  0  0  0  0  0
   12.4330    2.7410    0.0000 C   0  0  0  0  0  0  0  0  0  0  0  0
    7.6730    4.2210    0.0000 C   0  0  0  0  0  0  0  0  0  0  0  0
    6.1740    4.2650    0.0000 C   0  0  0  0  0  0  0  0  0  0  0  0
    5.4620    5.5850    0.0000 C   0  0  0  0  0  0  0  0  0  0  0  0
    5.3860    2.9880    0.0000 C   0  0  0  0  0  0  0  0  0  0  0  0
    3.8870    3.0320    0.0000 O   0  0  0  0  0  0  0  0  0  0  0  0
    3.0990    1.7550    0.0000 C   0  0  3  0  0  0  0  0  0  0  0  0
    1.7790    1.0440    0.0000 C   0  0  0  0  0  0  0  0  0  0  0  0
    1.7350   -0.4560    0.0000 C   0  0  0  0  0  0  0  0  0  0  0  0
    0.4140   -1.1670    0.0000 C   0  0  0  0  0  0  0  0  0  0  0  0
    1.8230    2.5430    0.0000 C   0  0  0  0  0  0  0  0  0  0  0  0
    3.8110    0.4350    0.0000 C   0  0  0  0  0  0  0  0  0  0  0  0
    5.3100    0.3910    0.0000 C   0  0  0  0  0  0  0  0  0  0  0  0
    6.0980    1.6680    0.0000 C   0  0  0  0  0  0  0  0  0  0  0  0
  1  2  1  0  0  0  0
  2  3  1  0  0  0  0
  2 10  2  0  0  0  0
  3  4  2  0  0  0  0
  4  5  1  0  0  0  0
  4  8  1  0  0  0  0
  5  6  1  0  0  0  0
  6  7  1  0  0  0  0
  6 23  2  0  0  0  0
  7  8  1  0  0  0  0
  7 11  2  0  0  0  0
  8  9  2  0  0  0  0
  9 10  1  0  0  0  0
 11 12  1  0  0  0  0
 12 13  1  0  0  0  0
 12 14  2  0  0  0  0
 14 15  1  0  0  0  0
 14 23  1  0  0  0  0
 15 16  1  0  0  0  0
 16 17  1  0  0  0  0
 16 20  1  0  0  0  0
 16 21  1  0  0  0  0
 17 18  1  0  0  0  0
 18 19  1  0  0  0  0
 21 22  1  0  0  0  0
 22 23  1  0  0  0  0
M  END
>  <name>
Oc1cc2[nH]c3c(c2cc1)cc(C)c1OC(CC[C;olefin])(C)CCc31

>  <apo>
1

>  <freq>
1

>  <freq0>
0

>  <freq1>
1

>  <freqA>
0.9949851

$$$$

  MOE2015           2D

 32 38  0  0  1  0  0  0  0  0999 V2000
   19.6110    0.9950    0.0000 O   0  0  0  0  0  0  0  0  0  0  0  0
   18.1190    0.8430    0.0000 C   0  0  0  0  0  0  0  0  0  0  0  0
   17.2410    2.0590    0.0000 C   0  0  0  0  0  0  0  0  0  0  0  0
   15.7490    1.9080    0.0000 C   0  0  0  0  0  0  0  0  0  0  0  0
   15.1340    0.5390    0.0000 C   0  0  0  0  0  0  0  0  0  0  0  0
   13.6430    0.7010    0.0000 N   0  0  0  0  0  0  0  0  0  0  0  0
   13.3360    2.1690    0.0000 C   0  0  0  0  0  0  0  0  0  0  0  0
   12.0390    2.9240    0.0000 C   0  0  0  0  0  0  0  0  0  0  0  0
   10.7380    2.1780    0.0000 C   0  0  0  0  0  0  0  0  0  0  0  0
    9.4410    2.9330    0.0000 C   0  0  1  0  0  0  0  0  0  0  0  0
    8.1400    2.1870    0.0000 C   0  0  0  0  0  0  0  0  0  0  0  0
    6.8430    2.9410    0.0000 C   0  0  2  0  0  0  0  0  0  0  0  0
    6.8480    4.4410    0.0000 N   0  0  1  0  0  0  0  0  0  0  0  0
    8.1500    5.1870    0.0000 C   0  0  0  0  0  0  0  0  0  0  0  0
    9.4460    4.4330    0.0000 C   0  0  0  0  0  0  0  0  0  0  0  0
    5.5520    5.1960    0.0000 C   0  0  0  0  0  0  0  0  0  0  0  0
    4.2500    4.4500    0.0000 C   0  0  0  0  0  0  0  0  0  0  0  0
    4.2450    2.9500    0.0000 C   0  0  0  0  0  0  0  0  0  0  0  0
    3.1270    1.9500    0.0000 C   0  0  0  0  0  0  0  0  0  0  0  0
    3.7330    0.5780    0.0000 C   0  0  0  0  0  0  0  0  0  0  0  0
    5.2250    0.7290    0.0000 N   0  0  0  0  0  0  0  0  0  0  0  0
    5.5420    2.1960    0.0000 C   0  0  0  0  0  0  0  0  0  0  0  0
    2.8470   -0.6330    0.0000 C   0  0  0  0  0  0  0  0  0  0  0  0
    1.3560   -0.4710    0.0000 C   0  0  0  0  0  0  0  0  0  0  0  0
    0.7500    0.9010    0.0000 C   0  0  0  0  0  0  0  0  0  0  0  0
    1.6360    2.1120    0.0000 C   0  0  0  0  0  0  0  0  0  0  0  0
   12.0440    4.4240    0.0000 N   0  0  0  0  0  0  0  0  0  0  0  0
   13.3460    5.1690    0.0000 C   0  0  0  0  0  0  0  0  0  0  0  0
   14.6420    4.4150    0.0000 C   0  0  0  0  0  0  0  0  0  0  0  0
   14.6370    2.9150    0.0000 C   0  0  0  0  0  0  0  0  0  0  0  0
   16.0120   -0.6770    0.0000 C   0  0  0  0  0  0  0  0  0  0  0  0
   17.5040   -0.5250    0.0000 C   0  0  0  0  0  0  0  0  0  0  0  0
  1  2  1  0  0  0  0
  2  3  1  0  0  0  0
  2 32  2  0  0  0  0
  3  4  2  0  0  0  0
  4  5  1  0  0  0  0
  4 30  1  0  0  0  0
  5  6  1  0  0  0  0
  5 31  2  0  0  0  0
  6  7  1  0  0  0  0
  7  8  2  0  0  0  0
  7 30  1  0  0  0  0
  8  9  1  0  0  0  0
  8 27  1  0  0  0  0
 10  9  1  1  0  0  0
 10 11  1  0  0  0  0
 10 15  1  0  0  0  0
 11 12  1  0  0  0  0
 12 13  1  0  0  0  0
 12 22  1  1  0  0  0
 13 14  1  6  0  0  0
 13 16  1  0  0  0  0
 14 15  1  0  0  0  0
 16 17  1  0  0  0  0
 17 18  1  0  0  0  0
 18 19  1  0  0  0  0
 18 22  2  0  0  0  0
 19 20  2  0  0  0  0
 19 26  1  0  0  0  0
 20 21  1  0  0  0  0
 20 23  1  0  0  0  0
 21 22  1  0  0  0  0
 23 24  2  0  0  0  0
 24 25  1  0  0  0  0
 25 26  2  0  0  0  0
 27 28  2  0  0  0  0
 28 29  1  0  0  0  0
 29 30  2  0  0  0  0
 31 32  1  0  0  0  0
M  END
>  <name>
Oc1cc2c([nH]c3c(C[C@H]4C[C@@H]5[N@@](C[C;olefin]4)CCc4c6c([nH]c54)cccc6)nccc23)cc1

>  <apo>
1

>  <freq>
1

>  <freq0>
0

>  <freq1>
1

>  <freqA>
0.9949851

$$$$

  MOE2015           2D

 10 11  0  0  0  0  0  0  0  0999 V2000
    6.7290   -0.8970    0.0000 O   0  0  0  0  0  0  0  0  0  0  0  0
    5.4300   -0.1470    0.0000 C   0  0  0  0  0  0  0  0  0  0  0  0
    4.1310   -0.8970    0.0000 C   0  0  0  0  0  0  0  0  0  0  0  0
    2.8320   -0.1470    0.0000 C   0  0  0  0  0  0  0  0  0  0  0  0
    1.4050   -0.6110    0.0000 O   0  0  0  0  0  0  0  0  0  0  0  0
    0.5230    0.6030    0.0000 C   0  0  0  0  0  0  0  0  0  0  0  0
    1.4050    1.8160    0.0000 C   0  0  0  0  0  0  0  0  0  0  0  0
    2.8320    1.3530    0.0000 C   0  0  0  0  0  0  0  0  0  0  0  0
    4.1310    2.1030    0.0000 C   0  0  0  0  0  0  0  0  0  0  0  0
    5.4300    1.3530    0.0000 C   0  0  0  0  0  0  0  0  0  0  0  0
  1  2  1  0  0  0  0
  2  3  1  0  0  0  0
  2 10  2  0  0  0  0
  3  4  2  0  0  0  0
  4  5  1  0  0  0  0
  4  8  1  0  0  0  0
  5  6  1  0  0  0  0
  6  7  2  0  0  0  0
  7  8  1  0  0  0  0
  8  9  2  0  0  0  0
  9 10  1  0  0  0  0
M  END
>  <name>
Oc1cc2o[c;biphenyl]cc2cc1

>  <apo>
1

>  <freq>
1

>  <freq0>
0

>  <freq1>
1

>  <freqA>
0.9949851

$$$$

  MOE2015           2D

  7  7  0  0  0  0  0  0  0  0999 V2000
    5.1430    0.0000    0.0000 O   0  0  0  0  0  0  0  0  0  0  0  0
    3.6430    0.0000    0.0000 C   0  0  0  0  0  0  0  0  0  0  0  0
    2.8930    1.2990    0.0000 C   0  0  0  0  0  0  0  0  0  0  0  0
    1.3930    1.2990    0.0000 C   0  0  0  0  0  0  0  0  0  0  0  0
    0.6430    0.0000    0.0000 C   0  0  0  0  0  0  0  0  0  0  0  0
    1.3930   -1.2990    0.0000 C   0  0  0  0  0  0  0  0  0  0  0  0
    2.8930   -1.2990    0.0000 C   0  0  0  0  0  0  0  0  0  0  0  0
  1  2  1  0  0  0  0
  2  3  1  0  0  0  0
  2  7  2  0  0  0  0
  3  4  2  0  0  0  0
  4  5  1  0  0  0  0
  5  6  2  0  0  0  0
  6  7  1  0  0  0  0
M  END
>  <name>
Oc1cc[c;biphenyl]cc1

>  <apo>
1

>  <freq>
1

>  <freq0>
0

>  <freq1>
1

>  <freqA>
0.9949851

$$$$

  MOE2015           2D

 15 15  0  0  1  0  0  0  0  0999 V2000
   -1.6480    2.8030    0.0000 S   0  0  0  0  0  0  0  0  0  0  0  0
   -0.8980    1.5040    0.0000 O   0  0  0  0  0  0  0  0  0  0  0  0
   -2.3980    4.1020    0.0000 O   0  0  0  0  0  0  0  0  0  0  0  0
   -2.9470    2.0530    0.0000 O   0  5  0  0  0  0  0  0  0  0  0  0
   -0.3490    3.5530    0.0000 C   0  0  3  0  0  0  0  0  0  0  0  0
    0.9500    2.8030    0.0000 C   0  0  1  0  0  0  0  0  0  0  0  0
    0.9500    1.3030    0.0000 N   0  0  0  0  0  0  0  0  0  0  0  0
    2.2490    3.5530    0.0000 C   0  0  0  0  0  0  0  0  0  0  0  0
    3.5480    2.8030    0.0000 C   0  0  3  0  0  0  0  0  0  0  0  0
    4.9180    3.4130    0.0000 C   0  0  0  0  0  0  0  0  0  0  0  0
    5.2300    4.8810    0.0000 O   0  0  0  0  0  0  0  0  0  0  0  0
    5.9220    2.2990    0.0000 N   0  0  0  0  0  0  0  0  0  0  0  0
    5.1720    1.0000    0.0000 C   0  0  0  0  0  0  0  0  0  0  0  0
    3.7050    1.3110    0.0000 C   0  0  0  0  0  0  0  0  0  0  0  0
   -0.3490    5.0530    0.0000 C   0  0  0  0  0  0  0  0  0  0  0  0
  1  2  2  0  0  0  0
  1  3  2  0  0  0  0
  1  4  1  0  0  0  0
  1  5  1  0  0  0  0
  5  6  1  0  0  0  0
  5 15  1  0  0  0  0
  6  7  1  6  0  0  0
  6  8  1  0  0  0  0
  8  9  1  0  0  0  0
  9 10  1  0  0  0  0
  9 14  1  0  0  0  0
 10 11  2  0  0  0  0
 10 12  1  0  0  0  0
 12 13  1  0  0  0  0
 13 14  1  0  0  0  0
M  CHG  1   4  -1
M  END
>  <name>
S(=O)(=O)([O-])C([C@@H]([N;amide])CC1C(=O)NCC1)C

>  <apo>
1

>  <freq>
1

>  <freq0>
0

>  <freq1>
1

>  <freqA>
0.9949851

$$$$

  MOE2015           2D

 16 15  0  0  0  0  0  0  0  0999 V2000
   -4.5770   -4.5770    0.0000 S   0  0  0  0  0  0  0  0  0  0  0  0
   -4.5770   -6.0770    0.0000 C   0  0  0  0  0  0  0  0  0  0  0  0
   -5.8760   -6.8270    0.0000 O   0  0  0  0  0  0  0  0  0  0  0  0
   -3.2780   -6.8270    0.0000 N   0  0  0  0  0  0  0  0  0  0  0  0
   -1.9790   -6.0770    0.0000 C   0  0  0  0  0  0  0  0  0  0  0  0
   -0.6800   -6.8270    0.0000 C   0  0  0  0  0  0  0  0  0  0  0  0
    0.6190   -6.0770    0.0000 C   0  0  0  0  0  0  0  0  0  0  0  0
    1.9190   -6.8270    0.0000 N   0  0  0  0  0  0  0  0  0  0  0  0
    3.2180   -6.0770    0.0000 C   0  0  0  0  0  0  0  0  0  0  0  0
    4.5170   -6.8270    0.0000 C   0  0  0  0  0  0  0  0  0  0  0  0
    5.8160   -6.0770    0.0000 C   0  0  0  0  0  0  0  0  0  0  0  0
    7.1150   -6.8270    0.0000 C   0  0  0  0  0  0  0  0  0  0  0  0
    8.4140   -6.0770    0.0000 N   0  0  0  0  0  0  0  0  0  0  0  0
    9.7130   -6.8270    0.0000 C   0  0  0  0  0  0  0  0  0  0  0  0
   11.0120   -6.0770    0.0000 O   0  0  0  0  0  0  0  0  0  0  0  0
   -5.8760   -3.8270    0.0000 C   0  0  0  0  0  0  0  0  0  0  0  0
  1  2  1  0  0  0  0
  1 16  1  0  0  0  0
  2  3  2  0  0  0  0
  2  4  1  0  0  0  0
  4  5  1  0  0  0  0
  5  6  1  0  0  0  0
  6  7  1  0  0  0  0
  7  8  1  0  0  0  0
  8  9  1  0  0  0  0
  9 10  1  0  0  0  0
 10 11  1  0  0  0  0
 11 12  1  0  0  0  0
 12 13  1  0  0  0  0
 13 14  1  0  0  0  0
 14 15  2  0  0  0  0
M  END
>  <name>
S(C(=O)NCCC[N;amide]CCCCNC=O)C

>  <apo>
1

>  <freq>
1

>  <freq0>
0

>  <freq1>
1

>  <freqA>
0.9949851

$$$$

  MOE2015           2D

  3  2  0  0  0  0  0  0  0  0999 V2000
    0.2500    0.0670    0.0000 C   0  0  0  0  0  0  0  0  0  0  0  0
    1.5490   -0.6830    0.0000 C   0  0  0  0  0  0  0  0  0  0  0  0
   -1.0490   -0.6830    0.0000 C   0  0  0  0  0  0  0  0  0  0  0  0
  1  2  1  0  0  0  0
  1  3  1  0  0  0  0
M  END
>  <name>
[C;ether](C)C

>  <apo>
1

>  <freq>
1

>  <freq0>
0

>  <freq1>
1

>  <freqA>
0.9949851

$$$$

  MOE2015           2D

  2  1  0  0  0  0  0  0  0  0999 V2000
    0.0000    0.0000    0.0000 C   0  0  0  0  0  0  0  0  0  0  0  0
    1.5000    0.0000    0.0000 C   0  0  0  0  0  0  0  0  0  0  0  0
  1  2  1  0  0  0  0
M  END
>  <name>
[C;ether]C

>  <apo>
1

>  <freq>
1

>  <freq0>
0

>  <freq1>
1

>  <freqA>
0.9949851

$$$$

  MOE2015           2D

  5  4  0  0  0  0  0  0  0  0999 V2000
    0.0510    0.7100    0.0000 C   0  0  0  0  0  0  0  0  0  0  0  0
   -1.2480   -0.0400    0.0000 C   0  0  0  0  0  0  0  0  0  0  0  0
    1.3500   -0.0400    0.0000 C   0  0  0  0  0  0  0  0  0  0  0  0
    2.6490    0.7100    0.0000 C   0  0  0  0  0  0  0  0  0  0  0  0
    3.9480   -0.0400    0.0000 C   0  0  0  0  0  0  0  0  0  0  0  0
  1  2  2  0  0  0  0
  1  3  1  0  0  0  0
  3  4  1  0  0  0  0
  4  5  1  0  0  0  0
M  END
>  <name>
[C;olefin](=C)CC[C;olefin]

>  <apo>
2

>  <freq>
1

>  <freq0>
0

>  <freq1>
1

>  <freqA>
0.9949851

$$$$

  MOE2015           2D

  2  1  0  0  0  0  0  0  0  0999 V2000
    0.0000    0.0000    0.0000 C   0  0  0  0  0  0  0  0  0  0  0  0
    1.5000    0.0000    0.0000 C   0  0  0  0  0  0  0  0  0  0  0  0
  1  2  1  0  0  0  0
M  END
>  <name>
[C;olefin][C;ether]

>  <apo>
2

>  <freq>
1

>  <freq0>
0

>  <freq1>
1

>  <freqA>
0.9949851

$$$$

  MOE2015           2D

  6  6  0  0  0  0  0  0  0  0999 V2000
    4.6270    0.0000    0.0000 C   0  0  0  0  0  0  0  0  0  0  0  0
    3.1270    0.0000    0.0000 C   0  0  0  0  0  0  0  0  0  0  0  0
    2.2450   -1.2140    0.0000 O   0  0  0  0  0  0  0  0  0  0  0  0
    0.8180   -0.7500    0.0000 C   0  0  0  0  0  0  0  0  0  0  0  0
    0.8180    0.7500    0.0000 C   0  0  0  0  0  0  0  0  0  0  0  0
    2.2450    1.2140    0.0000 C   0  0  0  0  0  0  0  0  0  0  0  0
  1  2  1  0  0  0  0
  2  3  1  0  0  0  0
  2  6  2  0  0  0  0
  3  4  1  0  0  0  0
  4  5  2  0  0  0  0
  5  6  1  0  0  0  0
M  END
>  <name>
[C;olefin]c1occc1

>  <apo>
1

>  <freq>
1

>  <freq0>
0

>  <freq1>
1

>  <freqA>
0.9949851

$$$$

  MOE2015           2D

  7  6  0  0  1  0  0  0  0  0999 V2000
    0.5070    0.5070    0.0000 C   0  0  2  0  0  0  0  0  0  0  0  0
   -0.7920   -0.2430    0.0000 C   0  0  0  0  0  0  0  0  0  0  0  0
   -2.0910    0.5070    0.0000 C   0  0  0  0  0  0  0  0  0  0  0  0
   -0.7920   -1.7430    0.0000 C   0  0  0  0  0  0  0  0  0  0  0  0
    1.8060   -0.2430    0.0000 C   0  0  0  0  0  0  0  0  0  0  0  0
    3.1050    0.5070    0.0000 C   0  0  0  0  0  0  0  0  0  0  0  0
    0.5070    2.0070    0.0000 C   0  0  0  0  0  0  0  0  0  0  0  0
  1  2  1  0  0  0  0
  1  5  1  0  0  0  0
  1  7  1  1  0  0  0
  2  3  1  0  0  0  0
  2  4  1  0  0  0  0
  5  6  1  0  0  0  0
M  END
>  <name>
[C@@H](C(C)C)(CC)[C;olefin]

>  <apo>
1

>  <freq>
1

>  <freq0>
0

>  <freq1>
1

>  <freqA>
0.9949851

$$$$

  MOE2015           2D

  9  8  0  0  1  0  0  0  0  0999 V2000
   -1.4490   -0.3880    0.0000 C   0  0  2  0  0  0  0  0  0  0  0  0
   -2.7480   -1.1380    0.0000 C   0  0  0  0  0  0  0  0  0  0  0  0
   -4.0470   -0.3880    0.0000 C   0  0  0  0  0  0  0  0  0  0  0  0
   -2.7480   -2.6380    0.0000 C   0  0  0  0  0  0  0  0  0  0  0  0
   -0.1500   -1.1380    0.0000 C   0  0  0  0  0  0  0  0  0  0  0  0
    1.1490   -0.3880    0.0000 C   0  0  0  0  0  0  0  0  0  0  0  0
    2.4480   -1.1380    0.0000 C   0  0  0  0  0  0  0  0  0  0  0  0
    3.7470   -0.3880    0.0000 C   0  0  0  0  0  0  0  0  0  0  0  0
   -1.4490    1.1120    0.0000 C   0  0  0  0  0  0  0  0  0  0  0  0
  1  2  1  0  0  0  0
  1  5  1  0  0  0  0
  1  9  1  1  0  0  0
  2  3  1  0  0  0  0
  2  4  1  0  0  0  0
  5  6  1  0  0  0  0
  6  7  1  0  0  0  0
  7  8  1  0  0  0  0
M  END
>  <name>
[C@@H](C(C)C)(CC[C;olefin]C)[C;olefin]

>  <apo>
2

>  <freq>
1

>  <freq0>
0

>  <freq1>
1

>  <freqA>
0.9949851

$$$$

  MOE2015           2D

 18 19  0  0  1  0  0  0  0  0999 V2000
    0.1340   -0.5070    0.0000 C   0  0  1  0  0  0  0  0  0  0  0  0
    1.4390    0.2320    0.0000 C   0  0  0  0  0  0  0  0  0  0  0  0
    2.7320   -0.5290    0.0000 C   0  0  0  0  0  0  0  0  0  0  0  0
    4.0370    0.2100    0.0000 C   0  0  0  0  0  0  0  0  0  0  0  0
    5.3300   -0.5510    0.0000 C   0  0  0  0  0  0  0  0  0  0  0  0
    6.6350    0.1880    0.0000 C   0  0  0  0  0  0  0  0  0  0  0  0
    5.3170   -2.0510    0.0000 C   0  0  0  0  0  0  0  0  0  0  0  0
    0.1210   -2.0070    0.0000 C   0  0  0  0  0  0  0  0  0  0  0  0
   -1.1590    0.2540    0.0000 C   0  0  2  0  0  0  0  0  0  0  0  0
   -2.5340   -0.3450    0.0000 C   0  0  1  0  0  0  0  0  0  0  0  0
   -1.4460   -1.3770    0.0000 C   0  0  0  0  0  0  0  0  0  0  0  0
   -3.5290    0.7780    0.0000 C   0  0  2  0  0  0  0  0  0  0  0  0
   -2.7680    2.0710    0.0000 C   0  0  0  0  0  0  0  0  0  0  0  0
   -1.3030    1.7470    0.0000 C   0  0  0  0  0  0  0  0  0  0  0  0
   -4.9980    0.4790    0.0000 C   0  0  0  0  0  0  0  0  0  0  0  0
   -5.4740   -0.9440    0.0000 C   0  0  0  0  0  0  0  0  0  0  0  0
   -4.4800   -2.0670    0.0000 C   0  0  0  0  0  0  0  0  0  0  0  0
   -3.0100   -1.7670    0.0000 C   0  0  0  0  0  0  0  0  0  0  0  0
  1  2  1  0  0  0  0
  1  8  1  1  0  0  0
  1  9  1  0  0  0  0
  2  3  1  0  0  0  0
  3  4  1  0  0  0  0
  4  5  1  0  0  0  0
  5  6  1  0  0  0  0
  5  7  1  0  0  0  0
  9 10  1  0  0  0  0
  9 14  1  6  0  0  0
 10 11  1  1  0  0  0
 10 12  1  0  0  0  0
 10 18  1  0  0  0  0
 12 13  1  1  0  0  0
 12 15  1  0  0  0  0
 13 14  1  0  0  0  0
 15 16  1  0  0  0  0
 16 17  1  0  0  0  0
 17 18  1  0  0  0  0
M  END
>  <name>
[C@H](CCCC(C)C)(C)[C@@H]1[C@@]2(C)[C@H](CC1)[C;olefin]CCC2

>  <apo>
1

>  <freq>
1

>  <freq0>
0

>  <freq1>
1

>  <freqA>
0.9949851

$$$$

  MOE2015           2D

 22 25  0  0  1  0  0  0  0  0999 V2000
   -1.2530   -0.1080    0.0000 C   0  0  1  0  0  0  0  0  0  0  0  0
   -1.1110    1.3850    0.0000 C   0  0  0  0  0  0  0  0  0  0  0  0
   -0.0300   -0.9780    0.0000 C   0  0  0  0  0  0  0  0  0  0  0  0
    1.3910   -0.5000    0.0000 C   0  0  0  0  0  0  0  0  0  0  0  0
    2.2850   -1.7040    0.0000 C   0  0  0  0  0  0  0  0  0  0  0  0
    3.7750   -1.5330    0.0000 C   0  0  0  0  0  0  0  0  0  0  0  0
    4.6690   -2.7370    0.0000 C   0  0  0  0  0  0  0  0  0  0  0  0
    6.1590   -2.5660    0.0000 C   0  0  0  0  0  0  0  0  0  0  0  0
    4.3720   -0.1560    0.0000 C   0  0  0  0  0  0  0  0  0  0  0  0
    3.4780    1.0480    0.0000 C   0  0  0  0  0  0  0  0  0  0  0  0
    1.9880    0.8770    0.0000 C   0  0  0  0  0  0  0  0  0  0  0  0
    1.4160   -2.9270    0.0000 N   0  0  0  0  0  0  0  0  0  0  0  0
   -0.0150   -2.4780    0.0000 C   0  0  0  0  0  0  0  0  0  0  0  0
   -2.6170   -0.7320    0.0000 C   0  0  0  0  0  0  0  0  0  0  0  0
   -3.8390    0.1380    0.0000 C   0  0  0  0  0  0  0  0  0  0  0  0
   -4.0110    1.6280    0.0000 N   0  0  0  0  0  0  0  0  0  0  0  0
   -5.4810    1.9250    0.0000 C   0  0  0  0  0  0  0  0  0  0  0  0
   -6.2180    0.6180    0.0000 C   0  0  0  0  0  0  0  0  0  0  0  0
   -5.2030   -0.4860    0.0000 C   0  0  0  0  0  0  0  0  0  0  0  0
   -5.3450   -1.9800    0.0000 C   0  0  0  0  0  0  0  0  0  0  0  0
   -4.1230   -2.8490    0.0000 C   0  0  0  0  0  0  0  0  0  0  0  0
   -2.7590   -2.2250    0.0000 C   0  0  0  0  0  0  0  0  0  0  0  0
  1  2  1  1  0  0  0
  1  3  1  0  0  0  0
  1 14  1  0  0  0  0
  3  4  1  0  0  0  0
  3 13  2  0  0  0  0
  4  5  2  0  0  0  0
  4 11  1  0  0  0  0
  5  6  1  0  0  0  0
  5 12  1  0  0  0  0
  6  7  1  0  0  0  0
  6  9  2  0  0  0  0
  7  8  1  0  0  0  0
  9 10  1  0  0  0  0
 10 11  2  0  0  0  0
 12 13  1  0  0  0  0
 14 15  2  0  0  0  0
 14 22  1  0  0  0  0
 15 16  1  0  0  0  0
 15 19  1  0  0  0  0
 16 17  1  0  0  0  0
 17 18  2  0  0  0  0
 18 19  1  0  0  0  0
 19 20  2  0  0  0  0
 20 21  1  0  0  0  0
 21 22  2  0  0  0  0
M  END
>  <name>
[C@H]([C;olefin])(c1c2c(c(C[C;olefin])ccc2)[nH]c1)c1c2[nH]ccc2ccc1

>  <apo>
2

>  <freq>
1

>  <freq0>
0

>  <freq1>
1

>  <freqA>
0.9949851

$$$$

  MOE2015           2D

  9  8  0  0  0  0  0  0  0  0999 V2000
    2.6320    0.7050    0.0000 N   0  0  0  0  0  0  0  0  0  0  0  0
    1.3330   -0.0450    0.0000 C   0  0  0  0  0  0  0  0  0  0  0  0
    0.0340    0.7050    0.0000 C   0  0  0  0  0  0  0  0  0  0  0  0
   -1.2650   -0.0450    0.0000 C   0  0  0  0  0  0  0  0  0  0  0  0
   -2.5640    0.7050    0.0000 C   0  0  0  0  0  0  0  0  0  0  0  0
   -3.8630   -0.0450    0.0000 N   0  0  0  0  0  0  0  0  0  0  0  0
    3.9310   -0.0450    0.0000 C   0  0  0  0  0  0  0  0  0  0  0  0
    5.2300    0.7050    0.0000 C   0  0  0  0  0  0  0  0  0  0  0  0
    6.5290   -0.0450    0.0000 C   0  0  0  0  0  0  0  0  0  0  0  0
  1  2  1  0  0  0  0
  1  7  1  0  0  0  0
  2  3  1  0  0  0  0
  3  4  1  0  0  0  0
  4  5  1  0  0  0  0
  5  6  1  0  0  0  0
  7  8  1  0  0  0  0
  8  9  1  0  0  0  0
M  END
>  <name>
[N;amide](CCCC[N;amide])CC[C;amine]

>  <apo>
3

>  <freq>
1

>  <freq0>
0

>  <freq1>
1

>  <freqA>
0.9949851

$$$$

  MOE2015           2D

  9  8  0  0  0  0  0  0  0  0999 V2000
    0.1670   -0.6220    0.0000 N   0  0  0  0  0  0  0  0  0  0  0  0
    1.4660    0.1280    0.0000 C   0  0  0  0  0  0  0  0  0  0  0  0
    2.7650   -0.6220    0.0000 C   0  0  0  0  0  0  0  0  0  0  0  0
    4.0640    0.1280    0.0000 C   0  0  0  0  0  0  0  0  0  0  0  0
    5.3630   -0.6220    0.0000 N   0  0  0  0  0  0  0  0  0  0  0  0
   -1.1320    0.1280    0.0000 C   0  0  0  0  0  0  0  0  0  0  0  0
   -2.4310   -0.6220    0.0000 C   0  0  0  0  0  0  0  0  0  0  0  0
   -3.7300    0.1280    0.0000 C   0  0  0  0  0  0  0  0  0  0  0  0
   -5.0290   -0.6220    0.0000 N   0  0  0  0  0  0  0  0  0  0  0  0
  1  2  1  0  0  0  0
  1  6  1  0  0  0  0
  2  3  1  0  0  0  0
  3  4  1  0  0  0  0
  4  5  1  0  0  0  0
  6  7  1  0  0  0  0
  7  8  1  0  0  0  0
  8  9  1  0  0  0  0
M  END
>  <name>
[N;amide](CCC[N;amide])CCC[N;amide]

>  <apo>
3

>  <freq>
1

>  <freq0>
0

>  <freq1>
1

>  <freqA>
0.9949851

$$$$

  MOE2015           2D

  6  6  0  0  0  0  0  0  0  0999 V2000
   -2.0490    2.0490    0.0000 N   0  0  0  0  0  0  0  0  0  0  0  0
   -2.0490    0.5490    0.0000 C   0  0  0  0  0  0  0  0  0  0  0  0
   -0.7500   -0.2010    0.0000 C   0  0  0  0  0  0  0  0  0  0  0  0
    0.5490    0.5490    0.0000 C   0  0  0  0  0  0  0  0  0  0  0  0
    0.5490    2.0490    0.0000 C   0  0  0  0  0  0  0  0  0  0  0  0
   -0.7500    2.7990    0.0000 C   0  0  0  0  0  0  0  0  0  0  0  0
  1  2  1  0  0  0  0
  1  6  1  0  0  0  0
  2  3  1  0  0  0  0
  3  4  1  0  0  0  0
  4  5  1  0  0  0  0
  5  6  1  0  0  0  0
M  END
>  <name>
[N;amide]1CCCCC1

>  <apo>
1

>  <freq>
1

>  <freq0>
0

>  <freq1>
1

>  <freqA>
0.9949851

$$$$

  MOE2015           2D

  5  4  0  0  0  0  0  0  0  0999 V2000
    3.0000    0.0000    0.0000 N   0  0  0  0  0  0  0  0  0  0  0  0
    1.5000    0.0000    0.0000 C   0  0  0  0  0  0  0  0  0  0  0  0
    1.5000    1.5000    0.0000 C   0  0  0  0  0  0  0  0  0  0  0  0
    0.0000    0.0000    0.0000 C   0  0  0  0  0  0  0  0  0  0  0  0
    1.5000   -1.5000    0.0000 C   0  0  0  0  0  0  0  0  0  0  0  0
  1  2  1  0  0  0  0
  2  3  1  0  0  0  0
  2  4  1  0  0  0  0
  2  5  1  0  0  0  0
M  END
>  <name>
[N;amide]C(C)(C)C

>  <apo>
1

>  <freq>
1

>  <freq0>
0

>  <freq1>
1

>  <freqA>
0.9949851

$$$$

  MOE2015           2D

  4  3  0  0  0  0  0  0  0  0999 V2000
    3.0000    0.0000    0.0000 N   0  0  0  0  0  0  0  0  0  0  0  0
    1.5000    0.0000    0.0000 C   0  0  0  0  0  0  0  0  0  0  0  0
    0.7500   -1.2990    0.0000 C   0  0  0  0  0  0  0  0  0  0  0  0
    0.7500    1.2990    0.0000 C   0  0  0  0  0  0  0  0  0  0  0  0
  1  2  1  0  0  0  0
  2  3  1  0  0  0  0
  2  4  1  0  0  0  0
M  END
>  <name>
[N;amide]C(C)[C;olefin]

>  <apo>
2

>  <freq>
1

>  <freq0>
0

>  <freq1>
1

>  <freqA>
0.9949851

$$$$

  MOE2015           2D

  6  5  0  0  0  0  0  0  0  0999 V2000
    5.5650   -1.4910    0.0000 N   0  0  0  0  0  0  0  0  0  0  0  0
    4.2660   -0.7410    0.0000 C   0  0  0  0  0  0  0  0  0  0  0  0
    2.9670   -1.4910    0.0000 C   0  0  0  0  0  0  0  0  0  0  0  0
    1.6670   -0.7410    0.0000 C   0  0  0  0  0  0  0  0  0  0  0  0
    0.3680   -1.4910    0.0000 C   0  0  0  0  0  0  0  0  0  0  0  0
    1.6670    0.7590    0.0000 C   0  0  0  0  0  0  0  0  0  0  0  0
  1  2  1  0  0  0  0
  2  3  1  0  0  0  0
  3  4  1  0  0  0  0
  4  5  1  0  0  0  0
  4  6  1  0  0  0  0
M  END
>  <name>
[N;amide]CCC(C)C

>  <apo>
1

>  <freq>
1

>  <freq0>
0

>  <freq1>
1

>  <freqA>
0.9949851

$$$$

  MOE2015           2D

 12 13  0  0  1  0  0  0  0  0999 V2000
    9.0250    0.6550    0.0000 N   0  0  0  0  0  0  0  0  0  0  0  0
    7.8980    1.6450    0.0000 C   0  0  0  0  0  0  0  0  0  0  0  0
    6.4770    1.1640    0.0000 C   0  0  0  0  0  0  0  0  0  0  0  0
    5.3500    2.1530    0.0000 C   0  0  3  0  0  0  0  0  0  0  0  0
    3.8870    1.8230    0.0000 C   0  0  0  0  0  0  0  0  0  0  0  0
    3.1210    3.1130    0.0000 C   0  0  0  0  0  0  0  0  0  0  0  0
    4.1100    4.2400    0.0000 N   0  0  0  0  0  0  0  0  0  0  0  0
    5.4880    3.6470    0.0000 C   0  0  0  0  0  0  0  0  0  0  0  0
    1.6210    3.0940    0.0000 C   0  0  0  0  0  0  0  0  0  0  0  0
    0.8870    1.7860    0.0000 C   0  0  0  0  0  0  0  0  0  0  0  0
    1.6530    0.4960    0.0000 C   0  0  0  0  0  0  0  0  0  0  0  0
    3.1530    0.5150    0.0000 C   0  0  0  0  0  0  0  0  0  0  0  0
  1  2  1  0  0  0  0
  2  3  1  0  0  0  0
  3  4  1  0  0  0  0
  4  5  1  0  0  0  0
  4  8  1  0  0  0  0
  5  6  1  0  0  0  0
  5 12  2  0  0  0  0
  6  7  1  0  0  0  0
  6  9  2  0  0  0  0
  7  8  1  0  0  0  0
  9 10  1  0  0  0  0
 10 11  2  0  0  0  0
 11 12  1  0  0  0  0
M  END
>  <name>
[N;amide]CCC1c2c(NC1)cccc2

>  <apo>
1

>  <freq>
1

>  <freq0>
0

>  <freq1>
1

>  <freqA>
0.9949851

$$$$

  MOE2015           2D

  6  5  0  0  0  0  0  0  0  0999 V2000
    6.2480   -0.9240    0.0000 N   0  0  0  0  0  0  0  0  0  0  0  0
    4.9490   -1.6740    0.0000 C   0  0  0  0  0  0  0  0  0  0  0  0
    3.6500   -0.9240    0.0000 C   0  0  0  0  0  0  0  0  0  0  0  0
    2.3500   -1.6740    0.0000 C   0  0  0  0  0  0  0  0  0  0  0  0
    1.0510   -0.9240    0.0000 C   0  0  0  0  0  0  0  0  0  0  0  0
   -0.2480   -1.6740    0.0000 N   0  0  0  0  0  0  0  0  0  0  0  0
  1  2  1  0  0  0  0
  2  3  1  0  0  0  0
  3  4  1  0  0  0  0
  4  5  1  0  0  0  0
  5  6  1  0  0  0  0
M  END
>  <name>
[N;amide]CCCCN

>  <apo>
1

>  <freq>
1

>  <freq0>
0

>  <freq1>
1

>  <freqA>
0.9949851

$$$$

  MOE2015           2D

  5  4  0  0  0  0  0  0  0  0999 V2000
    4.9980    0.7390    0.0000 N   0  0  0  0  0  0  0  0  0  0  0  0
    3.6990    1.4890    0.0000 C   0  0  0  0  0  0  0  0  0  0  0  0
    2.4000    0.7390    0.0000 C   0  0  0  0  0  0  0  0  0  0  0  0
    1.1010    1.4890    0.0000 C   0  0  0  0  0  0  0  0  0  0  0  0
   -0.1980    0.7390    0.0000 C   0  0  0  0  0  0  0  0  0  0  0  0
  1  2  1  0  0  0  0
  2  3  1  0  0  0  0
  3  4  1  0  0  0  0
  4  5  1  0  0  0  0
M  END
>  <name>
[N;amide]CCC[C;amine]

>  <apo>
2

>  <freq>
1

>  <freq0>
0

>  <freq1>
1

>  <freqA>
0.9949851

$$$$

  MOE2015           2D

 24 28  0  0  1  0  0  0  0  0999 V2000
    7.7880    6.3970    0.0000 O   0  0  0  0  0  0  0  0  0  0  0  0
    7.4960    4.9260    0.0000 C   0  0  3  0  0  0  0  0  0  0  0  0
    6.0770    4.4420    0.0000 C   0  0  3  0  0  0  0  0  0  0  0  0
    5.7850    2.9710    0.0000 C   0  0  0  0  0  0  0  0  0  0  0  0
    4.9480    5.4300    0.0000 C   0  0  3  0  0  0  0  0  0  0  0  0
    3.4850    5.0980    0.0000 C   0  0  3  0  0  0  0  0  0  0  0  0
    4.3390    3.8650    0.0000 C   0  0  0  0  0  0  0  0  0  0  0  0
    2.7170    6.3860    0.0000 C   0  0  3  0  0  0  0  0  0  0  0  0
    1.2170    6.3650    0.0000 C   0  0  3  0  0  0  0  0  0  0  0  0
    0.4850    5.0560    0.0000 C   0  0  3  0  0  0  0  0  0  0  0  0
   -1.0140    5.0350    0.0000 C   0  0  3  0  0  0  0  0  0  0  0  0
   -0.3880    3.6720    0.0000 C   0  0  0  0  0  0  0  0  0  0  0  0
   -1.7820    6.3230    0.0000 C   0  0  3  0  0  0  0  0  0  0  0  0
   -3.2450    5.9910    0.0000 C   0  0  3  0  0  0  0  0  0  0  0  0
   -2.8020    7.4240    0.0000 C   0  0  0  0  0  0  0  0  0  0  0  0
   -3.3810    4.4970    0.0000 C   0  0  0  0  0  0  0  0  0  0  0  0
   -2.0020    3.9060    0.0000 C   0  0  0  0  0  0  0  0  0  0  0  0
   -1.0510    7.6330    0.0000 C   0  0  0  0  0  0  0  0  0  0  0  0
    0.4490    7.6540    0.0000 C   0  0  0  0  0  0  0  0  0  0  0  0
    1.2540    3.7680    0.0000 C   0  0  0  0  0  0  0  0  0  0  0  0
    2.7530    3.7890    0.0000 C   0  0  0  0  0  0  0  0  0  0  0  0
    3.7050    7.5150    0.0000 C   0  0  0  0  0  0  0  0  0  0  0  0
    5.0840    6.9240    0.0000 C   0  0  0  0  0  0  0  0  0  0  0  0
    8.6250    3.9380    0.0000 C   0  0  0  0  0  0  0  0  0  0  0  0
  1  2  1  0  0  0  0
  2  3  1  0  0  0  0
  2 24  1  0  0  0  0
  3  4  1  0  0  0  0
  3  5  1  0  0  0  0
  5  6  1  0  0  0  0
  5 23  1  0  0  0  0
  6  7  1  0  0  0  0
  6  8  1  0  0  0  0
  6 21  1  0  0  0  0
  8  9  1  0  0  0  0
  8 22  1  0  0  0  0
  9 10  1  0  0  0  0
  9 19  1  0  0  0  0
 10 11  1  0  0  0  0
 10 20  1  0  0  0  0
 11 12  1  0  0  0  0
 11 13  1  0  0  0  0
 11 17  1  0  0  0  0
 13 14  1  0  0  0  0
 13 15  1  0  0  0  0
 13 18  1  0  0  0  0
 14 15  1  0  0  0  0
 14 16  1  0  0  0  0
 16 17  1  0  0  0  0
 18 19  1  0  0  0  0
 20 21  1  0  0  0  0
 22 23  1  0  0  0  0
M  END
>  <name>
[O;ester]C(C(C)C1C2(C)C(C3C(C4(C)C5(C(C5)CC4)[C;ether]C3)CC2)CC1)[C;olefin]

>  <apo>
3

>  <freq>
1

>  <freq0>
0

>  <freq1>
1

>  <freqA>
0.9949851

$$$$

  MOE2015           2D

 31 35  0  0  1  0  0  0  0  0999 V2000
   14.3850    0.8240    0.0000 O   0  0  0  0  0  0  0  0  0  0  0  0
   12.8860    0.8100    0.0000 C   0  0  3  0  0  0  0  0  0  0  0  0
   12.1480   -0.4960    0.0000 C   0  0  0  0  0  0  0  0  0  0  0  0
   13.4200   -1.2900    0.0000 C   0  0  0  0  0  0  0  0  0  0  0  0
   12.1220   -1.9960    0.0000 C   0  0  0  0  0  0  0  0  0  0  0  0
   10.6480   -0.5100    0.0000 C   0  0  3  0  0  0  0  0  0  0  0  0
    9.8860    0.7820    0.0000 C   0  0  3  0  0  0  0  0  0  0  0  0
    9.1690    2.1000    0.0000 C   0  0  0  0  0  0  0  0  0  0  0  0
    8.3860    0.7680    0.0000 C   0  0  3  0  0  0  0  0  0  0  0  0
    7.6480   -0.5370    0.0000 C   0  0  3  0  0  0  0  0  0  0  0  0
    6.8650   -1.8170    0.0000 C   0  0  0  0  0  0  0  0  0  0  0  0
    6.1480   -0.5510    0.0000 C   0  0  3  0  0  0  0  0  0  0  0  0
    4.6480   -0.5130    0.0000 C   0  0  0  0  0  0  0  0  0  0  0  0
    5.3860    0.7410    0.0000 C   0  0  3  0  0  0  0  0  0  0  0  0
    3.8860    0.7270    0.0000 C   0  0  3  0  0  0  0  0  0  0  0  0
    3.1480   -0.5790    0.0000 C   0  0  3  0  0  0  0  0  0  0  0  0
    2.2560   -1.7850    0.0000 C   0  0  0  0  0  0  0  0  0  0  0  0
    3.9100   -1.8710    0.0000 C   0  0  0  0  0  0  0  0  0  0  0  0
    5.4100   -1.8570    0.0000 C   0  0  0  0  0  0  0  0  0  0  0  0
    1.6780   -0.2810    0.0000 C   0  0  0  0  0  0  0  0  0  0  0  0
    1.5070    1.2100    0.0000 C   0  0  0  0  0  0  0  0  0  0  0  0
    2.8720    1.8320    0.0000 C   0  0  3  0  0  0  0  0  0  0  0  0
    3.1700    3.3020    0.0000 C   0  0  0  0  0  0  0  0  0  0  0  0
    4.5930    3.7790    0.0000 C   0  0  0  0  0  0  0  0  0  0  0  0
    2.0460    4.2960    0.0000 C   0  0  0  0  0  0  0  0  0  0  0  0
    6.1240    2.0470    0.0000 C   0  0  0  0  0  0  0  0  0  0  0  0
    7.6240    2.0600    0.0000 C   0  0  0  0  0  0  0  0  0  0  0  0
    8.4100   -1.8300    0.0000 C   0  0  0  0  0  0  0  0  0  0  0  0
    9.9100   -1.8160    0.0000 C   0  0  0  0  0  0  0  0  0  0  0  0
   10.6240    2.0880    0.0000 C   0  0  0  0  0  0  0  0  0  0  0  0
   12.1240    2.1020    0.0000 C   0  0  0  0  0  0  0  0  0  0  0  0
  1  2  1  0  0  0  0
  2  3  1  0  0  0  0
  2 31  1  0  0  0  0
  3  4  1  0  0  0  0
  3  5  1  0  0  0  0
  3  6  1  0  0  0  0
  6  7  1  0  0  0  0
  6 29  1  0  0  0  0
  7  8  1  0  0  0  0
  7  9  1  0  0  0  0
  7 30  1  0  0  0  0
  9 10  1  0  0  0  0
  9 27  1  0  0  0  0
 10 11  1  0  0  0  0
 10 12  1  0  0  0  0
 10 28  1  0  0  0  0
 12 13  1  0  0  0  0
 12 14  1  0  0  0  0
 12 19  1  0  0  0  0
 14 15  1  0  0  0  0
 14 26  1  0  0  0  0
 15 16  1  0  0  0  0
 15 22  1  0  0  0  0
 16 17  1  0  0  0  0
 16 18  1  0  0  0  0
 16 20  1  0  0  0  0
 18 19  1  0  0  0  0
 20 21  1  0  0  0  0
 21 22  1  0  0  0  0
 22 23  1  0  0  0  0
 23 24  2  0  0  0  0
 23 25  1  0  0  0  0
 26 27  1  0  0  0  0
 28 29  1  0  0  0  0
 30 31  1  0  0  0  0
M  END
>  <name>
[O;ester]C1C(C)(C)C2C(C)(C3C(C)(C4(C)C(C5C(C)(CC4)CCC5C(=C)C)CC3)CC2)CC1

>  <apo>
1

>  <freq>
1

>  <freq0>
0

>  <freq1>
1

>  <freqA>
0.9949851

$$$$

  MOE2015           2D

 27 31  0  0  1  0  0  0  0  0999 V2000
   -0.4750    1.5830    0.0000 O   0  0  0  0  0  0  0  0  0  0  0  0
    0.7770    2.4090    0.0000 C   0  0  3  0  0  0  0  0  0  0  0  0
    2.1180    1.7380    0.0000 C   0  0  0  0  0  0  0  0  0  0  0  0
    1.4070    0.4170    0.0000 C   0  0  0  0  0  0  0  0  0  0  0  0
    2.8800    0.4460    0.0000 C   0  0  0  0  0  0  0  0  0  0  0  0
    3.3700    2.5610    0.0000 C   0  0  3  0  0  0  0  0  0  0  0  0
    3.2820    4.0630    0.0000 C   0  0  3  0  0  0  0  0  0  0  0  0
    4.6240    4.6050    0.0000 C   0  0  3  0  0  0  0  0  0  0  0  0
    5.9180    4.3970    0.0000 C   0  0  3  0  0  0  0  0  0  0  0  0
    7.0210    3.4690    0.0000 C   0  0  3  0  0  0  0  0  0  0  0  0
    6.9920    4.9680    0.0000 C   0  0  0  0  0  0  0  0  0  0  0  0
    6.4720    2.0650    0.0000 C   0  0  3  0  0  0  0  0  0  0  0  0
    6.5010    0.5650    0.0000 C   0  0  0  0  0  0  0  0  0  0  0  0
    7.9470    1.7810    0.0000 C   0  0  3  0  0  0  0  0  0  0  0  0
    8.5420    0.4040    0.0000 C   0  0  3  0  0  0  0  0  0  0  0  0
   10.0330    0.2320    0.0000 C   0  0  0  0  0  0  0  0  0  0  0  0
   10.6280   -1.1450    0.0000 C   0  0  0  0  0  0  0  0  0  0  0  0
    7.6480   -0.8000    0.0000 C   0  0  0  0  0  0  0  0  0  0  0  0
    8.7540    3.0580    0.0000 C   0  0  0  0  0  0  0  0  0  0  0  0
    8.1670    4.4410    0.0000 C   0  0  0  0  0  0  0  0  0  0  0  0
    5.0760    1.7910    0.0000 C   0  0  0  0  0  0  0  0  0  0  0  0
    4.0460    3.0180    0.0000 C   0  0  0  0  0  0  0  0  0  0  0  0
    5.9710    2.7090    0.0000 C   0  0  0  0  0  0  0  0  0  0  0  0
    4.6100    1.8650    0.0000 C   0  0  0  0  0  0  0  0  0  0  0  0
    3.4610    5.5530    0.0000 C   0  0  0  0  0  0  0  0  0  0  0  0
    1.9400    4.7320    0.0000 C   0  0  0  0  0  0  0  0  0  0  0  0
    0.6880    3.9060    0.0000 C   0  0  0  0  0  0  0  0  0  0  0  0
  1  2  1  0  0  0  0
  2  3  1  0  0  0  0
  2 27  1  0  0  0  0
  3  4  1  0  0  0  0
  3  5  1  0  0  0  0
  3  6  1  0  0  0  0
  6  7  1  0  0  0  0
  6 24  1  0  0  0  0
  7  8  1  0  0  0  0
  7 25  1  0  0  0  0
  7 26  1  0  0  0  0
  8  9  1  0  0  0  0
  8 22  1  0  0  0  0
  8 25  1  0  0  0  0
  9 10  1  0  0  0  0
  9 23  1  0  0  0  0
 10 11  1  0  0  0  0
 10 12  1  0  0  0  0
 10 20  1  0  0  0  0
 12 13  1  0  0  0  0
 12 14  1  0  0  0  0
 12 21  1  0  0  0  0
 14 15  1  0  0  0  0
 14 19  1  0  0  0  0
 15 16  1  0  0  0  0
 15 18  1  0  0  0  0
 16 17  1  0  0  0  0
 19 20  1  0  0  0  0
 21 22  1  0  0  0  0
 23 24  1  0  0  0  0
 26 27  1  0  0  0  0
M  END
>  <name>
[O;ester]C1C(C)(C)C2C3(C4(C(C5(C)C(C)(C(C(C[C;olefin])C)CC5)CC4)CC2)C3)CC1

>  <apo>
2

>  <freq>
1

>  <freq0>
0

>  <freq1>
1

>  <freqA>
0.9949851

$$$$

  MOE2015           2D

 11 11  0  0  1  0  0  0  0  0999 V2000
    2.7270    2.7270    0.0000 O   0  0  0  0  0  0  0  0  0  0  0  0
    2.7270    1.2270    0.0000 C   0  0  0  0  0  0  0  0  0  0  0  0
    4.0260    0.4770    0.0000 C   0  0  3  0  0  0  0  0  0  0  0  0
    5.3250    1.2270    0.0000 O   0  0  0  0  0  0  0  0  0  0  0  0
    4.0260   -1.0230    0.0000 C   0  0  3  0  0  0  0  0  0  0  0  0
    5.3250   -1.7730    0.0000 O   0  0  0  0  0  0  0  0  0  0  0  0
    2.7270   -1.7730    0.0000 O   0  0  0  0  0  0  0  0  0  0  0  0
    1.4280   -1.0230    0.0000 C   0  0  3  0  0  0  0  0  0  0  0  0
    0.1290   -1.7730    0.0000 O   0  0  0  0  0  0  0  0  0  0  0  0
    1.4280    0.4770    0.0000 C   0  0  3  0  0  0  0  0  0  0  0  0
    0.1290    1.2270    0.0000 O   0  0  0  0  0  0  0  0  0  0  0  0
  1  2  1  0  0  0  0
  2  3  1  0  0  0  0
  2 10  1  0  0  0  0
  3  4  1  0  0  0  0
  3  5  1  0  0  0  0
  5  6  1  0  0  0  0
  5  7  1  0  0  0  0
  7  8  1  0  0  0  0
  8  9  1  0  0  0  0
  8 10  1  0  0  0  0
 10 11  1  0  0  0  0
M  END
>  <name>
[O;ester]C1C(O)C([O;ester])OC([O;ester])C1[O;ester]

>  <apo>
4

>  <freq>
1

>  <freq0>
0

>  <freq1>
1

>  <freqA>
0.9949851

$$$$

  MOE2015           2D

 11 11  0  0  1  0  0  0  0  0999 V2000
    6.5450    0.4720    0.0000 O   0  0  0  0  0  0  0  0  0  0  0  0
    5.7950    1.7710    0.0000 C   0  0  0  0  0  0  0  0  0  0  0  0
    4.2950    1.7710    0.0000 C   0  0  3  0  0  0  0  0  0  0  0  0
    3.5450    3.0700    0.0000 C   0  0  3  0  0  0  0  0  0  0  0  0
    4.2950    4.3690    0.0000 O   0  0  0  0  0  0  0  0  0  0  0  0
    2.0450    3.0700    0.0000 C   0  0  3  0  0  0  0  0  0  0  0  0
    1.2950    4.3690    0.0000 O   0  0  0  0  0  0  0  0  0  0  0  0
    1.2950    1.7710    0.0000 C   0  0  3  0  0  0  0  0  0  0  0  0
   -0.2050    1.7710    0.0000 O   0  0  0  0  0  0  0  0  0  0  0  0
    2.0450    0.4720    0.0000 C   0  0  0  0  0  0  0  0  0  0  0  0
    3.5450    0.4720    0.0000 O   0  0  0  0  0  0  0  0  0  0  0  0
  1  2  1  0  0  0  0
  2  3  1  0  0  0  0
  3  4  1  0  0  0  0
  3 11  1  0  0  0  0
  4  5  1  0  0  0  0
  4  6  1  0  0  0  0
  6  7  1  0  0  0  0
  6  8  1  0  0  0  0
  8  9  1  0  0  0  0
  8 10  1  0  0  0  0
 10 11  1  0  0  0  0
M  END
>  <name>
[O;ester]CC1C([O;ester])C(O)C(O)[C;ether]O1

>  <apo>
3

>  <freq>
1

>  <freq0>
0

>  <freq1>
1

>  <freqA>
0.9949851

$$$$

  MOE2015           2D

 11 11  0  0  1  0  0  0  0  0999 V2000
    6.1300   -3.7570    0.0000 O   0  0  0  0  0  0  0  0  0  0  0  0
    5.4490   -2.4200    0.0000 C   0  0  0  0  0  0  0  0  0  0  0  0
    3.9510   -2.3420    0.0000 C   0  0  2  0  0  0  0  0  0  0  0  0
    3.1350   -1.0840    0.0000 C   0  0  1  0  0  0  0  0  0  0  0  0
    3.6720    0.3170    0.0000 O   0  0  0  0  0  0  0  0  0  0  0  0
    1.6860   -1.4720    0.0000 C   0  0  1  0  0  0  0  0  0  0  0  0
    0.5200   -0.5280    0.0000 O   0  0  0  0  0  0  0  0  0  0  0  0
    1.6070   -2.9700    0.0000 C   0  0  1  0  0  0  0  0  0  0  0  0
    0.3490   -3.7870    0.0000 C   0  0  0  0  0  0  0  0  0  0  0  0
    0.4280   -5.2850    0.0000 O   0  0  0  0  0  0  0  0  0  0  0  0
    3.0070   -3.5070    0.0000 O   0  0  0  0  0  0  0  0  0  0  0  0
  1  2  1  0  0  0  0
  3  2  1  1  0  0  0
  3  4  1  0  0  0  0
  3 11  1  0  0  0  0
  4  5  1  6  0  0  0
  4  6  1  0  0  0  0
  6  7  1  6  0  0  0
  6  8  1  0  0  0  0
  8  9  1  6  0  0  0
  8 11  1  0  0  0  0
  9 10  1  0  0  0  0
M  END
>  <name>
[O;ester]C[C@@H;ether]1[C@@H]([O;ester])[C@@H](O)[C@@H](C[O;ester])O1

>  <apo>
4

>  <freq>
1

>  <freq0>
0

>  <freq1>
1

>  <freqA>
0.9949851

$$$$

  MOE2015           2D

 11 11  0  0  1  0  0  0  0  0999 V2000
    6.5450    0.4720    0.0000 O   0  0  0  0  0  0  0  0  0  0  0  0
    5.7950    1.7710    0.0000 C   0  0  0  0  0  0  0  0  0  0  0  0
    4.2950    1.7710    0.0000 C   0  0  2  0  0  0  0  0  0  0  0  0
    3.5450    3.0700    0.0000 C   0  0  1  0  0  0  0  0  0  0  0  0
    4.2950    4.3690    0.0000 O   0  0  0  0  0  0  0  0  0  0  0  0
    2.0450    3.0700    0.0000 C   0  0  1  0  0  0  0  0  0  0  0  0
    1.2950    4.3690    0.0000 O   0  0  0  0  0  0  0  0  0  0  0  0
    1.2950    1.7710    0.0000 C   0  0  2  0  0  0  0  0  0  0  0  0
   -0.2050    1.7710    0.0000 O   0  0  0  0  0  0  0  0  0  0  0  0
    2.0450    0.4720    0.0000 C   0  0  0  0  0  0  0  0  0  0  0  0
    3.5450    0.4720    0.0000 O   0  0  0  0  0  0  0  0  0  0  0  0
  1  2  1  0  0  0  0
  3  2  1  1  0  0  0
  3  4  1  0  0  0  0
  3 11  1  0  0  0  0
  4  5  1  6  0  0  0
  4  6  1  0  0  0  0
  6  7  1  6  0  0  0
  6  8  1  0  0  0  0
  8  9  1  1  0  0  0
  8 10  1  0  0  0  0
 10 11  1  0  0  0  0
M  END
>  <name>
[O;ester]C[C@@H]1[C@@H](O)[C@@H](O)[C@H]([O;ester])[C;ether]O1

>  <apo>
3

>  <freq>
1

>  <freq0>
0

>  <freq1>
1

>  <freqA>
0.9949851

$$$$

  MOE2015           2D

 12 12  0  0  1  0  0  0  0  0999 V2000
    6.5630    0.9740    0.0000 O   0  0  0  0  0  0  0  0  0  0  0  0
    5.8120    2.2730    0.0000 C   0  0  0  0  0  0  0  0  0  0  0  0
    4.3130    2.2730    0.0000 C   0  0  2  0  0  0  0  0  0  0  0  0
    3.5630    3.5720    0.0000 C   0  0  2  0  0  0  0  0  0  0  0  0
    4.3130    4.8710    0.0000 O   0  0  0  0  0  0  0  0  0  0  0  0
    2.0620    3.5720    0.0000 C   0  0  2  0  0  0  0  0  0  0  0  0
    1.3130    4.8710    0.0000 O   0  0  0  0  0  0  0  0  0  0  0  0
    1.3120    2.2730    0.0000 C   0  0  1  0  0  0  0  0  0  0  0  0
   -0.1880    2.2730    0.0000 O   0  0  0  0  0  0  0  0  0  0  0  0
    2.0620    0.9740    0.0000 C   0  0  1  0  0  0  0  0  0  0  0  0
    1.3120   -0.3250    0.0000 O   0  0  0  0  0  0  0  0  0  0  0  0
    3.5620    0.9740    0.0000 O   0  0  0  0  0  0  0  0  0  0  0  0
  1  2  1  0  0  0  0
  3  2  1  1  0  0  0
  3  4  1  0  0  0  0
  3 12  1  0  0  0  0
  4  5  1  1  0  0  0
  4  6  1  0  0  0  0
  6  7  1  1  0  0  0
  6  8  1  0  0  0  0
  8  9  1  6  0  0  0
  8 10  1  0  0  0  0
 10 11  1  6  0  0  0
 10 12  1  0  0  0  0
M  END
>  <name>
[O;ester]C[C@@H]1[C@H](O)[C@H]([O;ester])[C@@H](O)[C@@H]([O;ester])O1

>  <apo>
3

>  <freq>
1

>  <freq0>
0

>  <freq1>
1

>  <freqA>
0.9949851

$$$$

  MOE2015           2D

 11 11  0  0  1  0  0  0  0  0999 V2000
    6.1300   -3.7570    0.0000 O   0  0  0  0  0  0  0  0  0  0  0  0
    5.4490   -2.4200    0.0000 C   0  0  0  0  0  0  0  0  0  0  0  0
    3.9510   -2.3420    0.0000 C   0  0  2  0  0  0  0  0  0  0  0  0
    3.1350   -1.0840    0.0000 C   0  0  2  0  0  0  0  0  0  0  0  0
    3.6720    0.3170    0.0000 O   0  0  0  0  0  0  0  0  0  0  0  0
    1.6860   -1.4720    0.0000 C   0  0  2  0  0  0  0  0  0  0  0  0
    0.5200   -0.5280    0.0000 O   0  0  0  0  0  0  0  0  0  0  0  0
    1.6070   -2.9700    0.0000 C   0  0  2  0  0  0  0  0  0  0  0  0
    0.3490   -3.7870    0.0000 C   0  0  0  0  0  0  0  0  0  0  0  0
    0.4280   -5.2850    0.0000 O   0  0  0  0  0  0  0  0  0  0  0  0
    3.0070   -3.5070    0.0000 O   0  0  0  0  0  0  0  0  0  0  0  0
  1  2  1  0  0  0  0
  3  2  1  1  0  0  0
  3  4  1  0  0  0  0
  3 11  1  0  0  0  0
  4  5  1  1  0  0  0
  4  6  1  0  0  0  0
  6  7  1  1  0  0  0
  6  8  1  0  0  0  0
  8  9  1  1  0  0  0
  8 11  1  0  0  0  0
  9 10  1  0  0  0  0
M  END
>  <name>
[O;ester]C[C@@H]1[C@H](O)[C@H]([O;ester])[C@H;ether](C[O;ester])O1

>  <apo>
4

>  <freq>
1

>  <freq0>
0

>  <freq1>
1

>  <freqA>
0.9949851

$$$$

  MOE2015           2D

 12 12  0  0  1  0  0  0  0  0999 V2000
    6.5630    0.9740    0.0000 O   0  0  0  0  0  0  0  0  0  0  0  0
    5.8120    2.2730    0.0000 C   0  0  0  0  0  0  0  0  0  0  0  0
    4.3130    2.2730    0.0000 C   0  0  2  0  0  0  0  0  0  0  0  0
    3.5630    3.5720    0.0000 C   0  0  2  0  0  0  0  0  0  0  0  0
    4.3130    4.8710    0.0000 O   0  0  0  0  0  0  0  0  0  0  0  0
    2.0620    3.5720    0.0000 C   0  0  2  0  0  0  0  0  0  0  0  0
    1.3130    4.8710    0.0000 O   0  0  0  0  0  0  0  0  0  0  0  0
    1.3120    2.2730    0.0000 C   0  0  1  0  0  0  0  0  0  0  0  0
   -0.1880    2.2730    0.0000 O   0  0  0  0  0  0  0  0  0  0  0  0
    2.0620    0.9740    0.0000 C   0  0  3  0  0  0  0  0  0  0  0  0
    1.3120   -0.3250    0.0000 O   0  0  0  0  0  0  0  0  0  0  0  0
    3.5620    0.9740    0.0000 O   0  0  0  0  0  0  0  0  0  0  0  0
  1  2  1  0  0  0  0
  3  2  1  1  0  0  0
  3  4  1  0  0  0  0
  3 12  1  0  0  0  0
  4  5  1  1  0  0  0
  4  6  1  0  0  0  0
  6  7  1  1  0  0  0
  6  8  1  0  0  0  0
  8  9  1  6  0  0  0
  8 10  1  0  0  0  0
 10 11  1  0  0  0  0
 10 12  1  0  0  0  0
M  END
>  <name>
[O;ester]C[C@@H]1[C@H]([O;ester])[C@H]([O;ester])[C@@H]([O;ester])C(O)O1

>  <apo>
4

>  <freq>
1

>  <freq0>
0

>  <freq1>
1

>  <freqA>
0.9949851

$$$$

  MOE2015           2D

 10 10  0  0  0  0  0  0  0  0999 V2000
    0.4720   -0.4720    0.0000 O   0  0  0  0  0  0  0  0  0  0  0  0
    0.4720    1.0280    0.0000 C   0  0  0  0  0  0  0  0  0  0  0  0
    1.7710    1.7780    0.0000 C   0  0  0  0  0  0  0  0  0  0  0  0
    1.7710    3.2780    0.0000 C   0  0  0  0  0  0  0  0  0  0  0  0
    0.4720    4.0280    0.0000 O   0  0  0  0  0  0  0  0  0  0  0  0
    3.0700    4.0280    0.0000 C   0  0  0  0  0  0  0  0  0  0  0  0
    4.3690    3.2780    0.0000 C   0  0  0  0  0  0  0  0  0  0  0  0
    4.3690    1.7780    0.0000 C   0  0  0  0  0  0  0  0  0  0  0  0
    5.6680    1.0280    0.0000 O   0  0  0  0  0  0  0  0  0  0  0  0
    3.0700    1.0280    0.0000 C   0  0  0  0  0  0  0  0  0  0  0  0
  1  2  1  0  0  0  0
  2  3  1  0  0  0  0
  3  4  1  0  0  0  0
  3 10  2  0  0  0  0
  4  5  1  0  0  0  0
  4  6  2  0  0  0  0
  6  7  1  0  0  0  0
  7  8  2  0  0  0  0
  8  9  1  0  0  0  0
  8 10  1  0  0  0  0
M  END
>  <name>
[O;ester]Cc1c([O;ether])ccc(O)c1

>  <apo>
2

>  <freq>
1

>  <freq0>
0

>  <freq1>
1

>  <freqA>
0.9949851

$$$$

  MOE2015           2D

 31 35  0  0  1  0  0  0  0  0999 V2000
   14.3830    0.8030    0.0000 O   0  0  0  0  0  0  0  0  0  0  0  0
   12.8830    0.7940    0.0000 C   0  0  2  0  0  0  0  0  0  0  0  0
   12.1410   -0.5100    0.0000 C   0  0  0  0  0  0  0  0  0  0  0  0
   13.4280   -1.2800    0.0000 C   0  0  0  0  0  0  0  0  0  0  0  0
   12.1300   -2.0100    0.0000 C   0  0  0  0  0  0  0  0  0  0  0  0
   10.6410   -0.5180    0.0000 C   0  0  1  0  0  0  0  0  0  0  0  0
    9.8830    0.7760    0.0000 C   0  0  1  0  0  0  0  0  0  0  0  0
    9.1480    2.0840    0.0000 C   0  0  0  0  0  0  0  0  0  0  0  0
    8.3830    0.7670    0.0000 C   0  0  2  0  0  0  0  0  0  0  0  0
    7.6410   -0.5360    0.0000 C   0  0  2  0  0  0  0  0  0  0  0  0
    6.8760   -1.8270    0.0000 C   0  0  0  0  0  0  0  0  0  0  0  0
    6.1410   -0.5450    0.0000 C   0  0  1  0  0  0  0  0  0  0  0  0
    4.6410   -0.5280    0.0000 C   0  0  0  0  0  0  0  0  0  0  0  0
    5.3830    0.7490    0.0000 C   0  0  1  0  0  0  0  0  0  0  0  0
    3.8830    0.7400    0.0000 C   0  0  1  0  0  0  0  0  0  0  0  0
    2.8730    1.8490    0.0000 C   0  0  2  0  0  0  0  0  0  0  0  0
    3.1760    3.3180    0.0000 C   0  0  0  0  0  0  0  0  0  0  0  0
    4.6000    3.7900    0.0000 C   0  0  0  0  0  0  0  0  0  0  0  0
    2.0560    4.3150    0.0000 C   0  0  0  0  0  0  0  0  0  0  0  0
    1.5060    1.2310    0.0000 C   0  0  0  0  0  0  0  0  0  0  0  0
    1.6720   -0.2600    0.0000 C   0  0  0  0  0  0  0  0  0  0  0  0
    3.1410   -0.5630    0.0000 C   0  0  1  0  0  0  0  0  0  0  0  0
    2.2670   -1.7820    0.0000 C   0  0  0  0  0  0  0  0  0  0  0  0
    3.8990   -1.8580    0.0000 C   0  0  0  0  0  0  0  0  0  0  0  0
    5.3990   -1.8490    0.0000 C   0  0  0  0  0  0  0  0  0  0  0  0
    6.1260    2.0530    0.0000 C   0  0  0  0  0  0  0  0  0  0  0  0
    7.6260    2.0620    0.0000 C   0  0  0  0  0  0  0  0  0  0  0  0
    8.3990   -1.8310    0.0000 C   0  0  0  0  0  0  0  0  0  0  0  0
    9.8990   -1.8220    0.0000 C   0  0  0  0  0  0  0  0  0  0  0  0
   10.6260    2.0800    0.0000 C   0  0  0  0  0  0  0  0  0  0  0  0
   12.1260    2.0880    0.0000 C   0  0  0  0  0  0  0  0  0  0  0  0
  2  1  1  6  0  0  0
  2  3  1  0  0  0  0
  2 31  1  0  0  0  0
  3  4  1  0  0  0  0
  3  5  1  0  0  0  0
  3  6  1  0  0  0  0
  6  7  1  0  0  0  0
  6 29  1  6  0  0  0
  7  8  1  6  0  0  0
  7  9  1  0  0  0  0
  7 30  1  0  0  0  0
  9 10  1  0  0  0  0
  9 27  1  6  0  0  0
 10 11  1  6  0  0  0
 10 12  1  0  0  0  0
 10 28  1  0  0  0  0
 12 13  1  1  0  0  0
 12 14  1  0  0  0  0
 12 25  1  0  0  0  0
 14 15  1  0  0  0  0
 14 26  1  1  0  0  0
 15 16  1  6  0  0  0
 15 22  1  0  0  0  0
 16 17  1  1  0  0  0
 16 20  1  0  0  0  0
 17 18  2  0  0  0  0
 17 19  1  0  0  0  0
 20 21  1  0  0  0  0
 21 22  1  0  0  0  0
 22 23  1  6  0  0  0
 22 24  1  0  0  0  0
 24 25  1  0  0  0  0
 26 27  1  0  0  0  0
 28 29  1  0  0  0  0
 30 31  1  0  0  0  0
M  END
>  <name>
[O;ester][C@@H]1C(C)(C)[C@H]2[C@@](C)([C@@H]3[C@](C)([C@@]4(C)[C@@H]([C@H]5[C@H](C(=C)C)CC[C@]5(C)CC4)CC3)CC2)CC1

>  <apo>
1

>  <freq>
1

>  <freq0>
0

>  <freq1>
1

>  <freqA>
0.9949851

$$$$

  MOE2015           2D

 24 27  0  0  1  0  0  0  0  0999 V2000
   -0.0010    0.0440    0.0000 O   0  0  0  0  0  0  0  0  0  0  0  0
    1.4990    0.0350    0.0000 C   0  0  2  0  0  0  0  0  0  0  0  0
    2.2570    1.3290    0.0000 C   0  0  0  0  0  0  0  0  0  0  0  0
    3.7570    1.3200    0.0000 C   0  0  0  0  0  0  0  0  0  0  0  0
    4.4990    0.0160    0.0000 C   0  0  1  0  0  0  0  0  0  0  0  0
    5.2860   -1.2610    0.0000 C   0  0  0  0  0  0  0  0  0  0  0  0
    5.9990    0.0070    0.0000 C   0  0  2  0  0  0  0  0  0  0  0  0
    6.7570    1.3010    0.0000 C   0  0  2  0  0  0  0  0  0  0  0  0
    8.2570    1.2910    0.0000 C   0  0  1  0  0  0  0  0  0  0  0  0
    8.9990   -0.0120    0.0000 C   0  0  1  0  0  0  0  0  0  0  0  0
    9.8940   -1.2160    0.0000 C   0  0  0  0  0  0  0  0  0  0  0  0
   10.4680    0.2900    0.0000 C   0  0  1  0  0  0  0  0  0  0  0  0
   11.5770   -0.7200    0.0000 C   0  0  1  0  0  0  0  0  0  0  0  0
   13.0060   -0.2660    0.0000 C   0  0  0  0  0  0  0  0  0  0  0  0
   14.1150   -1.2760    0.0000 C   0  0  0  0  0  0  0  0  0  0  0  0
   11.2560   -2.1850    0.0000 C   0  0  0  0  0  0  0  0  0  0  0  0
   10.6340    1.7810    0.0000 C   0  0  0  0  0  0  0  0  0  0  0  0
    9.2680    2.4000    0.0000 C   0  0  0  0  0  0  0  0  0  0  0  0
    8.2410   -1.3070    0.0000 C   0  0  0  0  0  0  0  0  0  0  0  0
    6.7410   -1.2970    0.0000 C   0  0  0  0  0  0  0  0  0  0  0  0
    6.0160    2.6050    0.0000 C   0  0  0  0  0  0  0  0  0  0  0  0
    4.5160    2.6140    0.0000 C   0  0  0  0  0  0  0  0  0  0  0  0
    3.7410   -1.2780    0.0000 C   0  0  0  0  0  0  0  0  0  0  0  0
    2.2410   -1.2690    0.0000 C   0  0  0  0  0  0  0  0  0  0  0  0
  2  1  1  6  0  0  0
  2  3  1  0  0  0  0
  2 24  1  0  0  0  0
  3  4  1  0  0  0  0
  4  5  1  0  0  0  0
  4 22  2  0  0  0  0
  5  6  1  6  0  0  0
  5  7  1  0  0  0  0
  5 23  1  0  0  0  0
  7  8  1  0  0  0  0
  7 20  1  6  0  0  0
  8  9  1  0  0  0  0
  8 21  1  1  0  0  0
  9 10  1  0  0  0  0
  9 18  1  6  0  0  0
 10 11  1  6  0  0  0
 10 12  1  0  0  0  0
 10 19  1  0  0  0  0
 12 13  1  0  0  0  0
 12 17  1  6  0  0  0
 13 14  1  0  0  0  0
 13 16  1  1  0  0  0
 14 15  1  0  0  0  0
 17 18  1  0  0  0  0
 19 20  1  0  0  0  0
 21 22  1  0  0  0  0
 23 24  1  0  0  0  0
M  END
>  <name>
[O;ester][C@@H]1CC=2[C@@](C)([C@@H]3[C@H]([C@H]4[C@@](C)([C@@H]([C@@H](C[C;olefin])C)CC4)CC3)CC=2)CC1

>  <apo>
2

>  <freq>
1

>  <freq0>
0

>  <freq1>
1

>  <freqA>
0.9949851

$$$$

  MOE2015           2D

  8  8  0  0  1  0  0  0  0  0999 V2000
    5.4110   -0.8000    0.0000 O   0  0  0  0  0  0  0  0  0  0  0  0
    4.1120   -0.0500    0.0000 C   0  0  2  0  0  0  0  0  0  0  0  0
    2.8120   -0.8000    0.0000 C   0  0  0  0  0  0  0  0  0  0  0  0
    1.5130   -0.0500    0.0000 C   0  0  1  0  0  0  0  0  0  0  0  0
    0.2140   -0.8000    0.0000 O   0  0  0  0  0  0  0  0  0  0  0  0
    1.5130    1.4500    0.0000 C   0  0  0  0  0  0  0  0  0  0  0  0
    2.8120    2.2000    0.0000 O   0  0  0  0  0  0  0  0  0  0  0  0
    4.1120    1.4500    0.0000 C   0  0  0  0  0  0  0  0  0  0  0  0
  2  1  1  6  0  0  0
  2  3  1  0  0  0  0
  2  8  1  0  0  0  0
  3  4  1  0  0  0  0
  4  5  1  1  0  0  0
  4  6  1  0  0  0  0
  6  7  1  0  0  0  0
  7  8  1  0  0  0  0
M  END
>  <name>
[O;ester][C@@H]1[C;ether][C@@H](O)[C;ether]O[C;ether]1

>  <apo>
4

>  <freq>
1

>  <freq0>
0

>  <freq1>
1

>  <freqA>
0.9949851

$$$$

  MOE2015           2D

 22 24  0  0  1  0  0  0  0  0999 V2000
    2.7610   -4.1920    0.0000 O   0  0  0  0  0  0  0  0  0  0  0  0
    2.0110   -2.8930    0.0000 C   0  0  2  0  0  0  0  0  0  0  0  0
    2.7610   -1.5940    0.0000 C   0  0  1  0  0  0  0  0  0  0  0  0
    4.2610   -1.5940    0.0000 C   0  0  0  0  0  0  0  0  0  0  0  0
    5.0110   -0.2950    0.0000 C   0  0  0  0  0  0  0  0  0  0  0  0
    6.5110   -0.2950    0.0000 C   0  0  0  0  0  0  0  0  0  0  0  0
    7.2610    1.0040    0.0000 O   0  0  0  0  0  0  0  0  0  0  0  0
    7.2610   -1.5940    0.0000 C   0  0  0  0  0  0  0  0  0  0  0  0
    8.7610   -1.5940    0.0000 O   0  0  0  0  0  0  0  0  0  0  0  0
    6.5110   -2.8930    0.0000 C   0  0  0  0  0  0  0  0  0  0  0  0
    7.2610   -4.1920    0.0000 O   0  0  0  0  0  0  0  0  0  0  0  0
    5.0110   -2.8930    0.0000 C   0  0  0  0  0  0  0  0  0  0  0  0
    2.0110   -0.2950    0.0000 O   0  0  0  0  0  0  0  0  0  0  0  0
    0.5110   -0.2950    0.0000 C   0  0  0  0  0  0  0  0  0  0  0  0
   -0.2390   -1.5940    0.0000 C   0  0  0  0  0  0  0  0  0  0  0  0
   -1.7390   -1.5940    0.0000 C   0  0  0  0  0  0  0  0  0  0  0  0
   -2.4890   -2.8930    0.0000 O   0  0  0  0  0  0  0  0  0  0  0  0
   -2.4890   -0.2950    0.0000 C   0  0  0  0  0  0  0  0  0  0  0  0
   -1.7390    1.0040    0.0000 C   0  0  0  0  0  0  0  0  0  0  0  0
   -2.4890    2.3030    0.0000 O   0  0  0  0  0  0  0  0  0  0  0  0
   -0.2390    1.0040    0.0000 C   0  0  0  0  0  0  0  0  0  0  0  0
    0.5110   -2.8930    0.0000 C   0  0  0  0  0  0  0  0  0  0  0  0
  2  1  1  1  0  0  0
  2  3  1  0  0  0  0
  2 22  1  0  0  0  0
  3  4  1  6  0  0  0
  3 13  1  0  0  0  0
  4  5  2  0  0  0  0
  4 12  1  0  0  0  0
  5  6  1  0  0  0  0
  6  7  1  0  0  0  0
  6  8  2  0  0  0  0
  8  9  1  0  0  0  0
  8 10  1  0  0  0  0
 10 11  1  0  0  0  0
 10 12  2  0  0  0  0
 13 14  1  0  0  0  0
 14 15  2  0  0  0  0
 14 21  1  0  0  0  0
 15 16  1  0  0  0  0
 15 22  1  0  0  0  0
 16 17  1  0  0  0  0
 16 18  2  0  0  0  0
 18 19  1  0  0  0  0
 19 20  1  0  0  0  0
 19 21  2  0  0  0  0
M  END
>  <name>
[O;ester][C@@H]1[C@@H](c2cc(O)c(O)c(O)c2)Oc2c(c(O)cc(O)c2)C1

>  <apo>
1

>  <freq>
1

>  <freq0>
0

>  <freq1>
1

>  <freqA>
0.9949851

$$$$

  MOE2015           2D

 12 13  0  0  1  0  0  0  0  0999 V2000
    6.4950   -0.1820    0.0000 O   0  0  0  0  0  0  0  0  0  0  0  0
    4.9980   -0.0980    0.0000 C   0  0  2  0  0  0  0  0  0  0  0  0
    3.7580    0.9630    0.0000 C   0  0  1  0  0  0  0  0  0  0  0  0
    5.1050    1.6220    0.0000 C   0  0  0  0  0  0  0  0  0  0  0  0
    3.7230    2.4340    0.0000 O   0  0  0  0  0  0  0  0  0  0  0  0
    2.6210    1.5910    0.0000 C   0  0  0  0  0  0  0  0  0  0  0  0
    1.1260    1.4590    0.0000 C   0  0  0  0  0  0  0  0  0  0  0  0
    1.7170    2.7880    0.0000 C   0  0  0  0  0  0  0  0  0  0  0  0
    2.6720    0.1450    0.0000 C   0  0  1  0  0  0  0  0  0  0  0  0
    3.8710   -0.8620    0.0000 C   0  0  0  0  0  0  0  0  0  0  0  0
    1.2060   -0.4970    0.0000 C   0  0  0  0  0  0  0  0  0  0  0  0
    1.9830    0.3720    0.0000 C   0  0  0  0  0  0  0  0  0  0  0  0
  2  1  1  1  0  0  0
  2  3  1  0  0  0  0
  2 10  1  0  0  0  0
  3  4  1  1  0  0  0
  3  5  1  0  0  0  0
  3 12  1  0  0  0  0
  5  6  1  0  0  0  0
  6  7  1  0  0  0  0
  6  8  1  0  0  0  0
  9  6  1  1  0  0  0
  9 10  1  0  0  0  0
  9 11  1  0  0  0  0
 11 12  1  0  0  0  0
M  END
>  <name>
[O;ester][C@@H]1[C@@]2(C)OC(C)(C)[C@@H](C1)CC2

>  <apo>
1

>  <freq>
1

>  <freq0>
0

>  <freq1>
1

>  <freqA>
0.9949851

$$$$

  MOE2015           2D

  9  9  0  0  1  0  0  0  0  0999 V2000
    0.0690   -0.2560    0.0000 O   0  0  0  0  0  0  0  0  0  0  0  0
    1.3680    0.4940    0.0000 C   0  0  1  0  0  0  0  0  0  0  0  0
    2.6670   -0.2560    0.0000 C   0  0  0  0  0  0  0  0  0  0  0  0
    2.6670   -1.7560    0.0000 O   0  0  0  0  0  0  0  0  0  0  0  0
    3.9660    0.4940    0.0000 C   0  0  1  0  0  0  0  0  0  0  0  0
    5.2650   -0.2560    0.0000 O   0  0  0  0  0  0  0  0  0  0  0  0
    3.9660    1.9940    0.0000 C   0  0  0  0  0  0  0  0  0  0  0  0
    2.6670    2.7440    0.0000 O   0  0  0  0  0  0  0  0  0  0  0  0
    1.3680    1.9940    0.0000 C   0  0  0  0  0  0  0  0  0  0  0  0
  2  1  1  6  0  0  0
  2  3  1  0  0  0  0
  2  9  1  0  0  0  0
  3  4  1  0  0  0  0
  3  5  1  0  0  0  0
  5  6  1  6  0  0  0
  5  7  1  0  0  0  0
  7  8  1  0  0  0  0
  8  9  1  0  0  0  0
M  END
>  <name>
[O;ester][C@H]1C(O)[C@@H](O)[C;ether]O[C;ether]1

>  <apo>
3

>  <freq>
1

>  <freq0>
0

>  <freq1>
1

>  <freqA>
0.9949851

$$$$

  MOE2015           2D

 19 20  0  0  1  0  0  0  0  0999 V2000
   -0.0200   -2.5230    0.0000 O   0  0  0  0  0  0  0  0  0  0  0  0
    1.2790   -1.7730    0.0000 C   0  0  1  0  0  0  0  0  0  0  0  0
    1.2790   -0.2730    0.0000 C   0  0  0  0  0  0  0  0  0  0  0  0
    2.5780    0.4770    0.0000 C   0  0  1  0  0  0  0  0  0  0  0  0
    2.5780    1.9770    0.0000 C   0  0  0  0  0  0  0  0  0  0  0  0
    1.2790    2.7270    0.0000 C   0  0  0  0  0  0  0  0  0  0  0  0
    3.8770   -0.2730    0.0000 O   0  0  0  0  0  0  0  0  0  0  0  0
    3.8770   -1.7730    0.0000 C   0  0  1  0  0  0  0  0  0  0  0  0
    5.1760   -1.0230    0.0000 O   0  0  0  0  0  0  0  0  0  0  0  0
    6.4750   -1.7730    0.0000 C   0  0  2  0  0  0  0  0  0  0  0  0
    7.7740   -1.0230    0.0000 C   0  0  2  0  0  0  0  0  0  0  0  0
    9.0730   -1.7730    0.0000 C   0  0  0  0  0  0  0  0  0  0  0  0
   10.3720   -1.0230    0.0000 C   0  0  0  0  0  0  0  0  0  0  0  0
    7.7740    0.4770    0.0000 C   0  0  0  0  0  0  0  0  0  0  0  0
    6.4750   -3.2730    0.0000 C   0  0  1  0  0  0  0  0  0  0  0  0
    7.7740   -4.0230    0.0000 C   0  0  0  0  0  0  0  0  0  0  0  0
    5.1760   -4.0230    0.0000 C   0  0  0  0  0  0  0  0  0  0  0  0
    3.8770   -3.2730    0.0000 C   0  0  0  0  0  0  0  0  0  0  0  0
    2.5780   -2.5230    0.0000 C   0  0  0  0  0  0  0  0  0  0  0  0
  2  1  1  1  0  0  0
  2  3  1  0  0  0  0
  2 19  1  0  0  0  0
  3  4  1  0  0  0  0
  4  5  1  1  0  0  0
  4  7  1  0  0  0  0
  5  6  1  0  0  0  0
  7  8  1  0  0  0  0
  8  9  1  6  0  0  0
  8 18  1  1  0  0  0
  8 19  1  0  0  0  0
 10  9  1  6  0  0  0
 10 11  1  0  0  0  0
 10 15  1  0  0  0  0
 11 12  1  0  0  0  0
 11 14  1  1  0  0  0
 12 13  1  0  0  0  0
 15 16  1  1  0  0  0
 15 17  1  0  0  0  0
 17 18  1  0  0  0  0
M  END
>  <name>
[O;ester][C@H]1C[C@@H](C[C;olefin])O[C@]2(O[C@H]([C@H](CC)C)[C@@H](C)CC2)C1

>  <apo>
2

>  <freq>
1

>  <freq0>
0

>  <freq1>
1

>  <freqA>
0.9949851

$$$$

  MOE2015           2D

 22 24  0  0  1  0  0  0  0  0999 V2000
    2.7610   -4.1920    0.0000 O   0  0  0  0  0  0  0  0  0  0  0  0
    2.0110   -2.8930    0.0000 C   0  0  1  0  0  0  0  0  0  0  0  0
    2.7610   -1.5940    0.0000 C   0  0  2  0  0  0  0  0  0  0  0  0
    4.2610   -1.5940    0.0000 C   0  0  0  0  0  0  0  0  0  0  0  0
    5.0110   -0.2950    0.0000 C   0  0  0  0  0  0  0  0  0  0  0  0
    6.5110   -0.2950    0.0000 C   0  0  0  0  0  0  0  0  0  0  0  0
    7.2610    1.0040    0.0000 O   0  0  0  0  0  0  0  0  0  0  0  0
    7.2610   -1.5940    0.0000 C   0  0  0  0  0  0  0  0  0  0  0  0
    8.7610   -1.5940    0.0000 O   0  0  0  0  0  0  0  0  0  0  0  0
    6.5110   -2.8930    0.0000 C   0  0  0  0  0  0  0  0  0  0  0  0
    7.2610   -4.1920    0.0000 O   0  0  0  0  0  0  0  0  0  0  0  0
    5.0110   -2.8930    0.0000 C   0  0  0  0  0  0  0  0  0  0  0  0
    2.0110   -0.2950    0.0000 O   0  0  0  0  0  0  0  0  0  0  0  0
    0.5110   -0.2950    0.0000 C   0  0  0  0  0  0  0  0  0  0  0  0
   -0.2390   -1.5940    0.0000 C   0  0  0  0  0  0  0  0  0  0  0  0
   -1.7390   -1.5940    0.0000 C   0  0  0  0  0  0  0  0  0  0  0  0
   -2.4890   -2.8930    0.0000 O   0  0  0  0  0  0  0  0  0  0  0  0
   -2.4890   -0.2950    0.0000 C   0  0  0  0  0  0  0  0  0  0  0  0
   -1.7390    1.0040    0.0000 C   0  0  0  0  0  0  0  0  0  0  0  0
   -2.4890    2.3030    0.0000 O   0  0  0  0  0  0  0  0  0  0  0  0
   -0.2390    1.0040    0.0000 C   0  0  0  0  0  0  0  0  0  0  0  0
    0.5110   -2.8930    0.0000 C   0  0  0  0  0  0  0  0  0  0  0  0
  2  1  1  6  0  0  0
  2  3  1  0  0  0  0
  2 22  1  0  0  0  0
  3  4  1  1  0  0  0
  3 13  1  0  0  0  0
  4  5  2  0  0  0  0
  4 12  1  0  0  0  0
  5  6  1  0  0  0  0
  6  7  1  0  0  0  0
  6  8  2  0  0  0  0
  8  9  1  0  0  0  0
  8 10  1  0  0  0  0
 10 11  1  0  0  0  0
 10 12  2  0  0  0  0
 13 14  1  0  0  0  0
 14 15  2  0  0  0  0
 14 21  1  0  0  0  0
 15 16  1  0  0  0  0
 15 22  1  0  0  0  0
 16 17  1  0  0  0  0
 16 18  2  0  0  0  0
 18 19  1  0  0  0  0
 19 20  1  0  0  0  0
 19 21  2  0  0  0  0
M  END
>  <name>
[O;ester][C@H]1[C@H](c2cc(O)c(O)c(O)c2)Oc2c(c(O)cc(O)c2)C1

>  <apo>
1

>  <freq>
1

>  <freq0>
0

>  <freq1>
1

>  <freqA>
0.9949851

$$$$

  MOE2015           2D

 21 23  0  0  1  0  0  0  0  0999 V2000
    3.2140   -4.2060    0.0000 O   0  0  0  0  0  0  0  0  0  0  0  0
    2.4640   -2.9070    0.0000 C   0  0  1  0  0  0  0  0  0  0  0  0
    3.2140   -1.6080    0.0000 C   0  0  2  0  0  0  0  0  0  0  0  0
    4.7140   -1.6080    0.0000 C   0  0  0  0  0  0  0  0  0  0  0  0
    5.4640   -0.3090    0.0000 C   0  0  0  0  0  0  0  0  0  0  0  0
    6.9640   -0.3090    0.0000 C   0  0  0  0  0  0  0  0  0  0  0  0
    7.7140    0.9900    0.0000 O   0  0  0  0  0  0  0  0  0  0  0  0
    7.7140   -1.6080    0.0000 C   0  0  0  0  0  0  0  0  0  0  0  0
    9.2140   -1.6080    0.0000 O   0  0  0  0  0  0  0  0  0  0  0  0
    6.9640   -2.9070    0.0000 C   0  0  0  0  0  0  0  0  0  0  0  0
    5.4640   -2.9070    0.0000 C   0  0  0  0  0  0  0  0  0  0  0  0
    2.4640   -0.3090    0.0000 O   0  0  0  0  0  0  0  0  0  0  0  0
    0.9640   -0.3090    0.0000 C   0  0  0  0  0  0  0  0  0  0  0  0
    0.2140   -1.6080    0.0000 C   0  0  0  0  0  0  0  0  0  0  0  0
   -1.2860   -1.6080    0.0000 C   0  0  0  0  0  0  0  0  0  0  0  0
   -2.0360   -2.9070    0.0000 O   0  0  0  0  0  0  0  0  0  0  0  0
   -2.0360   -0.3090    0.0000 C   0  0  0  0  0  0  0  0  0  0  0  0
   -1.2860    0.9900    0.0000 C   0  0  0  0  0  0  0  0  0  0  0  0
   -2.0360    2.2890    0.0000 O   0  0  0  0  0  0  0  0  0  0  0  0
    0.2140    0.9900    0.0000 C   0  0  0  0  0  0  0  0  0  0  0  0
    0.9640   -2.9070    0.0000 C   0  0  0  0  0  0  0  0  0  0  0  0
  2  1  1  6  0  0  0
  2  3  1  0  0  0  0
  2 21  1  0  0  0  0
  3  4  1  1  0  0  0
  3 12  1  0  0  0  0
  4  5  1  0  0  0  0
  4 11  2  0  0  0  0
  5  6  2  0  0  0  0
  6  7  1  0  0  0  0
  6  8  1  0  0  0  0
  8  9  1  0  0  0  0
  8 10  2  0  0  0  0
 10 11  1  0  0  0  0
 12 13  1  0  0  0  0
 13 14  2  0  0  0  0
 13 20  1  0  0  0  0
 14 15  1  0  0  0  0
 14 21  1  0  0  0  0
 15 16  1  0  0  0  0
 15 17  2  0  0  0  0
 17 18  1  0  0  0  0
 18 19  1  0  0  0  0
 18 20  2  0  0  0  0
M  END
>  <name>
[O;ester][C@H]1[C@H](c2cc(O)c(O)cc2)Oc2c(c(O)cc(O)c2)C1

>  <apo>
1

>  <freq>
1

>  <freq0>
0

>  <freq1>
1

>  <freqA>
0.9949851

$$$$

  MOE2015           2D

  9  9  0  0  0  0  0  0  0  0999 V2000
    1.3330    2.3090    0.0000 O   0  0  0  0  0  0  0  0  0  0  0  0
    2.0830    1.0100    0.0000 C   0  0  0  0  0  0  0  0  0  0  0  0
    1.3330   -0.2890    0.0000 C   0  0  0  0  0  0  0  0  0  0  0  0
   -0.1670   -0.2890    0.0000 O   0  0  0  0  0  0  0  0  0  0  0  0
    2.0830   -1.5880    0.0000 C   0  0  0  0  0  0  0  0  0  0  0  0
    3.5830   -1.5880    0.0000 C   0  0  0  0  0  0  0  0  0  0  0  0
    4.3330   -0.2890    0.0000 C   0  0  0  0  0  0  0  0  0  0  0  0
    5.8330   -0.2890    0.0000 C   0  0  0  0  0  0  0  0  0  0  0  0
    3.5830    1.0100    0.0000 C   0  0  0  0  0  0  0  0  0  0  0  0
  1  2  1  0  0  0  0
  2  3  1  0  0  0  0
  2  9  2  0  0  0  0
  3  4  1  0  0  0  0
  3  5  2  0  0  0  0
  5  6  1  0  0  0  0
  6  7  2  0  0  0  0
  7  8  1  0  0  0  0
  7  9  1  0  0  0  0
M  END
>  <name>
[O;ester]c1c([O;ester])ccc([C;olefin])c1

>  <apo>
3

>  <freq>
1

>  <freq0>
0

>  <freq1>
1

>  <freqA>
0.9949851

$$$$

  MOE2015           2D

  8  8  0  0  0  0  0  0  0  0999 V2000
    0.0000    0.0000    0.0000 O   0  0  0  0  0  0  0  0  0  0  0  0
    1.5000    0.0000    0.0000 C   0  0  0  0  0  0  0  0  0  0  0  0
    2.2500   -1.2990    0.0000 C   0  0  0  0  0  0  0  0  0  0  0  0
    3.7500   -1.2990    0.0000 C   0  0  0  0  0  0  0  0  0  0  0  0
    4.5000    0.0000    0.0000 C   0  0  0  0  0  0  0  0  0  0  0  0
    6.0000    0.0000    0.0000 C   0  0  0  0  0  0  0  0  0  0  0  0
    3.7500    1.2990    0.0000 C   0  0  0  0  0  0  0  0  0  0  0  0
    2.2500    1.2990    0.0000 C   0  0  0  0  0  0  0  0  0  0  0  0
  1  2  1  0  0  0  0
  2  3  1  0  0  0  0
  2  8  2  0  0  0  0
  3  4  2  0  0  0  0
  4  5  1  0  0  0  0
  5  6  1  0  0  0  0
  5  7  2  0  0  0  0
  7  8  1  0  0  0  0
M  END
>  <name>
[O;ester]c1ccc([C;olefin])cc1

>  <apo>
2

>  <freq>
1

>  <freq0>
0

>  <freq1>
1

>  <freqA>
0.9949851

$$$$

  MOE2015           2D

  9  9  0  0  0  0  0  0  0  0999 V2000
    2.7500    3.0310    0.0000 O   0  0  0  0  0  0  0  0  0  0  0  0
    2.0000    1.7320    0.0000 C   0  0  0  0  0  0  0  0  0  0  0  0
    2.7500    0.4330    0.0000 C   0  0  0  0  0  0  0  0  0  0  0  0
    4.2500    0.4330    0.0000 C   0  0  0  0  0  0  0  0  0  0  0  0
    5.7500    0.4330    0.0000 N   0  0  0  0  0  0  0  0  0  0  0  0
    2.0000   -0.8660    0.0000 C   0  0  0  0  0  0  0  0  0  0  0  0
    0.5000   -0.8660    0.0000 C   0  0  0  0  0  0  0  0  0  0  0  0
   -0.2500    0.4330    0.0000 C   0  0  0  0  0  0  0  0  0  0  0  0
    0.5000    1.7320    0.0000 C   0  0  0  0  0  0  0  0  0  0  0  0
  1  2  1  0  0  0  0
  2  3  1  0  0  0  0
  2  9  2  0  0  0  0
  3  4  1  0  0  0  0
  3  6  2  0  0  0  0
  4  5  3  0  0  0  0
  6  7  1  0  0  0  0
  7  8  2  0  0  0  0
  8  9  1  0  0  0  0
M  END
>  <name>
[O;ether]c1c(C#N)c[c;biphenyl]cc1

>  <apo>
2

>  <freq>
1

>  <freq0>
0

>  <freq1>
1

>  <freqA>
0.9949851

$$$$

  MOE2015           2D

  9  9  0  0  0  0  0  0  0  0999 V2000
    2.3330   -2.3330    0.0000 O   0  0  0  0  0  0  0  0  0  0  0  0
    2.3330   -0.8330    0.0000 C   0  0  0  0  0  0  0  0  0  0  0  0
    3.6320   -0.0830    0.0000 C   0  0  0  0  0  0  0  0  0  0  0  0
    4.9310   -0.8330    0.0000 C   0  0  0  0  0  0  0  0  0  0  0  0
    3.6320    1.4170    0.0000 C   0  0  0  0  0  0  0  0  0  0  0  0
    2.3330    2.1670    0.0000 C   0  0  0  0  0  0  0  0  0  0  0  0
    1.0340    1.4170    0.0000 C   0  0  0  0  0  0  0  0  0  0  0  0
    1.0340   -0.0830    0.0000 C   0  0  0  0  0  0  0  0  0  0  0  0
   -0.2650   -0.8330    0.0000 C   0  0  0  0  0  0  0  0  0  0  0  0
  1  2  1  0  0  0  0
  2  3  1  0  0  0  0
  2  8  2  0  0  0  0
  3  4  1  0  0  0  0
  3  5  2  0  0  0  0
  5  6  1  0  0  0  0
  6  7  2  0  0  0  0
  7  8  1  0  0  0  0
  8  9  1  0  0  0  0
M  END
>  <name>
[O;ether]c1c(C)cccc1C

>  <apo>
1

>  <freq>
1

>  <freq0>
0

>  <freq1>
1

>  <freqA>
0.9949851

$$$$

  MOE2015           2D

 10 11  0  0  0  0  0  0  0  0999 V2000
   -0.0220   -2.2100    0.0000 O   0  0  0  0  0  0  0  0  0  0  0  0
    1.0920   -1.2060    0.0000 C   0  0  0  0  0  0  0  0  0  0  0  0
    2.5600   -1.5180    0.0000 C   0  0  0  0  0  0  0  0  0  0  0  0
    3.3100   -0.2190    0.0000 C   0  0  0  0  0  0  0  0  0  0  0  0
    2.3060    0.8960    0.0000 N   0  0  0  0  0  0  0  0  0  0  0  0
    0.9360    0.2860    0.0000 C   0  0  0  0  0  0  0  0  0  0  0  0
    4.8100   -0.2190    0.0000 C   0  0  0  0  0  0  0  0  0  0  0  0
    5.5600   -1.5180    0.0000 C   0  0  0  0  0  0  0  0  0  0  0  0
    4.8100   -2.8170    0.0000 C   0  0  0  0  0  0  0  0  0  0  0  0
    3.3100   -2.8170    0.0000 C   0  0  0  0  0  0  0  0  0  0  0  0
  1  2  1  0  0  0  0
  2  3  1  0  0  0  0
  2  6  2  0  0  0  0
  3  4  1  0  0  0  0
  3 10  2  0  0  0  0
  4  5  1  0  0  0  0
  4  7  2  0  0  0  0
  5  6  1  0  0  0  0
  7  8  1  0  0  0  0
  8  9  2  0  0  0  0
  9 10  1  0  0  0  0
M  END
>  <name>
[O;ether]c1c2c([nH]c1)cccc2

>  <apo>
1

>  <freq>
1

>  <freq0>
0

>  <freq1>
1

>  <freqA>
0.9949851

$$$$

  MOE2015           2D

  9  9  0  0  0  0  0  0  0  0999 V2000
    5.5980   -1.5000    0.0000 O   0  0  0  0  0  0  0  0  0  0  0  0
    4.2990   -0.7500    0.0000 C   0  0  0  0  0  0  0  0  0  0  0  0
    4.2990    0.7500    0.0000 C   0  0  0  0  0  0  0  0  0  0  0  0
    3.0000    1.5000    0.0000 C   0  0  0  0  0  0  0  0  0  0  0  0
    3.0000    3.0000    0.0000 O   0  0  0  0  0  0  0  0  0  0  0  0
    1.7010    0.7500    0.0000 C   0  0  0  0  0  0  0  0  0  0  0  0
    1.7010   -0.7500    0.0000 C   0  0  0  0  0  0  0  0  0  0  0  0
    0.4020   -1.5000    0.0000 O   0  0  0  0  0  0  0  0  0  0  0  0
    3.0000   -1.5000    0.0000 C   0  0  0  0  0  0  0  0  0  0  0  0
  1  2  1  0  0  0  0
  2  3  1  0  0  0  0
  2  9  2  0  0  0  0
  3  4  2  0  0  0  0
  4  5  1  0  0  0  0
  4  6  1  0  0  0  0
  6  7  2  0  0  0  0
  7  8  1  0  0  0  0
  7  9  1  0  0  0  0
M  END
>  <name>
[O;ether]c1cc(O)cc(O)c1

>  <apo>
1

>  <freq>
1

>  <freq0>
0

>  <freq1>
1

>  <freqA>
0.9949851

$$$$

  MOE2015           2D

  8  8  0  0  0  0  0  0  0  0999 V2000
    5.4110   -0.8000    0.0000 O   0  0  0  0  0  0  0  0  0  0  0  0
    4.1120   -0.0500    0.0000 C   0  0  0  0  0  0  0  0  0  0  0  0
    2.8120   -0.8000    0.0000 C   0  0  0  0  0  0  0  0  0  0  0  0
    1.5130   -0.0500    0.0000 C   0  0  0  0  0  0  0  0  0  0  0  0
    0.2140   -0.8000    0.0000 C   0  0  0  0  0  0  0  0  0  0  0  0
    1.5130    1.4500    0.0000 C   0  0  0  0  0  0  0  0  0  0  0  0
    2.8120    2.2000    0.0000 C   0  0  0  0  0  0  0  0  0  0  0  0
    4.1120    1.4500    0.0000 C   0  0  0  0  0  0  0  0  0  0  0  0
  1  2  1  0  0  0  0
  2  3  1  0  0  0  0
  2  8  2  0  0  0  0
  3  4  2  0  0  0  0
  4  5  1  0  0  0  0
  4  6  1  0  0  0  0
  6  7  2  0  0  0  0
  7  8  1  0  0  0  0
M  END
>  <name>
[O;ether]c1cc([C;olefin])ccc1

>  <apo>
2

>  <freq>
1

>  <freq0>
0

>  <freq1>
1

>  <freqA>
0.9949851

$$$$
