5,6-Dihydroergosterol
  -OEChem-12152007013D

 75 78  0     1  0  0  0  0  0999 V2000
   -8.3075   -0.0927    0.2202 O   0  0  0  0  0  0  0  0  0  0  0  0
    0.4050   -0.3089   -0.1274 C   0  0  1  0  0  0  0  0  0  0  0  0
   -0.3512    0.8885    0.4856 C   0  0  2  0  0  0  0  0  0  0  0  0
   -2.5512   -0.4074    0.4390 C   0  0  2  0  0  0  0  0  0  0  0  0
   -4.0316   -0.4425   -0.1173 C   0  0  2  0  0  0  0  0  0  0  0  0
    1.8241   -0.0367    0.4295 C   0  0  2  0  0  0  0  0  0  0  0  0
   -1.8145    0.9026    0.1213 C   0  0  0  0  0  0  0  0  0  0  0  0
   -0.2393   -1.5970    0.4113 C   0  0  0  0  0  0  0  0  0  0  0  0
   -1.7310   -1.6716    0.0489 C   0  0  0  0  0  0  0  0  0  0  0  0
   -4.6784    0.9450    0.1823 C   0  0  1  0  0  0  0  0  0  0  0  0
    0.5713    2.0751    0.1893 C   0  0  0  0  0  0  0  0  0  0  0  0
    1.9918    1.4925    0.2934 C   0  0  0  0  0  0  0  0  0  0  0  0
   -4.8475   -1.5397    0.6200 C   0  0  0  0  0  0  0  0  0  0  0  0
   -3.9329    2.0766   -0.5410 C   0  0  0  0  0  0  0  0  0  0  0  0
    0.3921   -0.3094   -1.6763 C   0  0  0  0  0  0  0  0  0  0  0  0
   -2.4487    1.9921   -0.3465 C   0  0  0  0  0  0  0  0  0  0  0  0
    2.9636   -0.8168   -0.2110 C   0  0  2  0  0  0  0  0  0  0  0  0
   -6.1828    0.9983   -0.1170 C   0  0  0  0  0  0  0  0  0  0  0  0
   -4.0515   -0.7463   -1.6398 C   0  0  0  0  0  0  0  0  0  0  0  0
   -6.3443   -1.4881    0.3154 C   0  0  0  0  0  0  0  0  0  0  0  0
   -6.9377   -0.1142    0.6076 C   0  0  2  0  0  0  0  0  0  0  0  0
    2.7478   -2.3237   -0.0531 C   0  0  0  0  0  0  0  0  0  0  0  0
    4.2834   -0.4174    0.4030 C   0  0  0  0  0  0  0  0  0  0  0  0
    5.2946    0.1284   -0.2904 C   0  0  0  0  0  0  0  0  0  0  0  0
    6.6126    0.5410    0.3276 C   0  0  1  0  0  0  0  0  0  0  0  0
    7.8024   -0.2352   -0.3057 C   0  0  0  0  0  0  0  0  0  0  0  0
    6.7550    2.0599    0.1745 C   0  0  0  0  0  0  0  0  0  0  0  0
    7.6588   -1.7527   -0.1378 C   0  0  0  0  0  0  0  0  0  0  0  0
    9.1474    0.2004    0.2943 C   0  0  0  0  0  0  0  0  0  0  0  0
   -0.3407    0.7774    1.5835 H   0  0  0  0  0  0  0  0  0  0  0  0
   -2.6191   -0.4230    1.5383 H   0  0  0  0  0  0  0  0  0  0  0  0
    1.8161   -0.2595    1.5086 H   0  0  0  0  0  0  0  0  0  0  0  0
   -0.1388   -1.6457    1.5032 H   0  0  0  0  0  0  0  0  0  0  0  0
    0.2205   -2.5017    0.0142 H   0  0  0  0  0  0  0  0  0  0  0  0
   -1.8022   -1.8656   -1.0255 H   0  0  0  0  0  0  0  0  0  0  0  0
   -2.1601   -2.5502    0.5449 H   0  0  0  0  0  0  0  0  0  0  0  0
   -4.5743    1.1279    1.2639 H   0  0  0  0  0  0  0  0  0  0  0  0
    0.4222    2.8946    0.9004 H   0  0  0  0  0  0  0  0  0  0  0  0
    0.4103    2.4777   -0.8173 H   0  0  0  0  0  0  0  0  0  0  0  0
    2.5650    1.7736   -0.5976 H   0  0  0  0  0  0  0  0  0  0  0  0
    2.5156    1.9030    1.1641 H   0  0  0  0  0  0  0  0  0  0  0  0
   -4.7136   -1.4292    1.7042 H   0  0  0  0  0  0  0  0  0  0  0  0
   -4.4728   -2.5375    0.3631 H   0  0  0  0  0  0  0  0  0  0  0  0
   -4.2814    3.0386   -0.1449 H   0  0  0  0  0  0  0  0  0  0  0  0
   -4.1545    2.0804   -1.6145 H   0  0  0  0  0  0  0  0  0  0  0  0
   -0.6205   -0.2230   -2.0823 H   0  0  0  0  0  0  0  0  0  0  0  0
    0.9668    0.5218   -2.0975 H   0  0  0  0  0  0  0  0  0  0  0  0
    0.8164   -1.2343   -2.0795 H   0  0  0  0  0  0  0  0  0  0  0  0
   -1.8957    2.9042   -0.5499 H   0  0  0  0  0  0  0  0  0  0  0  0
    3.0101   -0.6009   -1.2859 H   0  0  0  0  0  0  0  0  0  0  0  0
   -6.5928    1.9676    0.1954 H   0  0  0  0  0  0  0  0  0  0  0  0
   -6.3757    0.9455   -1.1954 H   0  0  0  0  0  0  0  0  0  0  0  0
   -5.0305   -0.5588   -2.0895 H   0  0  0  0  0  0  0  0  0  0  0  0
   -3.3232   -0.1422   -2.1900 H   0  0  0  0  0  0  0  0  0  0  0  0
   -3.8212   -1.7985   -1.8400 H   0  0  0  0  0  0  0  0  0  0  0  0
   -6.5329   -1.7672   -0.7286 H   0  0  0  0  0  0  0  0  0  0  0  0
   -6.8685   -2.2445    0.9128 H   0  0  0  0  0  0  0  0  0  0  0  0
   -6.9060    0.0713    1.6877 H   0  0  0  0  0  0  0  0  0  0  0  0
    2.3940   -2.5919    0.9479 H   0  0  0  0  0  0  0  0  0  0  0  0
    3.6891   -2.8653   -0.2124 H   0  0  0  0  0  0  0  0  0  0  0  0
    2.0629   -2.7138   -0.8091 H   0  0  0  0  0  0  0  0  0  0  0  0
    4.4023   -0.5873    1.4709 H   0  0  0  0  0  0  0  0  0  0  0  0
   -8.3507   -0.2571   -0.7373 H   0  0  0  0  0  0  0  0  0  0  0  0
    5.1778    0.2989   -1.3584 H   0  0  0  0  0  0  0  0  0  0  0  0
    6.5920    0.3204    1.4038 H   0  0  0  0  0  0  0  0  0  0  0  0
    7.8351   -0.0220   -1.3828 H   0  0  0  0  0  0  0  0  0  0  0  0
    7.5950    2.4419    0.7630 H   0  0  0  0  0  0  0  0  0  0  0  0
    5.8569    2.5783    0.5308 H   0  0  0  0  0  0  0  0  0  0  0  0
    6.9138    2.3440   -0.8718 H   0  0  0  0  0  0  0  0  0  0  0  0
    8.5256   -2.2747   -0.5578 H   0  0  0  0  0  0  0  0  0  0  0  0
    7.5794   -2.0276    0.9196 H   0  0  0  0  0  0  0  0  0  0  0  0
    6.7735   -2.1331   -0.6568 H   0  0  0  0  0  0  0  0  0  0  0  0
    9.1483    0.0934    1.3843 H   0  0  0  0  0  0  0  0  0  0  0  0
    9.9668   -0.4071   -0.1053 H   0  0  0  0  0  0  0  0  0  0  0  0
    9.3762    1.2419    0.0494 H   0  0  0  0  0  0  0  0  0  0  0  0
  1 21  1  0  0  0  0
  1 63  1  0  0  0  0
  2  3  1  0  0  0  0
  2  6  1  0  0  0  0
  2  8  1  0  0  0  0
  2 15  1  0  0  0  0
  3  7  1  0  0  0  0
  3 11  1  0  0  0  0
  3 30  1  0  0  0  0
  4  5  1  0  0  0  0
  4  7  1  0  0  0  0
  4  9  1  0  0  0  0
  4 31  1  0  0  0  0
  5 10  1  0  0  0  0
  5 13  1  0  0  0  0
  5 19  1  0  0  0  0
  6 12  1  0  0  0  0
  6 17  1  0  0  0  0
  6 32  1  0  0  0  0
  7 16  2  0  0  0  0
  8  9  1  0  0  0  0
  8 33  1  0  0  0  0
  8 34  1  0  0  0  0
  9 35  1  0  0  0  0
  9 36  1  0  0  0  0
 10 14  1  0  0  0  0
 10 18  1  0  0  0  0
 10 37  1  0  0  0  0
 11 12  1  0  0  0  0
 11 38  1  0  0  0  0
 11 39  1  0  0  0  0
 12 40  1  0  0  0  0
 12 41  1  0  0  0  0
 13 20  1  0  0  0  0
 13 42  1  0  0  0  0
 13 43  1  0  0  0  0
 14 16  1  0  0  0  0
 14 44  1  0  0  0  0
 14 45  1  0  0  0  0
 15 46  1  0  0  0  0
 15 47  1  0  0  0  0
 15 48  1  0  0  0  0
 16 49  1  0  0  0  0
 17 22  1  0  0  0  0
 17 23  1  0  0  0  0
 17 50  1  0  0  0  0
 18 21  1  0  0  0  0
 18 51  1  0  0  0  0
 18 52  1  0  0  0  0
 19 53  1  0  0  0  0
 19 54  1  0  0  0  0
 19 55  1  0  0  0  0
 20 21  1  0  0  0  0
 20 56  1  0  0  0  0
 20 57  1  0  0  0  0
 21 58  1  0  0  0  0
 22 59  1  0  0  0  0
 22 60  1  0  0  0  0
 22 61  1  0  0  0  0
 23 24  2  0  0  0  0
 23 62  1  0  0  0  0
 24 25  1  0  0  0  0
 24 64  1  0  0  0  0
 25 26  1  0  0  0  0
 25 27  1  0  0  0  0
 25 65  1  0  0  0  0
 26 28  1  0  0  0  0
 26 29  1  0  0  0  0
 26 66  1  0  0  0  0
 27 67  1  0  0  0  0
 27 68  1  0  0  0  0
 27 69  1  0  0  0  0
 28 70  1  0  0  0  0
 28 71  1  0  0  0  0
 28 72  1  0  0  0  0
 29 73  1  0  0  0  0
 29 74  1  0  0  0  0
 29 75  1  0  0  0  0
M  END
> <PUBCHEM_COMPOUND_CID>
13889661

> <PUBCHEM_CONFORMER_RMSD>
0.8

> <PUBCHEM_CONFORMER_DIVERSEORDER>
1
23
16
25
10
6
12
15
20
9
17
18
22
4
7
11
2
5
24
21
8
3
13
19
14

> <PUBCHEM_MMFF94_PARTIAL_CHARGES>
15
1 -0.68
14 0.14
16 -0.29
17 0.14
21 0.28
23 -0.29
24 -0.29
25 0.14
3 0.14
4 0.14
49 0.15
62 0.15
63 0.4
64 0.15
7 -0.28

> <PUBCHEM_EFFECTIVE_ROTOR_COUNT>
6

> <PUBCHEM_PHARMACOPHORE_FEATURES>
9
1 1 acceptor
1 1 donor
1 22 hydrophobe
1 27 hydrophobe
3 26 28 29 hydrophobe
5 2 3 6 11 12 rings
6 2 3 4 7 8 9 rings
6 4 5 7 10 14 16 rings
6 5 10 13 18 20 21 rings

> <PUBCHEM_HEAVY_ATOM_COUNT>
29

> <PUBCHEM_ATOM_DEF_STEREO_COUNT>
8

> <PUBCHEM_ATOM_UDEF_STEREO_COUNT>
1

> <PUBCHEM_BOND_DEF_STEREO_COUNT>
1

> <PUBCHEM_BOND_UDEF_STEREO_COUNT>
0

> <PUBCHEM_ISOTOPIC_ATOM_COUNT>
0

> <PUBCHEM_COMPONENT_COUNT>
1

> <PUBCHEM_CACTVS_TAUTO_COUNT>
1

> <PUBCHEM_CONFORMER_ID>
00D3F07D00000001

> <PUBCHEM_MMFF94_ENERGY>
83.4738

> <PUBCHEM_FEATURE_SELFOVERLAP>
45.764

> <PUBCHEM_SHAPE_FINGERPRINT>
10 15 18334855048217637720
10050765 1 18122908621128300098
10076449 9 18202567289425893464
10299344 5 18201720656528935314
11135926 11 18411408506299222326
11315181 36 17530688722871361625
11524674 6 16630524050643034031
11578080 2 17097754790957968597
11719270 70 18342174450027249702
12236239 1 17676486129330477802
12516196 113 18413389834715321072
12838862 33 18339626902221135650
13811026 1 18411419513893478950
14251764 18 18113334210753625450
14251764 46 17313104155849881994
14849402 71 18339927141910852681
14856354 85 15430038781478829307
14933364 13 18411419510310681136
15183329 4 18260544511730403560
15461852 350 12973613243666829393
15840311 113 18187930616449214276
15849732 13 18412826897847008660
16087824 20 18337673011053428077
18335252 98 18410296899705605419
18608769 82 18410012169518133395
18681886 176 18410568521984978937
19611394 137 17969797447482696667
21150785 3 15213018258355904024
21267235 1 18409451396743677561
21315763 28 18408040715410442024
21792934 111 18272363179714203152
21792961 116 18201999881148498256
22224240 67 17894348891572163922
232437 2 18412265043268827843
23559900 14 18340198708381875480
249057 3 15936697046592955450
3004659 81 18187364341942984192
335352 9 18411699910875629031
34797466 226 18060144245534600636
350125 39 18410856577194627473
4073 2 18041002903504708818
4325135 7 18335139791279189116
5104073 3 18268705022032410595
59682541 35 18412263964931135722

> <PUBCHEM_SHAPE_MULTIPOLES>
590.94
23.3
2.12
0.91
25.39
0.22
-0.29
-1.14
1.79
0.12
0.03
-0.46
-0.1
0.6

> <PUBCHEM_SHAPE_SELFOVERLAP>
1227.385

> <PUBCHEM_SHAPE_VOLUME>
336.6

> <PUBCHEM_COORDINATE_TYPE>
2
5
10

$$$$
