Androstan-17-one, 3-ethyl-3-hydroxy-, (5.alpha)
  -OEChem-12152007163D

 57 60  0     1  0  0  0  0  0999 V2000
    4.0762   -0.1643    1.6831 O   0  0  0  0  0  0  0  0  0  0  0  0
   -5.4494    1.2462    0.8173 O   0  0  0  0  0  0  0  0  0  0  0  0
   -0.3357    0.4082    0.1533 C   0  0  2  0  0  0  0  0  0  0  0  0
    1.1343    0.3261   -0.4035 C   0  0  2  0  0  0  0  0  0  0  0  0
   -1.2050   -0.8068   -0.3148 C   0  0  2  0  0  0  0  0  0  0  0  0
   -2.5944   -0.6677    0.3140 C   0  0  1  0  0  0  0  0  0  0  0  0
    1.7288   -1.0442    0.0530 C   0  0  1  0  0  0  0  0  0  0  0  0
   -3.2991    0.6279   -0.1381 C   0  0  2  0  0  0  0  0  0  0  0  0
   -1.0445    1.7677   -0.0962 C   0  0  0  0  0  0  0  0  0  0  0  0
   -0.5442   -2.1409    0.0567 C   0  0  0  0  0  0  0  0  0  0  0  0
    0.8971   -2.2351   -0.4391 C   0  0  0  0  0  0  0  0  0  0  0  0
    2.0157    1.4493    0.2104 C   0  0  0  0  0  0  0  0  0  0  0  0
   -2.5003    1.8082    0.4053 C   0  0  0  0  0  0  0  0  0  0  0  0
    3.2132   -1.2077   -0.3189 C   0  0  0  0  0  0  0  0  0  0  0  0
   -3.6401   -1.7564    0.0987 C   0  0  0  0  0  0  0  0  0  0  0  0
    4.0739   -0.0692    0.2542 C   0  0  1  0  0  0  0  0  0  0  0  0
    3.5087    1.3079   -0.1168 C   0  0  0  0  0  0  0  0  0  0  0  0
    1.1473    0.4818   -1.9460 C   0  0  0  0  0  0  0  0  0  0  0  0
   -4.6535    0.3730    0.4983 C   0  0  0  0  0  0  0  0  0  0  0  0
   -4.9175   -1.1147    0.6605 C   0  0  0  0  0  0  0  0  0  0  0  0
   -3.5452    0.7685   -1.6516 C   0  0  0  0  0  0  0  0  0  0  0  0
    5.5230   -0.1967   -0.2200 C   0  0  0  0  0  0  0  0  0  0  0  0
    6.4109    0.8389    0.4402 C   0  0  0  0  0  0  0  0  0  0  0  0
   -0.2549    0.3249    1.2492 H   0  0  0  0  0  0  0  0  0  0  0  0
   -1.3085   -0.7895   -1.4045 H   0  0  0  0  0  0  0  0  0  0  0  0
   -2.4418   -0.6208    1.4065 H   0  0  0  0  0  0  0  0  0  0  0  0
    1.6686   -1.0809    1.1504 H   0  0  0  0  0  0  0  0  0  0  0  0
   -1.0337    2.0105   -1.1633 H   0  0  0  0  0  0  0  0  0  0  0  0
   -0.4969    2.5712    0.4088 H   0  0  0  0  0  0  0  0  0  0  0  0
   -1.1173   -2.9748   -0.3651 H   0  0  0  0  0  0  0  0  0  0  0  0
   -0.5567   -2.2700    1.1467 H   0  0  0  0  0  0  0  0  0  0  0  0
    1.3336   -3.1713   -0.0699 H   0  0  0  0  0  0  0  0  0  0  0  0
    0.9140   -2.2971   -1.5332 H   0  0  0  0  0  0  0  0  0  0  0  0
    1.8801    1.4748    1.2988 H   0  0  0  0  0  0  0  0  0  0  0  0
    1.6873    2.4303   -0.1546 H   0  0  0  0  0  0  0  0  0  0  0  0
   -2.5053    1.7965    1.5031 H   0  0  0  0  0  0  0  0  0  0  0  0
   -2.9644    2.7582    0.1133 H   0  0  0  0  0  0  0  0  0  0  0  0
    3.5673   -2.1635    0.0899 H   0  0  0  0  0  0  0  0  0  0  0  0
    3.3308   -1.2689   -1.4069 H   0  0  0  0  0  0  0  0  0  0  0  0
   -3.4000   -2.6823    0.6305 H   0  0  0  0  0  0  0  0  0  0  0  0
   -3.7562   -2.0019   -0.9625 H   0  0  0  0  0  0  0  0  0  0  0  0
    3.6728    1.5136   -1.1810 H   0  0  0  0  0  0  0  0  0  0  0  0
    4.0199    2.1000    0.4433 H   0  0  0  0  0  0  0  0  0  0  0  0
    0.8245    1.4841   -2.2464 H   0  0  0  0  0  0  0  0  0  0  0  0
    2.1449    0.3399   -2.3708 H   0  0  0  0  0  0  0  0  0  0  0  0
    0.4927   -0.2342   -2.4488 H   0  0  0  0  0  0  0  0  0  0  0  0
   -5.0351   -1.3385    1.7246 H   0  0  0  0  0  0  0  0  0  0  0  0
   -5.8021   -1.4200    0.0978 H   0  0  0  0  0  0  0  0  0  0  0  0
   -4.0782    1.7035   -1.8628 H   0  0  0  0  0  0  0  0  0  0  0  0
   -2.6199    0.7837   -2.2334 H   0  0  0  0  0  0  0  0  0  0  0  0
   -4.1699   -0.0381   -2.0503 H   0  0  0  0  0  0  0  0  0  0  0  0
    5.5896   -0.1056   -1.3104 H   0  0  0  0  0  0  0  0  0  0  0  0
    5.9094   -1.1881    0.0485 H   0  0  0  0  0  0  0  0  0  0  0  0
    3.1837   -0.0045    2.0259 H   0  0  0  0  0  0  0  0  0  0  0  0
    6.1806    1.8544    0.1054 H   0  0  0  0  0  0  0  0  0  0  0  0
    6.3551    0.8072    1.5323 H   0  0  0  0  0  0  0  0  0  0  0  0
    7.4550    0.6492    0.1665 H   0  0  0  0  0  0  0  0  0  0  0  0
  1 16  1  0  0  0  0
  1 54  1  0  0  0  0
  2 19  2  0  0  0  0
  3  4  1  0  0  0  0
  3  5  1  0  0  0  0
  3  9  1  0  0  0  0
  3 24  1  0  0  0  0
  4  7  1  0  0  0  0
  4 12  1  0  0  0  0
  4 18  1  0  0  0  0
  5  6  1  0  0  0  0
  5 10  1  0  0  0  0
  5 25  1  0  0  0  0
  6  8  1  0  0  0  0
  6 15  1  0  0  0  0
  6 26  1  0  0  0  0
  7 11  1  0  0  0  0
  7 14  1  0  0  0  0
  7 27  1  0  0  0  0
  8 13  1  0  0  0  0
  8 19  1  0  0  0  0
  8 21  1  0  0  0  0
  9 13  1  0  0  0  0
  9 28  1  0  0  0  0
  9 29  1  0  0  0  0
 10 11  1  0  0  0  0
 10 30  1  0  0  0  0
 10 31  1  0  0  0  0
 11 32  1  0  0  0  0
 11 33  1  0  0  0  0
 12 17  1  0  0  0  0
 12 34  1  0  0  0  0
 12 35  1  0  0  0  0
 13 36  1  0  0  0  0
 13 37  1  0  0  0  0
 14 16  1  0  0  0  0
 14 38  1  0  0  0  0
 14 39  1  0  0  0  0
 15 20  1  0  0  0  0
 15 40  1  0  0  0  0
 15 41  1  0  0  0  0
 16 17  1  0  0  0  0
 16 22  1  0  0  0  0
 17 42  1  0  0  0  0
 17 43  1  0  0  0  0
 18 44  1  0  0  0  0
 18 45  1  0  0  0  0
 18 46  1  0  0  0  0
 19 20  1  0  0  0  0
 20 47  1  0  0  0  0
 20 48  1  0  0  0  0
 21 49  1  0  0  0  0
 21 50  1  0  0  0  0
 21 51  1  0  0  0  0
 22 23  1  0  0  0  0
 22 52  1  0  0  0  0
 22 53  1  0  0  0  0
 23 55  1  0  0  0  0
 23 56  1  0  0  0  0
 23 57  1  0  0  0  0
M  END
> <PUBCHEM_COMPOUND_CID>
14681481

> <PUBCHEM_CONFORMER_RMSD>
0.6

> <PUBCHEM_CONFORMER_DIVERSEORDER>
2
3
1

> <PUBCHEM_MMFF94_PARTIAL_CHARGES>
7
1 -0.68
16 0.28
19 0.45
2 -0.57
20 0.06
54 0.4
8 0.06

> <PUBCHEM_EFFECTIVE_ROTOR_COUNT>
3

> <PUBCHEM_PHARMACOPHORE_FEATURES>
8
1 1 acceptor
1 1 donor
1 2 acceptor
1 23 hydrophobe
5 6 8 15 19 20 rings
6 3 4 5 7 10 11 rings
6 3 5 6 8 9 13 rings
6 4 7 12 14 16 17 rings

> <PUBCHEM_HEAVY_ATOM_COUNT>
23

> <PUBCHEM_ATOM_DEF_STEREO_COUNT>
6

> <PUBCHEM_ATOM_UDEF_STEREO_COUNT>
1

> <PUBCHEM_BOND_DEF_STEREO_COUNT>
0

> <PUBCHEM_BOND_UDEF_STEREO_COUNT>
0

> <PUBCHEM_ISOTOPIC_ATOM_COUNT>
0

> <PUBCHEM_COMPONENT_COUNT>
1

> <PUBCHEM_CACTVS_TAUTO_COUNT>
2

> <PUBCHEM_CONFORMER_ID>
00E0058900000002

> <PUBCHEM_MMFF94_ENERGY>
76.781

> <PUBCHEM_FEATURE_SELFOVERLAP>
40.688

> <PUBCHEM_SHAPE_FINGERPRINT>
10366900 7 18131056130590584601
10411042 1 17764025066369376503
10675989 125 16821346187978175229
11132069 177 18409454670020420911
11578080 2 16807560669928089311
12011746 2 18412545401537847132
12107183 9 17686050600839931656
12236239 1 17894914040195243652
12390115 104 18058746696961487056
12403259 415 18410285926117060908
12403814 3 17822013112591930453
12507557 5 18261110785519357677
12596602 18 17821723949244095080
12633257 1 18413105073983218472
13140716 1 18267022941035212811
13224815 77 18409168805296931519
14341114 176 18412269406622979394
14787075 74 18338233876770759187
14790565 3 18339369659666777856
15042514 8 18266743678278681787
15196674 1 18411421738691813035
15536298 74 18271530792728049375
15788980 27 16805321076453195406
1601671 61 18408041806237118382
16945 1 18265613174234839639
17349148 13 18113620092366586799
17980427 23 18334298703275032653
1813 80 17095527266858589918
19784866 170 18411703162318969619
200 152 17846777403624293593
20028762 73 18129941316153517895
21033648 29 18342161267986505296
21267235 1 18337118937673268338
21279426 13 18268996380314444390
21421861 104 17970345919022449627
23402539 116 18202279225452256101
23557571 272 18130516317937567407
23559900 14 18342741784925710270
26918003 58 18409449185157344945
296302 2 16630526228402098063
335352 9 18411703187925133020
34934 24 18340202995428759735
350125 39 18410577309926188820
351380 180 18343302578293553608
3545911 37 18411984645737778859
3680242 22 18336550408499119507
4214541 1 18409167718543728457
4325135 7 18059854000171459023
465052 167 18040156210668047562
474229 33 18411419526899934022
5104073 3 18337109063506460976
542803 24 17967256403096383508
59755656 215 18340493270197569206
59755656 520 14405187274615645004
67856867 119 18115594884128435268
9709674 26 18411145731325118919

> <PUBCHEM_SHAPE_MULTIPOLES>
461.59
11.88
2
1.1
5.75
0.46
0.32
-1.78
-2.87
-0.81
-0.01
-0.04
-0.17
0.21

> <PUBCHEM_SHAPE_SELFOVERLAP>
979.566

> <PUBCHEM_SHAPE_VOLUME>
256.6

> <PUBCHEM_COORDINATE_TYPE>
2
5
10

$$$$
