@<TRIPOS>MOLECULE
J01_05
82 86 1 0 0 
SMALL
USER_CHARGES


@<TRIPOS>ATOM
  1 C        2.1447     0.9386    -0.1794 C.3   1 <1>   0.2800 
  2 O        3.0766     1.6868     0.6194 O.3   1 <1>  -0.6800 
  3 H        2.9551     2.6474     0.4254 H     1 <1>   0.4000 
  4 H2       2.5448     0.9291    -1.2008 H     1 <1>   0.0000 
  5 C        0.7675     1.6285    -0.1672 C.3   1 <1>   0.2800 
  6 O        0.7084     2.6791    -1.1865 O.3   1 <1>  -0.4300 
  7 C        1.5146     3.7607    -1.0500 C.2   1 <1>   0.6338 
  8 C        1.3332     4.7034    -2.1628 C.ar  1 <1>   0.0862 
  9 O        2.3158     3.9243    -0.1386 O.2   1 <1>  -0.5700 
 10 H2       0.5849     2.1126     0.7989 H     1 <1>   0.0000 
 11 C       -0.3684     0.6549    -0.5177 C.3   1 <1>   0.2800 
 12 H1      -0.3022     0.4524    -1.5964 H     1 <1>   0.0000 
 13 O       -1.6737     1.2815    -0.3773 O.3   1 <1>  -0.4300 
 14 C       -2.1364     1.6016     0.8555 C.2   1 <1>   0.6338 
 15 C       -3.4296     2.3065     0.7609 C.ar  1 <1>   0.0862 
 16 O       -1.5718     1.3538     1.9103 O.2   1 <1>  -0.5700 
 17 C       -0.2343    -0.6958     0.2064 C.3   1 <1>   0.5600 
 18 O       -1.2923    -1.5302    -0.2996 O.3   1 <1>  -0.4300 
 19 C       -1.6045    -2.6589     0.3772 C.2   1 <1>   0.6338 
 20 C       -2.6799    -3.3674    -0.3440 C.ar  1 <1>   0.0862 
 21 O       -1.1032    -3.0713     1.4164 O.2   1 <1>  -0.5700 
 22 H2      -0.3257    -0.6112     1.2944 H     1 <1>   0.0000 
 23 O        1.0320    -1.2524    -0.1455 O.3   1 <1>  -0.5600 
 24 C        2.1192    -0.4899     0.3829 C.3   1 <1>   0.5600 
 25 O        3.3868    -1.0918     0.0434 O.3   1 <1>  -0.2800 
 26 O        3.2940    -2.4783     0.4823 O.3   1 <1>  -0.1500 
 27 H2       2.0573    -0.4754     1.4789 H     1 <1>   0.0000 
 28 C        1.9646     5.9525    -2.0651 C.ar  1 <1>  -0.1500 
 29 H        2.5531     6.2174    -1.1901 H     1 <1>   0.1500 
 30 C        1.8384     6.8626    -3.1048 C.ar  1 <1>   0.0825 
 31 O        2.4507     8.0772    -3.0149 O.3   1 <1>  -0.5325 
 32 H        2.2344     8.5293    -3.8562 H     1 <1>   0.4500 
 33 C        1.1007     6.5434    -4.2343 C.ar  1 <1>   0.0825 
 34 O        1.0024     7.4602    -5.2442 O.3   1 <1>  -0.5325 
 35 H        0.4514     7.0138    -5.9207 H     1 <1>   0.4500 
 36 C        0.4773     5.3073    -4.3399 C.ar  1 <1>   0.0825 
 37 O       -0.2250     5.0584    -5.4865 O.3   1 <1>  -0.5325 
 38 H       -0.5534     4.1424    -5.4602 H     1 <1>   0.4500 
 39 C        0.5844     4.3774    -3.3079 C.ar  1 <1>  -0.1500 
 40 H        0.0986     3.4100    -3.3938 H     1 <1>   0.1500 
 41 C       -4.0131     2.7776     1.9493 C.ar  1 <1>  -0.1500 
 42 H       -3.5320     2.6167     2.9113 H     1 <1>   0.1500 
 43 C       -5.2238     3.4590     1.8953 C.ar  1 <1>   0.0825 
 44 O       -5.7947     3.9260     3.0441 O.3   1 <1>  -0.5325 
 45 H       -6.6226     4.3628     2.7545 H     1 <1>   0.4500 
 46 C       -5.8584     3.6696     0.6803 C.ar  1 <1>   0.0825 
 47 O       -7.0486     4.3420     0.6636 O.3   1 <1>  -0.5325 
 48 H       -7.3090     4.3698    -0.2813 H     1 <1>   0.4500 
 49 C       -5.2928     3.2018    -0.4977 C.ar  1 <1>   0.0825 
 50 O       -5.9773     3.4421    -1.6566 O.3   1 <1>  -0.5325 
 51 H       -5.4918     3.0394    -2.3977 H     1 <1>   0.4500 
 52 C       -4.0776     2.5192    -0.4704 C.ar  1 <1>  -0.1500 
 53 H       -3.6382     2.1565    -1.3948 H     1 <1>   0.1500 
 54 C       -3.1310    -2.9426    -1.6078 C.ar  1 <1>  -0.1500 
 55 H       -2.6976    -2.0702    -2.0881 H     1 <1>   0.1500 
 56 C       -4.1404    -3.6524    -2.2496 C.ar  1 <1>   0.0825 
 57 O       -4.6292    -3.2832    -3.4711 O.3   1 <1>  -0.5325 
 58 H       -4.1613    -2.4823    -3.7665 H     1 <1>   0.4500 
 59 C       -4.6899    -4.7776    -1.6522 C.ar  1 <1>   0.0825 
 60 O       -5.6737    -5.4870    -2.2821 O.3   1 <1>  -0.5325 
 61 H       -5.8180    -5.0013    -3.1212 H     1 <1>   0.4500 
 62 C       -4.2482    -5.1961    -0.4064 C.ar  1 <1>   0.0825 
 63 O       -4.8016    -6.2983     0.1751 O.3   1 <1>  -0.5325 
 64 H       -5.4793    -6.6023    -0.4634 H     1 <1>   0.4500 
 65 C       -3.2485    -4.4993     0.2584 C.ar  1 <1>  -0.1500 
 66 H       -2.9256    -4.8409     1.2375 H     1 <1>   0.1500 
 67 C        3.2377    -3.2466    -0.6424 C.2   1 <1>   0.6338 
 68 C        2.4691    -4.4625    -0.3470 C.ar  1 <1>   0.0862 
 69 O        3.7021    -2.9843    -1.7430 O.2   1 <1>  -0.5700 
 70 C        1.5248    -4.4635     0.6898 C.ar  1 <1>  -0.1500 
 71 H        1.3948    -3.5941     1.3285 H     1 <1>   0.1500 
 72 C        0.6984    -5.5637     0.8713 C.ar  1 <1>   0.0825 
 73 O       -0.3080    -5.5343     1.7957 O.3   1 <1>  -0.5325 
 74 H       -0.5520    -4.5821     1.9184 H     1 <1>   0.4500 
 75 C        0.8450    -6.6832     0.0702 C.ar  1 <1>   0.0825 
 76 O        0.0408    -7.7745     0.2404 O.3   1 <1>  -0.5325 
 77 H       -0.5519    -7.5270     0.9810 H     1 <1>   0.4500 
 78 C        1.7914    -6.6897    -0.9474 C.ar  1 <1>   0.0825 
 79 O        1.9078    -7.7855    -1.7522 O.3   1 <1>  -0.5325 
 80 H        1.2541    -8.4244    -1.4004 H     1 <1>   0.4500 
 81 C        2.5996    -5.5808    -1.1771 C.ar  1 <1>  -0.1500 
 82 H        3.3076    -5.5880    -2.0013 H     1 <1>   0.1500 
@<TRIPOS>BOND
  1   1   2  1   
  2   1   4  1   
  3   1   5  1   
  4   1  24  1   
  5   2   3  1   
  6   5   6  1   
  7   5  10  1   
  8   5  11  1   
  9   6   7  1   
 10   7   8  1   
 11   7   9  2   
 12   8  28  ar  
 13   8  39  ar  
 14  11  12  1   
 15  11  13  1   
 16  11  17  1   
 17  13  14  1   
 18  14  15  1   
 19  14  16  2   
 20  15  41  ar  
 21  15  52  ar  
 22  17  18  1   
 23  17  22  1   
 24  17  23  1   
 25  18  19  1   
 26  19  20  1   
 27  19  21  2   
 28  20  54  ar  
 29  20  65  ar  
 30  23  24  1   
 31  24  25  1   
 32  24  27  1   
 33  25  26  1   
 34  26  67  1   
 35  28  29  1   
 36  28  30  ar  
 37  30  31  1   
 38  30  33  ar  
 39  31  32  1   
 40  33  34  1   
 41  33  36  ar  
 42  34  35  1   
 43  36  37  1   
 44  36  39  ar  
 45  37  38  1   
 46  39  40  1   
 47  41  42  1   
 48  41  43  ar  
 49  43  44  1   
 50  43  46  ar  
 51  44  45  1   
 52  46  47  1   
 53  46  49  ar  
 54  47  48  1   
 55  49  50  1   
 56  49  52  ar  
 57  50  51  1   
 58  52  53  1   
 59  54  55  1   
 60  54  56  ar  
 61  56  57  1   
 62  56  59  ar  
 63  57  58  1   
 64  59  60  1   
 65  59  62  ar  
 66  60  61  1   
 67  62  63  1   
 68  62  65  ar  
 69  63  64  1   
 70  65  66  1   
 71  67  68  1   
 72  67  69  2   
 73  68  70  ar  
 74  68  81  ar  
 75  70  71  1   
 76  70  72  ar  
 77  72  73  1   
 78  72  75  ar  
 79  73  74  1   
 80  75  76  1   
 81  75  78  ar  
 82  76  77  1   
 83  78  79  1   
 84  78  81  ar  
 85  79  80  1   
 86  81  82  1   
@<TRIPOS>SUBSTRUCTURE
  1 <1>   0 RESIDUE 1 * * 1
# MOE 2007.09 (io_trps.svl 2007.09)
