@<TRIPOS>MOLECULE
J01_26
81 85 1 0 0 
SMALL
USER_CHARGES


@<TRIPOS>ATOM
  1 C        1.5132     0.9088    -0.8739 C.3   1 <1>   0.0000 
  2 C        0.6257     0.8467    -2.1419 C.3   1 <1>   0.0000 
  3 H1       0.7953    -0.0452    -2.7455 H     1 <1>   0.0000 
  4 H2       0.7622     1.7145    -2.7903 H     1 <1>   0.0000 
  5 H3      -0.4409     0.8496    -1.9087 H     1 <1>   0.0000 
  6 C        0.7785     1.8143     0.1621 C.3   1 <1>   0.0000 
  7 H1       0.4842     2.7641    -0.3000 H     1 <1>   0.0000 
  8 H2       1.4643     2.0690     0.9811 H     1 <1>   0.0000 
  9 C       -0.4666     1.1825     0.7755 C.3   1 <1>   0.0000 
 10 H       -0.8659     1.8567     1.5450 H     1 <1>   0.0000 
 11 H1      -1.2761     1.1000     0.0421 H     1 <1>   0.0000 
 12 C       -0.1803    -0.1748     1.4076 C.3   1 <1>   0.2800 
 13 O       -1.4199    -0.6659     1.9129 O.3   1 <1>  -0.6800 
 14 H       -1.2305    -1.3989     2.5211 H     1 <1>   0.4000 
 15 H2       0.4746    -0.0075     2.2734 H     1 <1>   0.0000 
 16 C        0.4952    -1.1912     0.4380 C.3   1 <1>   0.0000 
 17 C       -0.5090    -1.7521    -0.5882 C.3   1 <1>   0.0000 
 18 H1      -1.2549    -2.3912    -0.1000 H     1 <1>   0.0000 
 19 H2      -0.0113    -2.3689    -1.3432 H     1 <1>   0.0000 
 20 H3      -1.0709    -0.9741    -1.1043 H     1 <1>   0.0000 
 21 C        0.9603    -2.4087     1.2884 C.3   1 <1>   0.0000 
 22 H1       1.7358    -2.1185     2.0060 H     1 <1>   0.0000 
 23 H2       1.3600    -3.2157     0.6666 H     1 <1>   0.0000 
 24 H3       0.1339    -2.8474     1.8578 H     1 <1>   0.0000 
 25 C        1.7503    -0.4966    -0.2094 C.3   1 <1>   0.0000 
 26 H        2.4023    -0.2920     0.6573 H     1 <1>   0.0000 
 27 C        2.5905    -1.3952    -1.1379 C.3   1 <1>   0.0000 
 28 H1       2.1063    -1.5650    -2.1027 H     1 <1>   0.0000 
 29 H2       2.7329    -2.3866    -0.6984 H     1 <1>   0.0000 
 30 C        3.9839    -0.7962    -1.3308 C.3   1 <1>   0.0000 
 31 H1       4.5741    -1.4733    -1.9597 H     1 <1>   0.0000 
 32 H2       4.4530    -0.8202    -0.3427 H     1 <1>   0.0000 
 33 C        4.0057     0.6468    -1.9107 C.3   1 <1>   0.0000 
 34 C        3.6680     0.5391    -3.4289 C.3   1 <1>   0.0000 
 35 H1       3.8040     1.4881    -3.9561 H     1 <1>   0.0000 
 36 H2       2.6485     0.2094    -3.6154 H     1 <1>   0.0000 
 37 H3       4.3034    -0.1998    -3.9300 H     1 <1>   0.0000 
 38 C        2.9468     1.5437    -1.1644 C.3   1 <1>   0.0000 
 39 H        3.3658     1.7003    -0.1585 H     1 <1>   0.0000 
 40 C        5.4803     1.3298    -1.7335 C.3   1 <1>   0.1382 
 41 C        6.4580     0.7214    -2.7847 C.3   1 <1>   0.0000 
 42 H1       6.2560     1.0987    -3.7933 H     1 <1>   0.0000 
 43 H2       6.3927    -0.3713    -2.8058 H     1 <1>   0.0000 
 44 H3       7.5082     0.9474    -2.5713 H     1 <1>   0.0000 
 45 C        5.4237     2.8734    -1.8809 C.2   1 <1>  -0.2764 
 46 C        4.2628     3.5497    -1.9621 C.2   1 <1>  -0.2882 
 47 H        4.2526     4.6310    -2.0638 H     1 <1>   0.1500 
 48 C        2.9018     2.9462    -1.8070 C.3   1 <1>   0.1382 
 49 H1       2.4209     2.9468    -2.7886 H     1 <1>   0.0000 
 50 H2       2.3211     3.6218    -1.1699 H     1 <1>   0.0000 
 51 C        6.1010     1.0603    -0.3323 C.3   1 <1>   0.0610 
 52 H1       6.3808     0.0037    -0.2388 H     1 <1>   0.0000 
 53 H2       5.4052     1.2823     0.4826 H     1 <1>   0.0000 
 54 C        7.3762     1.8581    -0.0769 C.2   1 <1>   0.4480 
 55 O        8.3811     1.2829     0.3464 O.2   1 <1>  -0.5700 
 56 C        7.3339     3.3759    -0.3276 C.3   1 <1>   0.0610 
 57 C        6.4273     4.0059     0.7613 C.3   1 <1>   0.2800 
 58 O        7.0031     3.8494     2.0539 O.3   1 <1>  -0.6800 
 59 H        6.3840     4.2388     2.6955 H     1 <1>   0.4000 
 60 H2       6.2845     5.0777     0.5989 H     1 <1>   0.0000 
 61 H3       5.4351     3.5465     0.7947 H     1 <1>   0.0000 
 62 C        6.7768     3.5849    -1.7669 C.3   1 <1>   0.1382 
 63 H        7.4429     3.0810    -2.4760 H     1 <1>   0.0000 
 64 C        8.7691     3.9537    -0.2631 C.3   1 <1>   0.0000 
 65 H1       9.4351     3.3633    -0.9060 H     1 <1>   0.0000 
 66 H2       9.1836     3.8524     0.7478 H     1 <1>   0.0000 
 67 C        8.8450     5.4235    -0.6843 C.3   1 <1>   0.0000 
 68 H2       8.3330     6.0331     0.0710 H     1 <1>   0.0000 
 69 H1       9.8944     5.7448    -0.6638 H     1 <1>   0.0000 
 70 C        8.2356     5.6999    -2.0765 C.3   1 <1>   0.0000 
 71 C        9.1562     5.1504    -3.1852 C.3   1 <1>   0.0000 
 72 H1       9.3210     4.0727    -3.1015 H     1 <1>   0.0000 
 73 H2      10.1408     5.6311    -3.1503 H     1 <1>   0.0000 
 74 H3       8.7319     5.3414    -4.1775 H     1 <1>   0.0000 
 75 C        8.1221     7.2242    -2.2777 C.3   1 <1>   0.0000 
 76 H1       7.6965     7.4632    -3.2589 H     1 <1>   0.0000 
 77 H2       9.1039     7.7067    -2.2119 H     1 <1>   0.0000 
 78 H3       7.4779     7.6793    -1.5169 H     1 <1>   0.0000 
 79 C        6.8209     5.0762    -2.1780 C.3   1 <1>   0.0000 
 80 H1       6.4501     5.1804    -3.2068 H     1 <1>   0.0000 
 81 H2       6.1378     5.6601    -1.5490 H     1 <1>   0.0000 
@<TRIPOS>BOND
  1   1   2  1   
  2   1   6  1   
  3   1  25  1   
  4   1  38  1   
  5   2   3  1   
  6   2   4  1   
  7   2   5  1   
  8   6   7  1   
  9   6   8  1   
 10   6   9  1   
 11   9  10  1   
 12   9  11  1   
 13   9  12  1   
 14  12  13  1   
 15  12  15  1   
 16  12  16  1   
 17  13  14  1   
 18  16  17  1   
 19  16  21  1   
 20  16  25  1   
 21  17  18  1   
 22  17  19  1   
 23  17  20  1   
 24  21  22  1   
 25  21  23  1   
 26  21  24  1   
 27  25  26  1   
 28  25  27  1   
 29  27  28  1   
 30  27  29  1   
 31  27  30  1   
 32  30  31  1   
 33  30  32  1   
 34  30  33  1   
 35  33  34  1   
 36  33  38  1   
 37  33  40  1   
 38  34  35  1   
 39  34  36  1   
 40  34  37  1   
 41  38  39  1   
 42  38  48  1   
 43  40  41  1   
 44  40  45  1   
 45  40  51  1   
 46  41  42  1   
 47  41  43  1   
 48  41  44  1   
 49  45  46  2   
 50  45  62  1   
 51  46  47  1   
 52  46  48  1   
 53  48  49  1   
 54  48  50  1   
 55  51  52  1   
 56  51  53  1   
 57  51  54  1   
 58  54  55  2   
 59  54  56  1   
 60  56  57  1   
 61  56  62  1   
 62  56  64  1   
 63  57  58  1   
 64  57  60  1   
 65  57  61  1   
 66  58  59  1   
 67  62  63  1   
 68  62  79  1   
 69  64  65  1   
 70  64  66  1   
 71  64  67  1   
 72  67  68  1   
 73  67  69  1   
 74  67  70  1   
 75  70  71  1   
 76  70  75  1   
 77  70  79  1   
 78  71  72  1   
 79  71  73  1   
 80  71  74  1   
 81  75  76  1   
 82  75  77  1   
 83  75  78  1   
 84  79  80  1   
 85  79  81  1   
@<TRIPOS>SUBSTRUCTURE
  1 <1>   0 RESIDUE 1 * * 1
# MOE 2007.09 (io_trps.svl 2007.09)
