@<TRIPOS>MOLECULE
J01_18
52 55 1 0 0 
SMALL
USER_CHARGES


@<TRIPOS>ATOM
  1 C        1.1837     0.6977     0.3034 C.ar  1 <1>   0.0825 
  2 C       -0.0408     1.4153     0.1563 C.ar  1 <1>  -0.1435 
  3 C       -0.0085     2.9785     0.0865 C.3   1 <1>   0.2817 
  4 C        0.6606     3.5327     1.3534 C.2   1 <1>  -0.2882 
  5 H        0.2112     3.2103     2.2934 H     1 <1>   0.1500 
  6 C        1.7099     4.3631     1.4306 C.2   1 <1>  -0.3000 
  7 H1       2.0896     4.6811     2.3964 H     1 <1>   0.1500 
  8 H2       2.2278     4.7299     0.5517 H     1 <1>   0.1500 
  9 C       -1.3732     3.7167     0.0703 C.3   1 <1>   0.0000 
 10 H1      -1.9926     3.4639     0.9394 H     1 <1>   0.0000 
 11 H2      -1.9414     3.5088    -0.8438 H     1 <1>   0.0000 
 12 H3      -1.2343     4.8064     0.0937 H     1 <1>   0.0000 
 13 C        0.6843     3.3905    -1.2402 C.3   1 <1>   0.0000 
 14 H1       0.1658     2.9497    -2.1008 H     1 <1>   0.0000 
 15 H2       1.7299     3.0752    -1.3019 H     1 <1>   0.0000 
 16 H3       0.6742     4.4788    -1.3780 H     1 <1>   0.0000 
 17 C       -1.2326     0.6413     0.0682 C.ar  1 <1>   0.0825 
 18 C       -1.2156    -0.7662     0.1836 C.ar  1 <1>  -0.1435 
 19 C        0.0066    -1.4209     0.3332 C.ar  1 <1>   0.0825 
 20 O        0.0129    -2.7928     0.4143 O.3   1 <1>  -0.5325 
 21 H        0.9556    -3.0773     0.5218 H     1 <1>   0.4500 
 22 C        1.1928    -0.6943     0.3899 C.ar  1 <1>   0.0862 
 23 C        2.4677    -1.3975     0.5382 C.2   1 <1>   0.3976 
 24 O        2.4728    -2.6233     0.6313 O.2   1 <1>  -0.5700 
 25 C        3.6842    -0.6014     0.5592 C.ar  1 <1>   0.0862 
 26 C        3.5632     0.7784     0.4532 C.ar  1 <1>   0.0825 
 27 O        2.3566     1.4238     0.3500 O.3   1 <1>  -0.1650 
 28 C        4.9355    -1.2114     0.6723 C.ar  1 <1>  -0.1500 
 29 H        5.0200    -2.2927     0.7550 H     1 <1>   0.1500 
 30 C        6.0861    -0.4238     0.6761 C.ar  1 <1>  -0.1500 
 31 H        7.0640    -0.8914     0.7630 H     1 <1>   0.1500 
 32 C        5.9825     0.9638     0.5641 C.ar  1 <1>  -0.1500 
 33 H        6.8889     1.5619     0.5644 H     1 <1>   0.1500 
 34 C        4.7235     1.5577     0.4521 C.ar  1 <1>   0.0825 
 35 O        4.6139     2.9160     0.3330 O.3   1 <1>  -0.5325 
 36 H        5.5003     3.3119     0.3580 H     1 <1>   0.4500 
 37 O       -2.4108     1.3113    -0.1224 O.3   1 <1>  -0.3625 
 38 C       -3.5818     0.5810    -0.5130 C.3   1 <1>   0.2800 
 39 C       -3.5543     0.3481    -2.0311 C.3   1 <1>   0.0000 
 40 H1      -2.6730    -0.2192    -2.3468 H     1 <1>   0.0000 
 41 H2      -3.5010     1.3035    -2.5664 H     1 <1>   0.0000 
 42 H3      -4.4473    -0.1878    -2.3691 H     1 <1>   0.0000 
 43 C       -4.7731     1.4931    -0.1834 C.3   1 <1>   0.0000 
 44 H1      -4.6918     2.4498    -0.7126 H     1 <1>   0.0000 
 45 H2      -4.7948     1.7364     0.8854 H     1 <1>   0.0000 
 46 H3      -5.7267     1.0272    -0.4529 H     1 <1>   0.0000 
 47 C       -3.7085    -0.7093     0.2961 C.3   1 <1>   0.0000 
 48 H1      -4.6115    -1.2686     0.0248 H     1 <1>   0.0000 
 49 H2      -3.7912    -0.4609     1.3635 H     1 <1>   0.0000 
 50 C       -2.4800    -1.5794     0.1084 C.3   1 <1>   0.1435 
 51 H1      -2.5193    -2.0854    -0.8637 H     1 <1>   0.0000 
 52 H2      -2.4844    -2.3543     0.8845 H     1 <1>   0.0000 
@<TRIPOS>BOND
  1   1   2  ar  
  2   1  22  ar  
  3   1  27  1   
  4   2   3  1   
  5   2  17  ar  
  6   3   4  1   
  7   3   9  1   
  8   3  13  1   
  9   4   5  1   
 10   4   6  2   
 11   6   7  1   
 12   6   8  1   
 13   9  10  1   
 14   9  11  1   
 15   9  12  1   
 16  13  14  1   
 17  13  15  1   
 18  13  16  1   
 19  17  18  ar  
 20  17  37  1   
 21  18  19  ar  
 22  18  50  1   
 23  19  20  1   
 24  19  22  ar  
 25  20  21  1   
 26  22  23  1   
 27  23  24  2   
 28  23  25  1   
 29  25  26  ar  
 30  25  28  ar  
 31  26  27  1   
 32  26  34  ar  
 33  28  29  1   
 34  28  30  ar  
 35  30  31  1   
 36  30  32  ar  
 37  32  33  1   
 38  32  34  ar  
 39  34  35  1   
 40  35  36  1   
 41  37  38  1   
 42  38  39  1   
 43  38  43  1   
 44  38  47  1   
 45  39  40  1   
 46  39  41  1   
 47  39  42  1   
 48  43  44  1   
 49  43  45  1   
 50  43  46  1   
 51  47  48  1   
 52  47  49  1   
 53  47  50  1   
 54  50  51  1   
 55  50  52  1   
@<TRIPOS>SUBSTRUCTURE
  1 <1>   0 RESIDUE 1 * * 1
# MOE 2007.09 (io_trps.svl 2007.09)
