@<TRIPOS>MOLECULE
J01_21
81 85 1 0 0 
SMALL
USER_CHARGES


@<TRIPOS>ATOM
  1 C        1.2650     0.5028    -0.5932 C.3   1 <1>   0.0000 
  2 C        0.6901    -0.1010    -1.8924 C.3   1 <1>   0.0000 
  3 H1       0.9816    -1.1414    -2.0408 H     1 <1>   0.0000 
  4 H2       0.9953     0.4699    -2.7744 H     1 <1>   0.0000 
  5 H3      -0.4026    -0.0926    -1.9189 H     1 <1>   0.0000 
  6 C        0.2104     1.5127    -0.0414 C.3   1 <1>   0.0000 
  7 H1      -0.1068     2.2066    -0.8286 H     1 <1>   0.0000 
  8 H2       0.6654     2.1251     0.7484 H     1 <1>   0.0000 
  9 C       -1.0472     0.8572     0.5283 C.3   1 <1>   0.0000 
 10 H1      -1.6581     0.4135    -0.2656 H     1 <1>   0.0000 
 11 H2      -1.6896     1.6364     0.9599 H     1 <1>   0.0000 
 12 C       -0.7432    -0.1821     1.6025 C.3   1 <1>   0.2800 
 13 O       -1.9895    -0.7557     1.9972 O.3   1 <1>  -0.6800 
 14 H       -1.8533    -1.2143     2.8426 H     1 <1>   0.4000 
 15 H2      -0.3455     0.3515     2.4763 H     1 <1>   0.0000 
 16 C        0.2810    -1.2692     1.1534 C.3   1 <1>   0.0000 
 17 C       -0.3675    -2.2837     0.1904 C.3   1 <1>   0.0000 
 18 H1      -0.8898    -1.8066    -0.6395 H     1 <1>   0.0000 
 19 H2      -1.1161    -2.8956     0.7084 H     1 <1>   0.0000 
 20 H3       0.3717    -2.9758    -0.2245 H     1 <1>   0.0000 
 21 C        0.6908    -2.0800     2.4147 C.3   1 <1>   0.0000 
 22 H1       1.3302    -2.9319     2.1615 H     1 <1>   0.0000 
 23 H2      -0.1798    -2.4971     2.9321 H     1 <1>   0.0000 
 24 H3       1.2299    -1.4515     3.1322 H     1 <1>   0.0000 
 25 C        1.5462    -0.5394     0.5588 C.3   1 <1>   0.0000 
 26 H        1.9102     0.0688     1.4053 H     1 <1>   0.0000 
 27 C        2.7413    -1.4580     0.2295 C.3   1 <1>   0.0000 
 28 H1       2.4936    -2.1515    -0.5778 H     1 <1>   0.0000 
 29 H2       2.9839    -2.0859     1.0931 H     1 <1>   0.0000 
 30 C        4.0236    -0.6665    -0.0970 C.3   1 <1>   0.0000 
 31 H1       4.8147    -1.3939    -0.3151 H     1 <1>   0.0000 
 32 H2       4.3210    -0.1363     0.8169 H     1 <1>   0.0000 
 33 C        3.8816     0.3544    -1.2678 C.3   1 <1>   0.0000 
 34 C        3.6716    -0.4937    -2.5517 C.3   1 <1>   0.0000 
 35 H1       3.3366     0.1082    -3.4005 H     1 <1>   0.0000 
 36 H2       2.9537    -1.3025    -2.4386 H     1 <1>   0.0000 
 37 H3       4.5998    -1.0048    -2.8323 H     1 <1>   0.0000 
 38 C        2.6370     1.2537    -0.8623 C.3   1 <1>   0.0000 
 39 H        2.8721     1.6502     0.1379 H     1 <1>   0.0000 
 40 C        5.2285     1.3036    -1.4901 C.3   1 <1>   0.0000 
 41 C        5.5550     1.5063    -3.0038 C.3   1 <1>   0.0000 
 42 H1       4.6930     1.8564    -3.5773 H     1 <1>   0.0000 
 43 H2       5.9175     0.5827    -3.4671 H     1 <1>   0.0000 
 44 H3       6.3436     2.2439    -3.1659 H     1 <1>   0.0000 
 45 C        5.0068     2.7124    -0.8522 C.3   1 <1>   0.0000 
 46 H        4.7409     2.5059     0.1959 H     1 <1>   0.0000 
 47 C        3.7824     3.4149    -1.4857 C.3   1 <1>   0.0000 
 48 H1       4.0416     3.8819    -2.4402 H     1 <1>   0.0000 
 49 H2       3.4623     4.2210    -0.8142 H     1 <1>   0.0000 
 50 C        2.5761     2.4992    -1.7486 C.3   1 <1>   0.0000 
 51 H1       2.5442     2.2184    -2.8064 H     1 <1>   0.0000 
 52 H2       1.6738     3.0915    -1.5750 H     1 <1>   0.0000 
 53 C        6.4706     0.6605    -0.8218 C.3   1 <1>   0.0000 
 54 H1       6.6409    -0.3392    -1.2408 H     1 <1>   0.0000 
 55 H2       6.3031     0.5260     0.2512 H     1 <1>   0.0000 
 56 C        7.7534     1.4641    -0.9898 C.3   1 <1>   0.0000 
 57 H1       8.0623     1.3920    -2.0391 H     1 <1>   0.0000 
 58 H2       8.5542     0.9571    -0.4340 H     1 <1>   0.0000 
 59 C        7.6481     2.9329    -0.5415 C.3   1 <1>   0.0610 
 60 C        8.0815     3.0160     0.9281 C.2   1 <1>   0.6590 
 61 O        7.2234     2.3997     1.7674 O.3   1 <1>  -0.6500 
 62 H        7.6208     2.5208     2.6555 H     1 <1>   0.5000 
 63 O        9.0807     3.5568     1.3734 O.2   1 <1>  -0.5700 
 64 C        6.2572     3.6434    -0.7014 C.3   1 <1>   0.0000 
 65 H        6.0692     4.1690     0.2471 H     1 <1>   0.0000 
 66 C        8.6282     3.7817    -1.3984 C.3   1 <1>   0.0000 
 67 H1       8.7412     3.3632    -2.4065 H     1 <1>   0.0000 
 68 H2       9.6356     3.8651    -0.9786 H     1 <1>   0.0000 
 69 C        7.9677     5.1409    -1.5296 C.3   1 <1>   0.0000 
 70 H1       8.3788     5.7097    -2.3704 H     1 <1>   0.0000 
 71 H2       8.1293     5.7239    -0.6158 H     1 <1>   0.0000 
 72 C        6.4926     4.7838    -1.7380 C.3   1 <1>   0.1382 
 73 H1       6.3966     4.3578    -2.7446 H     1 <1>   0.0000 
 74 C        5.6226     6.0307    -1.6516 C.2   1 <1>  -0.2764 
 75 C        5.3943     6.6767    -0.3110 C.3   1 <1>   0.1382 
 76 H1       4.8526     7.6248    -0.4017 H     1 <1>   0.0000 
 77 H2       6.3428     6.8961     0.1872 H     1 <1>   0.0000 
 78 H3       4.7995     6.0271     0.3376 H     1 <1>   0.0000 
 79 C        5.0813     6.5661    -2.7601 C.2   1 <1>  -0.3000 
 80 H1       4.4648     7.4587    -2.7193 H     1 <1>   0.1500 
 81 H2       5.2391     6.1262    -3.7400 H     1 <1>   0.1500 
@<TRIPOS>BOND
  1   1   2  1   
  2   1   6  1   
  3   1  25  1   
  4   1  38  1   
  5   2   3  1   
  6   2   4  1   
  7   2   5  1   
  8   6   7  1   
  9   6   8  1   
 10   6   9  1   
 11   9  10  1   
 12   9  11  1   
 13   9  12  1   
 14  12  13  1   
 15  12  15  1   
 16  12  16  1   
 17  13  14  1   
 18  16  17  1   
 19  16  21  1   
 20  16  25  1   
 21  17  18  1   
 22  17  19  1   
 23  17  20  1   
 24  21  22  1   
 25  21  23  1   
 26  21  24  1   
 27  25  26  1   
 28  25  27  1   
 29  27  28  1   
 30  27  29  1   
 31  27  30  1   
 32  30  31  1   
 33  30  32  1   
 34  30  33  1   
 35  33  34  1   
 36  33  38  1   
 37  33  40  1   
 38  34  35  1   
 39  34  36  1   
 40  34  37  1   
 41  38  39  1   
 42  38  50  1   
 43  40  41  1   
 44  40  45  1   
 45  40  53  1   
 46  41  42  1   
 47  41  43  1   
 48  41  44  1   
 49  45  46  1   
 50  45  47  1   
 51  45  64  1   
 52  47  48  1   
 53  47  49  1   
 54  47  50  1   
 55  50  51  1   
 56  50  52  1   
 57  53  54  1   
 58  53  55  1   
 59  53  56  1   
 60  56  57  1   
 61  56  58  1   
 62  56  59  1   
 63  59  60  1   
 64  59  64  1   
 65  59  66  1   
 66  60  61  1   
 67  60  63  2   
 68  61  62  1   
 69  64  65  1   
 70  64  72  1   
 71  66  67  1   
 72  66  68  1   
 73  66  69  1   
 74  69  70  1   
 75  69  71  1   
 76  69  72  1   
 77  72  73  1   
 78  72  74  1   
 79  74  75  1   
 80  74  79  2   
 81  75  76  1   
 82  75  77  1   
 83  75  78  1   
 84  79  80  1   
 85  79  81  1   
@<TRIPOS>SUBSTRUCTURE
  1 <1>   0 RESIDUE 1 * * 1
# MOE 2007.09 (io_trps.svl 2007.09)
