@<TRIPOS>MOLECULE
J01_22
47 48 1 0 0 
SMALL
USER_CHARGES


@<TRIPOS>ATOM
  1 C        1.4726     0.8477     1.0742 C.ar  1 <1>   0.0284 
  2 C        2.6444     1.3029     0.3173 C.2   1 <1>  -0.1784 
  3 C        3.7403     0.5589     0.1355 C.2   1 <1>  -0.1356 
  4 C        4.8768     1.0942    -0.6563 C.2   1 <1>   0.4946 
  5 C        5.9998     0.1408    -0.9793 C.3   1 <1>   0.1220 
  6 C        8.4238    -0.2390    -0.2976 C.2   1 <1>  -0.1356 
  7 H        8.6155    -0.3643    -1.3566 H     1 <1>   0.1500 
  8 O        6.7202     0.1409     1.3052 O.2   1 <1>  -0.5700 
  9 C        9.3914    -0.3001     0.6233 C.2   1 <1>  -0.1784 
 10 H        9.1620    -0.1366     1.6749 H     1 <1>   0.1500 
 11 C       10.8034    -0.5440     0.3119 C.ar  1 <1>   0.0284 
 12 H        2.5709     2.2962    -0.1212 H     1 <1>   0.1500 
 13 H2       6.4688     0.4887    -1.9069 H     1 <1>   0.0000 
 14 H3       5.5944    -0.8573    -1.1783 H     1 <1>   0.0000 
 15 O        4.9065     2.2625    -1.0367 O.2   1 <1>  -0.5700 
 16 C        7.0256     0.0395     0.1200 C.2   1 <1>   0.4946 
 17 C        0.1906     1.1825     0.6046 C.ar  1 <1>  -0.1500 
 18 H        0.1119     1.7456    -0.3206 H     1 <1>   0.1500 
 19 C       -0.9571     0.7909     1.3051 C.ar  1 <1>   0.0825 
 20 O       -2.2447     1.0617     0.9199 O.3   1 <1>  -0.3625 
 21 C       -2.4297     1.8067    -0.2757 C.3   1 <1>   0.2800 
 22 H1      -3.5060     1.9342    -0.4268 H     1 <1>   0.0000 
 23 H2      -2.0346     1.2670    -1.1426 H     1 <1>   0.0000 
 24 H3      -1.9857     2.8043    -0.1928 H     1 <1>   0.0000 
 25 C       -0.8050     0.0664     2.4951 C.ar  1 <1>   0.0825 
 26 O       -1.9194    -0.3233     3.1918 O.3   1 <1>  -0.5325 
 27 H       -1.6376    -0.7987     3.9889 H     1 <1>   0.4500 
 28 C        0.4611    -0.2583     2.9824 C.ar  1 <1>  -0.1500 
 29 H        0.5848    -0.8106     3.9092 H     1 <1>   0.1500 
 30 C        1.5965     0.1373     2.2743 C.ar  1 <1>  -0.1500 
 31 H        2.5764    -0.1059     2.6791 H     1 <1>   0.1500 
 32 H        3.8423    -0.4439     0.5340 H     1 <1>   0.1500 
 33 C       11.2129    -1.4617    -0.6587 C.ar  1 <1>  -0.1500 
 34 H       10.4852    -2.0284    -1.2342 H     1 <1>   0.1500 
 35 C       12.5728    -1.6794    -0.8964 C.ar  1 <1>  -0.1500 
 36 H       12.8571    -2.3979    -1.6605 H     1 <1>   0.1500 
 37 C       13.5401    -0.9879    -0.1584 C.ar  1 <1>   0.0825 
 38 O       14.8575    -1.2330    -0.4290 O.3   1 <1>  -0.5325 
 39 H       14.9228    -1.8971    -1.1343 H     1 <1>   0.4500 
 40 C       13.1532    -0.0766     0.8287 C.ar  1 <1>   0.0825 
 41 O       13.9437     0.6821     1.6490 O.3   1 <1>  -0.3625 
 42 C       15.3528     0.5556     1.5369 C.3   1 <1>   0.2800 
 43 H1      15.8031     1.2266     2.2755 H     1 <1>   0.0000 
 44 H2      15.7042     0.8785     0.5520 H     1 <1>   0.0000 
 45 H3      15.6828    -0.4593     1.7804 H     1 <1>   0.0000 
 46 C       11.7831     0.1294     1.0549 C.ar  1 <1>  -0.1500 
 47 H       11.4868     0.8397     1.8256 H     1 <1>   0.1500 
@<TRIPOS>BOND
  1   1   2  1   
  2   1  17  ar  
  3   1  30  ar  
  4   2   3  2   
  5   2  12  1   
  6   3   4  1   
  7   3  32  1   
  8   4   5  1   
  9   4  15  2   
 10   5  13  1   
 11   5  14  1   
 12   5  16  1   
 13   6   7  1   
 14   6   9  2   
 15   6  16  1   
 16   8  16  2   
 17   9  10  1   
 18   9  11  1   
 19  11  33  ar  
 20  11  46  ar  
 21  17  18  1   
 22  17  19  ar  
 23  19  20  1   
 24  19  25  ar  
 25  20  21  1   
 26  21  22  1   
 27  21  23  1   
 28  21  24  1   
 29  25  26  1   
 30  25  28  ar  
 31  26  27  1   
 32  28  29  1   
 33  28  30  ar  
 34  30  31  1   
 35  33  34  1   
 36  33  35  ar  
 37  35  36  1   
 38  35  37  ar  
 39  37  38  1   
 40  37  40  ar  
 41  38  39  1   
 42  40  41  1   
 43  40  46  ar  
 44  41  42  1   
 45  42  43  1   
 46  42  44  1   
 47  42  45  1   
 48  46  47  1   
@<TRIPOS>SUBSTRUCTURE
  1 <1>   0 RESIDUE 1 * * 1
# MOE 2007.09 (io_trps.svl 2007.09)
