@<TRIPOS>MOLECULE
J01_02
32 34 1 0 0 
SMALL
NO_CHARGES


@<TRIPOS>ATOM
  1 C        1.2300     0.7500    -0.1500 C.ar  1 <1>   0.0000 
  2 C        0.0000     1.4200     0.0000 C.ar  1 <1>   0.0000 
  3 H        0.0000     2.5000     0.0000 H     1 <1>   0.0000 
  4 C       -1.2300     0.7100     0.0000 C.ar  1 <1>   0.0000 
  5 O       -2.4210     1.3980     0.0000 O.3   1 <1>   0.0000 
  6 H       -3.2180     0.8400     0.0000 H     1 <1>   0.0000 
  7 C       -1.2300    -0.7100     0.0000 C.ar  1 <1>   0.0000 
  8 H       -2.1650    -1.2500     0.0000 H     1 <1>   0.0000 
  9 C        0.0000    -1.4200     0.0000 C.ar  1 <1>   0.0000 
 10 O        0.0000    -2.7960     0.0000 O.3   1 <1>   0.0000 
 11 H       -0.8820    -3.2070     0.0000 H     1 <1>   0.0000 
 12 C        1.2300    -0.7500     0.1500 C.ar  1 <1>   0.0000 
 13 C        2.5290    -1.5000    -0.1500 C.2   1 <1>   0.0000 
 14 O        2.5290    -2.6900     0.6210 O.2   1 <1>   0.0000 
 15 C        3.8280    -0.7500     0.1500 C.2   1 <1>   0.0000 
 16 O        4.9320    -1.3870     0.6600 O.3   1 <1>   0.0000 
 17 H        5.7030    -0.8150     0.8130 H     1 <1>   0.0000 
 18 C        3.8280     0.7500    -0.1500 C.2   1 <1>   0.0000 
 19 C        4.9940     1.4230    -0.6890 C.ar  1 <1>   0.0000 
 20 O        2.5290     1.5000     0.1500 O.3   1 <1>   0.0000 
 21 C        6.1800     0.6880    -0.9520 C.ar  1 <1>   0.0000 
 22 H        6.2130    -0.3730    -0.7520 H     1 <1>   0.0000 
 23 C        7.3210     1.3470    -1.4800 C.ar  1 <1>   0.0000 
 24 H        8.2230     0.7880    -1.6800 H     1 <1>   0.0000 
 25 C        7.2770     2.7420    -1.7430 C.ar  1 <1>   0.0000 
 26 O        8.3840     3.3800    -2.2540 O.3   1 <1>   0.0000 
 27 H        9.1550     2.8080    -2.4070 H     1 <1>   0.0000 
 28 C        6.0920     3.4770    -1.4800 C.ar  1 <1>   0.0000 
 29 O        6.0490     4.8280    -1.7350 O.3   1 <1>   0.0000 
 30 H        5.2020     5.2600    -1.5280 H     1 <1>   0.0000 
 31 C        4.9500     2.8180    -0.9520 C.ar  1 <1>   0.0000 
 32 H        4.0480     3.3770    -0.7520 H     1 <1>   0.0000 
@<TRIPOS>BOND
  1   1   2  ar  
  2   1  12  ar  
  3   1  20  1   
  4   2   3  1   
  5   2   4  ar  
  6   4   5  1   
  7   4   7  ar  
  8   5   6  1   
  9   7   8  1   
 10   7   9  ar  
 11   9  10  1   
 12   9  12  ar  
 13  10  11  1   
 14  12  13  1   
 15  13  14  2   
 16  13  15  1   
 17  15  16  1   
 18  15  18  2   
 19  16  17  1   
 20  18  19  1   
 21  18  20  1   
 22  19  21  ar  
 23  19  31  ar  
 24  21  22  1   
 25  21  23  ar  
 26  23  24  1   
 27  23  25  ar  
 28  25  26  1   
 29  25  28  ar  
 30  26  27  1   
 31  28  29  1   
 32  28  31  ar  
 33  29  30  1   
 34  31  32  1   
@<TRIPOS>SUBSTRUCTURE
  1 <1>   0 RESIDUE 1 * * 1
# MOE 2007.09 (io_trps.svl 2007.09)
