@<TRIPOS>MOLECULE
J01_29
26 27 1 0 0 
SMALL
USER_CHARGES


@<TRIPOS>ATOM
  1 C        1.2687     0.6630     0.0074 C.ar  1 <1>   0.0825 
  2 C        0.0800     1.3805    -0.0643 C.ar  1 <1>   0.0825 
  3 O        0.1022     2.7493    -0.1071 O.3   1 <1>  -0.5325 
  4 H       -0.8363     3.0182    -0.1543 H     1 <1>   0.4500 
  5 C       -1.1479     0.7157    -0.0936 C.ar  1 <1>   0.0825 
  6 O       -2.2393     1.5445    -0.1651 O.3   1 <1>  -0.3625 
  7 C       -3.5191     0.9232    -0.1997 C.3   1 <1>   0.2800 
  8 H1      -4.2726     1.7146    -0.2570 H     1 <1>   0.0000 
  9 H2      -3.7049     0.3520     0.7158 H     1 <1>   0.0000 
 10 H3      -3.6283     0.2941    -1.0893 H     1 <1>   0.0000 
 11 C       -1.1696    -0.6821    -0.0498 C.ar  1 <1>  -0.1500 
 12 H       -2.1188    -1.2026    -0.0721 H     1 <1>   0.1500 
 13 C        0.0299    -1.4130     0.0228 C.ar  1 <1>   0.0825 
 14 O        0.0980    -2.7842     0.0693 O.3   1 <1>  -0.3625 
 15 C       -1.1222    -3.5137     0.0422 C.3   1 <1>   0.2800 
 16 H1      -0.8751    -4.5788     0.0861 H     1 <1>   0.0000 
 17 H2      -1.6669    -3.3374    -0.8911 H     1 <1>   0.0000 
 18 H3      -1.7411    -3.2803     0.9148 H     1 <1>   0.0000 
 19 C        1.2628    -0.7318     0.0516 C.ar  1 <1>   0.0284 
 20 C        2.5490    -1.4191     0.1263 C.2   1 <1>  -0.1784 
 21 H        2.5612    -2.5039     0.1614 H     1 <1>   0.1500 
 22 C        3.6870    -0.7274     0.1509 C.2   1 <1>  -0.1356 
 23 H        4.6497    -1.2213     0.2061 H     1 <1>   0.1500 
 24 C        3.7119     0.7405     0.1051 C.2   1 <1>   0.7056 
 25 O        4.7720     1.3528     0.1290 O.2   1 <1>  -0.5700 
 26 O        2.4801     1.3852     0.0341 O.3   1 <1>  -0.2325 
@<TRIPOS>BOND
  1   1   2  ar  
  2   1  19  ar  
  3   1  26  1   
  4   2   3  1   
  5   2   5  ar  
  6   3   4  1   
  7   5   6  1   
  8   5  11  ar  
  9   6   7  1   
 10   7   8  1   
 11   7   9  1   
 12   7  10  1   
 13  11  12  1   
 14  11  13  ar  
 15  13  14  1   
 16  13  19  ar  
 17  14  15  1   
 18  15  16  1   
 19  15  17  1   
 20  15  18  1   
 21  19  20  1   
 22  20  21  1   
 23  20  22  2   
 24  22  23  1   
 25  22  24  1   
 26  24  25  2   
 27  24  26  1   
@<TRIPOS>SUBSTRUCTURE
  1 <1>   0 RESIDUE 1 * * 1
# MOE 2007.09 (io_trps.svl 2007.09)
