@<TRIPOS>MOLECULE
J01_09
30 32 1 0 0 
SMALL
USER_CHARGES


@<TRIPOS>ATOM
  1 C        1.1544     0.7611    -0.0871 C.ar  1 <1>   0.0862 
  2 C       -0.0609     1.3926    -0.3888 C.ar  1 <1>   0.0825 
  3 O       -0.1072     2.7272    -0.6801 O.3   1 <1>  -0.5325 
  4 H       -1.0271     3.0150    -0.7936 H     1 <1>   0.4500 
  5 C       -1.2543     0.6629    -0.4274 C.ar  1 <1>  -0.1500 
  6 H       -2.2002     1.1437    -0.6628 H     1 <1>   0.1500 
  7 C       -1.2451    -0.7056    -0.1682 C.ar  1 <1>  -0.1500 
  8 H       -2.1721    -1.2734    -0.1972 H     1 <1>   0.1500 
  9 C       -0.0433    -1.3460     0.1178 C.ar  1 <1>  -0.1500 
 10 H       -0.0413    -2.4176     0.3088 H     1 <1>   0.1500 
 11 C        1.1511    -0.6138     0.1509 C.ar  1 <1>   0.0862 
 12 C        2.4044    -1.3273     0.4266 C.2   1 <1>   0.3976 
 13 O        2.3863    -2.5033     0.7728 O.2   1 <1>  -0.5700 
 14 C        3.6816    -0.6251     0.2466 C.ar  1 <1>   0.0862 
 15 C        3.7089     0.7482     0.0096 C.ar  1 <1>   0.0862 
 16 C        2.4332     1.5018     0.0228 C.2   1 <1>   0.3976 
 17 O        2.4327     2.7151     0.1883 O.2   1 <1>  -0.5700 
 18 C        4.8687    -1.3708     0.3008 C.ar  1 <1>  -0.1500 
 19 H        4.8239    -2.4438     0.4848 H     1 <1>   0.1500 
 20 C        6.1092    -0.7513     0.1143 C.ar  1 <1>  -0.1435 
 21 C        7.3684    -1.5772     0.1307 C.3   1 <1>   0.4235 
 22 H1       7.2597    -2.4267     0.8132 H     1 <1>   0.0000 
 23 O        8.4795    -0.8077     0.5724 O.3   1 <1>  -0.6800 
 24 H        9.2466    -1.4049     0.5897 H     1 <1>   0.4000 
 25 H3       7.5758    -1.9492    -0.8779 H     1 <1>   0.0000 
 26 C        6.1349     0.6222    -0.1561 C.ar  1 <1>  -0.1500 
 27 H        7.0948     1.1042    -0.3311 H     1 <1>   0.1500 
 28 C        4.9485     1.3650    -0.2031 C.ar  1 <1>   0.0825 
 29 O        5.0299     2.6984    -0.4933 O.3   1 <1>  -0.5325 
 30 H        5.9592     2.9785    -0.5116 H     1 <1>   0.4500 
@<TRIPOS>BOND
  1   1   2  ar  
  2   1  11  ar  
  3   1  16  1   
  4   2   3  1   
  5   2   5  ar  
  6   3   4  1   
  7   5   6  1   
  8   5   7  ar  
  9   7   8  1   
 10   7   9  ar  
 11   9  10  1   
 12   9  11  ar  
 13  11  12  1   
 14  12  13  2   
 15  12  14  1   
 16  14  15  ar  
 17  14  18  ar  
 18  15  16  1   
 19  15  28  ar  
 20  16  17  2   
 21  18  19  1   
 22  18  20  ar  
 23  20  21  1   
 24  20  26  ar  
 25  21  22  1   
 26  21  23  1   
 27  21  25  1   
 28  23  24  1   
 29  26  27  1   
 30  26  28  ar  
 31  28  29  1   
 32  29  30  1   
@<TRIPOS>SUBSTRUCTURE
  1 <1>   0 RESIDUE 1 * * 1
# MOE 2007.09 (io_trps.svl 2007.09)
