@<TRIPOS>MOLECULE
J01_27
44 45 1 0 0 
SMALL
USER_CHARGES


@<TRIPOS>ATOM
  1 C        1.1895     0.9212     0.4032 C.ar  1 <1>  -0.1435 
  2 C        2.5215     1.6158     0.2600 C.3   1 <1>   0.1435 
  3 C        3.6456     0.6191    -0.0162 C.3   1 <1>   0.0610 
  4 C        4.9869     1.3107    -0.1676 C.2   1 <1>   0.4946 
  5 C        6.1583     0.4141    -0.3427 C.2   1 <1>  -0.1356 
  6 H        5.9716    -0.6538    -0.3496 H     1 <1>   0.1500 
  7 C        7.3900     0.9173    -0.4858 C.2   1 <1>  -0.2882 
  8 H        7.5392     1.9966    -0.4810 H     1 <1>   0.1500 
  9 C        8.6189     0.0738    -0.6762 C.3   1 <1>   0.1382 
 10 C        9.6188     0.2760     0.4663 C.3   1 <1>   0.1435 
 11 C       10.8690    -0.5456     0.2656 C.ar  1 <1>  -0.1435 
 12 H2       9.1560     0.0118     1.4263 H     1 <1>   0.0000 
 13 H3       9.8969     1.3350     0.5507 H     1 <1>   0.0000 
 14 H2       9.0784     0.3488    -1.6339 H     1 <1>   0.0000 
 15 H3       8.3526    -0.9882    -0.7543 H     1 <1>   0.0000 
 16 O        5.1067     2.5323    -0.1547 O.2   1 <1>  -0.5700 
 17 H2       3.4412     0.0650    -0.9402 H     1 <1>   0.0000 
 18 H3       3.7193    -0.1005     0.8082 H     1 <1>   0.0000 
 19 H2       2.7344     2.1889     1.1719 H     1 <1>   0.0000 
 20 H3       2.4614     2.3584    -0.5463 H     1 <1>   0.0000 
 21 C        0.3661     0.7299    -0.7182 C.ar  1 <1>  -0.1500 
 22 H        0.6826     1.0979    -1.6897 H     1 <1>   0.1500 
 23 C       -0.8493     0.0710    -0.5681 C.ar  1 <1>   0.0825 
 24 O       -1.6992    -0.1441    -1.6186 O.3   1 <1>  -0.5325 
 25 H       -1.2941     0.2340    -2.4184 H     1 <1>   0.4500 
 26 C       -1.2482    -0.4013     0.6789 C.ar  1 <1>   0.0825 
 27 O       -2.4471    -1.0457     0.7987 O.3   1 <1>  -0.5325 
 28 H       -2.8087    -1.0344    -0.1109 H     1 <1>   0.4500 
 29 C       -0.4457    -0.2268     1.7954 C.ar  1 <1>  -0.1500 
 30 H       -0.7648    -0.6001     2.7632 H     1 <1>   0.1500 
 31 C        0.7762     0.4348     1.6564 C.ar  1 <1>  -0.1500 
 32 H        1.4061     0.5714     2.5328 H     1 <1>   0.1500 
 33 C       11.0028    -1.8052     0.8768 C.ar  1 <1>  -0.1500 
 34 H       10.2076    -2.1913     1.5113 H     1 <1>   0.1500 
 35 C       12.1529    -2.5783     0.6827 C.ar  1 <1>  -0.1500 
 36 H       12.2336    -3.5456     1.1682 H     1 <1>   0.1500 
 37 C       13.1658    -2.0877    -0.1307 C.ar  1 <1>   0.0825 
 38 O       14.3175    -2.7863    -0.3683 O.3   1 <1>  -0.5325 
 39 H       14.2722    -3.6253     0.1223 H     1 <1>   0.4500 
 40 C       13.0369    -0.8450    -0.7437 C.ar  1 <1>   0.0825 
 41 O       14.0437    -0.3836    -1.5438 O.3   1 <1>  -0.5325 
 42 H       14.7152    -1.0952    -1.5139 H     1 <1>   0.4500 
 43 C       11.9013    -0.0697    -0.5554 C.ar  1 <1>  -0.1500 
 44 H       11.8249     0.8963    -1.0463 H     1 <1>   0.1500 
@<TRIPOS>BOND
  1   1   2  1   
  2   1  21  ar  
  3   1  31  ar  
  4   2   3  1   
  5   2  19  1   
  6   2  20  1   
  7   3   4  1   
  8   3  17  1   
  9   3  18  1   
 10   4   5  1   
 11   4  16  2   
 12   5   6  1   
 13   5   7  2   
 14   7   8  1   
 15   7   9  1   
 16   9  10  1   
 17   9  14  1   
 18   9  15  1   
 19  10  11  1   
 20  10  12  1   
 21  10  13  1   
 22  11  33  ar  
 23  11  43  ar  
 24  21  22  1   
 25  21  23  ar  
 26  23  24  1   
 27  23  26  ar  
 28  24  25  1   
 29  26  27  1   
 30  26  29  ar  
 31  27  28  1   
 32  29  30  1   
 33  29  31  ar  
 34  31  32  1   
 35  33  34  1   
 36  33  35  ar  
 37  35  36  1   
 38  35  37  ar  
 39  37  38  1   
 40  37  40  ar  
 41  38  39  1   
 42  40  41  1   
 43  40  43  ar  
 44  41  42  1   
 45  43  44  1   
@<TRIPOS>SUBSTRUCTURE
  1 <1>   0 RESIDUE 1 * * 1
# MOE 2007.09 (io_trps.svl 2007.09)
