@<TRIPOS>MOLECULE
J01_28
30 32 1 0 0 
SMALL
USER_CHARGES


@<TRIPOS>ATOM
  1 C        1.2678     0.7174    -0.2290 C.ar  1 <1>   0.0862 
  2 C        0.0403     1.3913    -0.2028 C.ar  1 <1>   0.0825 
  3 O       -0.0083     2.7560    -0.2527 O.3   1 <1>  -0.5325 
  4 H       -0.9291     3.0569    -0.3014 H     1 <1>   0.4500 
  5 C       -1.1624     0.6835    -0.0893 C.ar  1 <1>  -0.1500 
  6 H       -2.1125     1.2120    -0.0598 H     1 <1>   0.1500 
  7 C       -1.1574    -0.7126    -0.0058 C.ar  1 <1>  -0.1435 
  8 C       -2.4419    -1.4719     0.1473 C.3   1 <1>   0.1435 
  9 H1      -2.3603    -2.4713    -0.2929 H     1 <1>   0.0000 
 10 H2      -3.2626    -0.9587    -0.3648 H     1 <1>   0.0000 
 11 H3      -2.6935    -1.5717     1.2076 H     1 <1>   0.0000 
 12 C        0.0681    -1.3848     0.0007 C.ar  1 <1>  -0.1500 
 13 H        0.0870    -2.4698     0.0962 H     1 <1>   0.1500 
 14 C        1.2700    -0.6712    -0.1080 C.ar  1 <1>   0.0862 
 15 C        2.5367    -1.4135    -0.0712 C.2   1 <1>   0.3976 
 16 O        2.5427    -2.6387    -0.1121 O.2   1 <1>  -0.5700 
 17 C        3.7976    -0.6701     0.0547 C.ar  1 <1>   0.0862 
 18 C        3.8158     0.7203    -0.0694 C.ar  1 <1>   0.0862 
 19 C        2.5575     1.4212    -0.4126 C.2   1 <1>   0.3976 
 20 O        2.5877     2.5406    -0.9079 O.2   1 <1>  -0.5700 
 21 C        4.9737    -1.3857     0.3163 C.ar  1 <1>  -0.1500 
 22 H        4.9420    -2.4688     0.4051 H     1 <1>   0.1500 
 23 C        6.1698    -0.6962     0.4675 C.ar  1 <1>   0.0825 
 24 O        7.3385    -1.3491     0.7273 O.3   1 <1>  -0.5325 
 25 H        7.1588    -2.3032     0.7728 H     1 <1>   0.4500 
 26 C        6.2088     0.6888     0.3676 C.ar  1 <1>  -0.1500 
 27 H        7.1581     1.1984     0.5048 H     1 <1>   0.1500 
 28 C        5.0328     1.3961     0.1017 C.ar  1 <1>   0.0825 
 29 O        5.0920     2.7601     0.0424 O.3   1 <1>  -0.5325 
 30 H        6.0129     3.0588     0.1131 H     1 <1>   0.4500 
@<TRIPOS>BOND
  1   1   2  ar  
  2   1  14  ar  
  3   1  19  1   
  4   2   3  1   
  5   2   5  ar  
  6   3   4  1   
  7   5   6  1   
  8   5   7  ar  
  9   7   8  1   
 10   7  12  ar  
 11   8   9  1   
 12   8  10  1   
 13   8  11  1   
 14  12  13  1   
 15  12  14  ar  
 16  14  15  1   
 17  15  16  2   
 18  15  17  1   
 19  17  18  ar  
 20  17  21  ar  
 21  18  19  1   
 22  18  28  ar  
 23  19  20  2   
 24  21  22  1   
 25  21  23  ar  
 26  23  24  1   
 27  23  26  ar  
 28  24  25  1   
 29  26  27  1   
 30  26  28  ar  
 31  28  29  1   
 32  29  30  1   
@<TRIPOS>SUBSTRUCTURE
  1 <1>   0 RESIDUE 1 * * 1
# MOE 2007.09 (io_trps.svl 2007.09)
