@<TRIPOS>MOLECULE
J01_25
83 87 1 0 0 
SMALL
USER_CHARGES


@<TRIPOS>ATOM
  1 C        1.2359     0.8144    -0.2279 C.3   1 <1>   0.0000 
  2 H        1.0894     0.7140    -1.3084 H     1 <1>   0.0000 
  3 C        1.2073    -0.8032     1.8836 C.3   1 <1>   0.0000 
  4 H1       0.4639    -0.1577     2.3578 H     1 <1>   0.0000 
  5 H2       2.1762    -0.6037     2.3495 H     1 <1>   0.0000 
  6 C       -0.0259     1.5803     0.2403 C.3   1 <1>   0.0000 
  7 H1      -0.0309     2.5913    -0.1839 H     1 <1>   0.0000 
  8 H2      -0.0017     1.7199     1.3263 H     1 <1>   0.0000 
  9 C       -1.3493     0.8715    -0.1628 C.3   1 <1>   0.0000 
 10 C       -1.6112     1.0403    -1.6753 C.3   1 <1>   0.0000 
 11 H1      -0.8538     0.5472    -2.2910 H     1 <1>   0.0000 
 12 H2      -1.6263     2.0996    -1.9561 H     1 <1>   0.0000 
 13 H3      -2.5813     0.6131    -1.9550 H     1 <1>   0.0000 
 14 C       -2.5171     1.5440     0.5867 C.3   1 <1>   0.0000 
 15 H1      -2.5840     2.6098     0.3406 H     1 <1>   0.0000 
 16 H2      -2.3921     1.4612     1.6723 H     1 <1>   0.0000 
 17 H3      -3.4751     1.0794     0.3270 H     1 <1>   0.0000 
 18 C       -1.3221    -0.6323     0.1990 C.3   1 <1>   0.0000 
 19 H1      -2.1748    -1.1443    -0.2658 H     1 <1>   0.0000 
 20 H2      -1.4649    -0.7537     1.2800 H     1 <1>   0.0000 
 21 C       -0.0316    -1.3533    -0.2125 C.3   1 <1>   0.0000 
 22 H1       0.0165    -1.4092    -1.3074 H     1 <1>   0.0000 
 23 H2      -0.0796    -2.3932     0.1357 H     1 <1>   0.0000 
 24 C        1.2461    -0.6583     0.3391 C.3   1 <1>   0.0000 
 25 H3       0.9551    -1.8331     2.1672 H     1 <1>   0.0000 
 26 C        2.4994    -1.4280    -0.1428 C.3   1 <1>   0.0000 
 27 H1       2.3711    -1.7422    -1.1850 H     1 <1>   0.0000 
 28 H2       2.6007    -2.3693     0.4146 H     1 <1>   0.0000 
 29 C        3.8132    -0.6373    -0.0030 C.3   1 <1>   0.0000 
 30 H1       4.6049    -1.2567    -0.4430 H     1 <1>   0.0000 
 31 H2       4.0662    -0.5290     1.0571 H     1 <1>   0.0000 
 32 C        3.7777     0.7512    -0.6982 C.3   1 <1>   0.0000 
 33 C        3.5210     0.4353    -2.2303 C.3   1 <1>   0.0000 
 34 H1       3.5480     1.3275    -2.8590 H     1 <1>   0.0000 
 35 H2       2.5672    -0.0510    -2.4385 H     1 <1>   0.0000 
 36 H3       4.2951    -0.2434    -2.6121 H     1 <1>   0.0000 
 37 C        2.6022     1.6147    -0.0922 C.3   1 <1>   0.0000 
 38 C        2.8099     1.9416     1.4123 C.3   1 <1>   0.0000 
 39 H1       3.8023     1.6659     1.7715 H     1 <1>   0.0000 
 40 H2       2.1098     1.4391     2.0732 H     1 <1>   0.0000 
 41 H3       2.6246     2.9947     1.6379 H     1 <1>   0.0000 
 42 C        5.1742     1.5280    -0.6786 C.3   1 <1>   0.0000 
 43 H        5.5325     1.3208    -1.6991 H     1 <1>   0.0000 
 44 C        5.1491     3.1090    -0.6241 C.3   1 <1>   0.0000 
 45 C        5.1050     3.7778     0.7726 C.3   1 <1>   0.0000 
 46 H1       4.1251     4.2003     1.0044 H     1 <1>   0.0000 
 47 H2       5.3797     3.1094     1.5880 H     1 <1>   0.0000 
 48 H3       5.7612     4.6482     0.8429 H     1 <1>   0.0000 
 49 C        3.8799     3.5762    -1.3817 C.3   1 <1>   0.0000 
 50 H1       4.0000     3.3628    -2.4509 H     1 <1>   0.0000 
 51 H2       3.7810     4.6683    -1.3302 H     1 <1>   0.0000 
 52 C        2.5379     2.9619    -0.8978 C.3   1 <1>   0.0000 
 53 H1       1.9136     2.8254    -1.7914 H     1 <1>   0.0000 
 54 H2       2.0071     3.7214    -0.3092 H     1 <1>   0.0000 
 55 C        6.3432     0.9674     0.1428 C.3   1 <1>   0.0000 
 56 H1       6.3558    -0.1262     0.1208 H     1 <1>   0.0000 
 57 H2       6.2785     1.2477     1.1967 H     1 <1>   0.0000 
 58 C        7.6786     1.4280    -0.4748 C.3   1 <1>   0.0000 
 59 H1       7.7958     0.9048    -1.4341 H     1 <1>   0.0000 
 60 H2       8.4901     1.0605     0.1657 H     1 <1>   0.0000 
 61 C        7.8252     2.9617    -0.7198 C.3   1 <1>   0.0000 
 62 C        8.2119     3.6009     0.6383 C.3   1 <1>   0.0000 
 63 H1       9.2052     3.2760     0.9649 H     1 <1>   0.0000 
 64 H2       8.2291     4.6927     0.6046 H     1 <1>   0.0000 
 65 H3       7.5433     3.3013     1.4468 H     1 <1>   0.0000 
 66 C        6.4906     3.5484    -1.3572 C.3   1 <1>   0.0000 
 67 H        6.4204     3.0893    -2.3577 H     1 <1>   0.0000 
 68 C        8.9826     3.2312    -1.7673 C.3   1 <1>   0.0000 
 69 H1       8.7150     2.7072    -2.6974 H     1 <1>   0.0000 
 70 C       10.3548     2.6587    -1.3686 C.3   1 <1>   0.0000 
 71 H1      10.2901     1.6100    -1.0677 H     1 <1>   0.0000 
 72 H2      10.8127     3.2265    -0.5531 H     1 <1>   0.0000 
 73 H3      11.0476     2.6921    -2.2167 H     1 <1>   0.0000 
 74 C        9.1042     4.7361    -2.1116 C.3   1 <1>   0.2800 
 75 O       10.0609     4.9389    -3.1522 O.3   1 <1>  -0.6800 
 76 H       10.9460     4.8261    -2.7669 H     1 <1>   0.4000 
 77 H2       9.4491     5.3053    -1.2408 H     1 <1>   0.0000 
 78 C        7.7844     5.3237    -2.6042 C.3   1 <1>   0.0000 
 79 H1       7.5515     4.9158    -3.5972 H     1 <1>   0.0000 
 80 H2       7.8975     6.4043    -2.7572 H     1 <1>   0.0000 
 81 C        6.6176     5.0560    -1.6592 C.3   1 <1>   0.0000 
 82 H1       5.7088     5.4300    -2.1416 H     1 <1>   0.0000 
 83 H2       6.7507     5.6470    -0.7490 H     1 <1>   0.0000 
@<TRIPOS>BOND
  1   1   2  1   
  2   1   6  1   
  3   1  24  1   
  4   1  37  1   
  5   3   4  1   
  6   3   5  1   
  7   3  24  1   
  8   3  25  1   
  9   6   7  1   
 10   6   8  1   
 11   6   9  1   
 12   9  10  1   
 13   9  14  1   
 14   9  18  1   
 15  10  11  1   
 16  10  12  1   
 17  10  13  1   
 18  14  15  1   
 19  14  16  1   
 20  14  17  1   
 21  18  19  1   
 22  18  20  1   
 23  18  21  1   
 24  21  22  1   
 25  21  23  1   
 26  21  24  1   
 27  24  26  1   
 28  26  27  1   
 29  26  28  1   
 30  26  29  1   
 31  29  30  1   
 32  29  31  1   
 33  29  32  1   
 34  32  33  1   
 35  32  37  1   
 36  32  42  1   
 37  33  34  1   
 38  33  35  1   
 39  33  36  1   
 40  37  38  1   
 41  37  52  1   
 42  38  39  1   
 43  38  40  1   
 44  38  41  1   
 45  42  43  1   
 46  42  44  1   
 47  42  55  1   
 48  44  45  1   
 49  44  49  1   
 50  44  66  1   
 51  45  46  1   
 52  45  47  1   
 53  45  48  1   
 54  49  50  1   
 55  49  51  1   
 56  49  52  1   
 57  52  53  1   
 58  52  54  1   
 59  55  56  1   
 60  55  57  1   
 61  55  58  1   
 62  58  59  1   
 63  58  60  1   
 64  58  61  1   
 65  61  62  1   
 66  61  66  1   
 67  61  68  1   
 68  62  63  1   
 69  62  64  1   
 70  62  65  1   
 71  66  67  1   
 72  66  81  1   
 73  68  69  1   
 74  68  70  1   
 75  68  74  1   
 76  70  71  1   
 77  70  72  1   
 78  70  73  1   
 79  74  75  1   
 80  74  77  1   
 81  74  78  1   
 82  75  76  1   
 83  78  79  1   
 84  78  80  1   
 85  78  81  1   
 86  81  82  1   
 87  81  83  1   
@<TRIPOS>SUBSTRUCTURE
  1 <1>   0 RESIDUE 1 * * 1
# MOE 2007.09 (io_trps.svl 2007.09)
