@<TRIPOS>MOLECULE
J02_08-Z
54 56 1 0 0 
SMALL
USER_CHARGES


@<TRIPOS>ATOM
  1 C        1.1440     0.7560    -0.4780 C.ar  1 <1>   0.0280 
  2 C        2.5820     0.9770    -0.6810 C.2   1 <1>  -0.1780 
  3 H        2.8770     1.2700    -1.6870 H     1 <1>   0.1500 
  4 C        3.5040     0.8660     0.2830 C.2   1 <1>  -0.1360 
  5 H        3.2610     0.6050     1.3060 H     1 <1>   0.1500 
  6 C        4.9190     1.1310    -0.0250 C.2   1 <1>   0.7060 
  7 O        5.6280     1.0430     1.1300 O.3   1 <1>  -0.4300 
  8 C        7.0480     1.2920     1.1050 C.3   1 <1>   0.2800 
  9 H        7.3670     1.1770     2.1480 H     1 <1>   0.0000 
 10 O        5.3560     1.4070    -1.1320 O.2   1 <1>  -0.5700 
 11 C        0.2300     1.5270    -1.2140 C.ar  1 <1>  -0.1500 
 12 H        0.5960     2.2920    -1.8940 H     1 <1>   0.1500 
 13 C       -1.1450     1.3230    -1.0660 C.ar  1 <1>   0.0820 
 14 O       -2.0370     2.0800    -1.7760 O.3   1 <1>  -0.5320 
 15 H       -1.5500     2.7040    -2.3370 H     1 <1>   0.4500 
 16 C       -1.6200     0.3430    -0.1960 C.ar  1 <1>   0.0820 
 17 O       -2.9680     0.1510    -0.0600 O.3   1 <1>  -0.5320 
 18 H       -3.1120    -0.5580     0.5850 H     1 <1>   0.4500 
 19 C       -0.7230    -0.4410     0.5280 C.ar  1 <1>  -0.1500 
 20 H       -1.0730    -1.2160     1.2030 H     1 <1>   0.1500 
 21 C        0.6540    -0.2370     0.3820 C.ar  1 <1>  -0.1500 
 22 H        1.3350    -0.8750     0.9400 H     1 <1>   0.1500 
 23 C        7.8520     0.3210     0.2180 C.3   1 <1>   0.2800 
 24 H1       7.2960    -0.0250    -0.6600 H     1 <1>   0.0000 
 25 O        8.3500    -0.8110     0.9570 O.3   1 <1>  -0.4300 
 26 C        7.4690    -1.8250     1.1600 C.2   1 <1>   0.7060 
 27 C        8.1590    -2.8650     1.9380 C.2   1 <1>  -0.1360 
 28 H        9.1930    -2.6820     2.2060 H     1 <1>   0.1500 
 29 C        7.5070    -3.9750     2.2990 C.2   1 <1>  -0.1780 
 30 H        8.0130    -4.7590     2.8600 H     1 <1>   0.1500 
 31 C        6.1050    -4.2330     1.9510 C.ar  1 <1>   0.0280 
 32 O        6.3130    -1.8810     0.7710 O.2   1 <1>  -0.5700 
 33 C        9.0440     1.1720    -0.2220 C.3   1 <1>   0.2800 
 34 H1       9.5610     0.7570    -1.0920 H     1 <1>   0.0000 
 35 O        9.9910     1.2940     0.8390 O.3   1 <1>  -0.6800 
 36 H       10.1460     0.3890     1.1700 H     1 <1>   0.4000 
 37 C        8.4220     2.5330    -0.4920 C.3   1 <1>   0.0000 
 38 H1       7.9030     2.5280    -1.4570 H     1 <1>   0.0000 
 39 H2       9.1560     3.3450    -0.4930 H     1 <1>   0.0000 
 40 C        7.4060     2.7140     0.6400 C.3   1 <1>   0.0000 
 41 H1       6.5470     3.3130     0.3240 H     1 <1>   0.0000 
 42 H2       7.8820     3.2510     1.4690 H     1 <1>   0.0000 
 43 C        5.1260    -3.2310     2.0300 C.ar  1 <1>  -0.1500 
 44 H        5.3860    -2.2240     2.3480 H     1 <1>   0.1500 
 45 C        3.7920    -3.5090     1.7140 C.ar  1 <1>  -0.1500 
 46 H        3.0570    -2.7120     1.7800 H     1 <1>   0.1500 
 47 C        3.4290    -4.7970     1.3270 C.ar  1 <1>   0.0820 
 48 O        2.1280    -5.0820     1.0150 O.3   1 <1>  -0.5320 
 49 H        1.6010    -4.2740     1.1120 H     1 <1>   0.4500 
 50 C        4.3910    -5.8060     1.2620 C.ar  1 <1>   0.0820 
 51 O        4.0150    -7.0660     0.8860 O.3   1 <1>  -0.5320 
 52 H        4.7870    -7.6530     0.9020 H     1 <1>   0.4500 
 53 C        5.7240    -5.5300     1.5780 C.ar  1 <1>  -0.1500 
 54 H        6.4730    -6.3150     1.5270 H     1 <1>   0.1500 
@<TRIPOS>BOND
  1   1   2  1   
  2   1  11  ar  
  3   1  21  ar  
  4   2   3  1   
  5   2   4  2   
  6   4   5  1   
  7   4   6  1   
  8   6   7  1   
  9   6  10  2   
 10   7   8  1   
 11   8   9  1   
 12   8  23  1   
 13   8  40  1   
 14  11  12  1   
 15  11  13  ar  
 16  13  14  1   
 17  13  16  ar  
 18  14  15  1   
 19  16  17  1   
 20  16  19  ar  
 21  17  18  1   
 22  19  20  1   
 23  19  21  ar  
 24  21  22  1   
 25  23  24  1   
 26  23  25  1   
 27  23  33  1   
 28  25  26  1   
 29  26  27  1   
 30  26  32  2   
 31  27  28  1   
 32  27  29  2   
 33  29  30  1   
 34  29  31  1   
 35  31  43  ar  
 36  31  53  ar  
 37  33  34  1   
 38  33  35  1   
 39  33  37  1   
 40  35  36  1   
 41  37  38  1   
 42  37  39  1   
 43  37  40  1   
 44  40  41  1   
 45  40  42  1   
 46  43  44  1   
 47  43  45  ar  
 48  45  46  1   
 49  45  47  ar  
 50  47  48  1   
 51  47  50  ar  
 52  48  49  1   
 53  50  51  1   
 54  50  53  ar  
 55  51  52  1   
 56  53  54  1   
@<TRIPOS>SUBSTRUCTURE
  1 <1>   0 RESIDUE 1 * * 1
# MOE 2007.09 (io_trps.svl 2007.09)
