@<TRIPOS>MOLECULE
J02_07
76 80 1 0 0 
SMALL
USER_CHARGES


@<TRIPOS>ATOM
  1 C        1.5510     0.6010     0.3330 C.ar  1 <1>  -0.1440 
  2 C        0.5010     1.5070     0.2040 C.ar  1 <1>  -0.1500 
  3 H        0.6750     2.5740     0.1140 H     1 <1>   0.1500 
  4 C       -0.7870     1.0020     0.1750 C.ar  1 <1>   0.0820 
  5 O       -1.8380     1.8600     0.0230 O.3   1 <1>  -0.5320 
  6 H       -2.6240     1.2790     0.0150 H     1 <1>   0.4500 
  7 C       -1.0270    -0.3690     0.2880 C.ar  1 <1>   0.0820 
  8 O       -2.3340    -0.7770     0.2460 O.3   1 <1>  -0.5320 
  9 H       -2.3570    -1.7350     0.4190 H     1 <1>   0.4500 
 10 C        0.0240    -1.2740     0.4340 C.ar  1 <1>  -0.1500 
 11 H       -0.1750    -2.3360     0.4970 H     1 <1>   0.1500 
 12 C        1.3230    -0.7810     0.4790 C.ar  1 <1>   0.0280 
 13 C        2.6120    -1.4760     0.5940 C.2   1 <1>  -0.1670 
 14 C        2.8940    -2.7290     0.9660 C.2   1 <1>  -0.1360 
 15 H        3.9270    -3.0640     0.9610 H     1 <1>   0.1500 
 16 C        1.9490    -3.7430     1.4660 C.2   1 <1>   0.6160 
 17 N        2.2320    -5.0020     0.9840 N.am  1 <1>  -0.7300 
 18 C        1.4590    -6.1640     1.3820 C.3   1 <1>   0.3000 
 19 C        1.9290    -6.7250     2.7250 C.3   1 <1>   0.1440 
 20 C        1.1410    -7.9450     3.1290 C.ar  1 <1>  -0.1440 
 21 H2       1.8470    -5.9610     3.5100 H     1 <1>   0.0000 
 22 H3       2.9970    -6.9760     2.6740 H     1 <1>   0.0000 
 23 H2       1.5710    -6.9110     0.5880 H     1 <1>   0.0000 
 24 H3       0.4000    -5.8830     1.4280 H     1 <1>   0.0000 
 25 H2       2.9960    -5.1380     0.3330 H     1 <1>   0.3700 
 26 O        1.0400    -3.4830     2.2430 O.2   1 <1>  -0.5700 
 27 C        3.6800    -0.4470     0.1990 C.3   1 <1>   0.1990 
 28 H1       3.9370    -0.6300    -0.8540 H     1 <1>   0.0000 
 29 C        4.9370    -0.5230     1.0660 C.2   1 <1>   0.5690 
 30 N        6.0650    -0.9280     0.3770 N.am  1 <1>  -0.7300 
 31 C        7.3480    -1.0660     1.0420 C.3   1 <1>   0.3000 
 32 C        7.4510    -2.3790     1.8200 C.3   1 <1>   0.1440 
 33 C        8.7540    -2.4780     2.5710 C.ar  1 <1>  -0.1440 
 34 H2       7.3490    -3.2300     1.1330 H     1 <1>   0.0000 
 35 H3       6.6190    -2.4770     2.5280 H     1 <1>   0.0000 
 36 H2       7.4870    -0.2060     1.7070 H     1 <1>   0.0000 
 37 H3       8.1210    -1.0140     0.2670 H     1 <1>   0.0000 
 38 H2       6.0160    -1.1290    -0.6150 H     1 <1>   0.3700 
 39 O        4.9380    -0.2700     2.2680 O.2   1 <1>  -0.5700 
 40 C        3.0190     0.9400     0.3800 C.3   1 <1>   0.2870 
 41 C        3.4920     1.9450    -0.6550 C.ar  1 <1>  -0.1440 
 42 H2       3.2090     1.3430     1.3840 H     1 <1>   0.0000 
 43 C        4.3040     3.0200    -0.2510 C.ar  1 <1>  -0.1500 
 44 H        4.5920     3.1200     0.7930 H     1 <1>   0.1500 
 45 C        4.7240     3.9560    -1.1900 C.ar  1 <1>   0.0820 
 46 O        5.5040     5.0280    -0.8560 O.3   1 <1>  -0.5320 
 47 H        5.7300     4.9670     0.0890 H     1 <1>   0.4500 
 48 C        4.3520     3.8330    -2.5250 C.ar  1 <1>   0.0820 
 49 O        4.7660     4.7710    -3.4260 O.3   1 <1>  -0.5320 
 50 H        5.2810     5.4060    -2.8880 H     1 <1>   0.4500 
 51 C        3.5670     2.7740    -2.9500 C.ar  1 <1>  -0.1500 
 52 H        3.2830     2.6870    -3.9940 H     1 <1>   0.1500 
 53 C        3.1400     1.8290    -2.0160 C.ar  1 <1>  -0.1500 
 54 H        2.5150     1.0060    -2.3560 H     1 <1>   0.1500 
 55 C       -0.0470    -7.8100     3.8640 C.ar  1 <1>  -0.1500 
 56 H       -0.3970    -6.8230     4.1610 H     1 <1>   0.1500 
 57 C       -0.7910    -8.9350     4.2250 C.ar  1 <1>  -0.1500 
 58 H       -1.7060    -8.8040     4.7950 H     1 <1>   0.1500 
 59 C       -0.3480   -10.1980     3.8460 C.ar  1 <1>   0.0820 
 60 O       -1.0420   -11.3260     4.1750 O.3   1 <1>  -0.5320 
 61 H       -1.8200   -11.0760     4.7000 H     1 <1>   0.4500 
 62 C        0.8230   -10.3510     3.1120 C.ar  1 <1>  -0.1500 
 63 H        1.1570   -11.3430     2.8210 H     1 <1>   0.1500 
 64 C        1.5670    -9.2260     2.7520 C.ar  1 <1>  -0.1500 
 65 H        2.4820    -9.3580     2.1780 H     1 <1>   0.1500 
 66 C        9.8630    -3.1180     2.0010 C.ar  1 <1>  -0.1500 
 67 H        9.7900    -3.5680     1.0130 H     1 <1>   0.1500 
 68 C       11.0750    -3.1860     2.6930 C.ar  1 <1>  -0.1500 
 69 H       11.9210    -3.6880     2.2340 H     1 <1>   0.1500 
 70 C       11.1750    -2.6080     3.9550 C.ar  1 <1>   0.0820 
 71 O       12.3370    -2.6490     4.6670 O.3   1 <1>  -0.5320 
 72 H       13.0030    -3.1370     4.1550 H     1 <1>   0.4500 
 73 C       10.0870    -1.9640     4.5330 C.ar  1 <1>  -0.1500 
 74 H       10.1830    -1.5160     5.5180 H     1 <1>   0.1500 
 75 C        8.8780    -1.8970     3.8420 C.ar  1 <1>  -0.1500 
 76 H        8.0320    -1.3850     4.2970 H     1 <1>   0.1500 
@<TRIPOS>BOND
  1   1   2  ar  
  2   1  12  ar  
  3   1  40  1   
  4   2   3  1   
  5   2   4  ar  
  6   4   5  1   
  7   4   7  ar  
  8   5   6  1   
  9   7   8  1   
 10   7  10  ar  
 11   8   9  1   
 12  10  11  1   
 13  10  12  ar  
 14  12  13  1   
 15  13  14  2   
 16  13  27  1   
 17  14  15  1   
 18  14  16  1   
 19  16  17  am  
 20  16  26  2   
 21  17  18  1   
 22  17  25  1   
 23  18  19  1   
 24  18  23  1   
 25  18  24  1   
 26  19  20  1   
 27  19  21  1   
 28  19  22  1   
 29  20  55  ar  
 30  20  64  ar  
 31  27  28  1   
 32  27  29  1   
 33  27  40  1   
 34  29  30  am  
 35  29  39  2   
 36  30  31  1   
 37  30  38  1   
 38  31  32  1   
 39  31  36  1   
 40  31  37  1   
 41  32  33  1   
 42  32  34  1   
 43  32  35  1   
 44  33  66  ar  
 45  33  75  ar  
 46  40  41  1   
 47  40  42  1   
 48  41  43  ar  
 49  41  53  ar  
 50  43  44  1   
 51  43  45  ar  
 52  45  46  1   
 53  45  48  ar  
 54  46  47  1   
 55  48  49  1   
 56  48  51  ar  
 57  49  50  1   
 58  51  52  1   
 59  51  53  ar  
 60  53  54  1   
 61  55  56  1   
 62  55  57  ar  
 63  57  58  1   
 64  57  59  ar  
 65  59  60  1   
 66  59  62  ar  
 67  60  61  1   
 68  62  63  1   
 69  62  64  ar  
 70  64  65  1   
 71  66  67  1   
 72  66  68  ar  
 73  68  69  1   
 74  68  70  ar  
 75  70  71  1   
 76  70  73  ar  
 77  71  72  1   
 78  73  74  1   
 79  73  75  ar  
 80  75  76  1   
@<TRIPOS>SUBSTRUCTURE
  1 <1>   0 RESIDUE 1 * * 1
# MOE 2007.09 (io_trps.svl 2007.09)
