@<TRIPOS>MOLECULE
J02_02
54 56 1 0 0 
SMALL
USER_CHARGES


@<TRIPOS>ATOM
  1 C        1.6153    -0.0358    -0.5935 C.3   1 <1>   0.5600 
  2 O        1.1904     1.1103    -1.3507 O.3   1 <1>  -0.3625 
  3 C        2.0143     2.1867    -1.1582 C.ar  1 <1>   0.0825 
  4 O        0.5595    -0.4490     0.2982 O.3   1 <1>  -0.5600 
  5 C       -0.6530    -0.8275    -0.3870 C.3   1 <1>   0.2800 
  6 H1      -1.0376     0.0426    -0.9348 H     1 <1>   0.0000 
  7 C       -1.6851    -1.2026     0.6825 C.3   1 <1>   0.2800 
  8 O       -2.1870    -0.0332     1.3205 O.3   1 <1>  -0.6800 
  9 H       -1.4477     0.4015     1.8101 H     1 <1>   0.4000 
 10 H2      -1.2507    -1.8485     1.4527 H     1 <1>   0.0000 
 11 H3      -2.5483    -1.7114     0.2460 H     1 <1>   0.0000 
 12 C       -0.3897    -1.9959    -1.3511 C.3   1 <1>   0.2800 
 13 O       -1.5266    -2.3087    -2.1597 O.3   1 <1>  -0.6800 
 14 H       -2.1694    -2.7944    -1.6138 H     1 <1>   0.4000 
 15 H2      -0.1162    -2.9042    -0.7990 H     1 <1>   0.0000 
 16 C        0.7476    -1.6320    -2.3057 C.3   1 <1>   0.2800 
 17 H1       0.4387    -0.8535    -3.0142 H     1 <1>   0.0000 
 18 O        1.0953    -2.7687    -3.1045 O.3   1 <1>  -0.6800 
 19 H        0.2493    -3.0804    -3.4844 H     1 <1>   0.4000 
 20 C        1.9803    -1.2048    -1.5236 C.3   1 <1>   0.2800 
 21 H1       2.4899     0.1943     0.0298 H     1 <1>   0.0000 
 22 O        3.0343    -0.8944    -2.4403 O.3   1 <1>  -0.6800 
 23 H2       2.3325    -2.0506    -0.9191 H     1 <1>   0.0000 
 24 H        3.0156    -1.6177    -3.1016 H     1 <1>   0.4000 
 25 C        2.9296     2.4704    -2.1748 C.ar  1 <1>  -0.1500 
 26 H        2.9819     1.8323    -3.0530 H     1 <1>   0.1500 
 27 C        3.7850     3.5610    -2.0540 C.ar  1 <1>  -0.1500 
 28 H        4.5039     3.7782    -2.8387 H     1 <1>   0.1500 
 29 C        3.7167     4.3684    -0.9216 C.ar  1 <1>  -0.1500 
 30 H        4.3865     5.2175    -0.8188 H     1 <1>   0.1500 
 31 C        2.7851     4.0943     0.0841 C.ar  1 <1>  -0.1500 
 32 H        2.7547     4.7457     0.9549 H     1 <1>   0.1500 
 33 C        1.9005     3.0099    -0.0257 C.ar  1 <1>  -0.1435 
 34 C        0.8896     2.7032     1.0583 C.3   1 <1>   0.4235 
 35 O        0.7000     3.8465     1.9186 O.3   1 <1>  -0.4300 
 36 C       -0.1286     3.8799     2.9910 C.2   1 <1>   0.6590 
 37 O       -0.0677     4.8371     3.7643 O.2   1 <1>  -0.5700 
 38 C       -1.1820     2.7660     3.1743 C.3   1 <1>   0.5402 
 39 O       -0.7486     1.4393     2.8661 O.3   1 <1>  -0.6800 
 40 H       -0.3253     1.1083     3.6908 H     1 <1>   0.4000 
 41 H2       1.2853     1.8793     1.6593 H     1 <1>   0.0000 
 42 H3      -0.0654     2.4470     0.5923 H     1 <1>   0.0000 
 43 C       -2.3742     3.0837     2.3102 C.2   1 <1>  -0.2882 
 44 H       -2.2504     2.9773     1.2345 H     1 <1>   0.1500 
 45 C       -3.5788     3.4543     2.7719 C.2   1 <1>  -0.2882 
 46 H       -4.3874     3.6318     2.0656 H     1 <1>   0.1500 
 47 C       -3.9034     3.6052     4.2270 C.3   1 <1>   0.1382 
 48 H1      -4.5277     2.7543     4.5260 H     1 <1>   0.0000 
 49 H2      -4.5049     4.5094     4.3745 H     1 <1>   0.0000 
 50 C       -2.6717     3.6784     5.1181 C.3   1 <1>   0.0610 
 51 H1      -2.9441     3.4500     6.1541 H     1 <1>   0.0000 
 52 H2      -2.2416     4.6850     5.1084 H     1 <1>   0.0000 
 53 C       -1.6227     2.6976     4.6477 C.2   1 <1>   0.4480 
 54 O       -1.0910     1.8931     5.4200 O.2   1 <1>  -0.5700 
@<TRIPOS>BOND
  1   1   2  1   
  2   1   4  1   
  3   1  20  1   
  4   1  21  1   
  5   2   3  1   
  6   3  25  ar  
  7   3  33  ar  
  8   4   5  1   
  9   5   6  1   
 10   5   7  1   
 11   5  12  1   
 12   7   8  1   
 13   7  10  1   
 14   7  11  1   
 15   8   9  1   
 16  12  13  1   
 17  12  15  1   
 18  12  16  1   
 19  13  14  1   
 20  16  17  1   
 21  16  18  1   
 22  16  20  1   
 23  18  19  1   
 24  20  22  1   
 25  20  23  1   
 26  22  24  1   
 27  25  26  1   
 28  25  27  ar  
 29  27  28  1   
 30  27  29  ar  
 31  29  30  1   
 32  29  31  ar  
 33  31  32  1   
 34  31  33  ar  
 35  33  34  1   
 36  34  35  1   
 37  34  41  1   
 38  34  42  1   
 39  35  36  1   
 40  36  37  2   
 41  36  38  1   
 42  38  39  1   
 43  38  43  1   
 44  38  53  1   
 45  39  40  1   
 46  43  44  1   
 47  43  45  2   
 48  45  46  1   
 49  45  47  1   
 50  47  48  1   
 51  47  49  1   
 52  47  50  1   
 53  50  51  1   
 54  50  52  1   
 55  50  53  1   
 56  53  54  2   
@<TRIPOS>SUBSTRUCTURE
  1 <1>   0 RESIDUE 1 * * 1
# MOE 2007.09 (io_trps.svl 2007.09)
