@<TRIPOS>MOLECULE
J02_27
85 89 1 0 0 
SMALL
USER_CHARGES


@<TRIPOS>ATOM
  1 C        2.8560    -2.1780     0.5890 C.ar  1 <1>  -0.1440 
  2 C        3.0800    -0.6770     0.4630 C.3   1 <1>   0.2040 
  3 H2       3.6190    -0.3300     1.3590 H     1 <1>   0.0000 
  4 C        1.7920     0.1870     0.3530 C.3   1 <1>   0.4240 
  5 O        2.1440     1.5810     0.2970 O.3   1 <1>  -0.6800 
  6 H        2.6680     1.6770    -0.5290 H     1 <1>   0.4000 
  7 C        0.8530     0.0000     1.5340 C.ar  1 <1>  -0.1440 
  8 H3       1.2470    -0.0060    -0.5770 H     1 <1>   0.0000 
  9 C        4.0320    -0.3540    -0.7010 C.2   1 <1>   0.5690 
 10 N        5.2450    -1.0140    -0.6520 N.am  1 <1>  -0.7300 
 11 C        6.3390    -0.7490    -1.5670 C.3   1 <1>   0.3000 
 12 C        6.4240    -1.8060    -2.6680 C.3   1 <1>   0.1440 
 13 C        7.7900    -1.8060    -3.3100 C.ar  1 <1>  -0.1440 
 14 H2       5.6440    -1.6350    -3.4200 H     1 <1>   0.0000 
 15 H3       6.2260    -2.8060    -2.2590 H     1 <1>   0.0000 
 16 H2       7.2450    -0.7450    -0.9510 H     1 <1>   0.0000 
 17 H3       6.2330     0.2510    -2.0020 H     1 <1>   0.0000 
 18 H2       5.3950    -1.7240     0.0540 H     1 <1>   0.3700 
 19 O        3.7630     0.5080    -1.5390 O.2   1 <1>  -0.5700 
 20 C        2.0620    -2.9130    -0.2960 C.ar  1 <1>   0.0820 
 21 O        1.4060    -2.2760    -1.3170 O.3   1 <1>  -0.5320 
 22 H        0.9960    -2.9990    -1.8350 H     1 <1>   0.4500 
 23 C        1.9320    -4.3070    -0.2000 C.ar  1 <1>   0.0820 
 24 O        1.1010    -4.8640    -1.1400 O.3   1 <1>  -0.3620 
 25 C        0.8720    -6.2650    -1.0360 C.3   1 <1>   0.2800 
 26 H1       0.1490    -6.5430    -1.8080 H     1 <1>   0.0000 
 27 H2       0.4390    -6.5260    -0.0640 H     1 <1>   0.0000 
 28 H3       1.7920    -6.8280    -1.2240 H     1 <1>   0.0000 
 29 C        2.6610    -4.9940     0.7670 C.ar  1 <1>  -0.1500 
 30 H        2.6370    -6.0770     0.8280 H     1 <1>   0.1500 
 31 C        3.5030    -4.2910     1.6430 C.ar  1 <1>  -0.1440 
 32 C        4.4720    -5.0410     2.5330 C.3   1 <1>   0.2820 
 33 C        5.6930    -5.4100     1.7350 C.2   1 <1>  -0.2880 
 34 H        6.1640    -4.5980     1.1800 H     1 <1>   0.1500 
 35 C        6.1700    -6.6530     1.5930 C.2   1 <1>  -0.1360 
 36 H        5.7370    -7.5010     2.1080 H     1 <1>   0.1500 
 37 C        7.2370    -6.8960     0.5950 C.2   1 <1>   0.6160 
 38 N        7.9420    -8.0490     0.8470 N.am  1 <1>  -0.7300 
 39 C        8.9270    -8.5810    -0.0800 C.3   1 <1>   0.3000 
 40 C       10.3290    -7.9790     0.0810 C.3   1 <1>   0.1440 
 41 C       10.5570    -6.6760    -0.6510 C.ar  1 <1>  -0.1440 
 42 H2      11.0630    -8.6940    -0.3130 H     1 <1>   0.0000 
 43 H3      10.5600    -7.8630     1.1470 H     1 <1>   0.0000 
 44 H2       8.5430    -8.4730    -1.1000 H     1 <1>   0.0000 
 45 H3       8.9800    -9.6540     0.1390 H     1 <1>   0.0000 
 46 H2       7.7730    -8.5670     1.7000 H     1 <1>   0.3700 
 47 O        7.4150    -6.1500    -0.3590 O.2   1 <1>  -0.5700 
 48 H2       3.9780    -5.9260     2.9520 H     1 <1>   0.0000 
 49 H3       4.7670    -4.4140     3.3830 H     1 <1>   0.0000 
 50 C        3.5630    -2.8900     1.5720 C.ar  1 <1>  -0.1500 
 51 H        4.2250    -2.3560     2.2530 H     1 <1>   0.1500 
 52 C       10.4290    -6.6120    -2.0480 C.ar  1 <1>  -0.1500 
 53 H       10.1550    -7.4960    -2.6180 H     1 <1>   0.1500 
 54 C       10.6460    -5.4130    -2.7290 C.ar  1 <1>  -0.1500 
 55 H       10.5400    -5.3760    -3.8090 H     1 <1>   0.1500 
 56 C       10.9920    -4.2690    -2.0120 C.ar  1 <1>   0.0820 
 57 O       11.2230    -3.0780    -2.6590 O.3   1 <1>  -0.1650 
 58 C       11.1670    -4.3240    -0.6300 C.ar  1 <1>  -0.1500 
 59 H       11.4600    -3.4330    -0.0820 H     1 <1>   0.1500 
 60 C       10.9420    -5.5230     0.0500 C.ar  1 <1>  -0.1500 
 61 H       11.0690    -5.5530     1.1290 H     1 <1>   0.1500 
 62 C        8.8440    -2.5010    -2.6960 C.ar  1 <1>  -0.1500 
 63 H        8.6510    -3.0500    -1.7770 H     1 <1>   0.1500 
 64 C       10.1310    -2.4670    -3.2420 C.ar  1 <1>   0.0820 
 65 C       10.3740    -1.7250    -4.3990 C.ar  1 <1>  -0.1500 
 66 H       11.3760    -1.6810    -4.8160 H     1 <1>   0.1500 
 67 C        9.3300    -1.0390    -5.0220 C.ar  1 <1>  -0.1500 
 68 H        9.5210    -0.4670    -5.9260 H     1 <1>   0.1500 
 69 C        8.0430    -1.0770    -4.4780 C.ar  1 <1>  -0.1500 
 70 H        7.2420    -0.5250    -4.9660 H     1 <1>   0.1500 
 71 C       -0.3040    -0.7900     1.3890 C.ar  1 <1>  -0.1500 
 72 H       -0.5080    -1.2340     0.4190 H     1 <1>   0.1500 
 73 C       -1.1610    -1.0000     2.4700 C.ar  1 <1>   0.0820 
 74 O       -2.3080    -1.7530     2.4650 O.3   1 <1>  -0.3620 
 75 C       -2.5920    -2.4660     1.2670 C.3   1 <1>   0.2800 
 76 H1      -3.5000    -3.0530     1.4350 H     1 <1>   0.0000 
 77 H2      -1.7850    -3.1650     1.0200 H     1 <1>   0.0000 
 78 H3      -2.7890    -1.7790     0.4370 H     1 <1>   0.0000 
 79 C       -0.8600    -0.4010     3.6970 C.ar  1 <1>   0.0820 
 80 O       -1.6960    -0.5900     4.7660 O.3   1 <1>  -0.5320 
 81 H       -2.4050    -1.1640     4.4160 H     1 <1>   0.4500 
 82 C        0.2720     0.3850     3.8650 C.ar  1 <1>  -0.1500 
 83 H        0.4830     0.8410     4.8270 H     1 <1>   0.1500 
 84 C        1.1300     0.5820     2.7830 C.ar  1 <1>  -0.1500 
 85 H        2.0150     1.2020     2.9110 H     1 <1>   0.1500 
@<TRIPOS>BOND
  1   1   2  1   
  2   1  20  ar  
  3   1  50  ar  
  4   2   3  1   
  5   2   4  1   
  6   2   9  1   
  7   4   5  1   
  8   4   7  1   
  9   4   8  1   
 10   5   6  1   
 11   7  71  ar  
 12   7  84  ar  
 13   9  10  am  
 14   9  19  2   
 15  10  11  1   
 16  10  18  1   
 17  11  12  1   
 18  11  16  1   
 19  11  17  1   
 20  12  13  1   
 21  12  14  1   
 22  12  15  1   
 23  13  62  ar  
 24  13  69  ar  
 25  20  21  1   
 26  20  23  ar  
 27  21  22  1   
 28  23  24  1   
 29  23  29  ar  
 30  24  25  1   
 31  25  26  1   
 32  25  27  1   
 33  25  28  1   
 34  29  30  1   
 35  29  31  ar  
 36  31  32  1   
 37  31  50  ar  
 38  32  33  1   
 39  32  48  1   
 40  32  49  1   
 41  33  34  1   
 42  33  35  2   
 43  35  36  1   
 44  35  37  1   
 45  37  38  am  
 46  37  47  2   
 47  38  39  1   
 48  38  46  1   
 49  39  40  1   
 50  39  44  1   
 51  39  45  1   
 52  40  41  1   
 53  40  42  1   
 54  40  43  1   
 55  41  52  ar  
 56  41  60  ar  
 57  50  51  1   
 58  52  53  1   
 59  52  54  ar  
 60  54  55  1   
 61  54  56  ar  
 62  56  57  1   
 63  56  58  ar  
 64  57  64  1   
 65  58  59  1   
 66  58  60  ar  
 67  60  61  1   
 68  62  63  1   
 69  62  64  ar  
 70  64  65  ar  
 71  65  66  1   
 72  65  67  ar  
 73  67  68  1   
 74  67  69  ar  
 75  69  70  1   
 76  71  72  1   
 77  71  73  ar  
 78  73  74  1   
 79  73  79  ar  
 80  74  75  1   
 81  75  76  1   
 82  75  77  1   
 83  75  78  1   
 84  79  80  1   
 85  79  82  ar  
 86  80  81  1   
 87  82  83  1   
 88  82  84  ar  
 89  84  85  1   
@<TRIPOS>SUBSTRUCTURE
  1 <1>   0 RESIDUE 1 * * 1
# MOE 2007.09 (io_trps.svl 2007.09)
@<TRIPOS>MOLECULE
NONAME
85 89 1 0 0 
SMALL
USER_CHARGES


@<TRIPOS>ATOM
  1 C        2.8560    -2.1780     0.5890 C.ar  1 <1>  -0.1440 
  2 C        3.0800    -0.6770     0.4630 C.3   1 <1>   0.2040 
  3 H2       3.6190    -0.3300     1.3590 H     1 <1>   0.0000 
  4 C        1.7920     0.1870     0.3530 C.3   1 <1>   0.4240 
  5 O        2.1440     1.5810     0.2970 O.3   1 <1>  -0.6800 
  6 H        2.6680     1.6770    -0.5290 H     1 <1>   0.4000 
  7 C        0.8530     0.0000     1.5340 C.ar  1 <1>  -0.1440 
  8 H3       1.2470    -0.0060    -0.5770 H     1 <1>   0.0000 
  9 C        4.0320    -0.3540    -0.7010 C.2   1 <1>   0.5690 
 10 N        5.2450    -1.0140    -0.6520 N.am  1 <1>  -0.7300 
 11 C        6.3390    -0.7490    -1.5670 C.3   1 <1>   0.3000 
 12 C        6.4240    -1.8060    -2.6680 C.3   1 <1>   0.1440 
 13 C        7.7900    -1.8060    -3.3100 C.ar  1 <1>  -0.1440 
 14 H2       5.6440    -1.6350    -3.4200 H     1 <1>   0.0000 
 15 H3       6.2260    -2.8060    -2.2590 H     1 <1>   0.0000 
 16 H2       7.2450    -0.7450    -0.9510 H     1 <1>   0.0000 
 17 H3       6.2330     0.2510    -2.0020 H     1 <1>   0.0000 
 18 H2       5.3950    -1.7240     0.0540 H     1 <1>   0.3700 
 19 O        3.7630     0.5080    -1.5390 O.2   1 <1>  -0.5700 
 20 C        2.0620    -2.9130    -0.2960 C.ar  1 <1>   0.0820 
 21 O        1.4060    -2.2760    -1.3170 O.3   1 <1>  -0.5320 
 22 H        0.9960    -2.9990    -1.8350 H     1 <1>   0.4500 
 23 C        1.9320    -4.3070    -0.2000 C.ar  1 <1>   0.0820 
 24 O        1.1010    -4.8640    -1.1400 O.3   1 <1>  -0.3620 
 25 C        0.8720    -6.2650    -1.0360 C.3   1 <1>   0.2800 
 26 H1       0.1490    -6.5430    -1.8080 H     1 <1>   0.0000 
 27 H2       0.4390    -6.5260    -0.0640 H     1 <1>   0.0000 
 28 H3       1.7920    -6.8280    -1.2240 H     1 <1>   0.0000 
 29 C        2.6610    -4.9940     0.7670 C.ar  1 <1>  -0.1500 
 30 H        2.6370    -6.0770     0.8280 H     1 <1>   0.1500 
 31 C        3.5030    -4.2910     1.6430 C.ar  1 <1>  -0.1440 
 32 C        4.4720    -5.0410     2.5330 C.3   1 <1>   0.2820 
 33 C        5.6930    -5.4100     1.7350 C.2   1 <1>  -0.2880 
 34 H        6.1640    -4.5980     1.1800 H     1 <1>   0.1500 
 35 C        6.1700    -6.6530     1.5930 C.2   1 <1>  -0.1360 
 36 H        5.7370    -7.5010     2.1080 H     1 <1>   0.1500 
 37 C        7.2370    -6.8960     0.5950 C.2   1 <1>   0.6160 
 38 N        7.9420    -8.0490     0.8470 N.am  1 <1>  -0.7300 
 39 C        8.9270    -8.5810    -0.0800 C.3   1 <1>   0.3000 
 40 C       10.3290    -7.9790     0.0810 C.3   1 <1>   0.1440 
 41 C       10.5570    -6.6760    -0.6510 C.ar  1 <1>  -0.1440 
 42 H2      11.0630    -8.6940    -0.3130 H     1 <1>   0.0000 
 43 H3      10.5600    -7.8630     1.1470 H     1 <1>   0.0000 
 44 H2       8.5430    -8.4730    -1.1000 H     1 <1>   0.0000 
 45 H3       8.9800    -9.6540     0.1390 H     1 <1>   0.0000 
 46 H2       7.7730    -8.5670     1.7000 H     1 <1>   0.3700 
 47 O        7.4150    -6.1500    -0.3590 O.2   1 <1>  -0.5700 
 48 H2       3.9780    -5.9260     2.9520 H     1 <1>   0.0000 
 49 H3       4.7670    -4.4140     3.3830 H     1 <1>   0.0000 
 50 C        3.5630    -2.8900     1.5720 C.ar  1 <1>  -0.1500 
 51 H        4.2250    -2.3560     2.2530 H     1 <1>   0.1500 
 52 C       10.4290    -6.6120    -2.0480 C.ar  1 <1>  -0.1500 
 53 H       10.1550    -7.4960    -2.6180 H     1 <1>   0.1500 
 54 C       10.6460    -5.4130    -2.7290 C.ar  1 <1>  -0.1500 
 55 H       10.5400    -5.3760    -3.8090 H     1 <1>   0.1500 
 56 C       10.9920    -4.2690    -2.0120 C.ar  1 <1>   0.0820 
 57 O       11.2230    -3.0780    -2.6590 O.3   1 <1>  -0.1650 
 58 C       11.1670    -4.3240    -0.6300 C.ar  1 <1>  -0.1500 
 59 H       11.4600    -3.4330    -0.0820 H     1 <1>   0.1500 
 60 C       10.9420    -5.5230     0.0500 C.ar  1 <1>  -0.1500 
 61 H       11.0690    -5.5530     1.1290 H     1 <1>   0.1500 
 62 C        8.8440    -2.5010    -2.6960 C.ar  1 <1>  -0.1500 
 63 H        8.6510    -3.0500    -1.7770 H     1 <1>   0.1500 
 64 C       10.1310    -2.4670    -3.2420 C.ar  1 <1>   0.0820 
 65 C       10.3740    -1.7250    -4.3990 C.ar  1 <1>  -0.1500 
 66 H       11.3760    -1.6810    -4.8160 H     1 <1>   0.1500 
 67 C        9.3300    -1.0390    -5.0220 C.ar  1 <1>  -0.1500 
 68 H        9.5210    -0.4670    -5.9260 H     1 <1>   0.1500 
 69 C        8.0430    -1.0770    -4.4780 C.ar  1 <1>  -0.1500 
 70 H        7.2420    -0.5250    -4.9660 H     1 <1>   0.1500 
 71 C       -0.3040    -0.7900     1.3890 C.ar  1 <1>  -0.1500 
 72 H       -0.5080    -1.2340     0.4190 H     1 <1>   0.1500 
 73 C       -1.1610    -1.0000     2.4700 C.ar  1 <1>   0.0820 
 74 O       -2.3080    -1.7530     2.4650 O.3   1 <1>  -0.3620 
 75 C       -2.5920    -2.4660     1.2670 C.3   1 <1>   0.2800 
 76 H1      -3.5000    -3.0530     1.4350 H     1 <1>   0.0000 
 77 H2      -1.7850    -3.1650     1.0200 H     1 <1>   0.0000 
 78 H3      -2.7890    -1.7790     0.4370 H     1 <1>   0.0000 
 79 C       -0.8600    -0.4010     3.6970 C.ar  1 <1>   0.0820 
 80 O       -1.6960    -0.5900     4.7660 O.3   1 <1>  -0.5320 
 81 H       -2.4050    -1.1640     4.4160 H     1 <1>   0.4500 
 82 C        0.2720     0.3850     3.8650 C.ar  1 <1>  -0.1500 
 83 H        0.4830     0.8410     4.8270 H     1 <1>   0.1500 
 84 C        1.1300     0.5820     2.7830 C.ar  1 <1>  -0.1500 
 85 H        2.0150     1.2020     2.9110 H     1 <1>   0.1500 
@<TRIPOS>BOND
  1   1   2  1   
  2   1  20  ar  
  3   1  50  ar  
  4   2   3  1   
  5   2   4  1   
  6   2   9  1   
  7   4   5  1   
  8   4   7  1   
  9   4   8  1   
 10   5   6  1   
 11   7  71  ar  
 12   7  84  ar  
 13   9  10  am  
 14   9  19  2   
 15  10  11  1   
 16  10  18  1   
 17  11  12  1   
 18  11  16  1   
 19  11  17  1   
 20  12  13  1   
 21  12  14  1   
 22  12  15  1   
 23  13  62  ar  
 24  13  69  ar  
 25  20  21  1   
 26  20  23  ar  
 27  21  22  1   
 28  23  24  1   
 29  23  29  ar  
 30  24  25  1   
 31  25  26  1   
 32  25  27  1   
 33  25  28  1   
 34  29  30  1   
 35  29  31  ar  
 36  31  32  1   
 37  31  50  ar  
 38  32  33  1   
 39  32  48  1   
 40  32  49  1   
 41  33  34  1   
 42  33  35  2   
 43  35  36  1   
 44  35  37  1   
 45  37  38  am  
 46  37  47  2   
 47  38  39  1   
 48  38  46  1   
 49  39  40  1   
 50  39  44  1   
 51  39  45  1   
 52  40  41  1   
 53  40  42  1   
 54  40  43  1   
 55  41  52  ar  
 56  41  60  ar  
 57  50  51  1   
 58  52  53  1   
 59  52  54  ar  
 60  54  55  1   
 61  54  56  ar  
 62  56  57  1   
 63  56  58  ar  
 64  57  64  1   
 65  58  59  1   
 66  58  60  ar  
 67  60  61  1   
 68  62  63  1   
 69  62  64  ar  
 70  64  65  ar  
 71  65  66  1   
 72  65  67  ar  
 73  67  68  1   
 74  67  69  ar  
 75  69  70  1   
 76  71  72  1   
 77  71  73  ar  
 78  73  74  1   
 79  73  79  ar  
 80  74  75  1   
 81  75  76  1   
 82  75  77  1   
 83  75  78  1   
 84  79  80  1   
 85  79  82  ar  
 86  80  81  1   
 87  82  83  1   
 88  82  84  ar  
 89  84  85  1   
@<TRIPOS>SUBSTRUCTURE
  1 <1>   0 RESIDUE 1 * * 1
# MOE 2007.09 (io_trps.svl 2007.09)
