@<TRIPOS>MOLECULE
J02_12-E
61 63 1 0 0 
SMALL
USER_CHARGES


@<TRIPOS>ATOM
  1 C        1.6690     0.4850     0.1090 C.ar  1 <1>   0.0280 
  2 C        2.9170     1.2300    -0.1070 C.2   1 <1>  -0.1780 
  3 H        2.8050     2.3020    -0.2640 H     1 <1>   0.1500 
  4 C        4.1340     0.6750    -0.1460 C.2   1 <1>  -0.1360 
  5 H        4.3020    -0.3880    -0.0230 H     1 <1>   0.1500 
  6 C        5.3170     1.5180    -0.3880 C.2   1 <1>   0.7060 
  7 O        6.4220     0.7270    -0.3360 O.3   1 <1>  -0.4300 
  8 C        7.6760     1.3960    -0.5970 C.3   1 <1>   0.3410 
  9 C        8.7870     0.4490    -0.1250 C.3   1 <1>   0.1440 
 10 C       10.0520     1.1620     0.2910 C.ar  1 <1>  -0.1440 
 11 H2       9.0150    -0.2930    -0.9020 H     1 <1>   0.0000 
 12 H3       8.4380    -0.1420     0.7330 H     1 <1>   0.0000 
 13 H2       7.6920     2.3470    -0.0500 H     1 <1>   0.0000 
 14 C        7.8010     1.6650    -2.0910 C.2   1 <1>   0.6590 
 15 O        8.8090     2.5100    -2.3930 O.3   1 <1>  -0.6500 
 16 H        8.7520     2.6380    -3.3630 H     1 <1>   0.5000 
 17 O        7.0940     1.2050    -2.9750 O.2   1 <1>  -0.5700 
 18 O        5.3000     2.7220    -0.5940 O.2   1 <1>  -0.5700 
 19 C        0.4900     0.9550    -0.4950 C.ar  1 <1>  -0.1500 
 20 H        0.5250     1.8390    -1.1260 H     1 <1>   0.1500 
 21 C       -0.7220     0.2890    -0.2920 C.ar  1 <1>   0.0820 
 22 O       -1.8730     0.7440    -0.8750 O.3   1 <1>  -0.5320 
 23 H       -1.6660     1.5120    -1.4320 H     1 <1>   0.4500 
 24 C       -0.7730    -0.8520     0.5070 C.ar  1 <1>   0.0820 
 25 O       -1.9840    -1.4700     0.7090 O.3   1 <1>  -0.1590 
 26 C       -2.1150    -2.8120     0.3440 C.2   1 <1>   0.0910 
 27 C       -3.1260    -3.5190     0.8640 C.2   1 <1>  -0.1780 
 28 H       -3.7980    -3.0270     1.5640 H     1 <1>   0.1500 
 29 C       -3.4810    -4.9050     0.5610 C.ar  1 <1>   0.0280 
 30 C       -1.2240    -3.4130    -0.6700 C.2   1 <1>   0.7060 
 31 O       -1.3720    -2.8130    -1.8680 O.3   1 <1>  -0.6500 
 32 H       -0.6940    -3.2200    -2.4460 H     1 <1>   0.5000 
 33 O       -0.4410    -4.3320    -0.4880 O.2   1 <1>  -0.5700 
 34 C        0.3830    -1.3050     1.1460 C.ar  1 <1>  -0.1500 
 35 H        0.3460    -2.1670     1.8060 H     1 <1>   0.1500 
 36 C        1.5970    -0.6400     0.9450 C.ar  1 <1>  -0.1500 
 37 H        2.4780    -1.0080     1.4650 H     1 <1>   0.1500 
 38 C       11.1740     1.1810    -0.5530 C.ar  1 <1>  -0.1500 
 39 H       11.1370     0.6770    -1.5140 H     1 <1>   0.1500 
 40 C       12.3220     1.8540    -0.1490 C.ar  1 <1>   0.0820 
 41 O       13.4470     1.9140    -0.9260 O.3   1 <1>  -0.5320 
 42 H       13.2720     1.4300    -1.7520 H     1 <1>   0.4500 
 43 C       12.3650     2.5040     1.0810 C.ar  1 <1>   0.0820 
 44 O       13.5030     3.1610     1.4540 O.3   1 <1>  -0.5320 
 45 H       14.1130     3.0270     0.7000 H     1 <1>   0.4500 
 46 C       11.2690     2.4950     1.9280 C.ar  1 <1>  -0.1500 
 47 H       11.3130     3.0050     2.8850 H     1 <1>   0.1500 
 48 C       10.1110     1.8230     1.5330 C.ar  1 <1>  -0.1500 
 49 H        9.2510     1.8160     2.1990 H     1 <1>   0.1500 
 50 C       -4.7010    -5.1750    -0.0730 C.ar  1 <1>  -0.1500 
 51 H       -5.3690    -4.3620    -0.3530 H     1 <1>   0.1500 
 52 C       -5.0780    -6.4910    -0.3560 C.ar  1 <1>  -0.1500 
 53 H       -6.0270    -6.6740    -0.8510 H     1 <1>   0.1500 
 54 C       -4.2320    -7.5410    -0.0030 C.ar  1 <1>   0.0820 
 55 O       -4.5840    -8.8340    -0.2780 O.3   1 <1>  -0.5320 
 56 H       -5.4500    -8.8430    -0.7140 H     1 <1>   0.4500 
 57 C       -3.0170    -7.2800     0.6310 C.ar  1 <1>   0.0820 
 58 O       -2.1920    -8.3180     0.9670 O.3   1 <1>  -0.5320 
 59 H       -1.3500    -7.9530     1.2820 H     1 <1>   0.4500 
 60 C       -2.6440    -5.9670     0.9230 C.ar  1 <1>  -0.1500 
 61 H       -1.7030    -5.7630     1.4280 H     1 <1>   0.1500 
@<TRIPOS>BOND
  1   1   2  1   
  2   1  19  ar  
  3   1  36  ar  
  4   2   3  1   
  5   2   4  2   
  6   4   5  1   
  7   4   6  1   
  8   6   7  1   
  9   6  18  2   
 10   7   8  1   
 11   8   9  1   
 12   8  13  1   
 13   8  14  1   
 14   9  10  1   
 15   9  11  1   
 16   9  12  1   
 17  10  38  ar  
 18  10  48  ar  
 19  14  15  1   
 20  14  17  2   
 21  15  16  1   
 22  19  20  1   
 23  19  21  ar  
 24  21  22  1   
 25  21  24  ar  
 26  22  23  1   
 27  24  25  1   
 28  24  34  ar  
 29  25  26  1   
 30  26  27  2   
 31  26  30  1   
 32  27  28  1   
 33  27  29  1   
 34  29  50  ar  
 35  29  60  ar  
 36  30  31  1   
 37  30  33  2   
 38  31  32  1   
 39  34  35  1   
 40  34  36  ar  
 41  36  37  1   
 42  38  39  1   
 43  38  40  ar  
 44  40  41  1   
 45  40  43  ar  
 46  41  42  1   
 47  43  44  1   
 48  43  46  ar  
 49  44  45  1   
 50  46  47  1   
 51  46  48  ar  
 52  48  49  1   
 53  50  51  1   
 54  50  52  ar  
 55  52  53  1   
 56  52  54  ar  
 57  54  55  1   
 58  54  57  ar  
 59  55  56  1   
 60  57  58  1   
 61  57  60  ar  
 62  58  59  1   
 63  60  61  1   
@<TRIPOS>SUBSTRUCTURE
  1 <1>   0 RESIDUE 1 * * 1
# MOE 2007.09 (io_trps.svl 2007.09)
