@<TRIPOS>MOLECULE
J02_32
63 64 1 0 0 
SMALL
USER_CHARGES


@<TRIPOS>ATOM
  1 C        1.1040     0.1890    -0.5460 C.ar  1 <1>   0.0860 
  2 C        2.3800     0.9450    -0.5540 C.2   1 <1>   0.5440 
  3 N        2.7870     1.4670    -1.7670 N.am  1 <1>  -0.7300 
  4 C        4.0200     2.2180    -1.9060 C.3   1 <1>   0.3000 
  5 C        5.2240     1.2970    -2.0880 C.3   1 <1>   0.0000 
  6 C        6.5070     2.1010    -2.2970 C.3   1 <1>   0.0000 
  7 C        7.7190     1.1820    -2.4620 C.3   1 <1>   0.3000 
  8 N        8.9480     1.9450    -2.7010 N.am  1 <1>  -0.6600 
  9 C        9.2990     2.2150    -4.0300 C.2   1 <1>   0.6160 
 10 O        8.5770     1.9160    -4.9790 O.2   1 <1>  -0.5700 
 11 C       10.6040     2.8810    -4.2720 C.2   1 <1>  -0.1360 
 12 H       11.3200     2.9450    -3.4670 H     1 <1>   0.1500 
 13 C       10.8820     3.3730    -5.4850 C.2   1 <1>  -0.1780 
 14 H       10.1480     3.3180    -6.2860 H     1 <1>   0.1500 
 15 C       12.1460     4.0380    -5.8200 C.ar  1 <1>   0.0280 
 16 C        9.7020     2.3740    -1.5130 C.3   1 <1>   0.3000 
 17 C       10.7080     1.3090    -1.0690 C.3   1 <1>   0.0000 
 18 C       11.5150     1.7460     0.1600 C.3   1 <1>   0.2700 
 19 H1      12.1450     0.9130     0.4980 H     1 <1>   0.0000 
 20 H2      10.7940     1.9360     0.9670 H     1 <1>   0.0000 
 21 N       12.3260     2.9540    -0.0670 N.3   1 <1>  -0.8100 
 22 C       13.4870     2.6800    -0.9180 C.3   1 <1>   0.2700 
 23 H1      14.0730     3.5940    -1.0720 H     1 <1>   0.0000 
 24 H2      13.1830     2.3460    -1.9140 H     1 <1>   0.0000 
 25 H3      14.1470     1.9190    -0.4850 H     1 <1>   0.0000 
 26 C       12.7820     3.5000     1.2160 C.3   1 <1>   0.2700 
 27 H1      11.9270     3.7730     1.8440 H     1 <1>   0.0000 
 28 H2      13.3580     4.4200     1.0600 H     1 <1>   0.0000 
 29 H3      13.4060     2.7890     1.7690 H     1 <1>   0.0000 
 30 H2      11.3730     1.0390    -1.8960 H     1 <1>   0.0000 
 31 H3      10.1680     0.3880    -0.8150 H     1 <1>   0.0000 
 32 H2       8.9860     2.5760    -0.7070 H     1 <1>   0.0000 
 33 H3      10.1960     3.3260    -1.7240 H     1 <1>   0.0000 
 34 H2       7.5500     0.5000    -3.3030 H     1 <1>   0.0000 
 35 H3       7.8580     0.5600    -1.5710 H     1 <1>   0.0000 
 36 H2       6.6650     2.7730    -1.4450 H     1 <1>   0.0000 
 37 H3       6.4030     2.7390    -3.1830 H     1 <1>   0.0000 
 38 H2       5.0550     0.6380    -2.9490 H     1 <1>   0.0000 
 39 H3       5.3310     0.6470    -1.2110 H     1 <1>   0.0000 
 40 H2       4.1510     2.8510    -1.0210 H     1 <1>   0.0000 
 41 H3       3.9000     2.8700    -2.7770 H     1 <1>   0.0000 
 42 H2       2.2150     1.3490    -2.5940 H     1 <1>   0.3700 
 43 O        2.9950     1.0980     0.4970 O.2   1 <1>  -0.5700 
 44 C        0.3480     0.1870     0.6330 C.ar  1 <1>  -0.1500 
 45 H        0.6940     0.7320     1.5090 H     1 <1>   0.1500 
 46 C       -0.8590    -0.5120     0.6930 C.ar  1 <1>  -0.1500 
 47 H       -1.4440    -0.5070     1.6090 H     1 <1>   0.1500 
 48 C       -1.3100    -1.2170    -0.4210 C.ar  1 <1>  -0.1500 
 49 H       -2.2490    -1.7640    -0.3740 H     1 <1>   0.1500 
 50 C       -0.5530    -1.2310    -1.5930 C.ar  1 <1>  -0.1500 
 51 H       -0.9030    -1.7950    -2.4540 H     1 <1>   0.1500 
 52 C        0.6550    -0.5330    -1.6570 C.ar  1 <1>  -0.1500 
 53 H        1.2370    -0.5910    -2.5720 H     1 <1>   0.1500 
 54 C       13.3840     3.5720    -5.3550 C.ar  1 <1>  -0.1500 
 55 H       13.4440     2.6940    -4.7170 H     1 <1>   0.1500 
 56 C       14.5680     4.2190    -5.7180 C.ar  1 <1>  -0.1500 
 57 H       15.5230     3.8500    -5.3520 H     1 <1>   0.1500 
 58 C       14.5280     5.3310    -6.5560 C.ar  1 <1>  -0.1500 
 59 H       15.4490     5.8330    -6.8410 H     1 <1>   0.1500 
 60 C       13.3050     5.7940    -7.0370 C.ar  1 <1>  -0.1500 
 61 H       13.2720     6.6580    -7.6950 H     1 <1>   0.1500 
 62 C       12.1200     5.1470    -6.6760 C.ar  1 <1>  -0.1500 
 63 H       11.1770     5.5230    -7.0660 H     1 <1>   0.1500 
@<TRIPOS>BOND
  1   1   2  1   
  2   1  44  ar  
  3   1  52  ar  
  4   2   3  am  
  5   2  43  2   
  6   3   4  1   
  7   3  42  1   
  8   4   5  1   
  9   4  40  1   
 10   4  41  1   
 11   5   6  1   
 12   5  38  1   
 13   5  39  1   
 14   6   7  1   
 15   6  36  1   
 16   6  37  1   
 17   7   8  1   
 18   7  34  1   
 19   7  35  1   
 20   8   9  am  
 21   8  16  1   
 22   9  10  2   
 23   9  11  1   
 24  11  12  1   
 25  11  13  2   
 26  13  14  1   
 27  13  15  1   
 28  15  54  ar  
 29  15  62  ar  
 30  16  17  1   
 31  16  32  1   
 32  16  33  1   
 33  17  18  1   
 34  17  30  1   
 35  17  31  1   
 36  18  19  1   
 37  18  20  1   
 38  18  21  1   
 39  21  22  1   
 40  21  26  1   
 41  22  23  1   
 42  22  24  1   
 43  22  25  1   
 44  26  27  1   
 45  26  28  1   
 46  26  29  1   
 47  44  45  1   
 48  44  46  ar  
 49  46  47  1   
 50  46  48  ar  
 51  48  49  1   
 52  48  50  ar  
 53  50  51  1   
 54  50  52  ar  
 55  52  53  1   
 56  54  55  1   
 57  54  56  ar  
 58  56  57  1   
 59  56  58  ar  
 60  58  59  1   
 61  58  60  ar  
 62  60  61  1   
 63  60  62  ar  
 64  62  63  1   
@<TRIPOS>SUBSTRUCTURE
  1 <1>   0 RESIDUE 1 * * 1
# MOE 2007.09 (io_trps.svl 2007.09)
