@<TRIPOS>MOLECULE
J02_03
88 92 1 0 0 
SMALL
USER_CHARGES


@<TRIPOS>ATOM
  1 C        0.8190     0.8840    -0.4570 C.ar  1 <1>   0.0860 
  2 C        2.0790     1.1490     0.2460 C.2   1 <1>   0.6340 
  3 C        0.4100     1.6400    -1.5610 C.ar  1 <1>  -0.1500 
  4 H        1.0190     2.4560    -1.9420 H     1 <1>   0.1500 
  5 C       -0.8030     1.3540    -2.1920 C.ar  1 <1>  -0.1500 
  6 H       -1.1240     1.9460    -3.0450 H     1 <1>   0.1500 
  7 C       -1.6050     0.3140    -1.7260 C.ar  1 <1>  -0.1500 
  8 H       -2.5500     0.0960    -2.2170 H     1 <1>   0.1500 
  9 C       -1.1980    -0.4460    -0.6300 C.ar  1 <1>  -0.1500 
 10 H       -1.8260    -1.2570    -0.2690 H     1 <1>   0.1500 
 11 C        0.0130    -0.1650     0.0030 C.ar  1 <1>  -0.1500 
 12 H        0.3190    -0.7640     0.8580 H     1 <1>   0.1500 
 13 O        2.5690     2.3740    -0.0680 O.3   1 <1>  -0.4300 
 14 C        3.7470     2.8290     0.6510 C.3   1 <1>   0.2800 
 15 H        3.6070     2.6530     1.7260 H     1 <1>   0.0000 
 16 O        2.6180     0.3590     1.0120 O.2   1 <1>  -0.5700 
 17 C        4.9940     2.0730     0.1550 C.3   1 <1>   0.2800 
 18 H1       4.9490     1.9650    -0.9360 H     1 <1>   0.0000 
 19 O        5.0920     0.7300     0.6670 O.3   1 <1>  -0.6800 
 20 H        4.1860     0.4130     0.8940 H     1 <1>   0.4000 
 21 C        6.3060     2.7460     0.5640 C.3   1 <1>   0.2800 
 22 O        7.3630     2.0220    -0.0820 O.3   1 <1>  -0.6800 
 23 H        7.1410     1.0790     0.0730 H     1 <1>   0.4000 
 24 H2       6.4670     2.6280     1.6430 H     1 <1>   0.0000 
 25 C        6.2940     4.2360     0.2040 C.3   1 <1>   0.5600 
 26 H1       6.1910     4.4080    -0.8730 H     1 <1>   0.0000 
 27 O        7.4720     4.8770     0.7250 O.3   1 <1>  -0.3620 
 28 C        8.5160     5.1640    -0.1150 C.ar  1 <1>   0.0820 
 29 O        5.1560     4.8330     0.8490 O.3   1 <1>  -0.5600 
 30 C        3.8950     4.3410     0.3780 C.3   1 <1>   0.2800 
 31 H1       3.8150     4.5260    -0.7020 H     1 <1>   0.0000 
 32 C        2.8150     5.1850     1.0790 C.3   1 <1>   0.2800 
 33 O        1.4990     4.9730     0.5440 O.3   1 <1>  -0.4300 
 34 C        0.6350     4.2740     1.3240 C.2   1 <1>   0.6340 
 35 C       -0.7020     4.2250     0.7110 C.ar  1 <1>   0.0860 
 36 O        0.9060     3.7270     2.3840 O.2   1 <1>  -0.5700 
 37 H2       3.0420     6.2470     0.9250 H     1 <1>   0.0000 
 38 H3       2.8560     5.0410     2.1660 H     1 <1>   0.0000 
 39 C        8.7200     4.5590    -1.3620 C.ar  1 <1>  -0.1500 
 40 H        8.0600     3.7850    -1.7380 H     1 <1>   0.1500 
 41 C        9.8110     4.9130    -2.1590 C.ar  1 <1>  -0.1500 
 42 H        9.9560     4.4300    -3.1220 H     1 <1>   0.1500 
 43 C       10.7130     5.8740    -1.7210 C.ar  1 <1>  -0.1500 
 44 H       11.5600     6.1530    -2.3420 H     1 <1>   0.1500 
 45 C       10.5330     6.4720    -0.4770 C.ar  1 <1>  -0.1500 
 46 H       11.2500     7.2230    -0.1480 H     1 <1>   0.1500 
 47 C        9.4520     6.1100     0.3520 C.ar  1 <1>  -0.1440 
 48 C        9.2840     6.7940     1.6920 C.3   1 <1>   0.4240 
 49 O       10.5800     7.0360     2.2700 O.3   1 <1>  -0.4300 
 50 C       10.5790     7.7530     3.4240 C.2   1 <1>   0.6590 
 51 C       11.9950     7.9220     3.9950 C.3   1 <1>   0.3410 
 52 O       11.9170     7.9460     5.4340 O.3   1 <1>  -0.6800 
 53 H       11.4480     7.1150     5.6970 H     1 <1>   0.4000 
 54 O        9.5710     8.2130     3.9490 O.2   1 <1>  -0.5700 
 55 H2       8.7240     6.1610     2.3890 H     1 <1>   0.0000 
 56 H3       8.7550     7.7420     1.5400 H     1 <1>   0.0000 
 57 C       -1.0600     5.0350    -0.3730 C.ar  1 <1>  -0.1500 
 58 H       -0.3550     5.7410    -0.8040 H     1 <1>   0.1500 
 59 C       -2.3440     4.9490    -0.9160 C.ar  1 <1>  -0.1500 
 60 H       -2.6240     5.5810    -1.7560 H     1 <1>   0.1500 
 61 C       -3.2720     4.0560    -0.3820 C.ar  1 <1>  -0.1500 
 62 H       -4.2710     3.9900    -0.8060 H     1 <1>   0.1500 
 63 C       -2.9200     3.2480     0.6990 C.ar  1 <1>  -0.1500 
 64 H       -3.6400     2.5480     1.1140 H     1 <1>   0.1500 
 65 C       -1.6400     3.3340     1.2480 C.ar  1 <1>  -0.1500 
 66 H       -1.3780     2.6960     2.0900 H     1 <1>   0.1500 
 67 C       12.9990     6.8470     3.4870 C.3   1 <1>   0.4180 
 68 H1      12.9990     6.8420     2.3890 H     1 <1>   0.0000 
 69 O       12.7990     5.4460     3.8300 O.3   1 <1>  -0.4300 
 70 C       11.9050     4.9870     4.7260 C.2   1 <1>   0.6600 
 71 H       11.9690     3.8890     4.7700 H     1 <1>   0.0600 
 72 O       11.1360     5.6530     5.4020 O.2   1 <1>  -0.5700 
 73 C       14.4130     7.1870     3.8900 C.2   1 <1>  -0.2880 
 74 H       15.1360     6.3750     3.9020 H     1 <1>   0.1500 
 75 C       14.8200     8.4170     4.2210 C.2   1 <1>  -0.1360 
 76 H       15.8390     8.6340     4.5190 H     1 <1>   0.1500 
 77 C       13.8810     9.5600     4.1510 C.2   1 <1>   0.4950 
 78 O       14.2710    10.6740     4.4900 O.2   1 <1>  -0.5700 
 79 C       12.4830     9.3260     3.5740 C.3   1 <1>   0.3410 
 80 O       12.5300     9.4200     2.1490 O.3   1 <1>  -0.5600 
 81 C       12.5430    10.7660     1.6750 C.3   1 <1>   0.2800 
 82 C       12.5130    10.7290     0.1590 C.3   1 <1>   0.0000 
 83 H1      12.5190    11.7400    -0.2570 H     1 <1>   0.0000 
 84 H2      11.6190    10.2050    -0.1960 H     1 <1>   0.0000 
 85 H3      13.3780    10.1810    -0.2300 H     1 <1>   0.0000 
 86 H2      13.4500    11.2780     2.0120 H     1 <1>   0.0000 
 87 H3      11.6630    11.3010     2.0480 H     1 <1>   0.0000 
 88 H2      11.8090    10.0850     3.9960 H     1 <1>   0.0000 
@<TRIPOS>BOND
  1   1   2  1   
  2   1   3  ar  
  3   1  11  ar  
  4   2  13  1   
  5   2  16  2   
  6   3   4  1   
  7   3   5  ar  
  8   5   6  1   
  9   5   7  ar  
 10   7   8  1   
 11   7   9  ar  
 12   9  10  1   
 13   9  11  ar  
 14  11  12  1   
 15  13  14  1   
 16  14  15  1   
 17  14  17  1   
 18  14  30  1   
 19  17  18  1   
 20  17  19  1   
 21  17  21  1   
 22  19  20  1   
 23  21  22  1   
 24  21  24  1   
 25  21  25  1   
 26  22  23  1   
 27  25  26  1   
 28  25  27  1   
 29  25  29  1   
 30  27  28  1   
 31  28  39  ar  
 32  28  47  ar  
 33  29  30  1   
 34  30  31  1   
 35  30  32  1   
 36  32  33  1   
 37  32  37  1   
 38  32  38  1   
 39  33  34  1   
 40  34  35  1   
 41  34  36  2   
 42  35  57  ar  
 43  35  65  ar  
 44  39  40  1   
 45  39  41  ar  
 46  41  42  1   
 47  41  43  ar  
 48  43  44  1   
 49  43  45  ar  
 50  45  46  1   
 51  45  47  ar  
 52  47  48  1   
 53  48  49  1   
 54  48  55  1   
 55  48  56  1   
 56  49  50  1   
 57  50  51  1   
 58  50  54  2   
 59  51  52  1   
 60  51  67  1   
 61  51  79  1   
 62  52  53  1   
 63  57  58  1   
 64  57  59  ar  
 65  59  60  1   
 66  59  61  ar  
 67  61  62  1   
 68  61  63  ar  
 69  63  64  1   
 70  63  65  ar  
 71  65  66  1   
 72  67  68  1   
 73  67  69  1   
 74  67  73  1   
 75  69  70  1   
 76  70  71  1   
 77  70  72  2   
 78  73  74  1   
 79  73  75  2   
 80  75  76  1   
 81  75  77  1   
 82  77  78  2   
 83  77  79  1   
 84  79  80  1   
 85  79  88  1   
 86  80  81  1   
 87  81  82  1   
 88  81  86  1   
 89  81  87  1   
 90  82  83  1   
 91  82  84  1   
 92  82  85  1   
@<TRIPOS>SUBSTRUCTURE
  1 <1>   0 RESIDUE 1 * * 1
# MOE 2007.09 (io_trps.svl 2007.09)
