@<TRIPOS>MOLECULE
J02_18
78 81 1 0 0 
SMALL
USER_CHARGES


@<TRIPOS>ATOM
  1 N        1.7080     0.2940     0.1380 N.am  1 <1>  -0.6600 
  2 C        0.9090     1.4160    -0.0420 C.2   1 <1>   0.5690 
  3 O        1.2080     2.5230     0.4140 O.2   1 <1>  -0.5700 
  4 C       -0.3750     1.2590    -0.8270 C.3   1 <1>   0.0610 
  5 H1      -0.2370     0.6270    -1.7080 H     1 <1>   0.0000 
  6 H2      -0.5610     2.2580    -1.2530 H     1 <1>   0.0000 
  7 C       -1.5950     0.8300     0.0200 C.3   1 <1>   0.4140 
  8 C       -2.8280     1.2990    -0.7730 C.ar  1 <1>  -0.1440 
  9 H2      -1.5790     1.3950     0.9630 H     1 <1>   0.0000 
 10 N       -1.6460    -0.6310     0.3580 N.3   1 <1>  -0.8100 
 11 C       -2.9580    -1.0050     0.9260 C.3   1 <1>   0.2700 
 12 H1      -3.7710    -0.8880     0.2040 H     1 <1>   0.0000 
 13 H2      -3.1960    -0.4240     1.8250 H     1 <1>   0.0000 
 14 H3      -2.9710    -2.0700     1.1880 H     1 <1>   0.0000 
 15 C       -0.6090    -1.0130     1.3440 C.3   1 <1>   0.2700 
 16 H1      -1.0300    -1.6770     2.1130 H     1 <1>   0.0000 
 17 H2      -0.2450    -0.1510     1.9160 H     1 <1>   0.0000 
 18 C        0.5470    -1.8010     0.7240 C.3   1 <1>   0.0000 
 19 H1       0.1720    -2.7350     0.2860 H     1 <1>   0.0000 
 20 H2       1.2230    -2.0960     1.5370 H     1 <1>   0.0000 
 21 C        1.3480    -1.0460    -0.3280 C.3   1 <1>   0.3000 
 22 H1       0.7850    -0.9990    -1.2610 H     1 <1>   0.0000 
 23 H2       2.2670    -1.5960    -0.5630 H     1 <1>   0.0000 
 24 C        2.9730     0.4350     0.8640 C.3   1 <1>   0.3000 
 25 H1       2.8860     1.2510     1.5900 H     1 <1>   0.0000 
 26 C        4.1320     0.7220    -0.0900 C.3   1 <1>   0.0000 
 27 C        5.4550     0.8720     0.6630 C.3   1 <1>   0.0000 
 28 C        6.6090     1.1160    -0.3090 C.3   1 <1>   0.3000 
 29 N        7.9120     1.1800     0.3750 N.am  1 <1>  -0.6600 
 30 H2       6.4540     2.0420    -0.8750 H     1 <1>   0.0000 
 31 H3       6.6320     0.3130    -1.0560 H     1 <1>   0.0000 
 32 H2       5.6490    -0.0320     1.2530 H     1 <1>   0.0000 
 33 H3       5.3850     1.7040     1.3740 H     1 <1>   0.0000 
 34 H2       3.9260     1.6380    -0.6580 H     1 <1>   0.0000 
 35 H3       4.2150    -0.0890    -0.8230 H     1 <1>   0.0000 
 36 H3       3.1550    -0.4830     1.4350 H     1 <1>   0.0000 
 37 C       -3.6320     2.3350    -0.2710 C.ar  1 <1>  -0.1500 
 38 H       -3.3970     2.8050     0.6810 H     1 <1>   0.1500 
 39 C       -4.7440     2.7800    -0.9890 C.ar  1 <1>  -0.1500 
 40 H       -5.3610     3.5820    -0.5920 H     1 <1>   0.1500 
 41 C       -5.0650     2.1980    -2.2140 C.ar  1 <1>  -0.1500 
 42 H       -5.9300     2.5460    -2.7710 H     1 <1>   0.1500 
 43 C       -4.2760     1.1700    -2.7260 C.ar  1 <1>  -0.1500 
 44 H       -4.5280     0.7140    -3.6790 H     1 <1>   0.1500 
 45 C       -3.1630     0.7230    -2.0120 C.ar  1 <1>  -0.1500 
 46 H       -2.5620    -0.0880    -2.4170 H     1 <1>   0.1500 
 47 C        8.3210     2.5070     0.8360 C.3   1 <1>   0.3000 
 48 H1       7.6340     3.2480     0.4060 H     1 <1>   0.0000 
 49 H2       9.2840     2.7620     0.3960 H     1 <1>   0.0000 
 50 C        8.2970     2.7040     2.3450 C.3   1 <1>   0.0000 
 51 H1       7.2690     2.5760     2.7070 H     1 <1>   0.0000 
 52 H2       8.5610     3.7470     2.5590 H     1 <1>   0.0000 
 53 C        9.1990     1.7820     3.1620 C.3   1 <1>   0.2700 
 54 H1       8.7550     0.7810     3.2090 H     1 <1>   0.0000 
 55 H2       9.1540     2.1200     4.2070 H     1 <1>   0.0000 
 56 N       10.6080     1.7000     2.7780 N.3   1 <1>  -0.8100 
 57 C       11.2960     2.9860     2.9010 C.3   1 <1>   0.2700 
 58 H1      11.1060     3.4350     3.8820 H     1 <1>   0.0000 
 59 H2      12.3830     2.8680     2.8300 H     1 <1>   0.0000 
 60 H3      10.9820     3.6990     2.1310 H     1 <1>   0.0000 
 61 C       10.9090     1.0160     1.5000 C.3   1 <1>   0.4140 
 62 C       12.3470     0.4670     1.5340 C.ar  1 <1>  -0.1440 
 63 H2      10.8820     1.7320     0.6750 H     1 <1>   0.0000 
 64 C        9.9820    -0.1590     1.1520 C.3   1 <1>   0.0610 
 65 H1       9.8430    -0.7970     2.0370 H     1 <1>   0.0000 
 66 H2      10.5200    -0.7990     0.4330 H     1 <1>   0.0000 
 67 C        8.6060    -0.0130     0.5050 C.2   1 <1>   0.5690 
 68 O        8.0930    -1.0720     0.1070 O.2   1 <1>  -0.5700 
 69 C       13.2410     0.7650     0.4920 C.ar  1 <1>  -0.1500 
 70 H       12.9300     1.3920    -0.3400 H     1 <1>   0.1500 
 71 C       14.5420     0.2580     0.5060 C.ar  1 <1>  -0.1500 
 72 H       15.2260     0.4950    -0.3040 H     1 <1>   0.1500 
 73 C       14.9650    -0.5520     1.5580 C.ar  1 <1>  -0.1500 
 74 H       15.9780    -0.9450     1.5680 H     1 <1>   0.1500 
 75 C       14.0900    -0.8570     2.5990 C.ar  1 <1>  -0.1500 
 76 H       14.4200    -1.4870     3.4200 H     1 <1>   0.1500 
 77 C       12.7890    -0.3530     2.5870 C.ar  1 <1>  -0.1500 
 78 H       12.1170    -0.5940     3.4080 H     1 <1>   0.1500 
@<TRIPOS>BOND
  1   1   2  am  
  2   1  21  1   
  3   1  24  1   
  4   2   3  2   
  5   2   4  1   
  6   4   5  1   
  7   4   6  1   
  8   4   7  1   
  9   7   8  1   
 10   7   9  1   
 11   7  10  1   
 12   8  37  ar  
 13   8  45  ar  
 14  10  11  1   
 15  10  15  1   
 16  11  12  1   
 17  11  13  1   
 18  11  14  1   
 19  15  16  1   
 20  15  17  1   
 21  15  18  1   
 22  18  19  1   
 23  18  20  1   
 24  18  21  1   
 25  21  22  1   
 26  21  23  1   
 27  24  25  1   
 28  24  26  1   
 29  24  36  1   
 30  26  27  1   
 31  26  34  1   
 32  26  35  1   
 33  27  28  1   
 34  27  32  1   
 35  27  33  1   
 36  28  29  1   
 37  28  30  1   
 38  28  31  1   
 39  29  47  1   
 40  29  67  am  
 41  37  38  1   
 42  37  39  ar  
 43  39  40  1   
 44  39  41  ar  
 45  41  42  1   
 46  41  43  ar  
 47  43  44  1   
 48  43  45  ar  
 49  45  46  1   
 50  47  48  1   
 51  47  49  1   
 52  47  50  1   
 53  50  51  1   
 54  50  52  1   
 55  50  53  1   
 56  53  54  1   
 57  53  55  1   
 58  53  56  1   
 59  56  57  1   
 60  56  61  1   
 61  57  58  1   
 62  57  59  1   
 63  57  60  1   
 64  61  62  1   
 65  61  63  1   
 66  61  64  1   
 67  62  69  ar  
 68  62  77  ar  
 69  64  65  1   
 70  64  66  1   
 71  64  67  1   
 72  67  68  2   
 73  69  70  1   
 74  69  71  ar  
 75  71  72  1   
 76  71  73  ar  
 77  73  74  1   
 78  73  75  ar  
 79  75  76  1   
 80  75  77  ar  
 81  77  78  1   
@<TRIPOS>SUBSTRUCTURE
  1 <1>   0 RESIDUE 1 * * 1
# MOE 2007.09 (io_trps.svl 2007.09)
