@<TRIPOS>MOLECULE
J03_14
42 45 1 0 0 
SMALL
USER_CHARGES


@<TRIPOS>ATOM
  1 C        1.2627     0.7035    -0.2608 C.ar  1 <1>  -0.1435 
  2 C       -0.0670     1.4294    -0.2189 C.3   1 <1>   0.1435 
  3 H1      -0.0743     2.2383    -0.9582 H     1 <1>   0.0000 
  4 H2      -0.1870     1.8665     0.7802 H     1 <1>   0.0000 
  5 C       -1.2786     0.5587    -0.5210 C.3   1 <1>   0.0000 
  6 H1      -1.3325     0.3411    -1.5937 H     1 <1>   0.0000 
  7 H2      -2.1934     1.1070    -0.2677 H     1 <1>   0.0000 
  8 C       -1.2012    -0.7239     0.2838 C.3   1 <1>   0.0000 
  9 H1      -2.1241    -1.3012     0.1452 H     1 <1>   0.0000 
 10 H2      -1.1590    -0.4638     1.3508 H     1 <1>   0.0000 
 11 C        0.0314    -1.5730    -0.1070 C.3   1 <1>   0.1435 
 12 C       -0.2230    -2.2690    -1.4630 C.3   1 <1>   0.0000 
 13 H1      -0.2805    -1.5508    -2.2882 H     1 <1>   0.0000 
 14 H2      -1.1604    -2.8367    -1.4462 H     1 <1>   0.0000 
 15 H3       0.5782    -2.9750    -1.7113 H     1 <1>   0.0000 
 16 C        0.1745    -2.6639     0.9814 C.3   1 <1>   0.0000 
 17 H1       0.9310    -3.4138     0.7273 H     1 <1>   0.0000 
 18 H2      -0.7696    -3.2038     1.1214 H     1 <1>   0.0000 
 19 H3       0.4555    -2.2260     1.9465 H     1 <1>   0.0000 
 20 C        1.3039    -0.7149    -0.2193 C.ar  1 <1>  -0.1435 
 21 C        2.5529    -1.3573    -0.3214 C.ar  1 <1>  -0.1500 
 22 H        2.6197    -2.4431    -0.3321 H     1 <1>   0.1500 
 23 C        3.7393    -0.6362    -0.4280 C.ar  1 <1>  -0.1500 
 24 H        4.6783    -1.1801    -0.5110 H     1 <1>   0.1500 
 25 C        3.7199     0.7573    -0.4240 C.ar  1 <1>   0.0284 
 26 C        2.4836     1.4301    -0.3216 C.ar  1 <1>   0.0862 
 27 C        4.9616     1.5103    -0.5362 C.2   1 <1>   0.0483 
 28 C        5.0219     2.8257    -0.6295 C.2   1 <1>  -0.1238 
 29 C        3.8247     3.6394    -0.5688 C.2   1 <1>   0.5556 
 30 O        3.8403     4.8495    -0.7518 O.2   1 <1>  -0.5700 
 31 C        2.5312     2.9196    -0.2467 C.2   1 <1>   0.4838 
 32 O        1.5784     3.6017     0.1113 O.2   1 <1>  -0.5700 
 33 O        6.1837     0.8571    -0.6149 O.3   1 <1>  -0.3567 
 34 C        7.1394     1.9409    -0.5028 C.3   1 <1>   0.2800 
 35 H1       7.9805     1.7423    -1.1755 H     1 <1>   0.0000 
 36 H2       7.5208     1.9374     0.5264 H     1 <1>   0.0000 
 37 C        6.4176     3.2646    -0.8116 C.3   1 <1>   0.1382 
 38 C        6.6998     3.7532    -2.2287 C.3   1 <1>   0.0000 
 39 H1       7.7649     3.9769    -2.3514 H     1 <1>   0.0000 
 40 H2       6.1391     4.6683    -2.4472 H     1 <1>   0.0000 
 41 H3       6.4261     3.0048    -2.9813 H     1 <1>   0.0000 
 42 H2       6.7133     4.0342    -0.0907 H     1 <1>   0.0000 
@<TRIPOS>BOND
  1   1   2  1   
  2   1  20  ar  
  3   1  26  ar  
  4   2   3  1   
  5   2   4  1   
  6   2   5  1   
  7   5   6  1   
  8   5   7  1   
  9   5   8  1   
 10   8   9  1   
 11   8  10  1   
 12   8  11  1   
 13  11  12  1   
 14  11  16  1   
 15  11  20  1   
 16  12  13  1   
 17  12  14  1   
 18  12  15  1   
 19  16  17  1   
 20  16  18  1   
 21  16  19  1   
 22  20  21  ar  
 23  21  22  1   
 24  21  23  ar  
 25  23  24  1   
 26  23  25  ar  
 27  25  26  ar  
 28  25  27  1   
 29  26  31  1   
 30  27  28  2   
 31  27  33  1   
 32  28  29  1   
 33  28  37  1   
 34  29  30  2   
 35  29  31  1   
 36  31  32  2   
 37  33  34  1   
 38  34  35  1   
 39  34  36  1   
 40  34  37  1   
 41  37  38  1   
 42  37  42  1   
 43  38  39  1   
 44  38  40  1   
 45  38  41  1   
@<TRIPOS>SUBSTRUCTURE
  1 <1>   0 RESIDUE 1 * * 1
# MOE 2007.09 (io_trps.svl 2007.09)
