@<TRIPOS>MOLECULE
J03_31
21 20 1 0 0 
SMALL
USER_CHARGES


@<TRIPOS>ATOM
  1 C        3.0463     1.3090     0.0632 C.3   1 <1>   0.0000 
  2 H1       2.5486     0.3346     0.1032 H     1 <1>   0.0000 
  3 H2       4.0219     1.1589    -0.4080 H     1 <1>   0.0000 
  4 H3       2.4475     1.9673    -0.5741 H     1 <1>   0.0000 
  5 C        3.1819     1.8812     1.4662 C.3   1 <1>   0.0000 
  6 H1       2.1891     1.8704     1.9332 H     1 <1>   0.0000 
  7 H2       3.8133     1.2200     2.0721 H     1 <1>   0.0000 
  8 C        3.7102     3.3147     1.5185 C.3   1 <1>   0.2300 
  9 H1       3.6650     3.6626     2.5562 H     1 <1>   0.0000 
 10 H2       3.0761     3.9873     0.9315 H     1 <1>   0.0000 
 11 S        5.4508     3.4625     0.9951 S.3   1 <1>  -0.4600 
 12 C        5.2060     4.1076    -0.6931 C.3   1 <1>   0.2300 
 13 C        6.5292     4.3001    -1.4347 C.3   1 <1>   0.0000 
 14 H1       6.3008     4.5497    -2.4784 H     1 <1>   0.0000 
 15 H2       7.0968     3.3619    -1.4581 H     1 <1>   0.0000 
 16 C        7.3996     5.4128    -0.8657 C.3   1 <1>   0.0000 
 17 H1       6.8513     6.3596    -0.8291 H     1 <1>   0.0000 
 18 H2       8.2814     5.5584    -1.4982 H     1 <1>   0.0000 
 19 H3       7.7521     5.1783     0.1429 H     1 <1>   0.0000 
 20 H2       4.6670     5.0591    -0.6369 H     1 <1>   0.0000 
 21 H3       4.5886     3.3997    -1.2535 H     1 <1>   0.0000 
@<TRIPOS>BOND
  1   1   2  1   
  2   1   3  1   
  3   1   4  1   
  4   1   5  1   
  5   5   6  1   
  6   5   7  1   
  7   5   8  1   
  8   8   9  1   
  9   8  10  1   
 10   8  11  1   
 11  11  12  1   
 12  12  13  1   
 13  12  20  1   
 14  12  21  1   
 15  13  14  1   
 16  13  15  1   
 17  13  16  1   
 18  16  17  1   
 19  16  18  1   
 20  16  19  1   
@<TRIPOS>SUBSTRUCTURE
  1 <1>   0 RESIDUE 1 * * 1
# MOE 2007.09 (io_trps.svl 2007.09)
