@<TRIPOS>MOLECULE
J03_18-R
47 47 1 0 0 
SMALL
USER_CHARGES


@<TRIPOS>ATOM
  1 C        1.0989     0.6416     0.4141 C.ar  1 <1>  -0.1435 
  2 C        2.4388     1.3296     0.3214 C.3   1 <1>   0.1435 
  3 H1       2.2955     2.4177     0.2975 H     1 <1>   0.0000 
  4 H2       2.9096     1.0746    -0.6371 H     1 <1>   0.0000 
  5 C        3.3495     0.9420     1.4841 C.3   1 <1>   0.0610 
  6 C        4.7190     1.5836     1.3717 C.2   1 <1>   0.4480 
  7 C        5.7213     1.2232     2.4544 C.3   1 <1>   0.0610 
  8 H1       6.0320     0.1880     2.2737 H     1 <1>   0.0000 
  9 H2       5.2198     1.2856     3.4260 H     1 <1>   0.0000 
 10 C        6.9291     2.1639     2.4274 C.3   1 <1>   0.2800 
 11 H        6.6012     3.2054     2.5317 H     1 <1>   0.0000 
 12 O        7.5916     2.0415     1.1677 O.3   1 <1>  -0.6800 
 13 H        6.9252     2.2984     0.4926 H     1 <1>   0.4000 
 14 C        7.9194     1.8181     3.5445 C.3   1 <1>   0.0000 
 15 C        9.1059     2.7877     3.5864 C.3   1 <1>   0.0000 
 16 C       10.0619     2.4466     4.7315 C.3   1 <1>   0.0000 
 17 C       11.2452     3.4135     4.7754 C.3   1 <1>   0.0000 
 18 C       12.1968     3.0790     5.9131 C.3   1 <1>   0.0000 
 19 H1      13.0352     3.7825     5.9253 H     1 <1>   0.0000 
 20 H2      12.6029     2.0686     5.8008 H     1 <1>   0.0000 
 21 H3      11.6885     3.1397     6.8807 H     1 <1>   0.0000 
 22 H2      10.8826     4.4405     4.9003 H     1 <1>   0.0000 
 23 H3      11.7924     3.3758     3.8262 H     1 <1>   0.0000 
 24 H2      10.4302     1.4207     4.6094 H     1 <1>   0.0000 
 25 H3       9.5214     2.4844     5.6852 H     1 <1>   0.0000 
 26 H2       8.7363     3.8129     3.7106 H     1 <1>   0.0000 
 27 H3       9.6510     2.7532     2.6356 H     1 <1>   0.0000 
 28 H2       8.3042     0.8017     3.3920 H     1 <1>   0.0000 
 29 H3       7.4024     1.8344     4.5116 H     1 <1>   0.0000 
 30 O        5.0321     2.3205     0.4345 O.2   1 <1>  -0.5700 
 31 H2       3.4913    -0.1446     1.5123 H     1 <1>   0.0000 
 32 H3       2.9040     1.2545     2.4356 H     1 <1>   0.0000 
 33 C        0.0154     1.2770     1.0326 C.ar  1 <1>  -0.1500 
 34 H        0.1250     2.2799     1.4392 H     1 <1>   0.1500 
 35 C       -1.2171     0.6315     1.1325 C.ar  1 <1>  -0.1500 
 36 H       -2.0449     1.1446     1.6129 H     1 <1>   0.1500 
 37 C       -1.3652    -0.6571     0.6175 C.ar  1 <1>   0.0825 
 38 O       -2.5763    -1.2918     0.7173 O.3   1 <1>  -0.5325 
 39 H       -3.2054    -0.7001     1.1586 H     1 <1>   0.4500 
 40 C       -0.2942    -1.3171    -0.0012 C.ar  1 <1>   0.0825 
 41 O       -0.5465    -2.5808    -0.4679 O.3   1 <1>  -0.3625 
 42 C        0.5155    -3.2661    -1.1169 C.3   1 <1>   0.2800 
 43 H1       0.1395    -4.2449    -1.4302 H     1 <1>   0.0000 
 44 H2       1.3528    -3.4361    -0.4319 H     1 <1>   0.0000 
 45 H3       0.8404    -2.7320    -2.0159 H     1 <1>   0.0000 
 46 C        0.9360    -0.6579    -0.0971 C.ar  1 <1>  -0.1500 
 47 H        1.7913    -1.1338    -0.5670 H     1 <1>   0.1500 
@<TRIPOS>BOND
  1   1   2  1   
  2   1  33  ar  
  3   1  46  ar  
  4   2   3  1   
  5   2   4  1   
  6   2   5  1   
  7   5   6  1   
  8   5  31  1   
  9   5  32  1   
 10   6   7  1   
 11   6  30  2   
 12   7   8  1   
 13   7   9  1   
 14   7  10  1   
 15  10  11  1   
 16  10  12  1   
 17  10  14  1   
 18  12  13  1   
 19  14  15  1   
 20  14  28  1   
 21  14  29  1   
 22  15  16  1   
 23  15  26  1   
 24  15  27  1   
 25  16  17  1   
 26  16  24  1   
 27  16  25  1   
 28  17  18  1   
 29  17  22  1   
 30  17  23  1   
 31  18  19  1   
 32  18  20  1   
 33  18  21  1   
 34  33  34  1   
 35  33  35  ar  
 36  35  36  1   
 37  35  37  ar  
 38  37  38  1   
 39  37  40  ar  
 40  38  39  1   
 41  40  41  1   
 42  40  46  ar  
 43  41  42  1   
 44  42  43  1   
 45  42  44  1   
 46  42  45  1   
 47  46  47  1   
@<TRIPOS>SUBSTRUCTURE
  1 <1>   0 RESIDUE 1 * * 1
# MOE 2007.09 (io_trps.svl 2007.09)
