@<TRIPOS>MOLECULE
J03_04
83 87 1 0 0 
SMALL
USER_CHARGES


@<TRIPOS>ATOM
  1 C        0.5583     1.5696     0.0804 C.ar  1 <1>  -0.1435 
  2 C       -0.9155     1.7186    -0.0956 C.3   1 <1>   0.5670 
  3 C       -1.3799     2.3993    -1.3642 C.ar  1 <1>  -0.1435 
  4 H2      -1.3294     2.2265     0.7846 H     1 <1>   0.0000 
  5 O       -1.4308     0.3624    -0.0486 O.3   1 <1>  -0.5600 
  6 C       -0.4039    -0.5442     0.4193 C.3   1 <1>   0.4845 
  7 C       -0.4074    -1.7536    -0.5001 C.2   1 <1>   0.6590 
  8 O       -1.3571    -2.6415    -0.0755 O.3   1 <1>  -0.4300 
  9 C       -1.4364    -3.8809    -0.8020 C.3   1 <1>   0.3410 
 10 C       -2.8825    -4.3822    -0.6735 C.3   1 <1>   0.1435 
 11 H1      -3.5640    -3.5402    -0.4900 H     1 <1>   0.0000 
 12 H2      -2.9973    -5.0353     0.2017 H     1 <1>   0.0000 
 13 C       -3.3555    -5.1029    -1.9151 C.ar  1 <1>  -0.1435 
 14 H3      -1.1697    -3.7144    -1.8526 H     1 <1>   0.0000 
 15 O        0.3013    -1.9076    -1.4869 O.2   1 <1>  -0.5700 
 16 H2      -0.6446    -0.8433     1.4458 H     1 <1>   0.0000 
 17 C        0.8595     0.2516     0.4104 C.ar  1 <1>  -0.1435 
 18 C        2.1591    -0.1335     0.7325 C.ar  1 <1>   0.0284 
 19 C        2.4643    -1.4911     1.1740 C.2   1 <1>  -0.1784 
 20 H        2.0262    -1.7771     2.1274 H     1 <1>   0.1500 
 21 C        3.1908    -2.3904     0.4966 C.2   1 <1>  -0.2882 
 22 H1       3.3121    -3.3761     0.9426 H     1 <1>   0.1500 
 23 C        3.8485    -2.2267    -0.8385 C.3   1 <1>   0.4182 
 24 H1       3.2495    -2.7723    -1.5757 H     1 <1>   0.0000 
 25 H2       3.9206    -1.1912    -1.1831 H     1 <1>   0.0000 
 26 O        5.1336    -2.8539    -0.8232 O.3   1 <1>  -0.5600 
 27 C        6.2140    -2.0060    -0.4268 C.3   1 <1>   0.3410 
 28 C        7.5102    -2.7079    -0.8630 C.3   1 <1>   0.1435 
 29 H1       7.4241    -3.0078    -1.9167 H     1 <1>   0.0000 
 30 H2       7.6260    -3.6568    -0.3215 H     1 <1>   0.0000 
 31 C        8.7581    -1.8723    -0.7061 C.ar  1 <1>  -0.1435 
 32 H3       6.1255    -1.0441    -0.9473 H     1 <1>   0.0000 
 33 C        3.1617     0.8463     0.6911 C.ar  1 <1>  -0.1500 
 34 H        4.1861     0.5947     0.9551 H     1 <1>   0.1500 
 35 C        2.8639     2.1722     0.3436 C.ar  1 <1>  -0.1500 
 36 H        3.6656     2.9064     0.3383 H     1 <1>   0.1500 
 37 C        1.5508     2.5317     0.0518 C.ar  1 <1>   0.0825 
 38 O        1.2183     3.8188    -0.2299 O.3   1 <1>  -0.5325 
 39 H        2.0296     4.3527    -0.2608 H     1 <1>   0.4500 
 40 C       -1.9299     3.6920    -1.2871 C.ar  1 <1>  -0.1500 
 41 H       -2.0204     4.1916    -0.3241 H     1 <1>   0.1500 
 42 C       -2.3564     4.3641    -2.4347 C.ar  1 <1>  -0.1500 
 43 H       -2.7739     5.3615    -2.3374 H     1 <1>   0.1500 
 44 C       -2.2346     3.7482    -3.6765 C.ar  1 <1>   0.0825 
 45 O       -2.6467     4.3936    -4.8102 O.3   1 <1>  -0.5325 
 46 H       -2.9875     5.2686    -4.5684 H     1 <1>   0.4500 
 47 C       -1.6894     2.4673    -3.7728 C.ar  1 <1>   0.0825 
 48 O       -1.5798     1.8888    -5.0084 O.3   1 <1>  -0.5325 
 49 H       -1.2142     0.9958    -4.9079 H     1 <1>   0.4500 
 50 C       -1.2611     1.7906    -2.6260 C.ar  1 <1>  -0.1500 
 51 H       -0.8337     0.7936    -2.6992 H     1 <1>   0.1500 
 52 C       -0.4739    -4.9218    -0.2351 C.2   1 <1>   0.6590 
 53 O       -0.4144    -6.0967    -0.5679 O.2   1 <1>  -0.5700 
 54 O        0.3470    -4.4515     0.7284 O.3   1 <1>  -0.6500 
 55 H        0.9016    -5.2167     0.9884 H     1 <1>   0.5000 
 56 C       -3.3251    -6.5044    -1.9890 C.ar  1 <1>  -0.1500 
 57 H       -2.9717    -7.0856    -1.1415 H     1 <1>   0.1500 
 58 C       -3.7325    -7.1338    -3.1602 C.ar  1 <1>   0.0825 
 59 O       -3.7201    -8.4944    -3.3015 O.3   1 <1>  -0.5325 
 60 H       -3.3752    -8.8848    -2.4796 H     1 <1>   0.4500 
 61 C       -4.1665    -6.3858    -4.2509 C.ar  1 <1>   0.0825 
 62 O       -4.5536    -7.0260    -5.3934 O.3   1 <1>  -0.5325 
 63 H       -4.4432    -7.9765    -5.1856 H     1 <1>   0.4500 
 64 C       -4.2043    -5.0016    -4.1958 C.ar  1 <1>  -0.1500 
 65 H       -4.5413    -4.4269    -5.0529 H     1 <1>   0.1500 
 66 C       -3.7966    -4.3599    -3.0258 C.ar  1 <1>  -0.1500 
 67 H       -3.8150    -3.2725    -2.9844 H     1 <1>   0.1500 
 68 C        6.2599    -1.7324     1.0728 C.2   1 <1>   0.6590 
 69 O        6.3574    -0.6299     1.5910 O.2   1 <1>  -0.5700 
 70 O        6.1963    -2.8469     1.8310 O.3   1 <1>  -0.6500 
 71 H        6.2399    -2.5310     2.7574 H     1 <1>   0.5000 
 72 C        9.6426    -2.1137     0.3557 C.ar  1 <1>  -0.1500 
 73 H        9.4449    -2.8980     1.0811 H     1 <1>   0.1500 
 74 C       10.7921    -1.3441     0.4781 C.ar  1 <1>   0.0825 
 75 O       11.6624    -1.5847     1.5045 O.3   1 <1>  -0.5325 
 76 H       12.3781    -0.9302     1.3694 H     1 <1>   0.4500 
 77 C       11.0767    -0.3333    -0.4349 C.ar  1 <1>   0.0825 
 78 O       12.2322     0.3731    -0.2448 O.3   1 <1>  -0.5325 
 79 H       12.3163     1.0260    -0.9614 H     1 <1>   0.4500 
 80 C       10.2110    -0.0751    -1.4896 C.ar  1 <1>  -0.1500 
 81 H       10.4175     0.7067    -2.2134 H     1 <1>   0.1500 
 82 C        9.0519    -0.8472    -1.6231 C.ar  1 <1>  -0.1500 
 83 H        8.3806    -0.6491    -2.4564 H     1 <1>   0.1500 
@<TRIPOS>BOND
  1   1   2  1   
  2   1  17  ar  
  3   1  37  ar  
  4   2   3  1   
  5   2   4  1   
  6   2   5  1   
  7   3  40  ar  
  8   3  50  ar  
  9   5   6  1   
 10   6   7  1   
 11   6  16  1   
 12   6  17  1   
 13   7   8  1   
 14   7  15  2   
 15   8   9  1   
 16   9  10  1   
 17   9  14  1   
 18   9  52  1   
 19  10  11  1   
 20  10  12  1   
 21  10  13  1   
 22  13  56  ar  
 23  13  66  ar  
 24  17  18  ar  
 25  18  19  1   
 26  18  33  ar  
 27  19  20  1   
 28  19  21  2   
 29  21  22  1   
 30  21  23  1   
 31  23  24  1   
 32  23  25  1   
 33  23  26  1   
 34  26  27  1   
 35  27  28  1   
 36  27  32  1   
 37  27  68  1   
 38  28  29  1   
 39  28  30  1   
 40  28  31  1   
 41  31  72  ar  
 42  31  82  ar  
 43  33  34  1   
 44  33  35  ar  
 45  35  36  1   
 46  35  37  ar  
 47  37  38  1   
 48  38  39  1   
 49  40  41  1   
 50  40  42  ar  
 51  42  43  1   
 52  42  44  ar  
 53  44  45  1   
 54  44  47  ar  
 55  45  46  1   
 56  47  48  1   
 57  47  50  ar  
 58  48  49  1   
 59  50  51  1   
 60  52  53  2   
 61  52  54  1   
 62  54  55  1   
 63  56  57  1   
 64  56  58  ar  
 65  58  59  1   
 66  58  61  ar  
 67  59  60  1   
 68  61  62  1   
 69  61  64  ar  
 70  62  63  1   
 71  64  65  1   
 72  64  66  ar  
 73  66  67  1   
 74  68  69  2   
 75  68  70  1   
 76  70  71  1   
 77  72  73  1   
 78  72  74  ar  
 79  74  75  1   
 80  74  77  ar  
 81  75  76  1   
 82  77  78  1   
 83  77  80  ar  
 84  78  79  1   
 85  80  81  1   
 86  80  82  ar  
 87  82  83  1   
@<TRIPOS>SUBSTRUCTURE
  1 <1>   0 RESIDUE 1 * * 1
# MOE 2007.09 (io_trps.svl 2007.09)
