@<TRIPOS>MOLECULE
J03_19
40 43 1 0 0 
SMALL
USER_CHARGES


@<TRIPOS>ATOM
  1 C        1.3018     0.7122    -0.2965 C.ar  1 <1>  -0.1435 
  2 C       -0.0306     1.4344    -0.3162 C.3   1 <1>   0.1435 
  3 H1      -0.0257     2.2042    -1.0962 H     1 <1>   0.0000 
  4 H2      -0.1707     1.9209     0.6571 H     1 <1>   0.0000 
  5 C       -1.2353     0.5475    -0.5980 C.3   1 <1>   0.0000 
  6 H1      -1.2703     0.2800    -1.6601 H     1 <1>   0.0000 
  7 H2      -2.1552     1.1050    -0.3867 H     1 <1>   0.0000 
  8 C       -1.1701    -0.6957     0.2669 C.3   1 <1>   0.0000 
  9 H1      -2.0899    -1.2806     0.1398 H     1 <1>   0.0000 
 10 H2      -1.1460    -0.3861     1.3212 H     1 <1>   0.0000 
 11 C        0.0697    -1.5594    -0.0636 C.3   1 <1>   0.1435 
 12 C       -0.1594    -2.3158    -1.3915 C.3   1 <1>   0.0000 
 13 H1      -0.2007    -1.6356    -2.2491 H     1 <1>   0.0000 
 14 H2      -1.0974    -2.8824    -1.3668 H     1 <1>   0.0000 
 15 H3       0.6458    -3.0322    -1.5925 H     1 <1>   0.0000 
 16 C        0.1932    -2.6003     1.0752 C.3   1 <1>   0.0000 
 17 H1       0.9540    -3.3604     0.8688 H     1 <1>   0.0000 
 18 H2      -0.7533    -3.1341     1.2222 H     1 <1>   0.0000 
 19 H3       0.4567    -2.1192     2.0246 H     1 <1>   0.0000 
 20 C        1.3444    -0.7049    -0.1910 C.ar  1 <1>  -0.1435 
 21 C        2.5953    -1.3537    -0.2406 C.ar  1 <1>  -0.1500 
 22 H        2.6589    -2.4393    -0.2024 H     1 <1>   0.1500 
 23 C        3.7853    -0.6416    -0.3559 C.ar  1 <1>  -0.1500 
 24 H        4.7274    -1.1840    -0.3981 H     1 <1>   0.1500 
 25 C        3.7584     0.7481    -0.4105 C.ar  1 <1>   0.0530 
 26 C        2.5222     1.4382    -0.3626 C.ar  1 <1>   0.0862 
 27 C        4.9718     1.5245    -0.5357 C.2   1 <1>   0.0870 
 28 C        5.0835     2.8845    -0.6459 C.2   1 <1>  -0.0860 
 29 C        3.8839     3.6773    -0.6191 C.2   1 <1>   0.6560 
 30 O        3.8759     4.8902    -0.7949 O.2   1 <1>  -0.5700 
 31 C        2.5638     2.9454    -0.3507 C.2   1 <1>   0.4838 
 32 O        1.5845     3.6327    -0.0860 O.2   1 <1>  -0.5700 
 33 O        6.1863     0.9289    -0.5817 O.3   1 <1>  -0.2800 
 34 C        7.0927     1.9364    -0.7268 C.2   1 <1>  -0.0100 
 35 H        8.1263     1.6225    -0.7810 H     1 <1>   0.1500 
 36 C        6.4675     3.1708    -0.7766 C.2   1 <1>  -0.1810 
 37 C        7.1056     4.4991    -0.9311 C.3   1 <1>   0.1810 
 38 H1       8.1955     4.4126    -0.9881 H     1 <1>   0.0000 
 39 H2       6.8615     5.1429    -0.0800 H     1 <1>   0.0000 
 40 H3       6.7565     4.9873    -1.8465 H     1 <1>   0.0000 
@<TRIPOS>BOND
  1   1   2  1   
  2   1  20  ar  
  3   1  26  ar  
  4   2   3  1   
  5   2   4  1   
  6   2   5  1   
  7   5   6  1   
  8   5   7  1   
  9   5   8  1   
 10   8   9  1   
 11   8  10  1   
 12   8  11  1   
 13  11  12  1   
 14  11  16  1   
 15  11  20  1   
 16  12  13  1   
 17  12  14  1   
 18  12  15  1   
 19  16  17  1   
 20  16  18  1   
 21  16  19  1   
 22  20  21  ar  
 23  21  22  1   
 24  21  23  ar  
 25  23  24  1   
 26  23  25  ar  
 27  25  26  ar  
 28  25  27  1   
 29  26  31  1   
 30  27  28  2   
 31  27  33  1   
 32  28  29  1   
 33  28  36  1   
 34  29  30  2   
 35  29  31  1   
 36  31  32  2   
 37  33  34  1   
 38  34  35  1   
 39  34  36  2   
 40  36  37  1   
 41  37  38  1   
 42  37  39  1   
 43  37  40  1   
@<TRIPOS>SUBSTRUCTURE
  1 <1>   0 RESIDUE 1 * * 1
# MOE 2007.09 (io_trps.svl 2007.09)
