@<TRIPOS>MOLECULE
J03_02-E
47 48 1 0 0 
SMALL
USER_CHARGES


@<TRIPOS>ATOM
  1 C        1.1170     0.4700    -0.3300 C.ar  1 <1>   0.0280 
  2 C        2.4530     0.9330    -0.7220 C.2   1 <1>  -0.1780 
  3 H        2.4910     1.9030    -1.2140 H     1 <1>   0.1500 
  4 C        3.5770     0.2490    -0.4780 C.2   1 <1>  -0.1360 
  5 C        4.8750     0.8160    -0.8990 C.2   1 <1>   0.5410 
  6 C        6.0660     0.0070    -0.5600 C.2   1 <1>  -0.1360 
  7 H        5.9270    -0.9330    -0.0390 H     1 <1>   0.1500 
  8 O        4.9930     1.8860    -1.4910 O.2   1 <1>  -0.5700 
  9 C        7.2860     0.4560    -0.8960 C.2   1 <1>   0.0770 
 10 O        7.4870     1.6550    -1.5580 O.3   1 <1>  -0.5270 
 11 H        6.5980     2.0590    -1.7080 H     1 <1>   0.4500 
 12 C       10.9540    -0.6060    -0.5450 C.ar  1 <1>   0.0280 
 13 C        8.4950    -0.2840    -0.5880 C.2   1 <1>  -0.1500 
 14 H        8.3590    -1.2320    -0.0740 H     1 <1>   0.1500 
 15 C        9.7360     0.1380    -0.8770 C.2   1 <1>  -0.1780 
 16 H        9.8900     1.0990    -1.3630 H     1 <1>   0.1500 
 17 C        0.1970     1.4080     0.1690 C.ar  1 <1>  -0.1500 
 18 H        0.5180     2.4400     0.2740 H     1 <1>   0.1500 
 19 C       -1.0980     1.0210     0.5330 C.ar  1 <1>   0.0820 
 20 O       -2.0570     1.8600     1.0370 O.3   1 <1>  -0.3620 
 21 C       -1.7190     3.2300     1.1980 C.3   1 <1>   0.2800 
 22 H1      -2.5950     3.7460     1.6040 H     1 <1>   0.0000 
 23 H2      -1.4760     3.6940     0.2360 H     1 <1>   0.0000 
 24 H3      -0.9000     3.3530     1.9150 H     1 <1>   0.0000 
 25 C       -1.4690    -0.3220     0.3790 C.ar  1 <1>   0.0820 
 26 O       -2.7350    -0.7130     0.7300 O.3   1 <1>  -0.5320 
 27 H       -2.8330    -1.6610     0.5530 H     1 <1>   0.4500 
 28 C       -0.5730    -1.2610    -0.1300 C.ar  1 <1>  -0.1500 
 29 H       -0.8590    -2.3000    -0.2610 H     1 <1>   0.1500 
 30 C        0.7160    -0.8620    -0.4880 C.ar  1 <1>  -0.1500 
 31 H        1.3960    -1.6030    -0.9030 H     1 <1>   0.1500 
 32 C       11.0600    -1.9880    -0.7230 C.ar  1 <1>  -0.1500 
 33 H       10.2240    -2.5650    -1.1090 H     1 <1>   0.1500 
 34 C       12.2540    -2.6480    -0.4220 C.ar  1 <1>  -0.1500 
 35 H       12.3040    -3.7230    -0.5700 H     1 <1>   0.1500 
 36 C       13.3590    -1.9300     0.0520 C.ar  1 <1>   0.0820 
 37 O       14.5040    -2.6200     0.3330 O.3   1 <1>  -0.5320 
 38 H       14.3640    -3.5620     0.1450 H     1 <1>   0.4500 
 39 C       13.2790    -0.5450     0.2230 C.ar  1 <1>   0.0820 
 40 O       14.2430     0.3190     0.6660 O.3   1 <1>  -0.3620 
 41 C       15.5160    -0.2060     1.0090 C.3   1 <1>   0.2800 
 42 H1      16.1410     0.6310     1.3350 H     1 <1>   0.0000 
 43 H2      16.0080    -0.6570     0.1420 H     1 <1>   0.0000 
 44 H3      15.4460    -0.9020     1.8520 H     1 <1>   0.0000 
 45 C       12.0720     0.1020    -0.0850 C.ar  1 <1>  -0.1500 
 46 H       12.0120     1.1820     0.0470 H     1 <1>   0.1500 
 47 H        3.5710    -0.7060     0.0350 H     1 <1>   0.1500 
@<TRIPOS>BOND
  1   1   2  1   
  2   1  17  ar  
  3   1  30  ar  
  4   2   3  1   
  5   2   4  2   
  6   4   5  1   
  7   4  47  1   
  8   5   6  1   
  9   5   8  2   
 10   6   7  1   
 11   6   9  2   
 12   9  10  1   
 13   9  13  1   
 14  10  11  1   
 15  12  15  1   
 16  12  32  ar  
 17  12  45  ar  
 18  13  14  1   
 19  13  15  2   
 20  15  16  1   
 21  17  18  1   
 22  17  19  ar  
 23  19  20  1   
 24  19  25  ar  
 25  20  21  1   
 26  21  22  1   
 27  21  23  1   
 28  21  24  1   
 29  25  26  1   
 30  25  28  ar  
 31  26  27  1   
 32  28  29  1   
 33  28  30  ar  
 34  30  31  1   
 35  32  33  1   
 36  32  34  ar  
 37  34  35  1   
 38  34  36  ar  
 39  36  37  1   
 40  36  39  ar  
 41  37  38  1   
 42  39  40  1   
 43  39  45  ar  
 44  40  41  1   
 45  41  42  1   
 46  41  43  1   
 47  41  44  1   
 48  45  46  1   
@<TRIPOS>SUBSTRUCTURE
  1 <1>   0 RESIDUE 1 * * 1
# MOE 2007.09 (io_trps.svl 2007.09)
