@<TRIPOS>MOLECULE
J03_27
19 18 1 0 0 
SMALL
USER_CHARGES


@<TRIPOS>ATOM
  1 C        0.5252     0.6742    -0.9123 C.2   1 <1>  -0.3000 
  2 H1      -0.1319     1.5319    -0.8093 H     1 <1>   0.1500 
  3 H2       0.0762    -0.2695    -1.2059 H     1 <1>   0.1500 
  4 C        1.8423     0.7616    -0.6841 C.2   1 <1>  -0.2882 
  5 H        2.4529    -0.1306    -0.8102 H     1 <1>   0.1500 
  6 C        2.5488     2.0226    -0.2867 C.3   1 <1>   0.3682 
  7 S        3.3010     1.7965     1.3526 S.3   1 <1>  -0.2300 
  8 S        4.0684     3.6590     1.7506 S.3   1 <1>   0.0000 
  9 S        5.9973     3.6312     1.0470 S.3   1 <1>  -0.2300 
 10 C        5.8038     4.2335    -0.6571 C.3   1 <1>   0.3682 
 11 C        7.1568     4.3794    -1.2860 C.2   1 <1>  -0.2882 
 12 H        7.7481     3.4736    -1.4068 H     1 <1>   0.1500 
 13 C        7.6649     5.5393    -1.7226 C.2   1 <1>  -0.3000 
 14 H1       8.6502     5.5753    -2.1771 H     1 <1>   0.1500 
 15 H2       7.1184     6.4730    -1.6352 H     1 <1>   0.1500 
 16 H2       5.2702     5.1897    -0.6469 H     1 <1>   0.0000 
 17 H3       5.2230     3.5144    -1.2406 H     1 <1>   0.0000 
 18 H2       1.8543     2.8687    -0.2547 H     1 <1>   0.0000 
 19 H3       3.3260     2.2353    -1.0252 H     1 <1>   0.0000 
@<TRIPOS>BOND
  1   1   2  1   
  2   1   3  1   
  3   1   4  2   
  4   4   5  1   
  5   4   6  1   
  6   6   7  1   
  7   6  18  1   
  8   6  19  1   
  9   7   8  1   
 10   8   9  1   
 11   9  10  1   
 12  10  11  1   
 13  10  16  1   
 14  10  17  1   
 15  11  12  1   
 16  11  13  2   
 17  13  14  1   
 18  13  15  1   
@<TRIPOS>SUBSTRUCTURE
  1 <1>   0 RESIDUE 1 * * 1
# MOE 2007.09 (io_trps.svl 2007.09)
