@<TRIPOS>MOLECULE
J03_20-Z
50 50 1 0 0 
SMALL
USER_CHARGES


@<TRIPOS>ATOM
  1 C        0.9984     0.7401     0.8502 C.2   1 <1>   0.7056 
  2 O        1.9868     1.3957     1.1353 O.2   1 <1>  -0.5700 
  3 O       -0.2825     1.2179     0.8562 O.3   1 <1>  -0.4300 
  4 C       -1.1585     0.2155     0.3290 C.3   1 <1>   0.2800 
  5 H1      -1.2669     0.3776    -0.7519 H     1 <1>   0.0000 
  6 C       -2.5273     0.3418     0.9780 C.3   1 <1>   0.0000 
  7 H1      -3.2124    -0.4297     0.6143 H     1 <1>   0.0000 
  8 H2      -2.9597     1.3247     0.7624 H     1 <1>   0.0000 
  9 H3      -2.4557     0.2654     2.0685 H     1 <1>   0.0000 
 10 C       -0.4789    -1.1032     0.6431 C.3   1 <1>   0.4182 
 11 O       -0.8721    -2.1089    -0.2709 O.3   1 <1>  -0.6800 
 12 H       -0.5170    -2.9540     0.0536 H     1 <1>   0.4000 
 13 H2      -0.6807    -1.4333     1.6693 H     1 <1>   0.0000 
 14 C        0.9497    -0.6938     0.5043 C.2   1 <1>  -0.1238 
 15 C        1.9856    -1.4487     0.1171 C.2   1 <1>  -0.2882 
 16 H        1.8054    -2.4981    -0.1092 H     1 <1>   0.1500 
 17 C        3.4114    -1.0139    -0.0804 C.3   1 <1>   0.1382 
 18 C        4.2892    -1.4299     1.1009 C.3   1 <1>   0.0000 
 19 C        5.7445    -1.0083     0.8866 C.3   1 <1>   0.0000 
 20 C        6.6244    -1.4217     2.0677 C.3   1 <1>   0.0000 
 21 C        8.0790    -0.9993     1.8528 C.3   1 <1>   0.0000 
 22 C        8.9593    -1.4116     3.0340 C.3   1 <1>   0.0000 
 23 C       10.4137    -0.9887     2.8188 C.3   1 <1>   0.0000 
 24 C       11.2943    -1.4002     4.0001 C.3   1 <1>   0.0000 
 25 C       12.7487    -0.9781     3.7842 C.3   1 <1>   0.0000 
 26 C       13.6289    -1.3894     4.9645 C.3   1 <1>   0.0000 
 27 C       15.0757    -0.9720     4.7533 C.3   1 <1>   0.0000 
 28 H1      15.6867    -1.2762     5.6088 H     1 <1>   0.0000 
 29 H2      15.1591     0.1142     4.6455 H     1 <1>   0.0000 
 30 H3      15.4919    -1.4397     3.8552 H     1 <1>   0.0000 
 31 H2      13.5846    -2.4762     5.1014 H     1 <1>   0.0000 
 32 H3      13.2535    -0.9307     5.8868 H     1 <1>   0.0000 
 33 H2      12.7997     0.1092     3.6494 H     1 <1>   0.0000 
 34 H3      13.1314    -1.4359     2.8638 H     1 <1>   0.0000 
 35 H2      11.2435    -2.4876     4.1348 H     1 <1>   0.0000 
 36 H3      10.9117    -0.9422     4.9204 H     1 <1>   0.0000 
 37 H2      10.4640     0.0987     2.6846 H     1 <1>   0.0000 
 38 H3      10.7967    -1.4461     1.8983 H     1 <1>   0.0000 
 39 H2       8.9089    -2.4991     3.1677 H     1 <1>   0.0000 
 40 H3       8.5763    -0.9546     3.9546 H     1 <1>   0.0000 
 41 H2       8.1296     0.0882     1.7191 H     1 <1>   0.0000 
 42 H3       8.4619    -1.4563     0.9322 H     1 <1>   0.0000 
 43 H2       6.5735    -2.5093     2.2007 H     1 <1>   0.0000 
 44 H3       6.2415    -0.9651     2.9885 H     1 <1>   0.0000 
 45 H2       5.7957     0.0793     0.7538 H     1 <1>   0.0000 
 46 H3       6.1272    -1.4650    -0.0343 H     1 <1>   0.0000 
 47 H2       4.2393    -2.5178     1.2366 H     1 <1>   0.0000 
 48 H3       3.9091    -0.9739     2.0239 H     1 <1>   0.0000 
 49 H2       3.4867     0.0646    -0.2499 H     1 <1>   0.0000 
 50 H3       3.7838    -1.4831    -0.9999 H     1 <1>   0.0000 
@<TRIPOS>BOND
  1   1   2  2   
  2   1   3  1   
  3   1  14  1   
  4   3   4  1   
  5   4   5  1   
  6   4   6  1   
  7   4  10  1   
  8   6   7  1   
  9   6   8  1   
 10   6   9  1   
 11  10  11  1   
 12  10  13  1   
 13  10  14  1   
 14  11  12  1   
 15  14  15  2   
 16  15  16  1   
 17  15  17  1   
 18  17  18  1   
 19  17  49  1   
 20  17  50  1   
 21  18  19  1   
 22  18  47  1   
 23  18  48  1   
 24  19  20  1   
 25  19  45  1   
 26  19  46  1   
 27  20  21  1   
 28  20  43  1   
 29  20  44  1   
 30  21  22  1   
 31  21  41  1   
 32  21  42  1   
 33  22  23  1   
 34  22  39  1   
 35  22  40  1   
 36  23  24  1   
 37  23  37  1   
 38  23  38  1   
 39  24  25  1   
 40  24  35  1   
 41  24  36  1   
 42  25  26  1   
 43  25  33  1   
 44  25  34  1   
 45  26  27  1   
 46  26  31  1   
 47  26  32  1   
 48  27  28  1   
 49  27  29  1   
 50  27  30  1   
@<TRIPOS>SUBSTRUCTURE
  1 <1>   0 RESIDUE 1 * * 1
# MOE 2007.09 (io_trps.svl 2007.09)
