@<TRIPOS>MOLECULE
J04_O3
44 49 1 0 0 
SMALL
USER_CHARGES


@<TRIPOS>ATOM
  1 C        1.3970     0.8488    -0.1033 C.ar  1 <1>  -0.1435 
  2 C        0.1240     1.6973    -0.2885 C.3   1 <1>   0.4135 
  3 C        0.1139     2.7334    -1.4645 C.3   1 <1>   0.4235 
  4 H        0.3257     2.2629    -2.4312 H     1 <1>   0.0000 
  5 H2       0.0958     2.3211     0.6200 H     1 <1>   0.0000 
  6 N       -1.1002     0.8484    -0.2663 N.3   1 <1>  -0.8100 
  7 C       -1.2071    -0.0772    -1.3977 C.3   1 <1>   0.2700 
  8 H1      -1.2169     0.4595    -2.3513 H     1 <1>   0.0000 
  9 H2      -2.1571    -0.6213    -1.3450 H     1 <1>   0.0000 
 10 H3      -0.4014    -0.8164    -1.4454 H     1 <1>   0.0000 
 11 C       -1.1741     0.1487     1.0244 C.3   1 <1>   0.2700 
 12 H1      -2.1135    -0.4133     1.1014 H     1 <1>   0.0000 
 13 H2      -1.2313     0.9005     1.8234 H     1 <1>   0.0000 
 14 C        0.0098    -0.7831     1.3032 C.3   1 <1>   0.1435 
 15 H1      -0.2026    -1.7635     0.8571 H     1 <1>   0.0000 
 16 H2       0.1040    -0.9265     2.3864 H     1 <1>   0.0000 
 17 C        1.3302    -0.3020     0.7418 C.ar  1 <1>  -0.1435 
 18 C        2.4765    -1.0746     1.0030 C.ar  1 <1>  -0.1500 
 19 H        2.4324    -1.9571     1.6323 H     1 <1>   0.1500 
 20 C        3.6623    -0.6939     0.4208 C.ar  1 <1>   0.0825 
 21 C        3.7380     0.4031    -0.3984 C.ar  1 <1>   0.0825 
 22 C        2.6359     1.1893    -0.6767 C.ar  1 <1>  -0.1500 
 23 H        2.7712     2.0452    -1.3261 H     1 <1>   0.1500 
 24 O        4.8579    -1.3262     0.5595 O.3   1 <1>  -0.3625 
 25 C        5.7014    -0.4935    -0.2621 C.3   1 <1>   0.5600 
 26 H1       6.1448    -1.1128    -1.0503 H     1 <1>   0.0000 
 27 H2       6.5070    -0.0871     0.3604 H     1 <1>   0.0000 
 28 O        4.9962     0.6032    -0.8788 O.3   1 <1>  -0.3625 
 29 O        1.1594     3.7305    -1.2307 O.3   1 <1>  -0.4300 
 30 C        0.6938     5.0071    -1.1028 C.2   1 <1>   0.6338 
 31 O        1.3644     5.9935    -0.8578 O.2   1 <1>  -0.5700 
 32 C       -0.7205     4.9354    -1.3320 C.ar  1 <1>   0.0862 
 33 C       -1.0895     3.6168    -1.5549 C.ar  1 <1>  -0.1435 
 34 C       -1.6502     5.9366    -1.3644 C.ar  1 <1>   0.0825 
 35 C       -2.9625     5.6242    -1.6298 C.ar  1 <1>   0.0825 
 36 C       -3.3787     4.3251    -1.8708 C.ar  1 <1>  -0.1500 
 37 H       -4.4205     4.1067    -2.0808 H     1 <1>   0.1500 
 38 C       -2.4216     3.3024    -1.8368 C.ar  1 <1>  -0.1500 
 39 H       -2.7324     2.2795    -2.0240 H     1 <1>   0.1500 
 40 O       -1.4643     7.2650    -1.1683 O.3   1 <1>  -0.3625 
 41 C       -2.8080     7.7607    -1.3336 C.3   1 <1>   0.5600 
 42 H1      -2.8156     8.4893    -2.1524 H     1 <1>   0.0000 
 43 H2      -3.1124     8.2662    -0.4098 H     1 <1>   0.0000 
 44 O       -3.7658     6.7232    -1.6298 O.3   1 <1>  -0.3625 
@<TRIPOS>BOND
  1   1   2  1   
  2   1  17  ar  
  3   1  22  ar  
  4   2   3  1   
  5   2   5  1   
  6   2   6  1   
  7   3   4  1   
  8   3  29  1   
  9   3  33  1   
 10   6   7  1   
 11   6  11  1   
 12   7   8  1   
 13   7   9  1   
 14   7  10  1   
 15  11  12  1   
 16  11  13  1   
 17  11  14  1   
 18  14  15  1   
 19  14  16  1   
 20  14  17  1   
 21  17  18  ar  
 22  18  19  1   
 23  18  20  ar  
 24  20  21  ar  
 25  20  24  1   
 26  21  22  ar  
 27  21  28  1   
 28  22  23  1   
 29  24  25  1   
 30  25  26  1   
 31  25  27  1   
 32  25  28  1   
 33  29  30  1   
 34  30  31  2   
 35  30  32  1   
 36  32  33  ar  
 37  32  34  ar  
 38  33  38  ar  
 39  34  35  ar  
 40  34  40  1   
 41  35  36  ar  
 42  35  44  1   
 43  36  37  1   
 44  36  38  ar  
 45  38  39  1   
 46  40  41  1   
 47  41  42  1   
 48  41  43  1   
 49  41  44  1   
@<TRIPOS>SUBSTRUCTURE
  1 <1>   0 RESIDUE 1 * * 1
# MOE 2007.09 (io_trps.svl 2007.09)
