@<TRIPOS>MOLECULE
J06_04
49 52 1 0 0 
SMALL
USER_CHARGES


@<TRIPOS>ATOM
  1 C        1.4210     0.7370     0.7740 C.ar  1 <1>  -0.1440 
  2 C        0.4240     1.2770     1.6020 C.ar  1 <1>  -0.1500 
  3 H        0.5290     2.2790     2.0130 H     1 <1>   0.1500 
  4 C       -0.7260     0.5430     1.8960 C.ar  1 <1>  -0.1500 
  5 H       -1.4970     0.9760     2.5300 H     1 <1>   0.1500 
  6 C       -0.8900    -0.7430     1.3800 C.ar  1 <1>  -0.1500 
  7 H       -1.7890    -1.2980     1.6320 H     1 <1>   0.1500 
  8 C        0.1020    -1.2990     0.5720 C.ar  1 <1>   0.0820 
  9 O       -0.0400    -2.5800     0.1210 O.3   1 <1>  -0.5320 
 10 C        1.2510    -0.5630     0.2670 C.ar  1 <1>   0.0860 
 11 C        2.3480    -1.1200    -0.5460 C.2   1 <1>   0.3980 
 12 O        2.1310    -1.8310    -1.5190 O.2   1 <1>  -0.5700 
 13 C        2.5680     2.4630    -0.8380 C.3   1 <1>   0.2800 
 14 H        2.7970     1.8610    -1.7300 H     1 <1>   0.0000 
 15 H2       2.8670     2.1830     1.3030 H     1 <1>   0.0000 
 16 C        4.8210    -1.5460    -0.3150 C.ar  1 <1>   0.0820 
 17 C        3.7160    -0.6950    -0.1920 C.ar  1 <1>   0.0860 
 18 C        3.8720     0.6190     0.2950 C.ar  1 <1>  -0.1440 
 19 C        2.6600     1.5460     0.4300 C.3   1 <1>   0.2870 
 20 O        4.6610    -2.8450    -0.7100 O.3   1 <1>  -0.5320 
 21 H        5.5180    -3.3020    -0.7160 H     1 <1>   0.4500 
 22 C        6.0940    -1.0790     0.0080 C.ar  1 <1>  -0.1500 
 23 H        6.9710    -1.7130    -0.0820 H     1 <1>   0.1500 
 24 C        6.2520     0.2300     0.4550 C.ar  1 <1>   0.0820 
 25 O        7.5160     0.6560     0.7400 O.3   1 <1>  -0.5320 
 26 H        7.4820     1.6090     0.9270 H     1 <1>   0.4500 
 27 C        5.1580     1.0790     0.6080 C.ar  1 <1>  -0.1500 
 28 H        5.2940     2.1000     0.9550 H     1 <1>   0.1500 
 29 H       -0.8980    -2.9340     0.4010 H     1 <1>   0.4500 
 30 O        3.5960     3.4630    -0.6750 O.3   1 <1>  -0.5600 
 31 C        3.7760     4.3350    -1.8040 C.3   1 <1>   0.2800 
 32 H1       4.0340     3.7090    -2.6680 H     1 <1>   0.0000 
 33 C        4.9440     5.2750    -1.4890 C.3   1 <1>   0.2800 
 34 O        6.1770     4.5540    -1.5490 O.3   1 <1>  -0.6800 
 35 H        6.8790     5.1800    -1.3030 H     1 <1>   0.4000 
 36 H2       4.8560     5.6950    -0.4820 H     1 <1>   0.0000 
 37 H3       5.0030     6.0860    -2.2220 H     1 <1>   0.0000 
 38 C        2.4920     5.1250    -2.0820 C.3   1 <1>   0.2800 
 39 H1       2.5980     5.7250    -2.9930 H     1 <1>   0.0000 
 40 O        2.2120     6.0510    -1.0240 O.3   1 <1>  -0.6800 
 41 H        1.2590     6.2560    -1.1300 H     1 <1>   0.4000 
 42 C        1.3080     4.1750    -2.2180 C.3   1 <1>   0.2800 
 43 H1       1.3690     3.6320    -3.1700 H     1 <1>   0.0000 
 44 O        0.1000     4.9520    -2.2510 O.3   1 <1>  -0.6800 
 45 H       -0.6210     4.2980    -2.1400 H     1 <1>   0.4000 
 46 C        1.2200     3.1790    -1.0530 C.3   1 <1>   0.2800 
 47 O        0.1420     2.2910    -1.3690 O.3   1 <1>  -0.6800 
 48 H        0.4550     1.6130    -1.9950 H     1 <1>   0.4000 
 49 H2       0.9330     3.7220    -0.1460 H     1 <1>   0.0000 
@<TRIPOS>BOND
  1   1   2  ar  
  2   1  10  ar  
  3   1  19  1   
  4   2   3  1   
  5   2   4  ar  
  6   4   5  1   
  7   4   6  ar  
  8   6   7  1   
  9   6   8  ar  
 10   8   9  1   
 11   8  10  ar  
 12   9  29  1   
 13  10  11  1   
 14  11  12  2   
 15  11  17  1   
 16  13  14  1   
 17  13  19  1   
 18  13  30  1   
 19  13  46  1   
 20  15  19  1   
 21  16  17  ar  
 22  16  20  1   
 23  16  22  ar  
 24  17  18  ar  
 25  18  19  1   
 26  18  27  ar  
 27  20  21  1   
 28  22  23  1   
 29  22  24  ar  
 30  24  25  1   
 31  24  27  ar  
 32  25  26  1   
 33  27  28  1   
 34  30  31  1   
 35  31  32  1   
 36  31  33  1   
 37  31  38  1   
 38  33  34  1   
 39  33  36  1   
 40  33  37  1   
 41  34  35  1   
 42  38  39  1   
 43  38  40  1   
 44  38  42  1   
 45  40  41  1   
 46  42  43  1   
 47  42  44  1   
 48  42  46  1   
 49  44  45  1   
 50  46  47  1   
 51  46  49  1   
 52  47  48  1   
@<TRIPOS>SUBSTRUCTURE
  1 <1>   0 RESIDUE 1 * * 1
# MOE 2007.09 (io_trps.svl 2007.09)
