@<TRIPOS>MOLECULE
T03
49 52 1 0 0 
SMALL
USER_CHARGES


@<TRIPOS>ATOM
  1 C        1.4206     0.7373     0.7739 C.ar  1 <1>  -0.1435 
  2 C        0.4236     1.2768     1.6019 C.ar  1 <1>  -0.1500 
  3 H        0.5292     2.2789     2.0125 H     1 <1>   0.1500 
  4 C       -0.7265     0.5429     1.8963 C.ar  1 <1>  -0.1500 
  5 H       -1.4967     0.9758     2.5303 H     1 <1>   0.1500 
  6 C       -0.8902    -0.7427     1.3803 C.ar  1 <1>  -0.1500 
  7 H       -1.7892    -1.2982     1.6316 H     1 <1>   0.1500 
  8 C        0.1023    -1.2986     0.5717 C.ar  1 <1>   0.0825 
  9 O       -0.0398    -2.5798     0.1206 O.3   1 <1>  -0.5325 
 10 C        1.2506    -0.5629     0.2669 C.ar  1 <1>   0.0862 
 11 C        2.3484    -1.1202    -0.5462 C.2   1 <1>   0.3976 
 12 O        2.1313    -1.8309    -1.5193 O.2   1 <1>  -0.5700 
 13 C        2.5682     2.4627    -0.8383 C.3   1 <1>   0.2800 
 14 H        2.7972     1.8613    -1.7295 H     1 <1>   0.0000 
 15 H2       2.8666     2.1833     1.3033 H     1 <1>   0.0000 
 16 C        4.8208    -1.5456    -0.3147 C.ar  1 <1>   0.0825 
 17 C        3.7163    -0.6949    -0.1916 C.ar  1 <1>   0.0862 
 18 C        3.8719     0.6186     0.2946 C.ar  1 <1>  -0.1435 
 19 C        2.6595     1.5460     0.4301 C.3   1 <1>   0.2870 
 20 O        4.6611    -2.8446    -0.7100 O.3   1 <1>  -0.5325 
 21 H        5.5181    -3.3024    -0.7164 H     1 <1>   0.4500 
 22 C        6.0943    -1.0791     0.0082 C.ar  1 <1>  -0.1500 
 23 H        6.9709    -1.7128    -0.0824 H     1 <1>   0.1500 
 24 C        6.2518     0.2298     0.4552 C.ar  1 <1>   0.0825 
 25 O        7.5165     0.6556     0.7401 O.3   1 <1>  -0.5325 
 26 H        7.4821     1.6091     0.9266 H     1 <1>   0.4500 
 27 C        5.1583     1.0786     0.6083 C.ar  1 <1>  -0.1500 
 28 H        5.2943     2.1002     0.9554 H     1 <1>   0.1500 
 29 H       -0.8985    -2.9336     0.4012 H     1 <1>   0.4500 
 30 O        3.5957     3.4626    -0.6747 O.3   1 <1>  -0.5600 
 31 C        3.7758     4.3350    -1.8044 C.3   1 <1>   0.2800 
 32 H1       4.0337     3.7092    -2.6683 H     1 <1>   0.0000 
 33 C        4.9444     5.2750    -1.4894 C.3   1 <1>   0.2800 
 34 O        6.1766     4.5537    -1.5486 O.3   1 <1>  -0.6800 
 35 H        6.8787     5.1800    -1.3033 H     1 <1>   0.4000 
 36 H2       4.8556     5.6948    -0.4820 H     1 <1>   0.0000 
 37 H3       5.0029     6.0865    -2.2216 H     1 <1>   0.0000 
 38 C        2.4922     5.1248    -2.0819 C.3   1 <1>   0.2800 
 39 H1       2.5978     5.7249    -2.9929 H     1 <1>   0.0000 
 40 O        2.2117     6.0512    -1.0241 O.3   1 <1>  -0.6800 
 41 H        1.2589     6.2560    -1.1295 H     1 <1>   0.4000 
 42 C        1.3083     4.1747    -2.2183 C.3   1 <1>   0.2800 
 43 H1       1.3694     3.6320    -3.1696 H     1 <1>   0.0000 
 44 O        0.1002     4.9518    -2.2514 O.3   1 <1>  -0.6800 
 45 H       -0.6210     4.2984    -2.1396 H     1 <1>   0.4000 
 46 C        1.2203     3.1786    -1.0534 C.3   1 <1>   0.2800 
 47 O        0.1424     2.2908    -1.3689 O.3   1 <1>  -0.6800 
 48 H        0.4552     1.6132    -1.9954 H     1 <1>   0.4000 
 49 H2       0.9326     3.7222    -0.1455 H     1 <1>   0.0000 
@<TRIPOS>BOND
  1   1   2  ar  
  2   1  10  ar  
  3   1  19  1   
  4   2   3  1   
  5   2   4  ar  
  6   4   5  1   
  7   4   6  ar  
  8   6   7  1   
  9   6   8  ar  
 10   8   9  1   
 11   8  10  ar  
 12   9  29  1   
 13  10  11  1   
 14  11  12  2   
 15  11  17  1   
 16  13  14  1   
 17  13  19  1   
 18  13  30  1   
 19  13  46  1   
 20  15  19  1   
 21  16  17  ar  
 22  16  20  1   
 23  16  22  ar  
 24  17  18  ar  
 25  18  19  1   
 26  18  27  ar  
 27  20  21  1   
 28  22  23  1   
 29  22  24  ar  
 30  24  25  1   
 31  24  27  ar  
 32  25  26  1   
 33  27  28  1   
 34  30  31  1   
 35  31  32  1   
 36  31  33  1   
 37  31  38  1   
 38  33  34  1   
 39  33  36  1   
 40  33  37  1   
 41  34  35  1   
 42  38  39  1   
 43  38  40  1   
 44  38  42  1   
 45  40  41  1   
 46  42  43  1   
 47  42  44  1   
 48  42  46  1   
 49  44  45  1   
 50  46  47  1   
 51  46  49  1   
 52  47  48  1   
@<TRIPOS>SUBSTRUCTURE
  1 <1>   0 RESIDUE 1 * * 1
# MOE 2007.09 (io_trps.svl 2007.09)
