@<TRIPOS>MOLECULE
J08_26
120 126 1 0 0 
SMALL
USER_CHARGES


@<TRIPOS>ATOM
  1 C        2.7720     0.7512     0.1159 C.3   1 <1>   0.0000 
  2 C        2.5047     1.2563     1.5580 C.3   1 <1>   0.0000 
  3 H1       1.5743     1.8205     1.6457 H     1 <1>   0.0000 
  4 H2       3.2986     1.9055     1.9350 H     1 <1>   0.0000 
  5 H3       2.4385     0.4421     2.2840 H     1 <1>   0.0000 
  6 C        3.4532    -0.6509     0.2005 C.3   1 <1>   0.0000 
  7 H1       4.3321    -0.6214     0.8525 H     1 <1>   0.0000 
  8 H2       3.8204    -0.9411    -0.7930 H     1 <1>   0.0000 
  9 C        2.5405    -1.7639     0.7057 C.3   1 <1>   0.0000 
 10 H1       2.2985    -1.6322     1.7660 H     1 <1>   0.0000 
 11 H2       3.0944    -2.7105     0.6718 H     1 <1>   0.0000 
 12 C        1.2587    -1.8942    -0.1167 C.3   1 <1>   0.2800 
 13 O        0.4383    -2.8881     0.5033 O.3   1 <1>  -0.5600 
 14 C        0.6697    -4.2123     0.0199 C.3   1 <1>   0.5600 
 15 H        1.7366    -4.3543    -0.1961 H     1 <1>   0.0000 
 16 H1       1.0675    -5.7542    -2.1700 H     1 <1>   0.0000 
 17 O        0.1443    -8.0585    -1.3992 O.3   1 <1>  -0.6800 
 18 H       -0.2931    -8.1218    -2.2764 H     1 <1>   0.4000 
 19 H2       1.5290    -2.2168    -1.1328 H     1 <1>   0.0000 
 20 C        0.4662    -0.5536    -0.2321 C.3   1 <1>   0.0000 
 21 C       -0.2688    -0.2163     1.0810 C.3   1 <1>   0.0000 
 22 H1      -1.0851    -0.9242     1.2697 H     1 <1>   0.0000 
 23 H2      -0.7209     0.7798     1.0465 H     1 <1>   0.0000 
 24 H3       0.3826    -0.2653     1.9542 H     1 <1>   0.0000 
 25 C       -0.6467    -0.7794    -1.2948 C.3   1 <1>   0.0000 
 26 H1      -1.3381     0.0673    -1.3506 H     1 <1>   0.0000 
 27 H2      -1.2542    -1.6608    -1.0586 H     1 <1>   0.0000 
 28 H3      -0.2188    -0.9346    -2.2915 H     1 <1>   0.0000 
 29 C        1.4521     0.5724    -0.7248 C.3   1 <1>   0.0000 
 30 H        1.7893     0.2110    -1.7115 H     1 <1>   0.0000 
 31 H1       0.4892     2.4480    -0.0930 H     1 <1>   0.0000 
 32 H2      -0.1188     1.8097    -1.5988 H     1 <1>   0.0000 
 33 C        0.7944     1.9372    -1.0096 C.3   1 <1>   0.0000 
 34 C        1.7308     2.8239    -1.8353 C.3   1 <1>   0.0000 
 35 H1       1.2188     3.7690    -2.0507 H     1 <1>   0.0000 
 36 H2       1.8497     2.3163    -2.7977 H     1 <1>   0.0000 
 37 C        3.1199     3.0904    -1.1890 C.3   1 <1>   0.0000 
 38 C        2.8915     4.0618     0.0109 C.3   1 <1>   0.0000 
 39 H1       3.8288     4.3599     0.4904 H     1 <1>   0.0000 
 40 H2       2.2502     3.6434     0.7836 H     1 <1>   0.0000 
 41 H3       2.3774     4.9767    -0.3029 H     1 <1>   0.0000 
 42 C        3.7276     1.7316    -0.6938 C.3   1 <1>   0.0610 
 43 H        3.9939     1.1615    -1.5967 H     1 <1>   0.0000 
 44 C        4.1484     3.7764    -2.2573 C.3   1 <1>   0.1382 
 45 C        3.7689     5.2793    -2.4293 C.3   1 <1>   0.0000 
 46 H1       4.0387     5.8688    -1.5458 H     1 <1>   0.0000 
 47 H2       2.6966     5.4012    -2.6133 H     1 <1>   0.0000 
 48 H3       4.2664     5.7616    -3.2748 H     1 <1>   0.0000 
 49 C        5.6224     3.6495    -1.7949 C.2   1 <1>  -0.2764 
 50 C        6.0060     2.9094    -0.7437 C.2   1 <1>  -0.1356 
 51 H        7.0344     2.8231    -0.4162 H     1 <1>   0.1500 
 52 C        5.0772     2.0142    -0.0293 C.2   1 <1>   0.4946 
 53 O        5.4641     1.4831     1.0048 O.2   1 <1>  -0.5700 
 54 C        4.0952     3.1148    -3.6731 C.3   1 <1>   0.0000 
 55 H1       3.1239     3.3114    -4.1433 H     1 <1>   0.0000 
 56 H2       4.1819     2.0258    -3.5902 H     1 <1>   0.0000 
 57 C        5.1673     3.6128    -4.6651 C.3   1 <1>   0.0000 
 58 H1       4.9068     4.6286    -4.9866 H     1 <1>   0.0000 
 59 H2       5.1109     3.0017    -5.5758 H     1 <1>   0.0000 
 60 C        6.6154     3.5975    -4.1061 C.3   1 <1>   0.0000 
 61 C        7.0851     2.1216    -4.0231 C.3   1 <1>   0.0000 
 62 H1       8.1033     2.0247    -3.6371 H     1 <1>   0.0000 
 63 H2       7.0740     1.6573    -5.0164 H     1 <1>   0.0000 
 64 H3       6.4410     1.5142    -3.3801 H     1 <1>   0.0000 
 65 C        6.6472     4.3155    -2.7227 C.3   1 <1>   0.1382 
 66 H        6.3099     5.3483    -2.8614 H     1 <1>   0.0000 
 67 C        7.5359     4.3643    -5.0871 C.3   1 <1>   0.0000 
 68 H1       7.1100     5.3544    -5.2949 H     1 <1>   0.0000 
 69 H2       7.5707     3.8452    -6.0537 H     1 <1>   0.0000 
 70 C        8.9663     4.5477    -4.5723 C.3   1 <1>   0.0000 
 71 H1       9.5171     5.1604    -5.2982 H     1 <1>   0.0000 
 72 H2       9.4762     3.5757    -4.5696 H     1 <1>   0.0000 
 73 C        9.0509     5.1822    -3.1666 C.3   1 <1>   0.0610 
 74 C        8.7319     6.6871    -3.2186 C.3   1 <1>   0.0000 
 75 H1       8.8095     7.1387    -2.2226 H     1 <1>   0.0000 
 76 H2       7.7271     6.8904    -3.5992 H     1 <1>   0.0000 
 77 H3       9.4377     7.2201    -3.8665 H     1 <1>   0.0000 
 78 C        8.0931     4.4488    -2.1907 C.3   1 <1>   0.0000 
 79 H1       8.0761     4.9821    -1.2298 H     1 <1>   0.0000 
 80 H2       8.5070     3.4562    -1.9714 H     1 <1>   0.0000 
 81 O       -0.1038    -4.3899    -1.1619 O.3   1 <1>  -0.5600 
 82 C        0.0497    -5.6648    -1.7704 C.3   1 <1>   0.3410 
 83 C       -0.2900    -6.8168    -0.8168 C.3   1 <1>   0.2800 
 84 H2      -1.3748    -6.8958    -0.6675 H     1 <1>   0.0000 
 85 C        0.3847    -6.6408     0.5489 C.3   1 <1>   0.2800 
 86 H        1.4529    -6.8778     0.4675 H     1 <1>   0.0000 
 87 O       -0.1483    -7.6235     1.4501 O.3   1 <1>  -0.6800 
 88 H       -0.7871    -7.1843     2.0652 H     1 <1>   0.4000 
 89 C        0.2101    -5.2111     1.0938 C.3   1 <1>   0.2800 
 90 H       -0.8465    -5.0196     1.3129 H     1 <1>   0.0000 
 91 C       -0.9038    -5.7098    -2.9578 C.2   1 <1>   0.6590 
 92 O       -0.9950    -6.9534    -3.4922 O.3   1 <1>  -0.6500 
 93 H       -1.5963    -6.8379    -4.2626 H     1 <1>   0.5000 
 94 O       -1.5254    -4.7850    -3.4536 O.2   1 <1>  -0.5700 
 95 C        0.3266    -4.7100     3.4650 C.3   1 <1>   0.5600 
 96 H        1.1154    -4.4407     4.1785 H     1 <1>   0.0000 
 97 O        1.0277    -5.0629     2.2669 O.3   1 <1>  -0.5600 
 98 C       -0.4597    -5.9036     4.0616 C.3   1 <1>   0.2800 
 99 H1       0.2033    -6.7563     4.2400 H     1 <1>   0.0000 
100 O       -1.4807    -6.3814     3.1460 O.3   1 <1>  -0.6800 
101 H       -2.2147    -5.7111     3.1992 H     1 <1>   0.4000 
102 C       -1.1565    -5.4593     5.3510 C.3   1 <1>   0.2800 
103 H1      -0.4159    -5.2214     6.1228 H     1 <1>   0.0000 
104 O       -1.9689    -6.5237     5.8451 O.3   1 <1>  -0.6800 
105 H       -2.5249    -6.8040     5.0908 H     1 <1>   0.4000 
106 C       -2.0283    -4.2309     5.0598 C.3   1 <1>   0.2800 
107 H1      -2.5784    -3.9191     5.9544 H     1 <1>   0.0000 
108 O       -3.0066    -4.6203     4.0623 O.3   1 <1>  -0.6800 
109 H       -3.5533    -3.8171     3.8964 H     1 <1>   0.4000 
110 C       -1.1251    -3.1204     4.5000 C.3   1 <1>   0.3410 
111 H1      -0.3622    -2.8546     5.2434 H     1 <1>   0.0000 
112 O       -0.4937    -3.5482     3.2941 O.3   1 <1>  -0.5600 
113 C       -1.9663    -1.8866     4.2361 C.2   1 <1>   0.6590 
114 O       -3.1649    -1.8850     3.9885 O.2   1 <1>  -0.5700 
115 O       -1.2685    -0.7373     4.3354 O.3   1 <1>  -0.6500 
116 H       -1.9076    -0.0198     4.1395 H     1 <1>   0.5000 
117 C       10.4766     5.0480    -2.6304 C.2   1 <1>   0.6590 
118 O       10.8009     4.6973    -1.5068 O.2   1 <1>  -0.5700 
119 O       11.4218     5.4050    -3.5247 O.3   1 <1>  -0.6500 
120 H       12.2699     5.2890    -3.0472 H     1 <1>   0.5000 
@<TRIPOS>BOND
  1   1   2  1   
  2   1   6  1   
  3   1  29  1   
  4   1  42  1   
  5   2   3  1   
  6   2   4  1   
  7   2   5  1   
  8   6   7  1   
  9   6   8  1   
 10   6   9  1   
 11   9  10  1   
 12   9  11  1   
 13   9  12  1   
 14  12  13  1   
 15  12  19  1   
 16  12  20  1   
 17  13  14  1   
 18  14  15  1   
 19  14  81  1   
 20  14  89  1   
 21  16  82  1   
 22  17  18  1   
 23  17  83  1   
 24  20  21  1   
 25  20  25  1   
 26  20  29  1   
 27  21  22  1   
 28  21  23  1   
 29  21  24  1   
 30  25  26  1   
 31  25  27  1   
 32  25  28  1   
 33  29  30  1   
 34  29  33  1   
 35  31  33  1   
 36  32  33  1   
 37  33  34  1   
 38  34  35  1   
 39  34  36  1   
 40  34  37  1   
 41  37  38  1   
 42  37  42  1   
 43  37  44  1   
 44  38  39  1   
 45  38  40  1   
 46  38  41  1   
 47  42  43  1   
 48  42  52  1   
 49  44  45  1   
 50  44  49  1   
 51  44  54  1   
 52  45  46  1   
 53  45  47  1   
 54  45  48  1   
 55  49  50  2   
 56  49  65  1   
 57  50  51  1   
 58  50  52  1   
 59  52  53  2   
 60  54  55  1   
 61  54  56  1   
 62  54  57  1   
 63  57  58  1   
 64  57  59  1   
 65  57  60  1   
 66  60  61  1   
 67  60  65  1   
 68  60  67  1   
 69  61  62  1   
 70  61  63  1   
 71  61  64  1   
 72  65  66  1   
 73  65  78  1   
 74  67  68  1   
 75  67  69  1   
 76  67  70  1   
 77  70  71  1   
 78  70  72  1   
 79  70  73  1   
 80  73  74  1   
 81  73  78  1   
 82  73 117  1   
 83  74  75  1   
 84  74  76  1   
 85  74  77  1   
 86  78  79  1   
 87  78  80  1   
 88  81  82  1   
 89  82  83  1   
 90  82  91  1   
 91  83  84  1   
 92  83  85  1   
 93  85  86  1   
 94  85  87  1   
 95  85  89  1   
 96  87  88  1   
 97  89  90  1   
 98  89  97  1   
 99  91  92  1   
100  91  94  2   
101  92  93  1   
102  95  96  1   
103  95  97  1   
104  95  98  1   
105  95 112  1   
106  98  99  1   
107  98 100  1   
108  98 102  1   
109 100 101  1   
110 102 103  1   
111 102 104  1   
112 102 106  1   
113 104 105  1   
114 106 107  1   
115 106 108  1   
116 106 110  1   
117 108 109  1   
118 110 111  1   
119 110 112  1   
120 110 113  1   
121 113 114  2   
122 113 115  1   
123 115 116  1   
124 117 118  2   
125 117 119  1   
126 119 120  1   
@<TRIPOS>SUBSTRUCTURE
  1 <1>   0 RESIDUE 1 * * 1
# MOE 2007.09 (io_trps.svl 2007.09)
