@<TRIPOS>MOLECULE
J08_63
43 45 1 0 0 
SMALL
USER_CHARGES


@<TRIPOS>ATOM
  1 C        1.2863     0.6994    -0.1604 C.ar  1 <1>  -0.1435 
  2 C       -0.0178     1.4475     0.0248 C.3   1 <1>   0.1435 
  3 H1      -0.0454     2.3221    -0.6353 H     1 <1>   0.0000 
  4 H2      -0.0682     1.7952     1.0642 H     1 <1>   0.0000 
  5 C       -1.2638     0.6282    -0.2806 C.3   1 <1>   0.0000 
  6 H1      -1.3793     0.5003    -1.3628 H     1 <1>   0.0000 
  7 H2      -2.1508     1.1708     0.0666 H     1 <1>   0.0000 
  8 C       -1.1736    -0.7182     0.4126 C.3   1 <1>   0.0000 
  9 H1      -2.1158    -1.2646     0.2784 H     1 <1>   0.0000 
 10 H2      -1.0695    -0.5468     1.4932 H     1 <1>   0.0000 
 11 C        0.0169    -1.5572    -0.1105 C.3   1 <1>   0.1435 
 12 C       -0.3273    -2.1403    -1.4996 C.3   1 <1>   0.0000 
 13 H1      -0.4166    -1.3585    -2.2617 H     1 <1>   0.0000 
 14 H2      -1.2737    -2.6926    -1.4728 H     1 <1>   0.0000 
 15 H3       0.4441    -2.8373    -1.8476 H     1 <1>   0.0000 
 16 C        0.1957    -2.7319     0.8806 C.3   1 <1>   0.0000 
 17 H1       0.9211    -3.4723     0.5273 H     1 <1>   0.0000 
 18 H2      -0.7508    -3.2647     1.0314 H     1 <1>   0.0000 
 19 H3       0.5384    -2.3756     1.8593 H     1 <1>   0.0000 
 20 C        1.2998    -0.7167    -0.2291 C.ar  1 <1>  -0.1435 
 21 C        2.5288    -1.3668    -0.4522 C.ar  1 <1>  -0.1500 
 22 H        2.5739    -2.4497    -0.5472 H     1 <1>   0.1500 
 23 C        3.7213    -0.6554    -0.5726 C.ar  1 <1>  -0.1500 
 24 H        4.6422    -1.2083    -0.7470 H     1 <1>   0.1500 
 25 C        3.7269     0.7350    -0.4678 C.ar  1 <1>   0.0284 
 26 C        2.5149     1.4048    -0.2467 C.ar  1 <1>   0.0862 
 27 C        5.0032     1.4468    -0.5824 C.2   1 <1>  -0.1784 
 28 H        5.8923     0.8246    -0.6355 H     1 <1>   0.1500 
 29 C        5.1090     2.7804    -0.6490 C.2   1 <1>  -0.1238 
 30 C        6.3926     3.5711    -0.8354 C.3   1 <1>   0.1382 
 31 C        7.5655     2.7667    -1.4112 C.3   1 <1>   0.0000 
 32 H1       8.4134     3.4274    -1.6240 H     1 <1>   0.0000 
 33 H2       7.2856     2.2781    -2.3509 H     1 <1>   0.0000 
 34 H3       7.9165     1.9990    -0.7129 H     1 <1>   0.0000 
 35 C        6.8155     4.2179     0.4877 C.3   1 <1>   0.0000 
 36 H1       6.0300     4.8702     0.8843 H     1 <1>   0.0000 
 37 H2       7.7127     4.8313     0.3499 H     1 <1>   0.0000 
 38 H3       7.0393     3.4610     1.2481 H     1 <1>   0.0000 
 39 H3       6.1966     4.3738    -1.5588 H     1 <1>   0.0000 
 40 C        3.8496     3.5647    -0.5817 C.2   1 <1>   0.5556 
 41 O        3.7869     4.7466    -0.8985 O.2   1 <1>  -0.5700 
 42 C        2.6111     2.8669    -0.0803 C.2   1 <1>   0.4838 
 43 O        1.7547     3.5385     0.4828 O.2   1 <1>  -0.5700 
@<TRIPOS>BOND
  1   1   2  1   
  2   1  20  ar  
  3   1  26  ar  
  4   2   3  1   
  5   2   4  1   
  6   2   5  1   
  7   5   6  1   
  8   5   7  1   
  9   5   8  1   
 10   8   9  1   
 11   8  10  1   
 12   8  11  1   
 13  11  12  1   
 14  11  16  1   
 15  11  20  1   
 16  12  13  1   
 17  12  14  1   
 18  12  15  1   
 19  16  17  1   
 20  16  18  1   
 21  16  19  1   
 22  20  21  ar  
 23  21  22  1   
 24  21  23  ar  
 25  23  24  1   
 26  23  25  ar  
 27  25  26  ar  
 28  25  27  1   
 29  26  42  1   
 30  27  28  1   
 31  27  29  2   
 32  29  30  1   
 33  29  40  1   
 34  30  31  1   
 35  30  35  1   
 36  30  39  1   
 37  31  32  1   
 38  31  33  1   
 39  31  34  1   
 40  35  36  1   
 41  35  37  1   
 42  35  38  1   
 43  40  41  2   
 44  40  42  1   
 45  42  43  2   
@<TRIPOS>SUBSTRUCTURE
  1 <1>   0 RESIDUE 1 * * 1
# MOE 2007.09 (io_trps.svl 2007.09)
