@<TRIPOS>MOLECULE
J08_14
55 57 1 0 0 
SMALL
USER_CHARGES


@<TRIPOS>ATOM
  1 C        1.0080     0.4789    -0.8955 C.ar  1 <1>   0.0825 
  2 C        0.0229     0.8373     0.0236 C.ar  1 <1>  -0.1500 
  3 H       -0.2663     1.8772     0.1445 H     1 <1>   0.1500 
  4 C       -0.5912    -0.1503     0.7890 C.ar  1 <1>   0.0825 
  5 O       -1.5502     0.2408     1.6774 O.3   1 <1>  -0.5325 
  6 H       -1.8924    -0.5429     2.1388 H     1 <1>   0.4500 
  7 C       -0.2353    -1.4906     0.6489 C.ar  1 <1>  -0.1500 
  8 C        2.4124    -1.2091    -2.0171 C.2   1 <1>   0.4694 
  9 C        3.0172    -0.0916    -2.7878 C.2   1 <1>  -0.0140 
 10 C        0.7521    -1.8462    -0.2727 C.ar  1 <1>  -0.1500 
 11 C        1.3713    -0.8570    -1.0430 C.ar  1 <1>   0.0862 
 12 O        2.7534    -2.3768    -2.1676 O.2   1 <1>  -0.5700 
 13 O        1.5824     1.4862    -1.6267 O.3   1 <1>  -0.1592 
 14 H        1.0335    -2.8911    -0.3849 H     1 <1>   0.1500 
 15 C        2.5527     1.1403    -2.5361 C.2   1 <1>  -0.0733 
 16 H        2.8962     2.0341    -3.0444 H     1 <1>   0.1500 
 17 H       -0.7101    -2.2661     1.2427 H     1 <1>   0.1500 
 18 C        4.0577    -0.3074    -3.8086 C.ar  1 <1>   0.0284 
 19 C        3.8745    -1.2624    -4.8170 C.ar  1 <1>  -0.1500 
 20 C        4.8522    -1.4649    -5.7938 C.ar  1 <1>  -0.1500 
 21 C        6.0264    -0.7135    -5.7651 C.ar  1 <1>   0.0825 
 22 O        6.9822    -0.9004    -6.7247 O.3   1 <1>  -0.5325 
 23 H        6.6753    -1.5768    -7.3503 H     1 <1>   0.4500 
 24 C        6.2491     0.2367    -4.7624 C.ar  1 <1>  -0.1435 
 25 C        5.2512     0.4331    -3.7907 C.ar  1 <1>  -0.1500 
 26 H        2.9657    -1.8602    -4.8529 H     1 <1>   0.1500 
 27 H        4.6781    -2.2108    -6.5636 H     1 <1>   0.1500 
 28 C        7.5078     1.0718    -4.7174 C.3   1 <1>   0.2817 
 29 H1       7.8123     1.2074    -3.6741 H     1 <1>   0.0000 
 30 C        7.3491     2.3826    -5.4407 C.2   1 <1>  -0.2882 
 31 H        7.3016     2.2756    -6.5249 H     1 <1>   0.1500 
 32 C        7.2934     3.6244    -4.9172 C.2   1 <1>  -0.2764 
 33 C        7.3247     3.9350    -3.4447 C.3   1 <1>   0.1382 
 34 H1       7.2065     3.0519    -2.8131 H     1 <1>   0.0000 
 35 H2       6.5069     4.6158    -3.1848 H     1 <1>   0.0000 
 36 H3       8.2710     4.4136    -3.1749 H     1 <1>   0.0000 
 37 C        7.1464     4.8307    -5.8288 C.3   1 <1>   0.1382 
 38 C        8.4175     5.6853    -5.8883 C.3   1 <1>   0.1382 
 39 C        8.2574     6.8449    -6.8347 C.2   1 <1>  -0.2882 
 40 H        8.3665     6.5793    -7.8861 H     1 <1>   0.1500 
 41 C        8.0232     8.1343    -6.5212 C.2   1 <1>  -0.2764 
 42 C        7.9275     9.1816    -7.5998 C.3   1 <1>   0.1382 
 43 H1       8.6825     9.9586    -7.4405 H     1 <1>   0.0000 
 44 H2       6.9378     9.6498    -7.5877 H     1 <1>   0.0000 
 45 H3       8.0859     8.7654    -8.6002 H     1 <1>   0.0000 
 46 C        7.8234     8.6599    -5.1268 C.3   1 <1>   0.1382 
 47 H1       7.7539     7.8734    -4.3717 H     1 <1>   0.0000 
 48 H2       6.8919     9.2337    -5.0713 H     1 <1>   0.0000 
 49 H3       8.6516     9.3209    -4.8515 H     1 <1>   0.0000 
 50 H2       9.2585     5.0744    -6.2414 H     1 <1>   0.0000 
 51 H3       8.7036     6.0277    -4.8891 H     1 <1>   0.0000 
 52 H2       6.3000     5.4371    -5.4800 H     1 <1>   0.0000 
 53 H3       6.8802     4.5089    -6.8448 H     1 <1>   0.0000 
 54 H3       8.3429     0.5230    -5.1705 H     1 <1>   0.0000 
 55 H        5.4181     1.1722    -3.0088 H     1 <1>   0.1500 
@<TRIPOS>BOND
  1   1   2  ar  
  2   1  11  ar  
  3   1  13  1   
  4   2   3  1   
  5   2   4  ar  
  6   4   5  1   
  7   4   7  ar  
  8   5   6  1   
  9   7  10  ar  
 10   7  17  1   
 11   8   9  1   
 12   8  11  1   
 13   8  12  2   
 14   9  15  2   
 15   9  18  1   
 16  10  11  ar  
 17  10  14  1   
 18  13  15  1   
 19  15  16  1   
 20  18  19  ar  
 21  18  25  ar  
 22  19  20  ar  
 23  19  26  1   
 24  20  21  ar  
 25  20  27  1   
 26  21  22  1   
 27  21  24  ar  
 28  22  23  1   
 29  24  25  ar  
 30  24  28  1   
 31  25  55  1   
 32  28  29  1   
 33  28  30  1   
 34  28  54  1   
 35  30  31  1   
 36  30  32  2   
 37  32  33  1   
 38  32  37  1   
 39  33  34  1   
 40  33  35  1   
 41  33  36  1   
 42  37  38  1   
 43  37  52  1   
 44  37  53  1   
 45  38  39  1   
 46  38  50  1   
 47  38  51  1   
 48  39  40  1   
 49  39  41  2   
 50  41  42  1   
 51  41  46  1   
 52  42  43  1   
 53  42  44  1   
 54  42  45  1   
 55  46  47  1   
 56  46  48  1   
 57  46  49  1   
@<TRIPOS>SUBSTRUCTURE
  1 <1>   0 RESIDUE 1 * * 1
# MOE 2007.09 (io_trps.svl 2007.09)
