@<TRIPOS>MOLECULE
J08_48
122 128 1 0 0 
SMALL
USER_CHARGES


@<TRIPOS>ATOM
  1 C        1.9064     0.4323    -3.1385 C.3   1 <1>   0.0000 
  2 C        1.6010     0.9354    -4.5691 C.3   1 <1>   0.0000 
  3 H1       2.3378     0.6089    -5.3034 H     1 <1>   0.0000 
  4 H2       1.5442     2.0272    -4.6139 H     1 <1>   0.0000 
  5 H3       0.6403     0.5732    -4.9455 H     1 <1>   0.0000 
  6 C        0.5497     0.3469    -2.3652 C.3   1 <1>   0.0000 
  7 H1      -0.0066     1.2869    -2.4687 H     1 <1>   0.0000 
  8 H2       0.7458     0.2277    -1.2919 H     1 <1>   0.0000 
  9 C       -0.3585    -0.8025    -2.8116 C.3   1 <1>   0.0000 
 10 H1      -0.7423    -0.6135    -3.8198 H     1 <1>   0.0000 
 11 H2      -1.2388    -0.8154    -2.1595 H     1 <1>   0.0000 
 12 C        0.3505    -2.1615    -2.7822 C.3   1 <1>   0.2800 
 13 H       -0.3289    -2.9164    -3.2000 H     1 <1>   0.0000 
 14 O        0.7182    -2.5555    -1.4567 O.3   1 <1>  -0.5600 
 15 C       -0.3459    -2.7956    -0.5426 C.3   1 <1>   0.5600 
 16 H       -1.2637    -3.0273    -1.0964 H     1 <1>   0.0000 
 17 C        1.6600    -2.1342    -3.6284 C.3   1 <1>   0.2800 
 18 O        1.3193    -1.9204    -4.9984 O.3   1 <1>  -0.6800 
 19 H        2.1425    -1.9163    -5.5161 H     1 <1>   0.4000 
 20 C        2.3401    -3.5138    -3.5562 C.3   1 <1>   0.0000 
 21 H1       1.6237    -4.3076    -3.7991 H     1 <1>   0.0000 
 22 H2       2.7554    -3.7190    -2.5644 H     1 <1>   0.0000 
 23 H3       3.1421    -3.6061    -4.2967 H     1 <1>   0.0000 
 24 C        2.5773    -0.9920    -3.0944 C.3   1 <1>   0.0000 
 25 H        2.7232    -1.2284    -2.0278 H     1 <1>   0.0000 
 26 C        4.0077    -0.9635    -3.6666 C.3   1 <1>   0.0000 
 27 H1       4.0146    -0.7187    -4.7314 H     1 <1>   0.0000 
 28 H2       4.4648    -1.9560    -3.5869 H     1 <1>   0.0000 
 29 C        4.9011    -0.0061    -2.8548 C.3   1 <1>   0.0000 
 30 H1       5.9179    -0.0360    -3.2647 H     1 <1>   0.0000 
 31 H2       4.9499    -0.4339    -1.8480 H     1 <1>   0.0000 
 32 C        5.2341     2.4094    -1.6638 C.3   1 <1>   0.0000 
 33 C        5.8458     3.6667    -2.3668 C.3   1 <1>   0.0000 
 34 H1       5.0953     4.2443    -2.9142 H     1 <1>   0.0000 
 35 H2       6.6448     3.3842    -3.0604 H     1 <1>   0.0000 
 36 H3       6.2930     4.3804    -1.6743 H     1 <1>   0.0000 
 37 C        4.3922     1.4633    -2.7814 C.3   1 <1>   0.0000 
 38 C        2.8672     1.4029    -2.3532 C.3   1 <1>   0.1382 
 39 H        2.8797     0.9190    -1.3633 H     1 <1>   0.0000 
 40 C        4.5575     2.0490    -4.2132 C.3   1 <1>   0.0000 
 41 H1       4.0545     3.0131    -4.3308 H     1 <1>   0.0000 
 42 H2       4.1668     1.4018    -4.9952 H     1 <1>   0.0000 
 43 H3       5.6146     2.1661    -4.4729 H     1 <1>   0.0000 
 44 C        4.2483     2.9045    -0.5266 C.3   1 <1>   0.1382 
 45 H        3.8459     2.0215    -0.0181 H     1 <1>   0.0000 
 46 C        3.0454     3.5444    -1.1836 C.2   1 <1>  -0.2882 
 47 H        2.7556     4.5659    -0.9683 H     1 <1>   0.1500 
 48 C        2.3688     2.8085    -2.0814 C.2   1 <1>  -0.2882 
 49 H        1.5085     3.2153    -2.6003 H     1 <1>   0.1500 
 50 C        6.4060     1.6341    -0.9787 C.3   1 <1>   0.0000 
 51 H1       7.1740     1.4154    -1.7317 H     1 <1>   0.0000 
 52 H2       6.0450     0.6734    -0.6056 H     1 <1>   0.0000 
 53 C        7.0736     2.3305     0.2267 C.3   1 <1>   0.2800 
 54 H2       7.7738     1.6133     0.6728 H     1 <1>   0.0000 
 55 O        7.8828     3.4003    -0.2585 O.3   1 <1>  -0.6800 
 56 H        8.5602     3.5833     0.4147 H     1 <1>   0.4000 
 57 C        6.0464     2.8110     1.3015 C.3   1 <1>   0.0000 
 58 C        5.4338     1.5450     1.9935 C.3   1 <1>   0.2800 
 59 H1       4.9421     0.8751     1.2853 H     1 <1>   0.0000 
 60 H2       4.6912     1.8056     2.7512 H     1 <1>   0.0000 
 61 O        6.4457     0.7790     2.6381 O.3   1 <1>  -0.6800 
 62 H        6.0013     0.0289     3.0710 H     1 <1>   0.4000 
 63 C        4.9415     3.6958     0.6202 C.3   1 <1>   0.0000 
 64 H        5.4229     4.5747     0.1793 H     1 <1>   0.0000 
 65 C        6.7601     3.6831     2.3734 C.3   1 <1>   0.0000 
 66 H1       7.2764     4.5244     1.8968 H     1 <1>   0.0000 
 67 H2       7.5414     3.1029     2.8796 H     1 <1>   0.0000 
 68 C        5.8020     4.2524     3.4241 C.3   1 <1>   0.0000 
 69 H1       6.3705     4.8978     4.1065 H     1 <1>   0.0000 
 70 H2       5.4241     3.4332     4.0476 H     1 <1>   0.0000 
 71 C        4.6213     5.0404     2.8166 C.3   1 <1>   0.0000 
 72 C        5.1098     6.4098     2.2980 C.3   1 <1>   0.0000 
 73 H1       5.8713     6.3162     1.5187 H     1 <1>   0.0000 
 74 H2       5.5467     7.0033     3.1094 H     1 <1>   0.0000 
 75 H3       4.2800     6.9896     1.8775 H     1 <1>   0.0000 
 76 C        3.5785     5.3050     3.9207 C.3   1 <1>   0.0000 
 77 H1       2.7277     5.8770     3.5333 H     1 <1>   0.0000 
 78 H2       4.0147     5.8740     4.7496 H     1 <1>   0.0000 
 79 H3       3.1882     4.3669     4.3313 H     1 <1>   0.0000 
 80 C        3.9447     4.2432     1.6717 C.3   1 <1>   0.0000 
 81 H1       3.2127     4.8998     1.1866 H     1 <1>   0.0000 
 82 H2       3.3595     3.4141     2.0882 H     1 <1>   0.0000 
 83 O       -0.5574    -1.6407     0.2745 O.3   1 <1>  -0.5600 
 84 C       -1.5437    -1.7981     1.3010 C.3   1 <1>   0.2800 
 85 C       -2.9510    -1.7798     0.6996 C.3   1 <1>   0.0000 
 86 H1      -3.0639    -0.9219     0.0278 H     1 <1>   0.0000 
 87 H2      -3.7155    -1.7087     1.4795 H     1 <1>   0.0000 
 88 H3      -3.1574    -2.6746     0.1052 H     1 <1>   0.0000 
 89 H2      -1.4719    -0.9018     1.9296 H     1 <1>   0.0000 
 90 C       -1.2589    -3.0184     2.1999 C.3   1 <1>   0.2800 
 91 O       -2.3284    -3.2040     3.1342 O.3   1 <1>  -0.6800 
 92 H       -2.1618    -4.0947     3.5274 H     1 <1>   0.4000 
 93 H2      -0.3584    -2.8241     2.7956 H     1 <1>   0.0000 
 94 C       -1.0304    -4.2896     1.3529 C.3   1 <1>   0.2800 
 95 H1      -1.9600    -4.5903     0.8536 H     1 <1>   0.0000 
 96 O       -0.5306    -5.3810     2.1591 O.3   1 <1>  -0.5600 
 97 C       -1.5638    -6.2802     2.5850 C.3   1 <1>   0.5600 
 98 H       -2.1349    -6.5962     1.7013 H     1 <1>   0.0000 
 99 C        0.0476    -4.0132     0.3081 C.3   1 <1>   0.2800 
100 H1       0.2028    -4.8893    -0.3322 H     1 <1>   0.0000 
101 O        1.2968    -3.8062     0.9942 O.3   1 <1>  -0.6800 
102 H        1.3437    -4.5132     1.6665 H     1 <1>   0.4000 
103 O       -2.4060    -5.6108     3.5184 O.3   1 <1>  -0.5600 
104 C       -3.5187    -6.4250     3.9189 C.3   1 <1>   0.2800 
105 H1      -4.0665    -6.7473     3.0232 H     1 <1>   0.0000 
106 C       -4.4465    -5.5286     4.7426 C.3   1 <1>   0.2800 
107 O       -4.9306    -4.4558     3.9318 O.3   1 <1>  -0.6800 
108 H       -4.1572    -3.9303     3.6384 H     1 <1>   0.4000 
109 H2      -3.9220    -5.0867     5.5962 H     1 <1>   0.0000 
110 H3      -5.3141    -6.0837     5.1099 H     1 <1>   0.0000 
111 C       -2.9900    -7.6275     4.7060 C.3   1 <1>   0.2800 
112 O       -4.0373    -8.5248     5.0766 O.3   1 <1>  -0.6800 
113 H       -4.4956    -8.1547     5.8520 H     1 <1>   0.4000 
114 H2      -2.4896    -7.3005     5.6267 H     1 <1>   0.0000 
115 C       -1.9827    -8.4157     3.8524 C.3   1 <1>   0.2800 
116 H1      -2.5005    -8.9633     3.0546 H     1 <1>   0.0000 
117 O       -1.3807    -9.4164     4.6879 O.3   1 <1>  -0.6800 
118 H       -2.1245    -9.9237     5.0670 H     1 <1>   0.4000 
119 C       -0.9073    -7.5028     3.2463 C.3   1 <1>   0.2800 
120 O       -0.1547    -8.2192     2.2571 O.3   1 <1>  -0.6800 
121 H        0.4927    -7.5888     1.8910 H     1 <1>   0.4000 
122 H2      -0.1991    -7.1926     4.0243 H     1 <1>   0.0000 
@<TRIPOS>BOND
  1   1   2  1   
  2   1   6  1   
  3   1  24  1   
  4   1  38  1   
  5   2   3  1   
  6   2   4  1   
  7   2   5  1   
  8   6   7  1   
  9   6   8  1   
 10   6   9  1   
 11   9  10  1   
 12   9  11  1   
 13   9  12  1   
 14  12  13  1   
 15  12  14  1   
 16  12  17  1   
 17  14  15  1   
 18  15  16  1   
 19  15  83  1   
 20  15  99  1   
 21  17  18  1   
 22  17  20  1   
 23  17  24  1   
 24  18  19  1   
 25  20  21  1   
 26  20  22  1   
 27  20  23  1   
 28  24  25  1   
 29  24  26  1   
 30  26  27  1   
 31  26  28  1   
 32  26  29  1   
 33  29  30  1   
 34  29  31  1   
 35  29  37  1   
 36  32  33  1   
 37  32  37  1   
 38  32  44  1   
 39  32  50  1   
 40  33  34  1   
 41  33  35  1   
 42  33  36  1   
 43  37  38  1   
 44  37  40  1   
 45  38  39  1   
 46  38  48  1   
 47  40  41  1   
 48  40  42  1   
 49  40  43  1   
 50  44  45  1   
 51  44  46  1   
 52  44  63  1   
 53  46  47  1   
 54  46  48  2   
 55  48  49  1   
 56  50  51  1   
 57  50  52  1   
 58  50  53  1   
 59  53  54  1   
 60  53  55  1   
 61  53  57  1   
 62  55  56  1   
 63  57  58  1   
 64  57  63  1   
 65  57  65  1   
 66  58  59  1   
 67  58  60  1   
 68  58  61  1   
 69  61  62  1   
 70  63  64  1   
 71  63  80  1   
 72  65  66  1   
 73  65  67  1   
 74  65  68  1   
 75  68  69  1   
 76  68  70  1   
 77  68  71  1   
 78  71  72  1   
 79  71  76  1   
 80  71  80  1   
 81  72  73  1   
 82  72  74  1   
 83  72  75  1   
 84  76  77  1   
 85  76  78  1   
 86  76  79  1   
 87  80  81  1   
 88  80  82  1   
 89  83  84  1   
 90  84  85  1   
 91  84  89  1   
 92  84  90  1   
 93  85  86  1   
 94  85  87  1   
 95  85  88  1   
 96  90  91  1   
 97  90  93  1   
 98  90  94  1   
 99  91  92  1   
100  94  95  1   
101  94  96  1   
102  94  99  1   
103  96  97  1   
104  97  98  1   
105  97 103  1   
106  97 119  1   
107  99 100  1   
108  99 101  1   
109 101 102  1   
110 103 104  1   
111 104 105  1   
112 104 106  1   
113 104 111  1   
114 106 107  1   
115 106 109  1   
116 106 110  1   
117 107 108  1   
118 111 112  1   
119 111 114  1   
120 111 115  1   
121 112 113  1   
122 115 116  1   
123 115 117  1   
124 115 119  1   
125 117 118  1   
126 119 120  1   
127 119 122  1   
128 120 121  1   
@<TRIPOS>SUBSTRUCTURE
  1 <1>   0 RESIDUE 1 * * 1
# MOE 2007.09 (io_trps.svl 2007.09)
