@<TRIPOS>MOLECULE
J08_70
45 46 1 0 0 
SMALL
USER_CHARGES


@<TRIPOS>ATOM
  1 C        1.1821     0.8796     0.5111 C.ar  1 <1>  -0.1435 
  2 C        2.5240     1.5675     0.4750 C.3   1 <1>   0.1435 
  3 C        3.6538     0.5716     0.2211 C.3   1 <1>   0.0610 
  4 C        4.9865     1.2687     0.0578 C.2   1 <1>   0.4946 
  5 C        6.1740     0.4001    -0.1353 C.2   1 <1>  -0.1356 
  6 H        6.0257    -0.6724    -0.0976 H     1 <1>   0.1500 
  7 C        7.3785     0.9461    -0.3596 C.2   1 <1>  -0.0615 
  8 O        7.5713     2.3163    -0.4265 O.3   1 <1>  -0.5267 
  9 H        6.6945     2.7446    -0.2604 H     1 <1>   0.4500 
 10 C        8.6230     0.1307    -0.5853 C.3   1 <1>   0.1382 
 11 C        9.6479     0.3321     0.5354 C.3   1 <1>   0.1435 
 12 C       10.8707    -0.5300     0.3322 C.ar  1 <1>  -0.1435 
 13 H2       9.1968     0.1008     1.5094 H     1 <1>   0.0000 
 14 H3       9.9577     1.3838     0.5924 H     1 <1>   0.0000 
 15 H2       9.0590     0.4132    -1.5523 H     1 <1>   0.0000 
 16 H3       8.3699    -0.9347    -0.6670 H     1 <1>   0.0000 
 17 O        5.1215     2.4918     0.0595 O.2   1 <1>  -0.5700 
 18 H2       3.4596    -0.0002    -0.6943 H     1 <1>   0.0000 
 19 H3       3.7274    -0.1329     1.0581 H     1 <1>   0.0000 
 20 H2       2.6941     2.1023     1.4184 H     1 <1>   0.0000 
 21 H3       2.5091     2.3419    -0.3032 H     1 <1>   0.0000 
 22 C        0.4762     0.6584    -0.6824 C.ar  1 <1>  -0.1500 
 23 H        0.8909     0.9999    -1.6263 H     1 <1>   0.1500 
 24 C       -0.7483     0.0028    -0.6401 C.ar  1 <1>   0.0825 
 25 O       -1.4821    -0.2427    -1.7678 O.3   1 <1>  -0.5325 
 26 H       -0.9942     0.1131    -2.5309 H     1 <1>   0.4500 
 27 C       -1.2747    -0.4344     0.5718 C.ar  1 <1>   0.0825 
 28 O       -2.4807    -1.0764     0.5853 O.3   1 <1>  -0.5325 
 29 H       -2.7463    -1.0920    -0.3567 H     1 <1>   0.4500 
 30 C       -0.5908    -0.2280     1.7598 C.ar  1 <1>  -0.1500 
 31 H       -1.0098    -0.5741     2.6995 H     1 <1>   0.1500 
 32 C        0.6422     0.4285     1.7285 C.ar  1 <1>  -0.1500 
 33 H        1.1798     0.5881     2.6606 H     1 <1>   0.1500 
 34 C       10.9627    -1.7913     0.9474 C.ar  1 <1>  -0.1500 
 35 H       10.1571    -2.1470     1.5865 H     1 <1>   0.1500 
 36 C       12.0837    -2.6042     0.7509 C.ar  1 <1>  -0.1500 
 37 H       12.1330    -3.5722     1.2392 H     1 <1>   0.1500 
 38 C       13.1095    -2.1511    -0.0684 C.ar  1 <1>   0.0825 
 39 O       14.2337    -2.8922    -0.3082 O.3   1 <1>  -0.5325 
 40 H       14.1482    -3.7304     0.1776 H     1 <1>   0.4500 
 41 C       13.0232    -0.9065    -0.6846 C.ar  1 <1>   0.0825 
 42 O       14.0446    -0.4844    -1.4882 O.3   1 <1>  -0.5325 
 43 H       14.6931    -1.2176    -1.4556 H     1 <1>   0.4500 
 44 C       11.9152    -0.0921    -0.4950 C.ar  1 <1>  -0.1500 
 45 H       11.8685     0.8745    -0.9886 H     1 <1>   0.1500 
@<TRIPOS>BOND
  1   1   2  1   
  2   1  22  ar  
  3   1  32  ar  
  4   2   3  1   
  5   2  20  1   
  6   2  21  1   
  7   3   4  1   
  8   3  18  1   
  9   3  19  1   
 10   4   5  1   
 11   4  17  2   
 12   5   6  1   
 13   5   7  2   
 14   7   8  1   
 15   7  10  1   
 16   8   9  1   
 17  10  11  1   
 18  10  15  1   
 19  10  16  1   
 20  11  12  1   
 21  11  13  1   
 22  11  14  1   
 23  12  34  ar  
 24  12  44  ar  
 25  22  23  1   
 26  22  24  ar  
 27  24  25  1   
 28  24  27  ar  
 29  25  26  1   
 30  27  28  1   
 31  27  30  ar  
 32  28  29  1   
 33  30  31  1   
 34  30  32  ar  
 35  32  33  1   
 36  34  35  1   
 37  34  36  ar  
 38  36  37  1   
 39  36  38  ar  
 40  38  39  1   
 41  38  41  ar  
 42  39  40  1   
 43  41  42  1   
 44  41  44  ar  
 45  42  43  1   
 46  44  45  1   
@<TRIPOS>SUBSTRUCTURE
  1 <1>   0 RESIDUE 1 * * 1
# MOE 2007.09 (io_trps.svl 2007.09)
