@<TRIPOS>MOLECULE
J08_64-S
66 68 1 0 0 
SMALL
USER_CHARGES


@<TRIPOS>ATOM
  1 C        1.0840     0.6208     0.8955 C.ar  1 <1>  -0.1435 
  2 C        2.4300     1.1060     1.3818 C.3   1 <1>   0.1435 
  3 H1       2.6612     0.6006     2.3289 H     1 <1>   0.0000 
  4 H2       2.3772     2.1749     1.6259 H     1 <1>   0.0000 
  5 C        3.5384     0.8597     0.3578 C.3   1 <1>   0.0610 
  6 H1       3.5048    -0.1800     0.0108 H     1 <1>   0.0000 
  7 H2       3.4100     1.5139    -0.5118 H     1 <1>   0.0000 
  8 C        4.9264     1.0997     0.9393 C.2   1 <1>   0.4480 
  9 C        6.0858     0.5843     0.0854 C.3   1 <1>   0.0610 
 10 H1       5.8468     0.8075    -0.9597 H     1 <1>   0.0000 
 11 H2       6.0545    -0.5096     0.1709 H     1 <1>   0.0000 
 12 C        7.5217     1.0586     0.3963 C.3   1 <1>   0.0000 
 13 H        8.1860     0.3785    -0.1531 H     1 <1>   0.0000 
 14 C        7.8422     2.4969    -0.1038 C.3   1 <1>   0.2800 
 15 H        8.8696     2.7273     0.2145 H     1 <1>   0.0000 
 16 C        7.9444     0.9169     1.8807 C.3   1 <1>   0.0000 
 17 H1       7.4439     1.6698     2.4997 H     1 <1>   0.0000 
 18 H2       9.0152     1.1547     1.9541 H     1 <1>   0.0000 
 19 C        7.7219    -0.4821     2.4654 C.3   1 <1>   0.1435 
 20 H1       6.6608    -0.7554     2.4483 H     1 <1>   0.0000 
 21 H2       8.2391    -1.2306     1.8524 H     1 <1>   0.0000 
 22 C        8.2096    -0.5645     3.8923 C.ar  1 <1>  -0.1435 
 23 O        5.0759     1.6061     2.0490 O.2   1 <1>  -0.5700 
 24 C        0.1577     1.5075     0.3259 C.ar  1 <1>  -0.1500 
 25 H        0.4120     2.5598     0.2325 H     1 <1>   0.1500 
 26 C       -1.0831     1.0358    -0.1126 C.ar  1 <1>   0.0825 
 27 O       -2.0007     1.8936    -0.6564 O.3   1 <1>  -0.5325 
 28 H       -1.6421     2.7945    -0.6359 H     1 <1>   0.4500 
 29 C       -1.4026    -0.3174     0.0027 C.ar  1 <1>   0.0825 
 30 O       -2.6203    -0.7630    -0.4331 O.3   1 <1>  -0.5325 
 31 H       -2.6808    -1.7170    -0.2703 H     1 <1>   0.4500 
 32 C       -0.4880    -1.2080     0.5602 C.ar  1 <1>  -0.1500 
 33 H       -0.7183    -2.2643     0.6597 H     1 <1>   0.1500 
 34 C        0.7499    -0.7384     1.0051 C.ar  1 <1>  -0.1500 
 35 H        1.4537    -1.4419     1.4457 H     1 <1>   0.1500 
 36 C        9.4711    -1.1013     4.1857 C.ar  1 <1>  -0.1500 
 37 H       10.1057    -1.4760     3.3856 H     1 <1>   0.1500 
 38 C        9.9308    -1.1531     5.5040 C.ar  1 <1>  -0.1500 
 39 H       10.9107    -1.5754     5.7061 H     1 <1>   0.1500 
 40 C        9.1302    -0.6598     6.5331 C.ar  1 <1>   0.0825 
 41 O        9.5701    -0.6932     7.8270 O.3   1 <1>  -0.5325 
 42 H       10.4547    -1.0902     7.8523 H     1 <1>   0.4500 
 43 C        7.8739    -0.1226     6.2516 C.ar  1 <1>   0.0825 
 44 O        7.1024     0.3559     7.2749 O.3   1 <1>  -0.5325 
 45 H        6.2521     0.6548     6.9159 H     1 <1>   0.4500 
 46 C        7.4124    -0.0702     4.9366 C.ar  1 <1>  -0.1500 
 47 H        6.4424     0.3625     4.7035 H     1 <1>   0.1500 
 48 O        6.9602     3.4141     0.5544 O.3   1 <1>  -0.5600 
 49 C        7.3344     4.7682     0.3622 C.3   1 <1>   0.5600 
 50 H1       8.3333     4.9576     0.7735 H     1 <1>   0.0000 
 51 O        6.4211     5.5974     1.0690 O.3   1 <1>  -0.6800 
 52 H        6.4239     5.2335     1.9722 H     1 <1>   0.4000 
 53 C        7.2546     5.1403    -1.1179 C.3   1 <1>   0.2800 
 54 O        7.7029     6.4838    -1.3371 O.3   1 <1>  -0.6800 
 55 H        7.2023     7.0255    -0.6944 H     1 <1>   0.4000 
 56 H2       6.2157     5.0994    -1.4692 H     1 <1>   0.0000 
 57 C        8.1157     4.1855    -1.9425 C.3   1 <1>   0.2800 
 58 H1       9.1782     4.3671    -1.7354 H     1 <1>   0.0000 
 59 O        7.9190     4.4744    -3.3285 O.3   1 <1>  -0.6800 
 60 H        8.0033     5.4458    -3.4035 H     1 <1>   0.4000 
 61 C        7.7549     2.7185    -1.6356 C.3   1 <1>   0.0000 
 62 C        8.6516     1.7657    -2.4301 C.3   1 <1>   0.0000 
 63 H1       8.3154     0.7292    -2.3325 H     1 <1>   0.0000 
 64 H2       9.6903     1.8235    -2.0881 H     1 <1>   0.0000 
 65 H3       8.6351     2.0026    -3.4990 H     1 <1>   0.0000 
 66 H2       6.7225     2.5652    -1.9752 H     1 <1>   0.0000 
@<TRIPOS>BOND
  1   1   2  1   
  2   1  24  ar  
  3   1  34  ar  
  4   2   3  1   
  5   2   4  1   
  6   2   5  1   
  7   5   6  1   
  8   5   7  1   
  9   5   8  1   
 10   8   9  1   
 11   8  23  2   
 12   9  10  1   
 13   9  11  1   
 14   9  12  1   
 15  12  13  1   
 16  12  14  1   
 17  12  16  1   
 18  14  15  1   
 19  14  48  1   
 20  14  61  1   
 21  16  17  1   
 22  16  18  1   
 23  16  19  1   
 24  19  20  1   
 25  19  21  1   
 26  19  22  1   
 27  22  36  ar  
 28  22  46  ar  
 29  24  25  1   
 30  24  26  ar  
 31  26  27  1   
 32  26  29  ar  
 33  27  28  1   
 34  29  30  1   
 35  29  32  ar  
 36  30  31  1   
 37  32  33  1   
 38  32  34  ar  
 39  34  35  1   
 40  36  37  1   
 41  36  38  ar  
 42  38  39  1   
 43  38  40  ar  
 44  40  41  1   
 45  40  43  ar  
 46  41  42  1   
 47  43  44  1   
 48  43  46  ar  
 49  44  45  1   
 50  46  47  1   
 51  48  49  1   
 52  49  50  1   
 53  49  51  1   
 54  49  53  1   
 55  51  52  1   
 56  53  54  1   
 57  53  56  1   
 58  53  57  1   
 59  54  55  1   
 60  57  58  1   
 61  57  59  1   
 62  57  61  1   
 63  59  60  1   
 64  61  62  1   
 65  61  66  1   
 66  62  63  1   
 67  62  64  1   
 68  62  65  1   
@<TRIPOS>SUBSTRUCTURE
  1 <1>   0 RESIDUE 1 * * 1
# MOE 2007.09 (io_trps.svl 2007.09)
