@<TRIPOS>MOLECULE
NONAME
40 43 1 0 0 
SMALL
NO_CHARGES


@<TRIPOS>ATOM
  1 C        3.6798     2.1106    -0.5774 C.ar  1 <1>   0.0000 
  2 C        2.4178     2.8406    -0.1264 C.3   1 <1>   0.0000 
  3 H        2.4178     3.8606    -0.5274 H     1 <1>   0.0000 
  4 H        2.4178     2.9266     0.9666 H     1 <1>   0.0000 
  5 C        1.1548     2.1116    -0.5774 C.3   1 <1>   0.0000 
  6 H        1.0808     2.1536    -1.6714 H     1 <1>   0.0000 
  7 H        0.2708     2.6226    -0.1774 H     1 <1>   0.0000 
  8 C        1.1538     0.6546    -0.1254 C.3   1 <1>   0.0000 
  9 H        0.2698     0.1446    -0.5244 H     1 <1>   0.0000 
 10 H        1.0798     0.6126     0.9686 H     1 <1>   0.0000 
 11 C        2.4158    -0.0754    -0.5764 C.3   1 <1>   0.0000 
 12 C        2.4158    -0.1873    -2.0000 C.3   1 <1>   0.0000 
 13 H1       1.5144    -0.7077    -2.3235 H     1 <1>   0.0000 
 14 H2       3.2939    -0.7481    -2.3204 H     1 <1>   0.0000 
 15 H3       2.4392     0.8084    -2.4427 H     1 <1>   0.0000 
 16 C        2.4158    -1.4044    -0.0539 C.3   1 <1>   0.0000 
 17 H1       1.5129    -1.9221    -0.3777 H     1 <1>   0.0000 
 18 H2       2.4423    -1.3667     1.0351 H     1 <1>   0.0000 
 19 H3       3.2923    -1.9389    -0.4203 H     1 <1>   0.0000 
 20 C        3.6788     0.6536    -0.1254 C.ar  1 <1>   0.0000 
 21 C        4.8191     0.2127     0.4007 C.ar  1 <1>   0.0000 
 22 H        4.8066    -0.5907     1.1223 H     1 <1>   0.0000 
 23 C        6.0314     0.7900     0.0187 C.ar  1 <1>   0.0000 
 24 H        6.9642     0.3308     0.3110 H     1 <1>   0.0000 
 25 C        6.0377     1.9598    -0.7407 C.ar  1 <1>   0.0000 
 26 C        4.8335     2.5532    -1.1185 C.ar  1 <1>   0.0000 
 27 C        4.7922     3.7518    -1.9784 C.2   1 <1>   0.0000 
 28 O2       4.4860     4.8746    -1.1509 O.2   1 <1>   0.0000 
 29 C        6.0770     4.0672    -2.7392 C.2   1 <1>   0.0000 
 30 O1       6.0349     5.4260    -3.1764 O.2   1 <1>   0.0000 
 31 C        7.3121     3.8663    -1.8649 C.2   1 <1>   0.0000 
 32 C        7.3485     2.4688    -1.2543 C.2   1 <1>   0.0000 
 33 O        8.6350     2.1730    -1.1583 O.3   1 <1>   0.0000 
 34 C        9.3863     3.3729    -1.2734 C.2   1 <1>   0.0000 
 35 H       10.4512     3.4720    -1.1237 H     1 <1>   0.0000 
 36 C        8.4907     4.4195    -1.6199 C.2   1 <1>   0.0000 
 37 C        8.8032     5.8111    -1.6912 C.3   1 <1>   0.0000 
 38 H1       9.8521     5.9615    -1.4358 H     1 <1>   0.0000 
 39 H2       8.1759     6.3607    -0.9893 H     1 <1>   0.0000 
 40 H3       8.6200     6.1733    -2.7028 H     1 <1>   0.0000 
@<TRIPOS>BOND
  1   1   2  1   
  2   1  20  ar  
  3   1  26  ar  
  4   2   3  1   
  5   2   4  1   
  6   2   5  1   
  7   5   6  1   
  8   5   7  1   
  9   5   8  1   
 10   8   9  1   
 11   8  10  1   
 12   8  11  1   
 13  11  12  1   
 14  11  16  1   
 15  11  20  1   
 16  12  13  1   
 17  12  14  1   
 18  12  15  1   
 19  16  17  1   
 20  16  18  1   
 21  16  19  1   
 22  20  21  ar  
 23  21  22  1   
 24  21  23  ar  
 25  23  24  1   
 26  23  25  ar  
 27  25  26  ar  
 28  25  32  1   
 29  26  27  1   
 30  27  28  2   
 31  27  29  1   
 32  29  30  2   
 33  29  31  1   
 34  31  32  2   
 35  31  36  1   
 36  32  33  1   
 37  33  34  1   
 38  34  35  1   
 39  34  36  2   
 40  36  37  1   
 41  37  38  1   
 42  37  39  1   
 43  37  40  1   
@<TRIPOS>SUBSTRUCTURE
  1 ****  26 GROUP 4 **** **** 0

# MOE 2015.10 (io_trps.svl 2015.10)
