@<TRIPOS>MOLECULE
J08_15
71 75 1 0 0 
SMALL
USER_CHARGES


@<TRIPOS>ATOM
  1 C        1.1318    -1.2066    -1.6239 C.ar  1 <1>   0.0825 
  2 O        1.3732    -1.6642    -2.8972 O.3   1 <1>  -0.1592 
  3 C        0.0725    -0.2988    -1.4946 C.ar  1 <1>  -0.1500 
  4 H       -0.4769    -0.0211    -2.3886 H     1 <1>   0.1500 
  5 C       -0.2471     0.2247    -0.2439 C.ar  1 <1>   0.0825 
  6 O       -1.2311     1.1342     0.0264 O.3   1 <1>  -0.3625 
  7 C       -1.8554     1.8145    -1.0753 C.3   1 <1>   0.5600 
  8 H       -2.3743     1.0717    -1.6967 H     1 <1>   0.0000 
  9 C        0.4781    -0.1927     0.8755 C.ar  1 <1>  -0.1500 
 10 H        0.2085     0.2098     1.8495 H     1 <1>   0.1500 
 11 C        1.5384    -1.0963     0.7428 C.ar  1 <1>   0.0825 
 12 O        2.2263    -1.4687     1.8628 O.3   1 <1>  -0.5325 
 13 H        1.8338    -1.0490     2.6459 H     1 <1>   0.4500 
 14 C        1.8802    -1.6025    -0.5134 C.ar  1 <1>   0.0862 
 15 C        2.9980    -2.5335    -0.7367 C.2   1 <1>   0.4694 
 16 C        3.1913    -3.0200    -2.1122 C.2   1 <1>  -0.1356 
 17 H        4.0057    -3.7178    -2.2666 H     1 <1>   0.1500 
 18 C        2.3889    -2.5835    -3.0877 C.2   1 <1>   0.0483 
 19 C        2.5416    -3.0343    -4.4845 C.ar  1 <1>   0.0284 
 20 O        3.7640    -2.9104     0.1394 O.2   1 <1>  -0.5700 
 21 C        2.4066    -2.1149    -5.5386 C.ar  1 <1>  -0.1500 
 22 H        2.2058    -1.0651    -5.3308 H     1 <1>   0.1500 
 23 C        2.5352    -2.5241    -6.8709 C.ar  1 <1>  -0.1500 
 24 H        2.4315    -1.7885    -7.6624 H     1 <1>   0.1500 
 25 C        2.7919    -3.8615    -7.1547 C.ar  1 <1>   0.0825 
 26 O        2.9243    -4.3072    -8.4382 O.3   1 <1>  -0.5325 
 27 H        2.8185    -3.5532    -9.0412 H     1 <1>   0.4500 
 28 C        2.9179    -4.7910    -6.1295 C.ar  1 <1>  -0.1500 
 29 H        3.1105    -5.8342    -6.3620 H     1 <1>   0.1500 
 30 C        2.7899    -4.3800    -4.7992 C.ar  1 <1>  -0.1500 
 31 H        2.8750    -5.1298    -4.0158 H     1 <1>   0.1500 
 32 O       -0.8889     2.5389    -1.8444 O.3   1 <1>  -0.5600 
 33 C       -1.4687     3.2028    -2.9754 C.3   1 <1>   0.2800 
 34 H1      -1.9587     2.4532    -3.6106 H     1 <1>   0.0000 
 35 C       -0.3052     3.8108    -3.7631 C.3   1 <1>   0.2800 
 36 O        0.6363     2.7855    -4.0775 O.3   1 <1>  -0.6800 
 37 H        0.7975     2.3192    -3.2332 H     1 <1>   0.4000 
 38 H2       0.2230     4.5657    -3.1712 H     1 <1>   0.0000 
 39 H3      -0.6430     4.2669    -4.6978 H     1 <1>   0.0000 
 40 C       -2.4610     4.2686    -2.5048 C.3   1 <1>   0.2800 
 41 O       -3.1474     4.8769    -3.6022 O.3   1 <1>  -0.6800 
 42 H       -2.5393     5.4939    -4.0479 H     1 <1>   0.4000 
 43 H2      -1.9445     5.0658    -1.9546 H     1 <1>   0.0000 
 44 C       -3.5153     3.6414    -1.5809 C.3   1 <1>   0.2800 
 45 H1      -4.2214     3.0323    -2.1595 H     1 <1>   0.0000 
 46 O       -4.2893     4.7038    -1.0063 O.3   1 <1>  -0.6800 
 47 H       -4.6125     5.2267    -1.7667 H     1 <1>   0.4000 
 48 C       -2.8818     2.7954    -0.4672 C.3   1 <1>   0.2800 
 49 O       -3.9085     2.0302     0.1962 O.3   1 <1>  -0.5600 
 50 C       -4.3299     2.5736     1.4583 C.3   1 <1>   0.5600 
 51 H       -4.3890     3.6672     1.4066 H     1 <1>   0.0000 
 52 H2      -2.3744     3.4517     0.2522 H     1 <1>   0.0000 
 53 C       -3.3332     2.1059     2.5449 C.3   1 <1>   0.2800 
 54 H1      -2.3255     2.4931     2.3650 H     1 <1>   0.0000 
 55 O       -3.2235     0.6709     2.4871 O.3   1 <1>  -0.6800 
 56 H       -3.1985     0.4509     1.5348 H     1 <1>   0.4000 
 57 C       -3.8342     2.5401     3.9206 C.3   1 <1>   0.2800 
 58 H1      -3.8322     3.6359     3.9809 H     1 <1>   0.0000 
 59 O       -2.9637     2.0903     4.9640 O.3   1 <1>  -0.6800 
 60 H       -3.4785     2.1983     5.7885 H     1 <1>   0.4000 
 61 C       -5.2525     2.0174     4.1640 C.3   1 <1>   0.2800 
 62 O       -5.6823     2.5190     5.4338 O.3   1 <1>  -0.6800 
 63 H       -6.4968     2.0445     5.6791 H     1 <1>   0.4000 
 64 H2      -5.2329     0.9227     4.2327 H     1 <1>   0.0000 
 65 C       -6.1597     2.4902     3.0151 C.3   1 <1>   0.2800 
 66 H1      -6.2375     3.5853     3.0188 H     1 <1>   0.0000 
 67 C       -7.5712     1.9268     3.1406 C.3   1 <1>   0.0000 
 68 H1      -8.1814     2.2352     2.2845 H     1 <1>   0.0000 
 69 H2      -8.0647     2.2684     4.0550 H     1 <1>   0.0000 
 70 H3      -7.5564     0.8313     3.1365 H     1 <1>   0.0000 
 71 O       -5.6440     2.0673     1.7469 O.3   1 <1>  -0.5600 
@<TRIPOS>BOND
  1   1   2  1   
  2   1   3  ar  
  3   1  14  ar  
  4   2  18  1   
  5   3   4  1   
  6   3   5  ar  
  7   5   6  1   
  8   5   9  ar  
  9   6   7  1   
 10   7   8  1   
 11   7  32  1   
 12   7  48  1   
 13   9  10  1   
 14   9  11  ar  
 15  11  12  1   
 16  11  14  ar  
 17  12  13  1   
 18  14  15  1   
 19  15  16  1   
 20  15  20  2   
 21  16  17  1   
 22  16  18  2   
 23  18  19  1   
 24  19  21  ar  
 25  19  30  ar  
 26  21  22  1   
 27  21  23  ar  
 28  23  24  1   
 29  23  25  ar  
 30  25  26  1   
 31  25  28  ar  
 32  26  27  1   
 33  28  29  1   
 34  28  30  ar  
 35  30  31  1   
 36  32  33  1   
 37  33  34  1   
 38  33  35  1   
 39  33  40  1   
 40  35  36  1   
 41  35  38  1   
 42  35  39  1   
 43  36  37  1   
 44  40  41  1   
 45  40  43  1   
 46  40  44  1   
 47  41  42  1   
 48  44  45  1   
 49  44  46  1   
 50  44  48  1   
 51  46  47  1   
 52  48  49  1   
 53  48  52  1   
 54  49  50  1   
 55  50  51  1   
 56  50  53  1   
 57  50  71  1   
 58  53  54  1   
 59  53  55  1   
 60  53  57  1   
 61  55  56  1   
 62  57  58  1   
 63  57  59  1   
 64  57  61  1   
 65  59  60  1   
 66  61  62  1   
 67  61  64  1   
 68  61  65  1   
 69  62  63  1   
 70  65  66  1   
 71  65  67  1   
 72  65  71  1   
 73  67  68  1   
 74  67  69  1   
 75  67  70  1   
@<TRIPOS>SUBSTRUCTURE
  1 <1>   0 RESIDUE 1 * * 1
# MOE 2007.09 (io_trps.svl 2007.09)
