@<TRIPOS>MOLECULE
J08_45
30 32 1 0 0 
SMALL
USER_CHARGES


@<TRIPOS>ATOM
  1 C        1.1727     0.7627     0.0981 C.ar  1 <1>   0.0862 
  2 C       -0.0035     1.5058     0.2590 C.ar  1 <1>   0.0825 
  3 O       -0.0058     2.8591     0.0694 O.3   1 <1>  -0.5325 
  4 H       -0.9084     3.2063     0.1450 H     1 <1>   0.4500 
  5 C       -1.1947     0.8839     0.6519 C.ar  1 <1>  -0.1500 
  6 H       -2.1033     1.4669     0.7847 H     1 <1>   0.1500 
  7 C       -1.2304    -0.4946     0.8852 C.ar  1 <1>  -0.1435 
  8 C       -2.4971    -1.1593     1.3365 C.3   1 <1>   0.1435 
  9 H1      -2.5372    -2.1983     0.9928 H     1 <1>   0.0000 
 10 H2      -3.3745    -0.6485     0.9258 H     1 <1>   0.0000 
 11 H3      -2.5586    -1.1450     2.4290 H     1 <1>   0.0000 
 12 C       -0.0504    -1.2327     0.7567 C.ar  1 <1>  -0.1500 
 13 H       -0.0580    -2.3018     0.9654 H     1 <1>   0.1500 
 14 C        1.1412    -0.6045     0.3680 C.ar  1 <1>   0.0862 
 15 C        2.3645    -1.4113     0.2697 C.2   1 <1>   0.3976 
 16 O        2.3148    -2.6327     0.3623 O.2   1 <1>  -0.5700 
 17 C        3.6563    -0.7330     0.0978 C.ar  1 <1>   0.0862 
 18 C        3.7074     0.6345    -0.1787 C.ar  1 <1>   0.0862 
 19 C        2.4371     1.3685    -0.3780 C.2   1 <1>   0.3976 
 20 O        2.4242     2.4283    -0.9913 O.2   1 <1>  -0.5700 
 21 C        4.8309    -1.4852     0.2324 C.ar  1 <1>  -0.1500 
 22 H        4.7726    -2.5502     0.4430 H     1 <1>   0.1500 
 23 C        6.0612    -0.8541     0.1021 C.ar  1 <1>   0.0825 
 24 O        7.2307    -1.5438     0.2292 O.3   1 <1>  -0.5325 
 25 H        7.0243    -2.4766     0.4082 H     1 <1>   0.4500 
 26 C        6.1367     0.5093    -0.1533 C.ar  1 <1>  -0.1500 
 27 H        7.1147     0.9745    -0.2357 H     1 <1>   0.1500 
 28 C        4.9611     1.2528    -0.2913 C.ar  1 <1>   0.0825 
 29 O        5.0626     2.5983    -0.5080 O.3   1 <1>  -0.5325 
 30 H        5.9927     2.8492    -0.6274 H     1 <1>   0.4500 
@<TRIPOS>BOND
  1   1   2  ar  
  2   1  14  ar  
  3   1  19  1   
  4   2   3  1   
  5   2   5  ar  
  6   3   4  1   
  7   5   6  1   
  8   5   7  ar  
  9   7   8  1   
 10   7  12  ar  
 11   8   9  1   
 12   8  10  1   
 13   8  11  1   
 14  12  13  1   
 15  12  14  ar  
 16  14  15  1   
 17  15  16  2   
 18  15  17  1   
 19  17  18  ar  
 20  17  21  ar  
 21  18  19  1   
 22  18  28  ar  
 23  19  20  2   
 24  21  22  1   
 25  21  23  ar  
 26  23  24  1   
 27  23  26  ar  
 28  24  25  1   
 29  26  27  1   
 30  26  28  ar  
 31  28  29  1   
 32  29  30  1   
@<TRIPOS>SUBSTRUCTURE
  1 <1>   0 RESIDUE 1 * * 1
# MOE 2007.09 (io_trps.svl 2007.09)
