@<TRIPOS>MOLECULE
J08_40
33 35 1 0 0 
SMALL
USER_CHARGES


@<TRIPOS>ATOM
  1 C        1.3300     0.4747    -0.1638 C.ar  1 <1>   0.0825 
  2 C        0.3529     1.3481    -0.6499 C.ar  1 <1>  -0.1500 
  3 H        0.5396     2.4179    -0.6425 H     1 <1>   0.1500 
  4 C       -0.8406     0.8291    -1.1319 C.ar  1 <1>   0.0825 
  5 C       -1.0666    -0.5426    -1.1385 C.ar  1 <1>  -0.1500 
  6 H       -2.0110    -0.9171    -1.5229 H     1 <1>   0.1500 
  7 C       -0.0834    -1.4088    -0.6509 C.ar  1 <1>   0.0825 
  8 O       -0.3293    -2.7515    -0.6619 O.3   1 <1>  -0.5325 
  9 H       -1.2060    -2.9286    -1.0388 H     1 <1>   0.4500 
 10 C        1.1255    -0.9054    -0.1576 C.ar  1 <1>   0.0862 
 11 C        2.2002    -1.7605     0.3780 C.2   1 <1>   0.4694 
 12 O        2.1247    -2.9834     0.3959 O.2   1 <1>  -0.5700 
 13 C        3.4079    -1.0723     0.9148 C.2   1 <1>   0.0911 
 14 O        4.3866    -1.8682     1.4835 O.3   1 <1>  -0.5267 
 15 H        5.0493    -1.3105     1.9223 H     1 <1>   0.4500 
 16 C        3.4688     0.2664     0.8249 C.2   1 <1>   0.0483 
 17 O        2.4761     1.0660     0.2959 O.3   1 <1>  -0.1592 
 18 C        4.6156     1.0533     1.2991 C.ar  1 <1>   0.0284 
 19 C        5.8818     0.9121     0.7041 C.ar  1 <1>  -0.1500 
 20 H        6.0172     0.2088    -0.1145 H     1 <1>   0.1500 
 21 C        6.9553     1.6831     1.1541 C.ar  1 <1>   0.0825 
 22 O        8.1897     1.5501     0.5849 O.3   1 <1>  -0.5325 
 23 H        8.1446     0.8991    -0.1335 H     1 <1>   0.4500 
 24 C        6.7665     2.5967     2.1854 C.ar  1 <1>   0.0825 
 25 O        7.7947     3.3723     2.6499 O.3   1 <1>  -0.5325 
 26 H        7.3869     3.9124     3.3559 H     1 <1>   0.4500 
 27 O       -1.8275     1.6384    -1.6108 O.3   1 <1>  -0.5325 
 28 H       -1.5460     2.5660    -1.5389 H     1 <1>   0.4500 
 29 C        5.5087     2.7459     2.7660 C.ar  1 <1>   0.0825 
 30 O        5.3838     3.6715     3.7665 O.3   1 <1>  -0.5325 
 31 H        4.4520     3.6902     4.0488 H     1 <1>   0.4500 
 32 C        4.4303     1.9827     2.3338 C.ar  1 <1>  -0.1500 
 33 H        3.4494     2.1022     2.7862 H     1 <1>   0.1500 
@<TRIPOS>BOND
  1   1   2  ar  
  2   1  10  ar  
  3   1  17  1   
  4   2   3  1   
  5   2   4  ar  
  6   4   5  ar  
  7   4  27  1   
  8   5   6  1   
  9   5   7  ar  
 10   7   8  1   
 11   7  10  ar  
 12   8   9  1   
 13  10  11  1   
 14  11  12  2   
 15  11  13  1   
 16  13  14  1   
 17  13  16  2   
 18  14  15  1   
 19  16  17  1   
 20  16  18  1   
 21  18  19  ar  
 22  18  32  ar  
 23  19  20  1   
 24  19  21  ar  
 25  21  22  1   
 26  21  24  ar  
 27  22  23  1   
 28  24  25  1   
 29  24  29  ar  
 30  25  26  1   
 31  27  28  1   
 32  29  30  1   
 33  29  32  ar  
 34  30  31  1   
 35  32  33  1   
@<TRIPOS>SUBSTRUCTURE
  1 <1>   0 RESIDUE 1 * * 1
# MOE 2007.09 (io_trps.svl 2007.09)
