@<TRIPOS>MOLECULE
J08_18
53 56 1 0 0 
SMALL
USER_CHARGES


@<TRIPOS>ATOM
  1 C        0.8122     0.3031    -1.4281 C.ar  1 <1>   0.0825 
  2 O        1.6990     0.1401    -2.4591 O.3   1 <1>  -0.1592 
  3 C       -0.3787     0.9631    -1.7391 C.ar  1 <1>  -0.1500 
  4 H       -0.5449     1.3216    -2.7505 H     1 <1>   0.1500 
  5 C       -1.3327     1.1422    -0.7454 C.ar  1 <1>   0.0825 
  6 O       -2.5083     1.7855    -0.9959 O.3   1 <1>  -0.5325 
  7 H       -2.5149     2.1028    -1.9152 H     1 <1>   0.4500 
  8 C       -1.1202     0.6595     0.5425 C.ar  1 <1>  -0.1500 
  9 H       -1.8940     0.8036     1.2914 H     1 <1>   0.1500 
 10 C        0.0763     0.0034     0.8443 C.ar  1 <1>   0.0825 
 11 O        0.2616    -0.5015     2.0992 O.3   1 <1>  -0.5325 
 12 H       -0.5223    -0.3324     2.6447 H     1 <1>   0.4500 
 13 C        1.0597    -0.1581    -0.1358 C.ar  1 <1>   0.0862 
 14 C        2.3649    -0.7815     0.1302 C.2   1 <1>   0.4694 
 15 C        3.1937    -1.1347    -1.0548 C.2   1 <1>   0.0911 
 16 O        4.3603    -1.8699    -0.9010 O.3   1 <1>  -0.3567 
 17 C        4.1579    -3.1152    -0.2104 C.3   1 <1>   0.5600 
 18 H        3.9496    -2.9240     0.8462 H     1 <1>   0.0000 
 19 C        2.8103    -0.6540    -2.2484 C.2   1 <1>   0.0483 
 20 C        3.5652    -0.9111    -3.4843 C.ar  1 <1>   0.0284 
 21 O        2.7783    -0.9828     1.2662 O.2   1 <1>  -0.5700 
 22 C        3.7732    -2.2179    -3.9509 C.ar  1 <1>  -0.1500 
 23 H        3.3845    -3.0702    -3.3959 H     1 <1>   0.1500 
 24 C        4.4706    -2.4466    -5.1402 C.ar  1 <1>  -0.1500 
 25 H        4.6183    -3.4684    -5.4764 H     1 <1>   0.1500 
 26 C        4.9485    -1.3645    -5.8769 C.ar  1 <1>   0.0825 
 27 O        5.6225    -1.5714    -7.0493 O.3   1 <1>  -0.5325 
 28 H        5.7097    -2.5264    -7.1962 H     1 <1>   0.4500 
 29 C        4.7315    -0.0611    -5.4285 C.ar  1 <1>   0.0825 
 30 O        5.1928     0.9920    -6.1675 O.3   1 <1>  -0.5325 
 31 H        4.8713     1.8224    -5.7802 H     1 <1>   0.4500 
 32 C        4.0455     0.1698    -4.2369 C.ar  1 <1>  -0.1500 
 33 H        3.8805     1.1833    -3.8822 H     1 <1>   0.1500 
 34 O        3.0894    -3.8703    -0.7989 O.3   1 <1>  -0.5600 
 35 C        2.8393    -5.1396    -0.1715 C.3   1 <1>   0.2800 
 36 H1       2.0764    -5.6402    -0.7813 H     1 <1>   0.0000 
 37 C        2.2292    -4.9477     1.2294 C.3   1 <1>   0.2800 
 38 H1       1.5451    -4.0915     1.2215 H     1 <1>   0.0000 
 39 H2       2.9979    -4.7462     1.9814 H     1 <1>   0.0000 
 40 O        1.4901    -6.0909     1.6361 O.3   1 <1>  -0.6800 
 41 H        1.1146    -5.8924     2.5107 H     1 <1>   0.4000 
 42 C        4.1092    -6.0071    -0.2382 C.3   1 <1>   0.2800 
 43 H1       4.3080    -6.2510    -1.2900 H     1 <1>   0.0000 
 44 O        3.9648    -7.2513     0.4394 O.3   1 <1>  -0.6800 
 45 H        4.8656    -7.6250     0.5037 H     1 <1>   0.4000 
 46 C        5.3269    -5.2694     0.3300 C.3   1 <1>   0.2800 
 47 O        6.4936    -6.0571     0.0515 O.3   1 <1>  -0.6800 
 48 H        6.7660    -5.7788    -0.8498 H     1 <1>   0.4000 
 49 H2       5.2503    -5.1933     1.4201 H     1 <1>   0.0000 
 50 C        5.4818    -3.8901    -0.3003 C.3   1 <1>   0.2800 
 51 O        5.8826    -4.0870    -1.6701 O.3   1 <1>  -0.6800 
 52 H        5.7998    -3.2158    -2.1059 H     1 <1>   0.4000 
 53 H2       6.2979    -3.3329     0.1727 H     1 <1>   0.0000 
@<TRIPOS>BOND
  1   1   2  1   
  2   1   3  ar  
  3   1  13  ar  
  4   2  19  1   
  5   3   4  1   
  6   3   5  ar  
  7   5   6  1   
  8   5   8  ar  
  9   6   7  1   
 10   8   9  1   
 11   8  10  ar  
 12  10  11  1   
 13  10  13  ar  
 14  11  12  1   
 15  13  14  1   
 16  14  15  1   
 17  14  21  2   
 18  15  16  1   
 19  15  19  2   
 20  16  17  1   
 21  17  18  1   
 22  17  34  1   
 23  17  50  1   
 24  19  20  1   
 25  20  22  ar  
 26  20  32  ar  
 27  22  23  1   
 28  22  24  ar  
 29  24  25  1   
 30  24  26  ar  
 31  26  27  1   
 32  26  29  ar  
 33  27  28  1   
 34  29  30  1   
 35  29  32  ar  
 36  30  31  1   
 37  32  33  1   
 38  34  35  1   
 39  35  36  1   
 40  35  37  1   
 41  35  42  1   
 42  37  38  1   
 43  37  39  1   
 44  37  40  1   
 45  40  41  1   
 46  42  43  1   
 47  42  44  1   
 48  42  46  1   
 49  44  45  1   
 50  46  47  1   
 51  46  49  1   
 52  46  50  1   
 53  47  48  1   
 54  50  51  1   
 55  50  53  1   
 56  51  52  1   
@<TRIPOS>SUBSTRUCTURE
  1 <1>   0 RESIDUE 1 * * 1
# MOE 2007.09 (io_trps.svl 2007.09)
