@<TRIPOS>MOLECULE
J08_53
56 60 1 0 0 
SMALL
USER_CHARGES


@<TRIPOS>ATOM
  1 C        1.1900     0.8191    -0.3784 C.ar  1 <1>  -0.1500 
  2 H        2.1059     1.4052    -0.3505 H     1 <1>   0.1500 
  3 C       -0.0009     1.5386    -0.5012 C.ar  1 <1>   0.0825 
  4 O        0.1617     2.8964    -0.6067 O.3   1 <1>  -0.3625 
  5 C       -0.7083     3.6577     0.2270 C.3   1 <1>   0.2800 
  6 H1      -0.1848     4.5807     0.4955 H     1 <1>   0.0000 
  7 H2      -0.9648     3.1398     1.1584 H     1 <1>   0.0000 
  8 H3      -1.6099     3.9406    -0.3239 H     1 <1>   0.0000 
  9 C       -1.2125     0.8602    -0.5679 C.ar  1 <1>   0.0825 
 10 O       -2.3418     1.6075    -0.7697 O.3   1 <1>  -0.3625 
 11 C       -3.5845     0.9288    -0.8931 C.3   1 <1>   0.2800 
 12 H1      -4.3592     1.6812    -1.0694 H     1 <1>   0.0000 
 13 H2      -3.8390     0.4014     0.0321 H     1 <1>   0.0000 
 14 H3      -3.5809     0.2488    -1.7513 H     1 <1>   0.0000 
 15 C       -1.1919    -0.5367    -0.4455 C.ar  1 <1>  -0.1500 
 16 H       -2.1403    -1.0581    -0.4836 H     1 <1>   0.1500 
 17 C        0.0036    -1.3025    -0.2814 C.ar  1 <1>   0.0000 
 18 C        1.2290    -0.5905    -0.2655 C.ar  1 <1>   0.0000 
 19 C        0.0121    -2.7384    -0.1428 C.ar  1 <1>   0.0000 
 20 C        1.2418    -3.4323     0.0248 C.ar  1 <1>   0.0000 
 21 C        2.4594    -2.7007     0.0702 C.ar  1 <1>  -0.1435 
 22 C        2.4544    -1.2951    -0.1267 C.ar  1 <1>  -0.1435 
 23 C       -1.1726    -3.5242    -0.1529 C.ar  1 <1>  -0.1500 
 24 H       -2.1514    -3.0668    -0.2611 H     1 <1>   0.1500 
 25 C       -1.1661    -4.9158    -0.0116 C.ar  1 <1>   0.0825 
 26 O       -2.3753    -5.5581    -0.0049 O.3   1 <1>  -0.3625 
 27 C       -2.8345    -5.7176     1.3393 C.3   1 <1>   0.2800 
 28 H1      -3.7924    -6.2450     1.3043 H     1 <1>   0.0000 
 29 H2      -2.9995    -4.7460     1.8181 H     1 <1>   0.0000 
 30 H3      -2.1374    -6.3209     1.9313 H     1 <1>   0.0000 
 31 C        0.0358    -5.5936     0.0832 C.ar  1 <1>   0.0825 
 32 O        0.1933    -6.9478     0.1938 O.3   1 <1>  -0.3625 
 33 C       -0.6308    -7.7187    -0.6778 C.3   1 <1>   0.2800 
 34 H1      -0.1143    -8.6643    -0.8698 H     1 <1>   0.0000 
 35 H2      -0.7942    -7.2288    -1.6444 H     1 <1>   0.0000 
 36 H3      -1.5813    -7.9573    -0.1927 H     1 <1>   0.0000 
 37 C        1.2146    -4.8488     0.1300 C.ar  1 <1>  -0.1500 
 38 H        2.1362    -5.4179     0.2309 H     1 <1>   0.1500 
 39 C        3.7870    -3.4364     0.2856 C.3   1 <1>   0.4135 
 40 H1       4.0107    -3.9975    -0.6314 H     1 <1>   0.0000 
 41 H2       3.6731    -4.1443     1.1143 H     1 <1>   0.0000 
 42 N        4.8919    -2.5515     0.6421 N.3   1 <1>  -0.8100 
 43 C        4.9866    -1.4547    -0.3135 C.3   1 <1>   0.2700 
 44 H        5.0293    -1.8344    -1.3456 H     1 <1>   0.0000 
 45 C        3.7827    -0.5382    -0.1383 C.3   1 <1>   0.1435 
 46 H1       3.7997     0.1787    -0.9676 H     1 <1>   0.0000 
 47 H2       3.8579     0.0205     0.8037 H     1 <1>   0.0000 
 48 C        6.2020    -3.1938     0.6268 C.3   1 <1>   0.2700 
 49 H1       6.3335    -3.8384    -0.2516 H     1 <1>   0.0000 
 50 H2       6.3759    -3.7933     1.5257 H     1 <1>   0.0000 
 51 C        7.1665    -2.0131     0.5405 C.3   1 <1>   0.0000 
 52 H1       7.9899    -2.2294    -0.1484 H     1 <1>   0.0000 
 53 H2       7.5989    -1.7827     1.5208 H     1 <1>   0.0000 
 54 C        6.3268    -0.8325     0.0498 C.3   1 <1>   0.0000 
 55 H1       6.7910    -0.3352    -0.8080 H     1 <1>   0.0000 
 56 H2       6.2302    -0.0919     0.8531 H     1 <1>   0.0000 
@<TRIPOS>BOND
  1   1   2  1   
  2   1   3  ar  
  3   1  18  ar  
  4   3   4  1   
  5   3   9  ar  
  6   4   5  1   
  7   5   6  1   
  8   5   7  1   
  9   5   8  1   
 10   9  10  1   
 11   9  15  ar  
 12  10  11  1   
 13  11  12  1   
 14  11  13  1   
 15  11  14  1   
 16  15  16  1   
 17  15  17  ar  
 18  17  18  ar  
 19  17  19  ar  
 20  18  22  ar  
 21  19  20  ar  
 22  19  23  ar  
 23  20  21  ar  
 24  20  37  ar  
 25  21  22  ar  
 26  21  39  1   
 27  22  45  1   
 28  23  24  1   
 29  23  25  ar  
 30  25  26  1   
 31  25  31  ar  
 32  26  27  1   
 33  27  28  1   
 34  27  29  1   
 35  27  30  1   
 36  31  32  1   
 37  31  37  ar  
 38  32  33  1   
 39  33  34  1   
 40  33  35  1   
 41  33  36  1   
 42  37  38  1   
 43  39  40  1   
 44  39  41  1   
 45  39  42  1   
 46  42  43  1   
 47  42  48  1   
 48  43  44  1   
 49  43  45  1   
 50  43  54  1   
 51  45  46  1   
 52  45  47  1   
 53  48  49  1   
 54  48  50  1   
 55  48  51  1   
 56  51  52  1   
 57  51  53  1   
 58  51  54  1   
 59  54  55  1   
 60  54  56  1   
@<TRIPOS>SUBSTRUCTURE
  1 <1>   0 RESIDUE 1 * * 1
# MOE 2007.09 (io_trps.svl 2007.09)
