@<TRIPOS>MOLECULE
J08_21
31 33 1 0 0 
SMALL
USER_CHARGES


@<TRIPOS>ATOM
  1 C        0.9340    -0.0299    -0.9864 C.ar  1 <1>   0.0825 
  2 O        1.6626     0.0675    -2.1474 O.3   1 <1>  -0.1592 
  3 C       -0.1820     0.8041    -0.8892 C.ar  1 <1>  -0.1500 
  4 H       -0.4374     1.4797    -1.7008 H     1 <1>   0.1500 
  5 C       -0.9714     0.7650     0.2542 C.ar  1 <1>   0.0825 
  6 O       -2.0548     1.5928     0.3069 O.3   1 <1>  -0.5325 
  7 H       -2.5262     1.4562     1.1458 H     1 <1>   0.4500 
  8 C       -0.6608    -0.0924     1.3054 C.ar  1 <1>  -0.1500 
  9 H       -1.2828    -0.1135     2.1946 H     1 <1>   0.1500 
 10 C        0.4595    -0.9247     1.2029 C.ar  1 <1>   0.0825 
 11 O        0.7555    -1.7603     2.2420 O.3   1 <1>  -0.5325 
 12 H        0.1065    -1.6581     2.9558 H     1 <1>   0.4500 
 13 C        1.2627    -0.9011     0.0562 C.ar  1 <1>   0.0862 
 14 C        2.4476    -1.7558    -0.1133 C.2   1 <1>   0.4694 
 15 C        3.1866    -1.6208    -1.3771 C.2   1 <1>  -0.1356 
 16 H        4.0648    -2.2442    -1.4918 H     1 <1>   0.1500 
 17 C        2.7654    -0.7527    -2.3009 C.2   1 <1>   0.0483 
 18 C        3.4841    -0.5784    -3.5762 C.ar  1 <1>   0.0284 
 19 O        2.8441    -2.5589     0.7203 O.2   1 <1>  -0.5700 
 20 C        3.8930    -1.6847    -4.3394 C.ar  1 <1>  -0.1500 
 21 H        3.6768    -2.6984    -4.0076 H     1 <1>   0.1500 
 22 C        4.5768    -1.5102    -5.5473 C.ar  1 <1>  -0.1500 
 23 H        4.8793    -2.3867    -6.1124 H     1 <1>   0.1500 
 24 C        4.8525    -0.2237    -6.0040 C.ar  1 <1>   0.0825 
 25 O        5.5230    -0.0381    -7.1816 O.3   1 <1>  -0.5325 
 26 H        5.7553    -0.9044    -7.5512 H     1 <1>   0.4500 
 27 C        4.4434     0.8840    -5.2620 C.ar  1 <1>   0.0825 
 28 O        4.7237     2.1415    -5.7239 O.3   1 <1>  -0.5325 
 29 H        4.3604     2.7925    -5.1026 H     1 <1>   0.4500 
 30 C        3.7583     0.7123    -4.0563 C.ar  1 <1>  -0.1500 
 31 H        3.4441     1.5774    -3.4779 H     1 <1>   0.1500 
@<TRIPOS>BOND
  1   1   2  1   
  2   1   3  ar  
  3   1  13  ar  
  4   2  17  1   
  5   3   4  1   
  6   3   5  ar  
  7   5   6  1   
  8   5   8  ar  
  9   6   7  1   
 10   8   9  1   
 11   8  10  ar  
 12  10  11  1   
 13  10  13  ar  
 14  11  12  1   
 15  13  14  1   
 16  14  15  1   
 17  14  19  2   
 18  15  16  1   
 19  15  17  2   
 20  17  18  1   
 21  18  20  ar  
 22  18  30  ar  
 23  20  21  1   
 24  20  22  ar  
 25  22  23  1   
 26  22  24  ar  
 27  24  25  1   
 28  24  27  ar  
 29  25  26  1   
 30  27  28  1   
 31  27  30  ar  
 32  28  29  1   
 33  30  31  1   
@<TRIPOS>SUBSTRUCTURE
  1 <1>   0 RESIDUE 1 * * 1
# MOE 2007.09 (io_trps.svl 2007.09)
