@<TRIPOS>MOLECULE
J08_64
44 45 1 0 0 
SMALL
USER_CHARGES


@<TRIPOS>ATOM
  1 C        1.1816     0.8796     0.4075 C.ar  1 <1>  -0.1435 
  2 C        2.5160     1.5766     0.3040 C.3   1 <1>   0.1435 
  3 C        3.6454     0.5843     0.0334 C.3   1 <1>   0.0610 
  4 C        4.9897     1.2774    -0.0797 C.2   1 <1>   0.4946 
  5 C        6.1620     0.3837    -0.2632 C.2   1 <1>  -0.1356 
  6 H        5.9735    -0.6830    -0.3041 H     1 <1>   0.1500 
  7 C        7.3966     0.8881    -0.3731 C.2   1 <1>  -0.2882 
  8 H        7.5476     1.9665    -0.3344 H     1 <1>   0.1500 
  9 C        8.6268     0.0480    -0.5701 C.3   1 <1>   0.1382 
 10 C        9.6086     0.2118     0.5940 C.3   1 <1>   0.1435 
 11 C       10.8628    -0.6016     0.3849 C.ar  1 <1>  -0.1435 
 12 H2       9.1314    -0.0853     1.5372 H     1 <1>   0.0000 
 13 H3       9.8838     1.2676     0.7189 H     1 <1>   0.0000 
 14 H2       9.1021     0.3517    -1.5113 H     1 <1>   0.0000 
 15 H3       8.3598    -1.0104    -0.6858 H     1 <1>   0.0000 
 16 O        5.1111     2.4979    -0.0300 O.2   1 <1>  -0.5700 
 17 H2       3.4590     0.0460    -0.9038 H     1 <1>   0.0000 
 18 H3       3.7029    -0.1492     0.8466 H     1 <1>   0.0000 
 19 H2       2.7102     2.1335     1.2300 H     1 <1>   0.0000 
 20 H3       2.4725     2.3331    -0.4904 H     1 <1>   0.0000 
 21 C        0.3830     0.7052    -0.7343 C.ar  1 <1>  -0.1500 
 22 H        0.7201     1.0885    -1.6929 H     1 <1>   0.1500 
 23 C       -0.8344     0.0426    -0.6211 C.ar  1 <1>   0.0825 
 24 O       -1.6608    -0.1576    -1.6931 O.3   1 <1>  -0.5325 
 25 H       -1.2386     0.2326    -2.4782 H     1 <1>   0.4500 
 26 C       -1.2595    -0.4496     0.6095 C.ar  1 <1>   0.0825 
 27 O       -2.4596    -1.0975     0.6929 O.3   1 <1>  -0.5325 
 28 H       -2.8012    -1.0726    -0.2242 H     1 <1>   0.4500 
 29 C       -0.4819    -0.2916     1.7458 C.ar  1 <1>  -0.1500 
 30 H       -0.8214    -0.6804     2.7004 H     1 <1>   0.1500 
 31 C        0.7418     0.3734     1.6438 C.ar  1 <1>  -0.1500 
 32 H        1.3524     0.4968     2.5357 H     1 <1>   0.1500 
 33 C       10.9844    -1.8853     0.9463 C.ar  1 <1>  -0.1500 
 34 H       10.1767    -2.2967     1.5482 H     1 <1>   0.1500 
 35 C       12.1385    -2.6504     0.7439 C.ar  1 <1>  -0.1500 
 36 H       12.2096    -3.6369     1.1907 H     1 <1>   0.1500 
 37 C       13.1676    -2.1273    -0.0280 C.ar  1 <1>   0.0825 
 38 O       14.3240    -2.8161    -0.2707 O.3   1 <1>  -0.5325 
 39 H       14.2691    -3.6746     0.1839 H     1 <1>   0.4500 
 40 C       13.0508    -0.8603    -0.5918 C.ar  1 <1>   0.0825 
 41 O       14.0735    -0.3668    -1.3516 O.3   1 <1>  -0.5325 
 42 H       14.7445    -1.0794    -1.3374 H     1 <1>   0.4500 
 43 C       11.9112    -0.0928    -0.3949 C.ar  1 <1>  -0.1500 
 44 H       11.8444     0.8926    -0.8472 H     1 <1>   0.1500 
@<TRIPOS>BOND
  1   1   2  1   
  2   1  21  ar  
  3   1  31  ar  
  4   2   3  1   
  5   2  19  1   
  6   2  20  1   
  7   3   4  1   
  8   3  17  1   
  9   3  18  1   
 10   4   5  1   
 11   4  16  2   
 12   5   6  1   
 13   5   7  2   
 14   7   8  1   
 15   7   9  1   
 16   9  10  1   
 17   9  14  1   
 18   9  15  1   
 19  10  11  1   
 20  10  12  1   
 21  10  13  1   
 22  11  33  ar  
 23  11  43  ar  
 24  21  22  1   
 25  21  23  ar  
 26  23  24  1   
 27  23  26  ar  
 28  24  25  1   
 29  26  27  1   
 30  26  29  ar  
 31  27  28  1   
 32  29  30  1   
 33  29  31  ar  
 34  31  32  1   
 35  33  34  1   
 36  33  35  ar  
 37  35  36  1   
 38  35  37  ar  
 39  37  38  1   
 40  37  40  ar  
 41  38  39  1   
 42  40  41  1   
 43  40  43  ar  
 44  41  42  1   
 45  43  44  1   
@<TRIPOS>SUBSTRUCTURE
  1 <1>   0 RESIDUE 1 * * 1
# MOE 2007.09 (io_trps.svl 2007.09)
