@<TRIPOS>MOLECULE
J08_56
63 67 1 0 0 
SMALL
USER_CHARGES


@<TRIPOS>ATOM
  1 C        2.3629    -2.6498     0.4082 C.ar  1 <1>  -0.1435 
  2 C        2.3822    -1.2875     0.2074 C.ar  1 <1>  -0.1435 
  3 N        4.7875    -2.5676     1.0453 N.4   1 <1>  -0.0180 
  4 O        4.7305    -2.1268     2.2339 O.2   1 <1>  -0.7500 
  5 C        3.6283    -3.4493     0.7882 C.3   1 <1>   0.2395 
  6 H1       3.4215    -3.9944     1.6999 H     1 <1>   0.0800 
  7 H2       3.8455    -4.0857    -0.0579 H     1 <1>   0.0800 
  8 C        3.6901    -0.5002     0.3155 C.3   1 <1>  -0.0165 
  9 H1       3.7692    -0.0421     1.3030 H     1 <1>   0.0800 
 10 H2       3.7504     0.2648    -0.4569 H     1 <1>   0.0800 
 11 C        4.8335    -1.4940     0.0611 C.3   1 <1>   0.1760 
 12 H        4.7617    -1.8955    -0.9420 H     1 <1>   0.0800 
 13 C        7.0724    -2.1004     0.6365 C.3   1 <1>  -0.0800 
 14 C1       8.0809    -2.5325    -0.4461 C.3   1 <1>  -0.1600 
 15 C11      9.2257    -1.5232    -0.6090 C.3   1 <1>  -0.2400 
 16 H111     8.8460    -0.5568    -0.9408 H     1 <1>   0.0800 
 17 H112     9.9346    -1.8925    -1.3512 H     1 <1>   0.0800 
 18 H113     9.7476    -1.3949     0.3405 H     1 <1>   0.0800 
 19 H12      7.5702    -2.6545    -1.4034 H     1 <1>   0.0800 
 20 H13      8.5156    -3.4936    -0.1631 H     1 <1>   0.0800 
 21 H2       7.6101    -1.8720     1.5597 H     1 <1>   0.0800 
 22 C        6.0669    -3.2612     0.8853 C.3   1 <1>   0.0960 
 23 H1       6.3312    -3.7849     1.7950 H     1 <1>   0.0800 
 24 H2       6.0347    -3.8877     0.0045 H     1 <1>   0.0800 
 25 C        6.2202    -0.8694     0.2560 C.3   1 <1>  -0.1600 
 26 H1       6.5613    -0.3706    -0.6502 H     1 <1>   0.0800 
 27 H2       6.2024    -0.1719     1.0961 H     1 <1>   0.0800 
 28 C        1.1710    -0.5707    -0.1078 C.ar  1 <1>   0.0000 
 29 C       -0.0189    -1.2936    -0.3724 C.ar  1 <1>   0.0000 
 30 C       -0.0541    -2.7222    -0.1237 C.ar  1 <1>   0.0000 
 31 C        1.1385    -3.3964     0.2463 C.ar  1 <1>   0.0000 
 32 C       -1.1415    -0.5855    -0.8705 C.ar  1 <1>  -0.1500 
 33 H       -2.0151    -1.0936    -1.1715 H     1 <1>   0.1500 
 34 C       -1.1325     0.7880    -0.9857 C.ar  1 <1>   0.0825 
 35 O       -2.2999     1.3506    -1.4874 O.3   1 <1>  -0.3625 
 36 C       -2.5735     2.7411    -1.7676 C.3   1 <1>   0.0400 
 37 H1      -3.5718     2.8058    -2.1992 H     1 <1>   0.0800 
 38 H2      -1.8260     3.1013    -2.4747 H     1 <1>   0.0800 
 39 H3      -2.5252     3.2945    -0.8296 H     1 <1>   0.0800 
 40 C        0.0130     1.5197    -0.5996 C.ar  1 <1>   0.0825 
 41 O        0.0113     2.9082    -0.6531 O.3   1 <1>  -0.3625 
 42 C3       1.0784     3.7849    -0.2217 C.3   1 <1>   0.0400 
 43 H31      0.7495     4.8122    -0.3783 H     1 <1>   0.0800 
 44 H32      1.9632     3.5732    -0.8226 H     1 <1>   0.0800 
 45 H33      1.2653     3.6028     0.8372 H     1 <1>   0.0800 
 46 C        1.1399     0.8461    -0.1661 C.ar  1 <1>  -0.1500 
 47 H        1.9867     1.3984     0.1319 H     1 <1>   0.1500 
 48 C        1.0963    -4.8008     0.4445 C.ar  1 <1>  -0.1500 
 49 H        1.9658    -5.3410     0.7028 H     1 <1>   0.1500 
 50 C       -0.0767    -5.5100     0.3130 C.ar  1 <1>   0.0825 
 51 O        0.0308    -6.8789     0.5271 O.3   1 <1>  -0.3625 
 52 C       -1.0140    -7.8757     0.4845 C.3   1 <1>   0.0400 
 53 H1      -0.5644    -8.8425     0.7089 H     1 <1>   0.0800 
 54 H2      -1.4454    -7.8764    -0.5167 H     1 <1>   0.0800 
 55 H3      -1.7625    -7.6178     1.2341 H     1 <1>   0.0800 
 56 C       -1.2742    -4.8359    -0.0143 C.ar  1 <1>   0.0825 
 57 O       -2.4669    -5.5391    -0.1265 O.3   1 <1>  -0.3625 
 58 C       -3.7674    -4.9820    -0.4317 C.3   1 <1>   0.0400 
 59 H1      -4.4879    -5.7999    -0.4361 H     1 <1>   0.0800 
 60 H2      -3.7187    -4.5128    -1.4149 H     1 <1>   0.0800 
 61 H3      -4.0207    -4.2560     0.3415 H     1 <1>   0.0800 
 62 C       -1.2565    -3.4680    -0.2201 C.ar  1 <1>  -0.1500 
 63 H       -2.1607    -2.9772    -0.4419 H     1 <1>   0.1500 
@<TRIPOS>BOND
  1   1   2  ar  
  2   1   5  1   
  3   1  31  ar  
  4   2   8  1   
  5   2  28  ar  
  6   3   4  2   
  7   3   5  1   
  8   3  11  1   
  9   3  22  1   
 10   5   6  1   
 11   5   7  1   
 12   8   9  1   
 13   8  10  1   
 14   8  11  1   
 15  11  12  1   
 16  11  25  1   
 17  13  14  1   
 18  13  21  1   
 19  13  22  1   
 20  13  25  1   
 21  14  15  1   
 22  14  19  1   
 23  14  20  1   
 24  15  16  1   
 25  15  17  1   
 26  15  18  1   
 27  22  23  1   
 28  22  24  1   
 29  25  26  1   
 30  25  27  1   
 31  28  29  ar  
 32  28  46  ar  
 33  29  30  ar  
 34  29  32  ar  
 35  30  31  ar  
 36  30  62  ar  
 37  31  48  ar  
 38  32  33  1   
 39  32  34  ar  
 40  34  35  1   
 41  34  40  ar  
 42  35  36  1   
 43  36  37  1   
 44  36  38  1   
 45  36  39  1   
 46  40  41  1   
 47  40  46  ar  
 48  41  42  1   
 49  42  43  1   
 50  42  44  1   
 51  42  45  1   
 52  46  47  1   
 53  48  49  1   
 54  48  50  ar  
 55  50  51  1   
 56  50  56  ar  
 57  51  52  1   
 58  52  53  1   
 59  52  54  1   
 60  52  55  1   
 61  56  57  1   
 62  56  62  ar  
 63  57  58  1   
 64  58  59  1   
 65  58  60  1   
 66  58  61  1   
 67  62  63  1   
@<TRIPOS>SUBSTRUCTURE
  1 ****   2 GROUP 4 **** **** 0

# MOE 2015.10 (io_trps.svl 2015.10)
