@<TRIPOS>MOLECULE
J08_19
35 36 1 0 0 
SMALL
USER_CHARGES


@<TRIPOS>ATOM
  1 C        1.4746     0.6839     0.2645 C.ar  1 <1>   0.0825 
  2 O        2.6763     1.3193     0.0937 O.3   1 <1>  -0.3625 
  3 C        2.6859     2.7397     0.1639 C.3   1 <1>   0.2800 
  4 H1       3.7125     3.0754    -0.0120 H     1 <1>   0.0000 
  5 H2       2.3880     3.0872     1.1585 H     1 <1>   0.0000 
  6 H3       2.0545     3.1780    -0.6159 H     1 <1>   0.0000 
  7 C        0.2650     1.3270     0.5391 C.ar  1 <1>  -0.1500 
  8 H        0.1945     2.4049     0.6404 H     1 <1>   0.1500 
  9 C       -0.9041     0.5809     0.6951 C.ar  1 <1>   0.0825 
 10 O       -2.0548     1.2680     0.9578 O.3   1 <1>  -0.5325 
 11 H       -2.7917     0.6405     1.0413 H     1 <1>   0.4500 
 12 C       -0.8998    -0.8068     0.5846 C.ar  1 <1>  -0.1500 
 13 H       -1.8183    -1.3717     0.7022 H     1 <1>   0.1500 
 14 C        0.3027    -1.4549     0.3119 C.ar  1 <1>   0.0825 
 15 O        0.3304    -2.8152     0.1781 O.3   1 <1>  -0.5325 
 16 H       -0.5277    -3.1887     0.4395 H     1 <1>   0.4500 
 17 C        1.4802    -0.7163     0.1492 C.ar  1 <1>   0.0862 
 18 C        2.7408    -1.4231    -0.1200 C.2   1 <1>   0.4694 
 19 C        3.3367    -1.3761    -1.4752 C.2   1 <1>  -0.1356 
 20 H        4.3368    -1.7942    -1.5200 H     1 <1>   0.1500 
 21 C        2.7397    -0.8639    -2.5559 C.2   1 <1>  -0.1784 
 22 C        3.3768    -0.7881    -3.8767 C.ar  1 <1>   0.0284 
 23 H2       1.7433    -0.4350    -2.5047 H     1 <1>   0.1500 
 24 O        3.3039    -2.0287     0.7851 O.2   1 <1>  -0.5700 
 25 C        4.1860    -1.8140    -4.3852 C.ar  1 <1>  -0.1500 
 26 H        4.3729    -2.7135    -3.8032 H     1 <1>   0.1500 
 27 C        4.7609    -1.7049    -5.6558 C.ar  1 <1>  -0.1500 
 28 H        5.3880    -2.5111    -6.0243 H     1 <1>   0.1500 
 29 C        4.5157    -0.5709    -6.4246 C.ar  1 <1>   0.0825 
 30 O        5.0608    -0.4211    -7.6667 O.3   1 <1>  -0.5325 
 31 H        5.6170    -1.1954    -7.8521 H     1 <1>   0.4500 
 32 C        3.7002     0.4474    -5.9464 C.ar  1 <1>  -0.1500 
 33 H        3.5105     1.3257    -6.5562 H     1 <1>   0.1500 
 34 C        3.1278     0.3370    -4.6772 C.ar  1 <1>  -0.1500 
 35 H        2.4950     1.1445    -4.3153 H     1 <1>   0.1500 
@<TRIPOS>BOND
  1   1   2  1   
  2   1   7  ar  
  3   1  17  ar  
  4   2   3  1   
  5   3   4  1   
  6   3   5  1   
  7   3   6  1   
  8   7   8  1   
  9   7   9  ar  
 10   9  10  1   
 11   9  12  ar  
 12  10  11  1   
 13  12  13  1   
 14  12  14  ar  
 15  14  15  1   
 16  14  17  ar  
 17  15  16  1   
 18  17  18  1   
 19  18  19  1   
 20  18  24  2   
 21  19  20  1   
 22  19  21  2   
 23  21  22  1   
 24  21  23  1   
 25  22  25  ar  
 26  22  34  ar  
 27  25  26  1   
 28  25  27  ar  
 29  27  28  1   
 30  27  29  ar  
 31  29  30  1   
 32  29  32  ar  
 33  30  31  1   
 34  32  33  1   
 35  32  34  ar  
 36  34  35  1   
@<TRIPOS>SUBSTRUCTURE
  1 <1>   0 RESIDUE 1 * * 1
# MOE 2007.09 (io_trps.svl 2007.09)
