@<TRIPOS>MOLECULE
J08_24
51 54 1 0 0 
SMALL
USER_CHARGES


@<TRIPOS>ATOM
  1 C        0.3017     0.3818    -1.4719 C.ar  1 <1>   0.0825 
  2 O        1.0038     0.3101    -2.6446 O.3   1 <1>  -0.3625 
  3 C       -1.0570     0.6800    -1.6014 C.ar  1 <1>  -0.1500 
  4 H       -1.4707     0.8557    -2.5898 H     1 <1>   0.1500 
  5 C       -1.8539     0.7517    -0.4634 C.ar  1 <1>   0.0825 
  6 O       -3.1842     1.0416    -0.5422 O.3   1 <1>  -0.5325 
  7 H       -3.4293     1.1865    -1.4718 H     1 <1>   0.4500 
  8 C       -1.3191     0.5257     0.7999 C.ar  1 <1>  -0.1500 
  9 H       -1.9655     0.5897     1.6692 H     1 <1>   0.1500 
 10 C        0.0344     0.2181     0.9165 C.ar  1 <1>   0.0825 
 11 O        0.5850    -0.0279     2.1438 O.3   1 <1>  -0.5325 
 12 H       -0.1090     0.0411     2.8207 H     1 <1>   0.4500 
 13 C        0.8598     0.1382    -0.2117 C.ar  1 <1>  -0.1435 
 14 C        2.3198    -0.1667    -0.0725 C.3   1 <1>   0.1435 
 15 H1       2.4972    -0.9026     0.7199 H     1 <1>   0.0000 
 16 H2       2.8512     0.7464     0.2257 H     1 <1>   0.0000 
 17 C        2.8815    -0.7041    -1.3825 C.3   1 <1>   0.2800 
 18 H        2.4888    -1.7086    -1.5676 H     1 <1>   0.0000 
 19 O        4.3290    -0.6911    -1.2970 O.3   1 <1>  -0.4300 
 20 C        5.1137    -1.7212    -0.9006 C.2   1 <1>   0.6590 
 21 O        6.3316    -1.5735    -0.8377 O.2   1 <1>  -0.5700 
 22 C        2.4328     0.2261    -2.5261 C.3   1 <1>   0.4235 
 23 H        2.8105     1.2452    -2.3628 H     1 <1>   0.0000 
 24 C        2.9792    -0.2782    -3.8569 C.ar  1 <1>  -0.1435 
 25 C        2.3754    -1.3574    -4.5289 C.ar  1 <1>  -0.1500 
 26 H        1.4783    -1.8145    -4.1199 H     1 <1>   0.1500 
 27 C        2.9400    -1.8390    -5.7058 C.ar  1 <1>   0.0825 
 28 O        2.4073    -2.8997    -6.3894 O.3   1 <1>  -0.5325 
 29 H        1.6686    -3.2562    -5.8647 H     1 <1>   0.4500 
 30 C        4.0915    -1.2598    -6.2320 C.ar  1 <1>   0.0825 
 31 O        4.6049    -1.7712    -7.3937 O.3   1 <1>  -0.5325 
 32 H        4.0021    -2.5099    -7.6133 H     1 <1>   0.4500 
 33 C        4.6969    -0.1931    -5.5797 C.ar  1 <1>   0.0825 
 34 O        5.8345     0.3568    -6.0975 O.3   1 <1>  -0.5325 
 35 H        6.0689     1.1530    -5.5944 H     1 <1>   0.4500 
 36 C        4.1473     0.2979    -4.3942 C.ar  1 <1>  -0.1500 
 37 H        4.6338     1.1130    -3.8644 H     1 <1>   0.1500 
 38 C        4.4480    -3.0444    -0.5647 C.ar  1 <1>   0.0610 
 39 C        4.2089    -3.8608    -1.8395 C.ar  1 <1>   0.0000 
 40 H        4.4801    -3.5391    -2.8342 H     1 <1>   0.0000 
 41 C        3.5358    -5.1893    -1.5119 C.ar  1 <1>   0.2800 
 42 O        3.3489    -5.9331    -2.7129 O.3   1 <1>  -0.6800 
 43 H        3.1047    -6.8337    -2.4192 H     1 <1>   0.4000 
 44 C        4.3810    -6.0069    -0.5346 C.ar  1 <1>   0.2800 
 45 O        3.6590    -7.1979    -0.1993 O.3   1 <1>  -0.6800 
 46 H        4.1055    -7.5604     0.5915 H     1 <1>   0.4000 
 47 C        4.6819    -5.2093     0.7376 C.ar  1 <1>   0.2800 
 48 O        5.5443    -5.9859     1.5708 O.3   1 <1>  -0.6800 
 49 H        6.4462    -5.9459     1.2049 H     1 <1>   0.4000 
 50 C        5.3132    -3.8533     0.4211 C.ar  1 <1>   0.0000 
 51 H        6.2478    -3.5061     0.8362 H     1 <1>   0.0000 
@<TRIPOS>BOND
  1   1   2  1   
  2   1   3  ar  
  3   1  13  ar  
  4   2  22  1   
  5   3   4  1   
  6   3   5  ar  
  7   5   6  1   
  8   5   8  ar  
  9   6   7  1   
 10   8   9  1   
 11   8  10  ar  
 12  10  11  1   
 13  10  13  ar  
 14  11  12  1   
 15  13  14  1   
 16  14  15  1   
 17  14  16  1   
 18  14  17  1   
 19  17  18  1   
 20  17  19  1   
 21  17  22  1   
 22  19  20  1   
 23  20  21  2   
 24  20  38  1   
 25  22  23  1   
 26  22  24  1   
 27  24  25  ar  
 28  24  36  ar  
 29  25  26  1   
 30  25  27  ar  
 31  27  28  1   
 32  27  30  ar  
 33  28  29  1   
 34  30  31  1   
 35  30  33  ar  
 36  31  32  1   
 37  33  34  1   
 38  33  36  ar  
 39  34  35  1   
 40  36  37  1   
 41  38  39  ar  
 42  38  50  ar  
 43  39  40  1   
 44  39  41  ar  
 45  41  42  1   
 46  41  44  ar  
 47  42  43  1   
 48  44  45  1   
 49  44  47  ar  
 50  45  46  1   
 51  47  48  1   
 52  47  50  ar  
 53  48  49  1   
 54  50  51  1   
@<TRIPOS>SUBSTRUCTURE
  1 ****  17 GROUP 4 **** **** 0

# MOE 2015.10 (io_trps.svl 2015.10)
