@<TRIPOS>MOLECULE
J08_12
47 48 1 0 0 
SMALL
USER_CHARGES


@<TRIPOS>ATOM
  1 C        1.4731     0.6411     0.1288 C.ar  1 <1>   0.0825 
  2 O        2.6099     1.3071    -0.2375 O.3   1 <1>  -0.5325 
  3 H        2.4819     2.2634    -0.1193 H     1 <1>   0.4500 
  4 C        0.3259     1.3600     0.4757 C.ar  1 <1>  -0.1500 
  5 H        0.3498     2.4430     0.4298 H     1 <1>   0.1500 
  6 C       -0.8324     0.6860     0.8867 C.ar  1 <1>   0.0825 
  7 O       -2.0021     1.3042     1.2458 O.3   1 <1>  -0.3625 
  8 C       -2.1124     2.7011     1.0073 C.3   1 <1>   0.2800 
  9 H1      -3.1335     3.0028     1.2602 H     1 <1>   0.0000 
 10 H2      -1.9473     2.9393    -0.0487 H     1 <1>   0.0000 
 11 H3      -1.4303     3.2637     1.6527 H     1 <1>   0.0000 
 12 C       -0.8296    -0.7210     0.9728 C.ar  1 <1>  -0.1435 
 13 C       -2.0567    -1.4947     1.4104 C.3   1 <1>   0.2817 
 14 C       -2.9399    -1.8688     0.2502 C.2   1 <1>  -0.2882 
 15 H       -2.4836    -2.5797    -0.4389 H     1 <1>   0.1500 
 16 C       -4.1930    -1.4495    -0.0143 C.2   1 <1>  -0.2764 
 17 C       -4.9257    -1.9508    -1.2319 C.3   1 <1>   0.1382 
 18 H1      -5.8463    -2.4642    -0.9354 H     1 <1>   0.0000 
 19 H2      -4.3272    -2.6555    -1.8189 H     1 <1>   0.0000 
 20 H3      -5.1891    -1.1137    -1.8869 H     1 <1>   0.0000 
 21 C       -4.9785    -0.4739     0.8170 C.3   1 <1>   0.1382 
 22 H1      -4.4450    -0.1172     1.6996 H     1 <1>   0.0000 
 23 H2      -5.9068    -0.9397     1.1646 H     1 <1>   0.0000 
 24 H3      -5.2385     0.4049     0.2173 H     1 <1>   0.0000 
 25 H2      -2.5863    -0.9446     2.1933 H     1 <1>   0.0000 
 26 H3      -1.7364    -2.4219     1.9047 H     1 <1>   0.0000 
 27 C        0.3292    -1.4303     0.6119 C.ar  1 <1>  -0.1500 
 28 H        0.3410    -2.5177     0.6719 H     1 <1>   0.1500 
 29 C        1.4693    -0.7517     0.1726 C.ar  1 <1>   0.0862 
 30 C        2.6513    -1.5582    -0.1712 C.2   1 <1>   0.4694 
 31 C        3.3105    -1.4261    -1.4886 C.2   1 <1>  -0.1356 
 32 H        4.3072    -1.8544    -1.5185 H     1 <1>   0.1500 
 33 C        2.7510    -0.8802    -2.5727 C.2   1 <1>  -0.1784 
 34 C        3.4397    -0.7779    -3.8648 C.ar  1 <1>   0.0284 
 35 H2       1.7509    -0.4580    -2.5484 H     1 <1>   0.1500 
 36 O        3.0679    -2.3790     0.6391 O.2   1 <1>  -0.5700 
 37 C        4.1886    -1.8373    -4.3972 C.ar  1 <1>  -0.1500 
 38 H        4.2868    -2.7739    -3.8531 H     1 <1>   0.1500 
 39 C        4.8112    -1.7138    -5.6430 C.ar  1 <1>  -0.1500 
 40 H        5.3877    -2.5477    -6.0314 H     1 <1>   0.1500 
 41 C        4.6751    -0.5304    -6.3624 C.ar  1 <1>   0.0825 
 42 O        5.2665    -0.3663    -7.5812 O.3   1 <1>  -0.5325 
 43 H        5.7607    -1.1746    -7.7958 H     1 <1>   0.4500 
 44 C        3.9235     0.5247    -5.8587 C.ar  1 <1>  -0.1500 
 45 H        3.8209     1.4417    -6.4317 H     1 <1>   0.1500 
 46 C        3.3018     0.3994    -4.6141 C.ar  1 <1>  -0.1500 
 47 H        2.7175     1.2330    -4.2309 H     1 <1>   0.1500 
@<TRIPOS>BOND
  1   1   2  1   
  2   1   4  ar  
  3   1  29  ar  
  4   2   3  1   
  5   4   5  1   
  6   4   6  ar  
  7   6   7  1   
  8   6  12  ar  
  9   7   8  1   
 10   8   9  1   
 11   8  10  1   
 12   8  11  1   
 13  12  13  1   
 14  12  27  ar  
 15  13  14  1   
 16  13  25  1   
 17  13  26  1   
 18  14  15  1   
 19  14  16  2   
 20  16  17  1   
 21  16  21  1   
 22  17  18  1   
 23  17  19  1   
 24  17  20  1   
 25  21  22  1   
 26  21  23  1   
 27  21  24  1   
 28  27  28  1   
 29  27  29  ar  
 30  29  30  1   
 31  30  31  1   
 32  30  36  2   
 33  31  32  1   
 34  31  33  2   
 35  33  34  1   
 36  33  35  1   
 37  34  37  ar  
 38  34  46  ar  
 39  37  38  1   
 40  37  39  ar  
 41  39  40  1   
 42  39  41  ar  
 43  41  42  1   
 44  41  44  ar  
 45  42  43  1   
 46  44  45  1   
 47  44  46  ar  
 48  46  47  1   
@<TRIPOS>SUBSTRUCTURE
  1 <1>   0 RESIDUE 1 * * 1
# MOE 2007.09 (io_trps.svl 2007.09)
