@<TRIPOS>MOLECULE
J08_20
58 63 1 0 0 
SMALL
USER_CHARGES


@<TRIPOS>ATOM
  1 C        2.2785     1.9716     0.2053 C.ar  1 <1>   0.0825 
  2 C        1.3590     2.8148    -0.4226 C.ar  1 <1>   0.0862 
  3 C        0.5564     2.3010    -1.4485 C.ar  1 <1>   0.0825 
  4 O       -0.3691     3.0895    -2.0723 O.3   1 <1>  -0.5325 
  5 H       -0.8014     2.6007    -2.7899 H     1 <1>   0.4500 
  6 C        0.6790     0.9642    -1.8461 C.ar  1 <1>  -0.1500 
  7 H        0.0552     0.5672    -2.6403 H     1 <1>   0.1500 
  8 C        1.6065     0.1446    -1.2095 C.ar  1 <1>   0.0825 
  9 O        1.7614    -1.1649    -1.5588 O.3   1 <1>  -0.5325 
 10 H        1.1435    -1.3831    -2.2760 H     1 <1>   0.4500 
 11 C        2.4070     0.6380    -0.1875 C.ar  1 <1>  -0.1500 
 12 H        3.1271    -0.0120     0.3022 H     1 <1>   0.1500 
 13 O        3.0976     2.3761     1.2290 O.3   1 <1>  -0.1592 
 14 C        2.9823     3.6722     1.7015 C.2   1 <1>   0.0483 
 15 C        3.8519     3.9635     2.8621 C.ar  1 <1>   0.0284 
 16 C        2.1602     4.5806     1.1678 C.2   1 <1>  -0.1356 
 17 H        2.0757     5.6027     1.5154 H     1 <1>   0.1500 
 18 C        1.2923     4.2103     0.0363 C.2   1 <1>   0.4694 
 19 O        0.5718     5.0643    -0.4629 O.2   1 <1>  -0.5700 
 20 C        5.1079     3.3328     2.9756 C.ar  1 <1>  -0.1500 
 21 H        5.4411     2.6758     2.1718 H     1 <1>   0.1500 
 22 C        5.9474     3.5051     4.0987 C.ar  1 <1>   0.0000 
 23 C        7.2702     2.8225     4.1459 C.ar  1 <1>   0.0000 
 24 C        5.4588     4.3199     5.1334 C.ar  1 <1>   0.0825 
 25 O        6.1274     4.4633     6.3219 O.3   1 <1>  -0.5325 
 26 H        6.4952     3.5745     6.5176 H     1 <1>   0.4500 
 27 C        4.2391     4.9860     5.0305 C.ar  1 <1>  -0.1500 
 28 H        3.8958     5.6156     5.8464 H     1 <1>   0.1500 
 29 C        3.4364     4.8032     3.9037 C.ar  1 <1>  -0.1500 
 30 H        2.4671     5.2961     3.8786 H     1 <1>   0.1500 
 31 C        7.6183     1.9619     5.2038 C.ar  1 <1>   0.0825 
 32 O        6.7668     1.8585     6.2784 O.3   1 <1>  -0.5325 
 33 H        7.0197     1.0799     6.8085 H     1 <1>   0.4500 
 34 C        8.8220     1.2564     5.2231 C.ar  1 <1>  -0.1500 
 35 H        9.0595     0.6047     6.0583 H     1 <1>   0.1500 
 36 C        9.7277     1.4128     4.1749 C.ar  1 <1>   0.0825 
 37 O       10.9027     0.7181     4.2134 O.3   1 <1>  -0.5325 
 38 H       10.9428     0.1553     5.0024 H     1 <1>   0.4500 
 39 C        9.4450     2.2862     3.1209 C.ar  1 <1>   0.0862 
 40 C        8.2309     2.9928     3.1190 C.ar  1 <1>   0.0825 
 41 C       10.3809     2.5060     2.0051 C.2   1 <1>   0.4694 
 42 O       11.4256     1.8884     1.8484 O.2   1 <1>  -0.5700 
 43 C       10.0196     3.5432     1.0300 C.2   1 <1>  -0.1356 
 44 H       10.7374     3.7344     0.2418 H     1 <1>   0.1500 
 45 C        8.8567     4.1864     1.1532 C.2   1 <1>   0.0483 
 46 C        8.4520     5.2577     0.2225 C.ar  1 <1>   0.0284 
 47 O        7.9273     3.9118     2.1361 O.3   1 <1>  -0.1592 
 48 C        9.3702     6.2226    -0.2260 C.ar  1 <1>  -0.1500 
 49 H       10.4093     6.1974     0.0970 H     1 <1>   0.1500 
 50 C        8.9679     7.2534    -1.0816 C.ar  1 <1>  -0.1500 
 51 H        9.7007     7.9850    -1.4068 H     1 <1>   0.1500 
 52 C        7.6401     7.3274    -1.4890 C.ar  1 <1>   0.0825 
 53 O        7.2068     8.3205    -2.3189 O.3   1 <1>  -0.5325 
 54 H        7.9603     8.8936    -2.5352 H     1 <1>   0.4500 
 55 C        6.7118     6.3895    -1.0535 C.ar  1 <1>  -0.1500 
 56 H        5.6759     6.4581    -1.3722 H     1 <1>   0.1500 
 57 C        7.1154     5.3602    -0.1979 C.ar  1 <1>  -0.1500 
 58 H        6.3737     4.6381     0.1363 H     1 <1>   0.1500 
@<TRIPOS>BOND
  1   1   2  ar  
  2   1  11  ar  
  3   1  13  1   
  4   2   3  ar  
  5   2  18  1   
  6   3   4  1   
  7   3   6  ar  
  8   4   5  1   
  9   6   7  1   
 10   6   8  ar  
 11   8   9  1   
 12   8  11  ar  
 13   9  10  1   
 14  11  12  1   
 15  13  14  1   
 16  14  15  1   
 17  14  16  2   
 18  15  20  ar  
 19  15  29  ar  
 20  16  17  1   
 21  16  18  1   
 22  18  19  2   
 23  20  21  1   
 24  20  22  ar  
 25  22  23  1   
 26  22  24  ar  
 27  23  31  ar  
 28  23  40  ar  
 29  24  25  1   
 30  24  27  ar  
 31  25  26  1   
 32  27  28  1   
 33  27  29  ar  
 34  29  30  1   
 35  31  32  1   
 36  31  34  ar  
 37  32  33  1   
 38  34  35  1   
 39  34  36  ar  
 40  36  37  1   
 41  36  39  ar  
 42  37  38  1   
 43  39  40  ar  
 44  39  41  1   
 45  40  47  1   
 46  41  42  2   
 47  41  43  1   
 48  43  44  1   
 49  43  45  2   
 50  45  46  1   
 51  45  47  1   
 52  46  48  ar  
 53  46  57  ar  
 54  48  49  1   
 55  48  50  ar  
 56  50  51  1   
 57  50  52  ar  
 58  52  53  1   
 59  52  55  ar  
 60  53  54  1   
 61  55  56  1   
 62  55  57  ar  
 63  57  58  1   
@<TRIPOS>SUBSTRUCTURE
  1 <1>   0 RESIDUE 1 * * 1
# MOE 2007.09 (io_trps.svl 2007.09)
