@<TRIPOS>MOLECULE
J08_31
170 178 1 0 0 
SMALL
USER_CHARGES


@<TRIPOS>ATOM
  1 C        2.8613     0.6367    -0.3647 C.3   1 <1>   0.0000 
  2 C        2.5432     1.4216     0.9351 C.3   1 <1>   0.0000 
  3 H1       1.6091     1.9819     0.8734 H     1 <1>   0.0000 
  4 H2       3.3187     2.1442     1.1990 H     1 <1>   0.0000 
  5 H3       2.4553     0.7713     1.8091 H     1 <1>   0.0000 
  6 C        3.5414    -0.7139     0.0239 C.3   1 <1>   0.0000 
  7 H1       4.3970    -0.5457     0.6860 H     1 <1>   0.0000 
  8 H2       3.9441    -1.1946    -0.8778 H     1 <1>   0.0000 
  9 C        2.6133    -1.7112     0.7094 C.3   1 <1>   0.0000 
 10 H1       2.3385    -1.3738     1.7150 H     1 <1>   0.0000 
 11 H2       3.1634    -2.6461     0.8787 H     1 <1>   0.0000 
 12 C        1.3588    -2.0096    -0.1100 C.3   1 <1>   0.2800 
 13 O        0.5425    -2.8860     0.6801 O.3   1 <1>  -0.5600 
 14 C        0.6917    -4.2625     0.3103 C.3   1 <1>   0.5600 
 15 H        1.7085    -4.4315    -0.0720 H     1 <1>   0.0000 
 16 H1       0.7711    -6.0585    -1.6909 H     1 <1>   0.0000 
 17 O       -0.2433    -8.2231    -0.5331 O.3   1 <1>  -0.6800 
 18 H       -0.2219    -8.7494     0.2931 H     1 <1>   0.4000 
 19 H2       1.6678    -2.5122    -1.0385 H     1 <1>   0.0000 
 20 C        0.5674    -0.7284    -0.5177 C.3   1 <1>   0.0000 
 21 C       -0.2054    -0.1419     0.6750 C.3   1 <1>   0.0000 
 22 H1      -1.0101    -0.8160     0.9892 H     1 <1>   0.0000 
 23 H2      -0.6746     0.8140     0.4228 H     1 <1>   0.0000 
 24 H3       0.4260     0.0066     1.5502 H     1 <1>   0.0000 
 25 C       -0.5122    -1.1684    -1.5461 C.3   1 <1>   0.0000 
 26 H1      -1.1924    -0.3501    -1.8024 H     1 <1>   0.0000 
 27 H2      -1.1381    -1.9756    -1.1494 H     1 <1>   0.0000 
 28 H3      -0.0544    -1.5320    -2.4727 H     1 <1>   0.0000 
 29 C        1.5699     0.2825    -1.1955 C.3   1 <1>   0.0000 
 30 H        1.9400    -0.2686    -2.0771 H     1 <1>   0.0000 
 31 H1       0.5887     2.2421    -0.9886 H     1 <1>   0.0000 
 32 H2       0.0307     1.3091    -2.3533 H     1 <1>   0.0000 
 33 C        0.9239     1.5579    -1.7722 C.3   1 <1>   0.0000 
 34 C        1.8891     2.2630    -2.7301 C.3   1 <1>   0.0000 
 35 H1       1.3862     3.1417    -3.1506 H     1 <1>   0.0000 
 36 H2       2.0391     1.5706    -3.5644 H     1 <1>   0.0000 
 37 C        3.2565     2.6632    -2.1066 C.3   1 <1>   0.0000 
 38 C        2.9883     3.8587    -1.1399 C.3   1 <1>   0.0000 
 39 H1       3.9090     4.2555    -0.7017 H     1 <1>   0.0000 
 40 H2       2.3216     3.6031    -0.3189 H     1 <1>   0.0000 
 41 H3       2.4854     4.6863    -1.6519 H     1 <1>   0.0000 
 42 C        3.8449     1.4391    -1.3231 C.3   1 <1>   0.0610 
 43 H        4.1454     0.6988    -2.0797 H     1 <1>   0.0000 
 44 C        4.3246     3.1189    -3.2576 C.3   1 <1>   0.1382 
 45 C        3.9580     4.5541    -3.7450 C.3   1 <1>   0.0000 
 46 H1       4.1994     5.3117    -2.9910 H     1 <1>   0.0000 
 47 H2       2.8932     4.6327    -3.9872 H     1 <1>   0.0000 
 48 H3       4.4869     4.8554    -4.6530 H     1 <1>   0.0000 
 49 C        5.7829     3.0921    -2.7303 C.2   1 <1>  -0.2764 
 50 C        6.1268     2.5891    -1.5347 C.2   1 <1>  -0.1356 
 51 H        7.1422     2.5760    -1.1596 H     1 <1>   0.1500 
 52 C        5.1671     1.8653    -0.6808 C.2   1 <1>   0.4946 
 53 O        5.5029     1.5793     0.4625 O.2   1 <1>  -0.5700 
 54 C        4.3140     2.1819    -4.5094 C.3   1 <1>   0.0000 
 55 H1       3.3599     2.2774    -5.0417 H     1 <1>   0.0000 
 56 H2       4.3915     1.1329    -4.2028 H     1 <1>   0.0000 
 57 C        5.4209     2.4673    -5.5460 C.3   1 <1>   0.0000 
 58 H1       5.1775     3.3961    -6.0762 H     1 <1>   0.0000 
 59 H2       5.3901     1.6833    -6.3143 H     1 <1>   0.0000 
 60 C        6.8498     2.5668    -4.9481 C.3   1 <1>   0.0000 
 61 C        7.3065     1.1394    -4.5482 C.3   1 <1>   0.0000 
 62 H1       8.3115     1.1239    -4.1181 H     1 <1>   0.0000 
 63 H2       7.3235     0.4806    -5.4246 H     1 <1>   0.0000 
 64 H3       6.6385     0.6775    -3.8149 H     1 <1>   0.0000 
 65 C        6.8414     3.5533    -3.7413 C.3   1 <1>   0.1382 
 66 H        6.5150     4.5354    -4.1001 H     1 <1>   0.0000 
 67 C        7.8069     3.1158    -6.0345 C.3   1 <1>   0.0000 
 68 H1       7.3945     4.0420    -6.4552 H     1 <1>   0.0000 
 69 H2       7.8697     2.4091    -6.8722 H     1 <1>   0.0000 
 70 C        9.2209     3.4015    -5.5212 C.3   1 <1>   0.0000 
 71 H1       9.7991     3.8522    -6.3387 H     1 <1>   0.0000 
 72 H2       9.7243     2.4510    -5.3020 H     1 <1>   0.0000 
 73 C        9.2638     4.3113    -4.2738 C.3   1 <1>   0.0610 
 74 C        8.9560     5.7732    -4.6442 C.3   1 <1>   0.0000 
 75 H1       9.0043     6.4199    -3.7602 H     1 <1>   0.0000 
 76 H2       7.9652     5.8934    -5.0911 H     1 <1>   0.0000 
 77 H3       9.6855     6.1621    -5.3643 H     1 <1>   0.0000 
 78 C        8.2700     3.7936    -3.2003 C.3   1 <1>   0.0000 
 79 H1       8.2253     4.5131    -2.3706 H     1 <1>   0.0000 
 80 H2       8.6699     2.8674    -2.7681 H     1 <1>   0.0000 
 81 O       -0.2512    -4.5500    -0.7158 O.3   1 <1>  -0.5600 
 82 C       -0.1961    -5.8869    -1.2028 C.3   1 <1>   0.3410 
 83 C       -0.4429    -6.8802    -0.0768 C.3   1 <1>   0.2800 
 84 H2      -1.4774    -6.8165     0.2853 H     1 <1>   0.0000 
 85 C        0.5154    -6.6282     1.0896 C.3   1 <1>   0.2800 
 86 H        1.5382    -6.8985     0.7972 H     1 <1>   0.0000 
 87 O        0.1586    -7.5822     2.1013 O.3   1 <1>  -0.6800 
 88 H        0.0092    -7.1064     2.9590 H     1 <1>   0.4000 
 89 C        0.4859    -5.1583     1.5548 C.3   1 <1>   0.2800 
 90 H       -0.4671    -4.9294     2.0451 H     1 <1>   0.0000 
 91 C       -1.3240    -6.0336    -2.2256 C.2   1 <1>   0.5690 
 92 N       -0.9486    -6.6846    -3.3794 N.am  1 <1>  -0.7301 
 93 C       -1.8535    -6.8577    -4.4921 C.3   1 <1>   0.5801 
 94 H       -2.8183    -7.1863    -4.0841 H     1 <1>   0.0000 
 95 N       -1.1054    -9.2079    -4.9752 N.am  1 <1>  -0.7301 
 96 H2      -1.8054    -9.9152    -5.1779 H     1 <1>   0.3700 
 97 H2      -0.0176    -7.0981    -3.4657 H     1 <1>   0.3700 
 98 O       -2.4610    -5.6135    -2.0128 O.2   1 <1>  -0.5700 
 99 C        1.3188    -4.5290     3.7687 C.3   1 <1>   0.5600 
100 H        2.2507    -4.0689     4.1208 H     1 <1>   0.0000 
101 O        1.6086    -4.9295     2.4274 O.3   1 <1>  -0.5600 
102 C        1.0246    -5.7479     4.6620 C.3   1 <1>   0.2800 
103 H1       1.8141    -6.5012     4.5726 H     1 <1>   0.0000 
104 O       -0.1952    -6.3962     4.2285 O.3   1 <1>  -0.6800 
105 H       -0.9351    -5.8953     4.6608 H     1 <1>   0.4000 
106 C        0.8815    -5.2658     6.1111 C.3   1 <1>   0.2800 
107 H1       1.8339    -4.8555     6.4656 H     1 <1>   0.0000 
108 O        0.5439    -6.3636     6.9587 O.3   1 <1>  -0.6800 
109 H       -0.3803    -6.5946     6.7376 H     1 <1>   0.4000 
110 C       -0.2141    -4.1994     6.1923 C.3   1 <1>   0.2800 
111 H1      -0.3297    -3.8429     7.2220 H     1 <1>   0.0000 
112 O       -1.4490    -4.8631     5.8301 O.3   1 <1>  -0.6800 
113 H       -2.1572    -4.1966     5.9858 H     1 <1>   0.4000 
114 C        0.1053    -3.0565     5.2093 C.3   1 <1>   0.3410 
115 H1       1.0215    -2.5402     5.5250 H     1 <1>   0.0000 
116 O        0.2942    -3.5322     3.8714 O.3   1 <1>  -0.5600 
117 C       -1.0206    -2.0190     5.2261 C.2   1 <1>   0.5690 
118 N       -0.8574    -0.9941     4.3236 N.am  1 <1>  -0.7301 
119 C       -1.7555     0.1356     4.2519 C.3   1 <1>   0.5801 
120 H       -1.9592     0.4658     5.2787 H     1 <1>   0.0000 
121 H2      -0.0892    -1.0214     3.6626 H     1 <1>   0.3700 
122 O       -1.9734    -2.0926     6.0034 O.2   1 <1>  -0.5700 
123 C       10.6704     4.2909    -3.6746 C.2   1 <1>   0.6590 
124 O       11.6463     4.4595    -4.5911 O.3   1 <1>  -0.6500 
125 H       12.4777     4.4443    -4.0723 H     1 <1>   0.5000 
126 O       10.9560     4.1766    -2.4930 O.2   1 <1>  -0.5700 
127 C       -1.3095    -7.8671    -5.5341 C.3   1 <1>   0.3001 
128 H2      -0.3301    -7.5102    -5.8824 H     1 <1>   0.0000 
129 C       -2.2596    -7.9211    -6.7436 C.3   1 <1>   0.2800 
130 O       -3.4813    -8.5541    -6.3461 O.3   1 <1>  -0.6800 
131 H2      -1.8053    -8.5446    -7.5237 H     1 <1>   0.0000 
132 C       -2.5433    -6.5112    -7.2827 C.3   1 <1>   0.2800 
133 H1      -3.3264    -6.5594    -8.0488 H     1 <1>   0.0000 
134 O       -1.3448    -6.0370    -7.8987 O.3   1 <1>  -0.6800 
135 H       -1.5712    -5.3014    -8.4938 H     1 <1>   0.4000 
136 C       -2.9928    -5.5791    -6.1396 C.3   1 <1>   0.2800 
137 H1      -3.9386    -5.9317    -5.7073 H     1 <1>   0.0000 
138 C       -3.1784    -4.1332    -6.6108 C.3   1 <1>   0.2800 
139 O       -3.8933    -3.3954    -5.6198 O.3   1 <1>  -0.6800 
140 H       -3.9044    -2.4673    -5.9093 H     1 <1>   0.4000 
141 H2      -3.7610    -4.0940    -7.5363 H     1 <1>   0.0000 
142 H3      -2.2131    -3.6391    -6.7626 H     1 <1>   0.0000 
143 O       -1.9999    -5.5765    -5.1021 O.3   1 <1>  -0.5600 
144 H       -4.0121    -8.7052    -7.1489 H     1 <1>   0.4000 
145 O       -1.0253     1.1436     3.5528 O.3   1 <1>  -0.5600 
146 C       -1.7270     2.3969     3.4930 C.3   1 <1>   0.2800 
147 C       -0.8142     3.4374     2.8239 C.3   1 <1>   0.2800 
148 O        0.2560     3.7940     3.6993 O.3   1 <1>  -0.6800 
149 H        0.7600     4.5079     3.2694 H     1 <1>   0.4000 
150 H2      -1.3635     4.3552     2.5945 H     1 <1>   0.0000 
151 H3      -0.3760     3.0390     1.9038 H     1 <1>   0.0000 
152 H2      -1.9280     2.7362     4.5179 H     1 <1>   0.0000 
153 C       -3.0369     2.2116     2.7036 C.3   1 <1>   0.2800 
154 H1      -2.8241     1.9437     1.6611 H     1 <1>   0.0000 
155 O       -3.8263     3.4039     2.7307 O.3   1 <1>  -0.6800 
156 H       -3.5531     3.9693     1.9861 H     1 <1>   0.4000 
157 C       -3.8879     1.0991     3.3351 C.3   1 <1>   0.2800 
158 H1      -4.7857     0.9207     2.7319 H     1 <1>   0.0000 
159 O       -4.3470     1.5679     4.6128 O.3   1 <1>  -0.6800 
160 H       -4.6827     2.4740     4.4410 H     1 <1>   0.4000 
161 C       -3.0679    -0.1933     3.4939 C.3   1 <1>   0.3001 
162 H1      -2.8158    -0.5453     2.4852 H     1 <1>   0.0000 
163 N       -3.8426    -1.2634     4.1255 N.am  1 <1>  -0.7301 
164 H2      -3.6697    -1.4715     5.1102 H     1 <1>   0.3700 
165 C       -4.7836    -2.0269     3.4943 C.2   1 <1>   0.5700 
166 H       -4.9103    -1.7758     2.4289 H     1 <1>   0.0600 
167 O       -5.4341    -2.9039     4.0480 O.2   1 <1>  -0.5700 
168 C       -0.0264    -9.5053    -4.1796 C.2   1 <1>   0.5700 
169 H       -0.0305   -10.5565    -3.8490 H     1 <1>   0.0600 
170 O        0.8412    -8.7060    -3.8457 O.2   1 <1>  -0.5700 
@<TRIPOS>BOND
  1   1   2  1   
  2   1   6  1   
  3   1  29  1   
  4   1  42  1   
  5   2   3  1   
  6   2   4  1   
  7   2   5  1   
  8   6   7  1   
  9   6   8  1   
 10   6   9  1   
 11   9  10  1   
 12   9  11  1   
 13   9  12  1   
 14  12  13  1   
 15  12  19  1   
 16  12  20  1   
 17  13  14  1   
 18  14  15  1   
 19  14  81  1   
 20  14  89  1   
 21  16  82  1   
 22  17  18  1   
 23  17  83  1   
 24  20  21  1   
 25  20  25  1   
 26  20  29  1   
 27  21  22  1   
 28  21  23  1   
 29  21  24  1   
 30  25  26  1   
 31  25  27  1   
 32  25  28  1   
 33  29  30  1   
 34  29  33  1   
 35  31  33  1   
 36  32  33  1   
 37  33  34  1   
 38  34  35  1   
 39  34  36  1   
 40  34  37  1   
 41  37  38  1   
 42  37  42  1   
 43  37  44  1   
 44  38  39  1   
 45  38  40  1   
 46  38  41  1   
 47  42  43  1   
 48  42  52  1   
 49  44  45  1   
 50  44  49  1   
 51  44  54  1   
 52  45  46  1   
 53  45  47  1   
 54  45  48  1   
 55  49  50  2   
 56  49  65  1   
 57  50  51  1   
 58  50  52  1   
 59  52  53  2   
 60  54  55  1   
 61  54  56  1   
 62  54  57  1   
 63  57  58  1   
 64  57  59  1   
 65  57  60  1   
 66  60  61  1   
 67  60  65  1   
 68  60  67  1   
 69  61  62  1   
 70  61  63  1   
 71  61  64  1   
 72  65  66  1   
 73  65  78  1   
 74  67  68  1   
 75  67  69  1   
 76  67  70  1   
 77  70  71  1   
 78  70  72  1   
 79  70  73  1   
 80  73  74  1   
 81  73  78  1   
 82  73 123  1   
 83  74  75  1   
 84  74  76  1   
 85  74  77  1   
 86  78  79  1   
 87  78  80  1   
 88  81  82  1   
 89  82  83  1   
 90  82  91  1   
 91  83  84  1   
 92  83  85  1   
 93  85  86  1   
 94  85  87  1   
 95  85  89  1   
 96  87  88  1   
 97  89  90  1   
 98  89 101  1   
 99  91  92  am  
100  91  98  2   
101  92  93  1   
102  92  97  1   
103  93  94  1   
104  93 127  1   
105  93 143  1   
106  95  96  1   
107  95 127  1   
108  95 168  am  
109  99 100  1   
110  99 101  1   
111  99 102  1   
112  99 116  1   
113 102 103  1   
114 102 104  1   
115 102 106  1   
116 104 105  1   
117 106 107  1   
118 106 108  1   
119 106 110  1   
120 108 109  1   
121 110 111  1   
122 110 112  1   
123 110 114  1   
124 112 113  1   
125 114 115  1   
126 114 116  1   
127 114 117  1   
128 117 118  am  
129 117 122  2   
130 118 119  1   
131 118 121  1   
132 119 120  1   
133 119 145  1   
134 119 161  1   
135 123 124  1   
136 123 126  2   
137 124 125  1   
138 127 128  1   
139 127 129  1   
140 129 130  1   
141 129 131  1   
142 129 132  1   
143 130 144  1   
144 132 133  1   
145 132 134  1   
146 132 136  1   
147 134 135  1   
148 136 137  1   
149 136 138  1   
150 136 143  1   
151 138 139  1   
152 138 141  1   
153 138 142  1   
154 139 140  1   
155 145 146  1   
156 146 147  1   
157 146 152  1   
158 146 153  1   
159 147 148  1   
160 147 150  1   
161 147 151  1   
162 148 149  1   
163 153 154  1   
164 153 155  1   
165 153 157  1   
166 155 156  1   
167 157 158  1   
168 157 159  1   
169 157 161  1   
170 159 160  1   
171 161 162  1   
172 161 163  1   
173 163 164  1   
174 163 165  am  
175 165 166  1   
176 165 167  2   
177 168 169  1   
178 168 170  2   
@<TRIPOS>SUBSTRUCTURE
  1 <1>   0 RESIDUE 1 * * 1
# MOE 2007.09 (io_trps.svl 2007.09)
