@<TRIPOS>MOLECULE
J08_16
32 34 1 0 0 
SMALL
USER_CHARGES


@<TRIPOS>ATOM
  1 C        1.0201    -0.1888    -1.4394 C.ar  1 <1>   0.0825 
  2 O        1.9207    -0.0194    -2.4593 O.3   1 <1>  -0.1592 
  3 C        0.0288     0.7818    -1.3192 C.ar  1 <1>   0.0825 
  4 O       -0.0522     1.8466    -2.1768 O.3   1 <1>  -0.5325 
  5 H        0.6707     1.7444    -2.8254 H     1 <1>   0.4500 
  6 C       -0.9210     0.6919    -0.3105 C.ar  1 <1>   0.0825 
  7 O       -1.8868     1.6505    -0.2040 O.3   1 <1>  -0.5325 
  8 H       -1.6996     2.2729    -0.9364 H     1 <1>   0.4500 
  9 C       -0.9000    -0.3632     0.5902 C.ar  1 <1>  -0.1500 
 10 H       -1.6554    -0.4078     1.3684 H     1 <1>   0.1500 
 11 C        0.0926    -1.3422     0.4707 C.ar  1 <1>   0.0825 
 12 O        0.1050    -2.3790     1.3599 O.3   1 <1>  -0.5325 
 13 H       -0.6253    -2.2836     1.9927 H     1 <1>   0.4500 
 14 C        1.0570    -1.2603    -0.5442 C.ar  1 <1>   0.0862 
 15 C        2.1207    -2.2533    -0.7242 C.2   1 <1>   0.4694 
 16 C        3.0633    -2.0415    -1.8457 C.2   1 <1>   0.0911 
 17 O        4.0623    -2.9844    -1.9923 O.3   1 <1>  -0.5267 
 18 H        3.9080    -3.6201    -1.2596 H     1 <1>   0.4500 
 19 C        2.9145    -0.9682    -2.6330 C.2   1 <1>   0.0483 
 20 C        3.8045    -0.6648    -3.7675 C.ar  1 <1>   0.0284 
 21 O        2.2940    -3.2440    -0.0234 O.2   1 <1>  -0.5700 
 22 C        4.0880    -1.6209    -4.7547 C.ar  1 <1>  -0.1500 
 23 H        3.6750    -2.6251    -4.6833 H     1 <1>   0.1500 
 24 C        4.8989    -1.3008    -5.8482 C.ar  1 <1>  -0.1500 
 25 H        5.1015    -2.0612    -6.5958 H     1 <1>   0.1500 
 26 C        5.4241    -0.0170    -5.9583 C.ar  1 <1>   0.0825 
 27 O        6.2124     0.3412    -7.0128 O.3   1 <1>  -0.5325 
 28 H        6.3062    -0.4272    -7.5991 H     1 <1>   0.4500 
 29 C        5.1554     0.9461    -4.9934 C.ar  1 <1>  -0.1500 
 30 H        5.5704     1.9449    -5.0892 H     1 <1>   0.1500 
 31 C        4.3455     0.6242    -3.9021 C.ar  1 <1>  -0.1500 
 32 H        4.1441     1.3888    -3.1550 H     1 <1>   0.1500 
@<TRIPOS>BOND
  1   1   2  1   
  2   1   3  ar  
  3   1  14  ar  
  4   2  19  1   
  5   3   4  1   
  6   3   6  ar  
  7   4   5  1   
  8   6   7  1   
  9   6   9  ar  
 10   7   8  1   
 11   9  10  1   
 12   9  11  ar  
 13  11  12  1   
 14  11  14  ar  
 15  12  13  1   
 16  14  15  1   
 17  15  16  1   
 18  15  21  2   
 19  16  17  1   
 20  16  19  2   
 21  17  18  1   
 22  19  20  1   
 23  20  22  ar  
 24  20  31  ar  
 25  22  23  1   
 26  22  24  ar  
 27  24  25  1   
 28  24  26  ar  
 29  26  27  1   
 30  26  29  ar  
 31  27  28  1   
 32  29  30  1   
 33  29  31  ar  
 34  31  32  1   
@<TRIPOS>SUBSTRUCTURE
  1 <1>   0 RESIDUE 1 * * 1
# MOE 2007.09 (io_trps.svl 2007.09)
