@<TRIPOS>MOLECULE
J08_50
123 130 1 0 0 
SMALL
USER_CHARGES


@<TRIPOS>ATOM
  1 C        1.8520     0.4163    -2.8484 C.3   1 <1>  -0.0000 
  2 C        1.5599     1.0238    -4.2555 C.3   1 <1>  -0.2400 
  3 H1       2.0597     0.4613    -5.0391 H     1 <1>   0.0800 
  4 H2       1.8889     2.0578    -4.3214 H     1 <1>   0.0800 
  5 H3       0.4985     1.0301    -4.4887 H     1 <1>   0.0800 
  6 C        0.5230     0.4980    -2.0442 C.3   1 <1>  -0.1600 
  7 H1       0.1263     1.5127    -2.0845 H     1 <1>   0.0800 
  8 H2       0.7279     0.2840    -0.9924 H     1 <1>   0.0800 
  9 C       -0.5763    -0.4851    -2.4918 C.3   1 <1>  -0.1600 
 10 H1      -0.9440    -0.2275    -3.4821 H     1 <1>   0.0800 
 11 H2      -1.4196    -0.3978    -1.8072 H     1 <1>   0.0800 
 12 C       -0.0850    -1.9399    -2.4998 C.3   1 <1>   0.2000 
 13 H       -0.8650    -2.5670    -2.9350 H     1 <1>   0.0800 
 14 O        0.1751    -2.3132    -1.1140 O.3   1 <1>  -0.5600 
 15 C       -0.9253    -2.8520    -0.3641 C.3   1 <1>   0.4800 
 16 H       -1.6689    -3.2716    -1.0285 H     1 <1>   0.0800 
 17 C        1.2248    -2.1451    -3.3150 C.3   1 <1>  -0.0000 
 18 C        0.9026    -2.0743    -4.8306 C.3   1 <1>   0.1200 
 19 H1       0.4582    -1.1134    -5.0720 H     1 <1>   0.0800 
 20 O2      -0.0077    -3.0844    -5.2517 O.3   1 <1>  -0.6800 
 21 H2      -0.0859    -3.0646    -6.2101 H     1 <1>   0.4000 
 22 H3       1.8319    -2.1745    -5.3930 H     1 <1>   0.0800 
 23 C        1.7432    -3.5851    -3.0394 C.3   1 <1>  -0.2400 
 24 H1       0.9245    -4.3003    -3.1230 H     1 <1>   0.0800 
 25 H2       2.1580    -3.6556    -2.0328 H     1 <1>   0.0800 
 26 H3       2.5082    -3.8691    -3.7606 H     1 <1>   0.0800 
 27 C        2.2895    -1.0903    -2.8429 C.3   1 <1>  -0.0800 
 28 H        2.4259    -1.3322    -1.7857 H     1 <1>   0.0800 
 29 C        3.7071    -1.2538    -3.4515 C.3   1 <1>  -0.1600 
 30 H1       3.7199    -0.9703    -4.5011 H     1 <1>   0.0800 
 31 H2       4.0167    -2.2958    -3.3994 H     1 <1>   0.0800 
 32 C        4.7460    -0.4496    -2.6382 C.3   1 <1>  -0.1600 
 33 H1       5.7341    -0.5915    -3.0783 H     1 <1>   0.0800 
 34 H2       4.7559    -0.9210    -1.6587 H     1 <1>   0.0800 
 35 C        5.4408     1.8174    -1.4026 C.3   1 <1>  -0.0000 
 36 C        6.5574     2.6013    -2.1757 C.3   1 <1>  -0.2400 
 37 H1       6.1340     3.4371    -2.7314 H     1 <1>   0.0800 
 38 H2       7.0996     1.9313    -2.8412 H     1 <1>   0.0800 
 39 H3       7.3289     3.0125    -1.5385 H     1 <1>   0.0800 
 40 C        4.4610     1.0722    -2.4786 C.3   1 <1>  -0.0000 
 41 C        2.9485     1.2171    -2.0277 C.3   1 <1>   0.0582 
 42 H        2.8899     0.7951    -1.0361 H     1 <1>   0.0800 
 43 C        4.6417     1.6523    -3.9233 C.3   1 <1>  -0.2400 
 44 H1       4.4006     2.7145    -3.9483 H     1 <1>   0.0800 
 45 H2       4.0249     1.1603    -4.6557 H     1 <1>   0.0800 
 46 H3       5.6494     1.4952    -4.2999 H     1 <1>   0.0800 
 47 C        4.6245     2.7928    -0.4150 C.3   1 <1>   0.4182 
 48 O        3.9930     1.9975     0.6370 O.3   1 <1>  -0.5600 
 49 C        3.4999     3.4690    -1.1787 C.2   1 <1>  -0.2882 
 50 H        3.3646     4.5120    -1.0845 H     1 <1>   0.1500 
 51 C        2.6750     2.7155    -1.9205 C.2   1 <1>  -0.2882 
 52 H        1.8485     3.1328    -2.4332 H     1 <1>   0.1500 
 53 C        6.2552     0.8684    -0.4589 C.3   1 <1>  -0.1600 
 54 H1       7.0101     0.3235    -1.0267 H     1 <1>   0.0800 
 55 H2       5.5714     0.1295    -0.0463 H     1 <1>   0.0800 
 56 C        6.9229     1.5321     0.7789 C.3   1 <1>   0.2000 
 57 O        8.2251     1.9745     0.4446 O.3   1 <1>  -0.6800 
 58 H        8.6376     2.3466     1.2273 H     1 <1>   0.4000 
 59 H2       7.0568     0.7401     1.5188 H     1 <1>   0.0800 
 60 C        6.0675     2.6551     1.4514 C.3   1 <1>  -0.0000 
 61 C        4.7407     1.9832     1.8647 C.3   1 <1>   0.1200 
 62 H1       4.8890     0.9643     2.2246 H     1 <1>   0.0800 
 63 H2       4.2056     2.5631     2.6145 H     1 <1>   0.0800 
 64 C        5.5654     3.7015     0.4258 C.3   1 <1>  -0.0800 
 65 H        6.3920     4.1422    -0.1170 H     1 <1>   0.0800 
 66 C        6.7980     3.2961     2.6580 C.3   1 <1>  -0.1600 
 67 H1       7.7715     3.6644     2.3362 H     1 <1>   0.0800 
 68 H2       6.9674     2.5373     3.4235 H     1 <1>   0.0800 
 69 C        6.0373     4.4788     3.2856 C.3   1 <1>  -0.1600 
 70 H1       6.6724     4.9467     4.0399 H     1 <1>   0.0800 
 71 H2       5.1553     4.1008     3.8031 H     1 <1>   0.0800 
 72 C        5.6024     5.5395     2.2540 C.3   1 <1>  -0.0000 
 73 C        6.8193     6.3126     1.7104 C.3   1 <1>  -0.2400 
 74 H1       7.5126     5.6481     1.1978 H     1 <1>   0.0800 
 75 H2       7.3503     6.7988     2.5293 H     1 <1>   0.0800 
 76 H3       6.4923     7.0772     1.0051 H     1 <1>   0.0800 
 77 C        4.6908     6.5602     2.9546 C.3   1 <1>  -0.2400 
 78 H1       4.3689     7.3256     2.2473 H     1 <1>   0.0800 
 79 H2       5.2241     7.0421     3.7750 H     1 <1>   0.0800 
 80 H3       3.8061     6.0649     3.3566 H     1 <1>   0.0800 
 81 C        4.8098     4.8778     1.1068 C.3   1 <1>  -0.1600 
 82 H1       4.5920     5.6395     0.3578 H     1 <1>   0.0800 
 83 H2       3.8534     4.5235     1.4957 H     1 <1>   0.0800 
 84 O       -1.4898    -1.7624     0.4186 O.3   1 <1>  -0.5600 
 85 C       -2.5813    -2.0700     1.3300 C.3   1 <1>   0.2000 
 86 C       -3.8344    -2.3101     0.4735 C.3   1 <1>  -0.2400 
 87 H1      -4.0026    -1.4403    -0.1619 H     1 <1>   0.0800 
 88 H2      -4.6987    -2.4394     1.1259 H     1 <1>   0.0800 
 89 H3      -3.7283    -3.1953    -0.1492 H     1 <1>   0.0800 
 90 H2      -2.7838    -1.2137     1.9754 H     1 <1>   0.0800 
 91 C       -2.1636    -3.2445     2.2473 C.3   1 <1>   0.2000 
 92 O       -3.2646    -3.6805     3.0350 O.3   1 <1>  -0.6800 
 93 H       -3.0322    -4.5739     3.3531 H     1 <1>   0.4000 
 94 H2      -1.3827    -2.8761     2.9148 H     1 <1>   0.0800 
 95 C       -1.5795    -4.4287     1.4399 C.3   1 <1>   0.2000 
 96 H1      -2.3538    -4.8304     0.7851 H     1 <1>   0.0800 
 97 O       -1.0533    -5.4475     2.3808 O.3   1 <1>  -0.5600 
 98 C       -1.8352    -6.6510     2.5395 C.3   1 <1>   0.4800 
 99 H       -2.1504    -7.0648     1.5885 H     1 <1>   0.0800 
100 C       -0.3915    -3.9643     0.5848 C.3   1 <1>   0.2000 
101 H1      -0.0278    -4.8064    -0.0029 H     1 <1>   0.0800 
102 O        0.6688    -3.5206     1.4399 O.3   1 <1>  -0.6800 
103 H        0.7013    -4.1215     2.1908 H     1 <1>   0.4000 
104 O       -2.9408    -6.2652     3.3657 O.3   1 <1>  -0.5600 
105 C       -3.8980    -7.3154     3.6844 C.3   1 <1>   0.2000 
106 H1      -4.3157    -7.7807     2.7894 H     1 <1>   0.0800 
107 C       -5.0459    -6.6629     4.4684 C.3   1 <1>   0.1200 
108 O       -5.6639    -5.6437     3.6932 O.3   1 <1>  -0.6800 
109 H       -5.0294    -4.9300     3.5361 H     1 <1>   0.4000 
110 H2      -4.6583    -6.2342     5.3939 H     1 <1>   0.0800 
111 H3      -5.7851    -7.4264     4.7188 H     1 <1>   0.0800 
112 C       -3.1471    -8.3784     4.5060 C.3   1 <1>   0.2000 
113 O       -3.9818    -9.4957     4.7534 O.3   1 <1>  -0.6800 
114 H       -3.4114   -10.1902     5.1110 H     1 <1>   0.4000 
115 H2      -2.8288    -7.9391     5.4533 H     1 <1>   0.0800 
116 C       -1.8971    -8.8453     3.7314 C.3   1 <1>   0.2000 
117 H1      -2.2190    -9.3544     2.8206 H     1 <1>   0.0800 
118 O       -1.1621    -9.7531     4.5412 O.3   1 <1>  -0.6800 
119 H       -0.3344    -9.9414     4.0789 H     1 <1>   0.4000 
120 C       -0.9850    -7.6637     3.3435 C.3   1 <1>   0.2000 
121 O        0.0837    -8.1281     2.5169 O.3   1 <1>  -0.6800 
122 H        0.6515    -7.3762     2.3070 H     1 <1>   0.4000 
123 H2      -0.5893    -7.2039     4.2504 H     1 <1>   0.0800 
@<TRIPOS>BOND
  1   1   2  1   
  2   1   6  1   
  3   1  27  1   
  4   1  41  1   
  5   2   3  1   
  6   2   4  1   
  7   2   5  1   
  8   6   7  1   
  9   6   8  1   
 10   6   9  1   
 11   9  10  1   
 12   9  11  1   
 13   9  12  1   
 14  12  13  1   
 15  12  14  1   
 16  12  17  1   
 17  14  15  1   
 18  15  16  1   
 19  15  84  1   
 20  15 100  1   
 21  17  18  1   
 22  17  23  1   
 23  17  27  1   
 24  18  19  1   
 25  18  20  1   
 26  18  22  1   
 27  20  21  1   
 28  23  24  1   
 29  23  25  1   
 30  23  26  1   
 31  27  28  1   
 32  27  29  1   
 33  29  30  1   
 34  29  31  1   
 35  29  32  1   
 36  32  33  1   
 37  32  34  1   
 38  32  40  1   
 39  35  36  1   
 40  35  40  1   
 41  35  47  1   
 42  35  53  1   
 43  36  37  1   
 44  36  38  1   
 45  36  39  1   
 46  40  41  1   
 47  40  43  1   
 48  41  42  1   
 49  41  51  1   
 50  43  44  1   
 51  43  45  1   
 52  43  46  1   
 53  47  48  1   
 54  47  49  1   
 55  47  64  1   
 56  48  61  1   
 57  49  50  1   
 58  49  51  2   
 59  51  52  1   
 60  53  54  1   
 61  53  55  1   
 62  53  56  1   
 63  56  57  1   
 64  56  59  1   
 65  56  60  1   
 66  57  58  1   
 67  60  61  1   
 68  60  64  1   
 69  60  66  1   
 70  61  62  1   
 71  61  63  1   
 72  64  65  1   
 73  64  81  1   
 74  66  67  1   
 75  66  68  1   
 76  66  69  1   
 77  69  70  1   
 78  69  71  1   
 79  69  72  1   
 80  72  73  1   
 81  72  77  1   
 82  72  81  1   
 83  73  74  1   
 84  73  75  1   
 85  73  76  1   
 86  77  78  1   
 87  77  79  1   
 88  77  80  1   
 89  81  82  1   
 90  81  83  1   
 91  84  85  1   
 92  85  86  1   
 93  85  90  1   
 94  85  91  1   
 95  86  87  1   
 96  86  88  1   
 97  86  89  1   
 98  91  92  1   
 99  91  94  1   
100  91  95  1   
101  92  93  1   
102  95  96  1   
103  95  97  1   
104  95 100  1   
105  97  98  1   
106  98  99  1   
107  98 104  1   
108  98 120  1   
109 100 101  1   
110 100 102  1   
111 102 103  1   
112 104 105  1   
113 105 106  1   
114 105 107  1   
115 105 112  1   
116 107 108  1   
117 107 110  1   
118 107 111  1   
119 108 109  1   
120 112 113  1   
121 112 115  1   
122 112 116  1   
123 113 114  1   
124 116 117  1   
125 116 118  1   
126 116 120  1   
127 118 119  1   
128 120 121  1   
129 120 123  1   
130 121 122  1   
@<TRIPOS>SUBSTRUCTURE
  1 ****  14 GROUP 4 **** **** 0

# MOE 2015.10 (io_trps.svl 2015.10)
