@<TRIPOS>MOLECULE
J08_61
33 36 1 0 0 
SMALL
USER_CHARGES


@<TRIPOS>ATOM
  1 C        1.3994     0.7985    -0.1295 C.ar  1 <1>   0.0000 
  2 C        0.1119     1.3892    -0.0428 C.ar  1 <1>  -0.1500 
  3 H       -0.0215     2.4679    -0.0404 H     1 <1>   0.1500 
  4 C       -1.0561     0.6351     0.0582 C.ar  1 <1>  -0.1500 
  5 H       -2.0209     1.1328     0.1188 H     1 <1>   0.1500 
  6 C       -0.9832    -0.7461     0.0833 C.ar  1 <1>  -0.1500 
  7 H       -1.9039    -1.3204     0.1611 H     1 <1>   0.1500 
  8 C        0.2594    -1.3887     0.0174 C.ar  1 <1>  -0.1435 
  9 C        0.2694    -2.8973     0.0615 C.3   1 <1>   0.1435 
 10 H1      -0.7447    -3.3078     0.1197 H     1 <1>   0.0000 
 11 H2       0.8134    -3.2489     0.9441 H     1 <1>   0.0000 
 12 H3       0.7301    -3.3022    -0.8453 H     1 <1>   0.0000 
 13 C        1.4579    -0.6241    -0.0806 C.ar  1 <1>   0.0000 
 14 C        2.7208    -1.2501    -0.1240 C.ar  1 <1>  -0.1500 
 15 H        2.7656    -2.3289    -0.0988 H     1 <1>   0.0000 
 16 C        3.9142    -0.5323    -0.1981 C.ar  1 <1>  -0.1500 
 17 H        4.8598    -1.0539    -0.2124 H     1 <1>   0.0000 
 18 C        3.8835     0.8561    -0.2535 C.ar  1 <1>   0.0530 
 19 C        2.6272     1.5287    -0.2409 C.ar  1 <1>   0.0862 
 20 C        5.0915     1.6635    -0.2918 C.2   1 <1>   0.0870 
 21 C        5.1662     3.0340    -0.2441 C.2   1 <1>  -0.0860 
 22 C        3.9456     3.7962    -0.1810 C.2   1 <1>   0.6560 
 23 O        3.9182     5.0030     0.0204 O.2   1 <1>  -0.5700 
 24 C        2.6413     3.0296    -0.3882 C.2   1 <1>   0.4838 
 25 O        1.6652     3.6781    -0.7416 O.2   1 <1>  -0.5700 
 26 O        6.3371     1.1383    -0.3524 O.3   1 <1>   0.2260 
 27 C        7.2185     2.1695    -0.3325 C.2   1 <1>  -0.0100 
 28 H        8.2691     1.9091    -0.3721 H     1 <1>   0.1500 
 29 C        6.5469     3.3783    -0.2589 C.2   1 <1>  -0.1810 
 30 C        7.1368     4.7394    -0.2116 C.3   1 <1>   0.1810 
 31 H1       6.7718     5.3444    -1.0477 H     1 <1>   0.0000 
 32 H2       8.2292     4.7007    -0.2732 H     1 <1>   0.0000 
 33 H3       6.8673     5.2403     0.7236 H     1 <1>   0.0000 
@<TRIPOS>BOND
  1   1   2  ar  
  2   1  13  ar  
  3   1  19  ar  
  4   2   3  1   
  5   2   4  ar  
  6   4   5  1   
  7   4   6  ar  
  8   6   7  1   
  9   6   8  ar  
 10   8   9  1   
 11   8  13  ar  
 12   9  10  1   
 13   9  11  1   
 14   9  12  1   
 15  13  14  ar  
 16  14  15  1   
 17  14  16  ar  
 18  16  17  1   
 19  16  18  ar  
 20  18  19  ar  
 21  18  20  1   
 22  19  24  1   
 23  20  21  2   
 24  20  26  1   
 25  21  22  1   
 26  21  29  1   
 27  22  23  2   
 28  22  24  1   
 29  24  25  2   
 30  26  27  1   
 31  27  28  1   
 32  27  29  2   
 33  29  30  1   
 34  30  31  1   
 35  30  32  1   
 36  30  33  1   
@<TRIPOS>SUBSTRUCTURE
  1 ****  19 GROUP 4 **** **** 0

# MOE 2015.10 (io_trps.svl 2015.10)
