@<TRIPOS>MOLECULE
JO8_65
47 48 1 0 0 
SMALL
USER_CHARGES


@<TRIPOS>ATOM
  1 C        1.1640     1.0030     0.3800 C.ar  1 <1>  -0.1440 
  2 C        2.5410     1.6150     0.4430 C.3   1 <1>   0.1440 
  3 H1       2.6570     2.1760     1.3790 H     1 <1>   0.0000 
  4 H2       2.6400     2.3590    -0.3590 H     1 <1>   0.0000 
  5 C        3.6320     0.5530     0.3260 C.3   1 <1>   0.0610 
  6 H1       3.5860    -0.1330     1.1790 H     1 <1>   0.0000 
  7 H2       3.5010    -0.0310    -0.5920 H     1 <1>   0.0000 
  8 C        5.0180     1.1670     0.2850 C.2   1 <1>   0.4480 
  9 C        6.1780     0.2000     0.1220 C.3   1 <1>   0.0610 
 10 H1       6.1400    -0.1760    -0.9070 H     1 <1>   0.0000 
 11 H2       6.0380    -0.6340     0.8170 H     1 <1>   0.0000 
 12 C        7.5160     0.8930     0.3950 C.3   1 <1>   0.2800 
 13 H        7.6360     1.7530    -0.2740 H     1 <1>   0.0000 
 14 O        7.5010     1.3840     1.7370 O.3   1 <1>  -0.6800 
 15 H        8.3700     1.8260     1.8660 H     1 <1>   0.4000 
 16 C        8.6840    -0.0800     0.2260 C.3   1 <1>   0.0000 
 17 H1       8.7050    -0.4430    -0.8100 H     1 <1>   0.0000 
 18 H2       8.5390    -0.9550     0.8710 H     1 <1>   0.0000 
 19 C       10.0270     0.5830     0.5520 C.3   1 <1>   0.1440 
 20 H1      10.1680     1.4960    -0.0390 H     1 <1>   0.0000 
 21 H2      10.0440     0.9000     1.6030 H     1 <1>   0.0000 
 22 C       11.1810    -0.3510     0.2830 C.ar  1 <1>  -0.1440 
 23 O        5.2080     2.3840     0.3280 O.2   1 <1>  -0.5700 
 24 C        0.5660     0.7440    -0.8630 C.ar  1 <1>  -0.1500 
 25 H        1.0960     1.0030    -1.7750 H     1 <1>   0.1500 
 26 C       -0.6990     0.1590    -0.9210 C.ar  1 <1>   0.0820 
 27 O       -1.2840    -0.0950    -2.1310 O.3   1 <1>  -0.5320 
 28 H       -0.6900     0.2030    -2.8380 H     1 <1>   0.4500 
 29 C       -1.3750    -0.1720     0.2540 C.ar  1 <1>   0.0820 
 30 O       -2.6160    -0.7440     0.1800 O.3   1 <1>  -0.5320 
 31 H       -2.9430    -0.8990     1.0790 H     1 <1>   0.4500 
 32 C       -0.7890     0.0780     1.4930 C.ar  1 <1>  -0.1500 
 33 H       -1.3000    -0.1740     2.4180 H     1 <1>   0.1500 
 34 C        0.4790     0.6610     1.5550 C.ar  1 <1>  -0.1500 
 35 H        0.9300     0.8490     2.5270 H     1 <1>   0.1500 
 36 C       11.7060    -1.1520     1.3060 C.ar  1 <1>  -0.1500 
 37 H       11.2970    -1.0950     2.3120 H     1 <1>   0.1500 
 38 C       12.7590    -2.0340     1.0460 C.ar  1 <1>  -0.1500 
 39 H       13.1500    -2.6420     1.8560 H     1 <1>   0.1500 
 40 C       13.2840    -2.1190    -0.2420 C.ar  1 <1>   0.0820 
 41 O       14.3110    -2.9810    -0.5110 O.3   1 <1>  -0.5320 
 42 H       14.5440    -3.4520     0.3030 H     1 <1>   0.4500 
 43 C       12.7650    -1.3290    -1.2670 C.ar  1 <1>   0.0820 
 44 O       13.2890    -1.4270    -2.5270 O.3   1 <1>  -0.5320 
 45 H       12.8240    -0.8060    -3.1100 H     1 <1>   0.4500 
 46 C       11.7170    -0.4470    -1.0100 C.ar  1 <1>  -0.1500 
 47 H       11.3030     0.1680    -1.8050 H     1 <1>   0.1500 
@<TRIPOS>BOND
  1   1   2  1   
  2   1  24  ar  
  3   1  34  ar  
  4   2   3  1   
  5   2   4  1   
  6   2   5  1   
  7   5   6  1   
  8   5   7  1   
  9   5   8  1   
 10   8   9  1   
 11   8  23  2   
 12   9  10  1   
 13   9  11  1   
 14   9  12  1   
 15  12  13  1   
 16  12  14  1   
 17  12  16  1   
 18  14  15  1   
 19  16  17  1   
 20  16  18  1   
 21  16  19  1   
 22  19  20  1   
 23  19  21  1   
 24  19  22  1   
 25  22  36  ar  
 26  22  46  ar  
 27  24  25  1   
 28  24  26  ar  
 29  26  27  1   
 30  26  29  ar  
 31  27  28  1   
 32  29  30  1   
 33  29  32  ar  
 34  30  31  1   
 35  32  33  1   
 36  32  34  ar  
 37  34  35  1   
 38  36  37  1   
 39  36  38  ar  
 40  38  39  1   
 41  38  40  ar  
 42  40  41  1   
 43  40  43  ar  
 44  41  42  1   
 45  43  44  1   
 46  43  46  ar  
 47  44  45  1   
 48  46  47  1   
@<TRIPOS>SUBSTRUCTURE
  1 <1>   0 RESIDUE 1 * * 1
# MOE 2007.09 (io_trps.svl 2007.09)
