@<TRIPOS>MOLECULE
J08_10
42 44 1 0 0 
SMALL
USER_CHARGES


@<TRIPOS>ATOM
  1 C        0.9022     0.2900    -0.8806 C.ar  1 <1>   0.0825 
  2 C       -0.1116     0.6043     0.0233 C.ar  1 <1>  -0.1500 
  3 H       -0.4797     1.6227     0.1071 H     1 <1>   0.1500 
  4 C       -0.6525    -0.3999     0.8217 C.ar  1 <1>   0.0825 
  5 O       -1.6426    -0.0521     1.6938 O.3   1 <1>  -0.5325 
  6 H       -1.9265    -0.8429     2.1818 H     1 <1>   0.4500 
  7 C       -0.1951    -1.7133     0.7295 C.ar  1 <1>  -0.1500 
  8 C        2.4363    -1.3242    -1.9392 C.2   1 <1>   0.4694 
  9 C        2.9602    -0.1906    -2.7451 C.2   1 <1>  -0.0140 
 10 C        0.8208    -2.0246    -0.1771 C.ar  1 <1>  -0.1500 
 11 C        1.3666    -1.0187    -0.9804 C.ar  1 <1>   0.0862 
 12 O        2.8643    -2.4675    -2.0495 O.2   1 <1>  -0.5700 
 13 O        1.4020     1.3121    -1.6453 O.3   1 <1>  -0.1592 
 14 H        1.1811    -3.0483    -0.2520 H     1 <1>   0.1500 
 15 C        2.4020     1.0102    -2.5381 C.2   1 <1>  -0.0733 
 16 H        2.6803     1.9096    -3.0754 H     1 <1>   0.1500 
 17 H       -0.6124    -2.5014     1.3491 H     1 <1>   0.1500 
 18 C        4.0214    -0.3614    -3.7530 C.ar  1 <1>   0.0284 
 19 C        3.9158    -1.3588    -4.7313 C.ar  1 <1>  -0.1500 
 20 C        4.9133    -1.5211    -5.6955 C.ar  1 <1>  -0.1500 
 21 C        6.0302    -0.6870    -5.6837 C.ar  1 <1>   0.0825 
 22 O        7.0050    -0.8331    -6.6312 O.3   1 <1>  -0.5325 
 23 H        6.7628    -1.5631    -7.2244 H     1 <1>   0.4500 
 24 C        6.1754     0.3083    -4.7110 C.ar  1 <1>  -0.1435 
 25 C        5.1577     0.4646    -3.7527 C.ar  1 <1>  -0.1500 
 26 H        3.0526    -2.0213    -4.7531 H     1 <1>   0.1500 
 27 H        4.7991    -2.3006    -6.4427 H     1 <1>   0.1500 
 28 C        7.3711     1.2316    -4.6874 C.3   1 <1>   0.2817 
 29 H1       7.6221     1.4717    -3.6489 H     1 <1>   0.0000 
 30 C        7.1552     2.4654    -5.5212 C.2   1 <1>  -0.2882 
 31 H        7.1798     2.2729    -6.5943 H     1 <1>   0.1500 
 32 C        6.9659     3.7328    -5.1043 C.2   1 <1>  -0.2764 
 33 C        6.7931     4.8472    -6.1035 C.3   1 <1>   0.1382 
 34 H1       7.5736     5.6029    -5.9662 H     1 <1>   0.0000 
 35 H2       5.8173     5.3264    -5.9723 H     1 <1>   0.0000 
 36 H3       6.8525     4.4932    -7.1381 H     1 <1>   0.0000 
 37 C        6.8959     4.1745    -3.6692 C.3   1 <1>   0.1382 
 38 H1       6.9448     3.3503    -2.9549 H     1 <1>   0.0000 
 39 H2       5.9537     4.7017    -3.4845 H     1 <1>   0.0000 
 40 H3       7.7219     4.8576    -3.4456 H     1 <1>   0.0000 
 41 H3       8.2589     0.7065    -5.0622 H     1 <1>   0.0000 
 42 H        5.2643     1.2393    -2.9950 H     1 <1>   0.1500 
@<TRIPOS>BOND
  1   1   2  ar  
  2   1  11  ar  
  3   1  13  1   
  4   2   3  1   
  5   2   4  ar  
  6   4   5  1   
  7   4   7  ar  
  8   5   6  1   
  9   7  10  ar  
 10   7  17  1   
 11   8   9  1   
 12   8  11  1   
 13   8  12  2   
 14   9  15  2   
 15   9  18  1   
 16  10  11  ar  
 17  10  14  1   
 18  13  15  1   
 19  15  16  1   
 20  18  19  ar  
 21  18  25  ar  
 22  19  20  ar  
 23  19  26  1   
 24  20  21  ar  
 25  20  27  1   
 26  21  22  1   
 27  21  24  ar  
 28  22  23  1   
 29  24  25  ar  
 30  24  28  1   
 31  25  42  1   
 32  28  29  1   
 33  28  30  1   
 34  28  41  1   
 35  30  31  1   
 36  30  32  2   
 37  32  33  1   
 38  32  37  1   
 39  33  34  1   
 40  33  35  1   
 41  33  36  1   
 42  37  38  1   
 43  37  39  1   
 44  37  40  1   
@<TRIPOS>SUBSTRUCTURE
  1 <1>   0 RESIDUE 1 * * 1
# MOE 2007.09 (io_trps.svl 2007.09)
