@<TRIPOS>MOLECULE
J08_25
50 53 1 0 0 
SMALL
USER_CHARGES


@<TRIPOS>ATOM
  1 C        0.4221     0.2808    -1.6083 C.ar  1 <1>   0.0825 
  2 O        0.8826     0.5518    -2.8705 O.3   1 <1>  -0.1592 
  3 C       -0.9402     0.5029    -1.3880 C.ar  1 <1>  -0.1500 
  4 H       -1.5606     0.8721    -2.1988 H     1 <1>   0.1500 
  5 C       -1.4758     0.2417    -0.1325 C.ar  1 <1>   0.0825 
  6 O       -2.7977     0.4412     0.1381 O.3   1 <1>  -0.5325 
  7 H       -3.2420     0.7951    -0.6509 H     1 <1>   0.4500 
  8 C       -0.6737    -0.2402     0.8969 C.ar  1 <1>  -0.1500 
  9 H       -1.1250    -0.4428     1.8638 H     1 <1>   0.1500 
 10 C        0.6873    -0.4553     0.6689 C.ar  1 <1>   0.0825 
 11 O        1.4571    -0.9503     1.6814 O.3   1 <1>  -0.5325 
 12 H        0.9238    -1.0563     2.4852 H     1 <1>   0.4500 
 13 C        1.2450    -0.1860    -0.5844 C.ar  1 <1>   0.0862 
 14 C        2.6709    -0.3678    -0.8838 C.2   1 <1>   0.4694 
 15 O        3.5130    -0.5685    -0.0159 O.2   1 <1>  -0.5700 
 16 C        3.0712    -0.2922    -2.3145 C.2   1 <1>   0.0911 
 17 O        4.3712    -0.6475    -2.6226 O.3   1 <1>  -0.3567 
 18 C        4.4778    -1.9857    -3.1279 C.3   1 <1>   0.5600 
 19 H        3.9031    -2.0711    -4.0584 H     1 <1>   0.0000 
 20 C        2.1839     0.2022    -3.1949 C.2   1 <1>   0.0483 
 21 C        2.4903     0.4392    -4.6198 C.ar  1 <1>   0.0284 
 22 C        1.5843     0.0050    -5.6036 C.ar  1 <1>  -0.1500 
 23 H        0.6902    -0.5393    -5.3113 H     1 <1>   0.1500 
 24 C        1.8326     0.2832    -6.9452 C.ar  1 <1>   0.0825 
 25 O        0.9748    -0.1091    -7.9385 O.3   1 <1>  -0.5325 
 26 H        0.2483    -0.6099    -7.5268 H     1 <1>   0.4500 
 27 C        2.9710     0.9869    -7.3277 C.ar  1 <1>   0.0825 
 28 O        3.1625     1.2489    -8.6578 O.3   1 <1>  -0.5325 
 29 H        2.3715     0.8803    -9.0993 H     1 <1>   0.4500 
 30 C        3.8789     1.4134    -6.3654 C.ar  1 <1>   0.0825 
 31 O        4.9958     2.1029    -6.7459 O.3   1 <1>  -0.5325 
 32 H        5.5593     2.2428    -5.9679 H     1 <1>   0.4500 
 33 C        3.6401     1.1471    -5.0141 C.ar  1 <1>  -0.1500 
 34 H        4.3382     1.5024    -4.2597 H     1 <1>   0.1500 
 35 O        5.8585    -2.2589    -3.4726 O.3   1 <1>  -0.5600 
 36 C        6.2905    -3.4436    -2.7640 C.3   1 <1>   0.2800 
 37 C        7.0851    -3.0349    -1.5153 C.3   1 <1>   0.2800 
 38 O        8.3804    -2.5798    -1.9038 O.3   1 <1>  -0.6800 
 39 H        8.8241    -2.2528    -1.1026 H     1 <1>   0.4000 
 40 H2       7.2307    -3.8831    -0.8405 H     1 <1>   0.0000 
 41 H3       6.5966    -2.2172    -0.9761 H     1 <1>   0.0000 
 42 H2       6.9386    -4.0188    -3.4342 H     1 <1>   0.0000 
 43 C        5.0019    -4.1980    -2.4697 C.3   1 <1>   0.2800 
 44 O        5.0777    -5.1395    -1.4140 O.3   1 <1>  -0.6800 
 45 H        5.6386    -5.8793    -1.7095 H     1 <1>   0.4000 
 46 H2       4.6347    -4.7161    -3.3646 H     1 <1>   0.0000 
 47 C        4.0665    -3.0627    -2.1166 C.3   1 <1>   0.2800 
 48 H1       4.2132    -2.7455    -1.0798 H     1 <1>   0.0000 
 49 O        2.7028    -3.4512    -2.2574 O.3   1 <1>  -0.6800 
 50 H        2.5800    -4.2102    -1.6563 H     1 <1>   0.4000 
@<TRIPOS>BOND
  1   1   2  1   
  2   1   3  ar  
  3   1  13  ar  
  4   2  20  1   
  5   3   4  1   
  6   3   5  ar  
  7   5   6  1   
  8   5   8  ar  
  9   6   7  1   
 10   8   9  1   
 11   8  10  ar  
 12  10  11  1   
 13  10  13  ar  
 14  11  12  1   
 15  13  14  1   
 16  14  15  2   
 17  14  16  1   
 18  16  17  1   
 19  16  20  2   
 20  17  18  1   
 21  18  19  1   
 22  18  35  1   
 23  18  47  1   
 24  20  21  1   
 25  21  22  ar  
 26  21  33  ar  
 27  22  23  1   
 28  22  24  ar  
 29  24  25  1   
 30  24  27  ar  
 31  25  26  1   
 32  27  28  1   
 33  27  30  ar  
 34  28  29  1   
 35  30  31  1   
 36  30  33  ar  
 37  31  32  1   
 38  33  34  1   
 39  35  36  1   
 40  36  37  1   
 41  36  42  1   
 42  36  43  1   
 43  37  38  1   
 44  37  40  1   
 45  37  41  1   
 46  38  39  1   
 47  43  44  1   
 48  43  46  1   
 49  43  47  1   
 50  44  45  1   
 51  47  48  1   
 52  47  49  1   
 53  49  50  1   
@<TRIPOS>SUBSTRUCTURE
  1 <1>   0 RESIDUE 1 * * 1
# MOE 2007.09 (io_trps.svl 2007.09)
