@<TRIPOS>MOLECULE
J08_62
35 38 1 0 0 
SMALL
USER_CHARGES


@<TRIPOS>ATOM
  1 C        1.4064     0.8260    -0.2247 C.ar  1 <1>   0.0000 
  2 C        0.1151     1.4134    -0.2451 C.ar  1 <1>  -0.1500 
  3 H        0.0341     2.4864    -0.3372 H     1 <1>   0.0000 
  4 C       -1.0530     0.6586    -0.1508 C.ar  1 <1>  -0.1500 
  5 H       -2.0162     1.1469    -0.1660 H     1 <1>   0.0000 
  6 C       -0.9746    -0.7185    -0.0376 C.ar  1 <1>  -0.1500 
  7 H       -1.8791    -1.3033     0.0421 H     1 <1>   0.0000 
  8 C        0.2717    -1.3578    -0.0259 C.ar  1 <1>  -0.1435 
  9 C        0.2862    -2.8626     0.0886 C.3   1 <1>   0.1435 
 10 H1      -0.7260    -3.2720     0.1773 H     1 <1>   0.0000 
 11 H2       0.8392    -3.1716     0.9815 H     1 <1>   0.0000 
 12 H3       0.7405    -3.3075    -0.8026 H     1 <1>   0.0000 
 13 C        1.4694    -0.5927    -0.1277 C.ar  1 <1>   0.0000 
 14 C        2.7357    -1.2113    -0.1445 C.ar  1 <1>  -0.1500 
 15 H        2.8219    -2.2953    -0.0793 H     1 <1>   0.1500 
 16 C        3.9217    -0.4864    -0.2637 C.ar  1 <1>  -0.1500 
 17 H        4.8506    -1.0516    -0.2962 H     1 <1>   0.1500 
 18 C        3.8912     0.9037    -0.3528 C.ar  1 <1>   0.0284 
 19 C        2.6330     1.5584    -0.3166 C.ar  1 <1>   0.0862 
 20 C        5.1236     1.6832    -0.5044 C.2   1 <1>   0.1196 
 21 C        5.1320     2.9841    -0.7483 C.2   1 <1>  -0.1238 
 22 C        3.9004     3.7421    -0.8514 C.2   1 <1>   0.5556 
 23 O        3.8598     4.8774    -1.3008 O.2   1 <1>  -0.5700 
 24 C        2.6574     3.0494    -0.3474 C.2   1 <1>   0.4838 
 25 O        1.7541     3.7525     0.0846 O.2   1 <1>  -0.5700 
 26 O        6.3678     1.0957    -0.4835 O.3   1 <1>   0.0017 
 27 C        7.2278     2.0871    -1.0425 C.3   1 <1>   0.2830 
 28 H1       7.4509     1.8371    -2.0797 H     1 <1>   0.0000 
 29 H2       8.1555     2.1323    -0.4721 H     1 <1>   0.0000 
 30 C        6.5115     3.4528    -0.9793 C.3   1 <1>   0.1382 
 31 H        6.6450     4.0905    -1.8532 H     1 <1>   0.0000 
 32 C        7.0293     4.3294     0.1552 C.3   1 <1>   0.0000 
 33 H1       6.4649     5.2664     0.2136 H     1 <1>   0.0000 
 34 H2       8.0826     4.5818    -0.0064 H     1 <1>   0.0000 
 35 H3       6.9500     3.8296     1.1275 H     1 <1>   0.0000 
@<TRIPOS>BOND
  1   1   2  ar  
  2   1  13  ar  
  3   1  19  ar  
  4   2   3  1   
  5   2   4  ar  
  6   4   5  1   
  7   4   6  ar  
  8   6   7  1   
  9   6   8  ar  
 10   8   9  1   
 11   8  13  ar  
 12   9  10  1   
 13   9  11  1   
 14   9  12  1   
 15  13  14  ar  
 16  14  15  1   
 17  14  16  ar  
 18  16  17  1   
 19  16  18  ar  
 20  18  19  ar  
 21  18  20  1   
 22  19  24  1   
 23  20  21  2   
 24  20  26  1   
 25  21  22  1   
 26  21  30  1   
 27  22  23  2   
 28  22  24  1   
 29  24  25  2   
 30  26  27  1   
 31  27  28  1   
 32  27  29  1   
 33  27  30  1   
 34  30  31  1   
 35  30  32  1   
 36  32  33  1   
 37  32  34  1   
 38  32  35  1   
@<TRIPOS>SUBSTRUCTURE
  1 ****  19 GROUP 4 **** **** 0

# MOE 2015.10 (io_trps.svl 2015.10)
