@<TRIPOS>MOLECULE
J08_22
32 34 1 0 0 
SMALL
USER_CHARGES


@<TRIPOS>ATOM
  1 C        1.0059    -0.0957    -0.9989 C.ar  1 <1>   0.0825 
  2 O        1.7607     0.0240    -2.1353 O.3   1 <1>  -0.1592 
  3 C       -0.1804     0.6395    -0.9779 C.ar  1 <1>  -0.1500 
  4 H       -0.4575     1.2629    -1.8236 H     1 <1>   0.1500 
  5 C       -1.0106     0.5697     0.1320 C.ar  1 <1>   0.0825 
  6 O       -2.1589     1.3044     0.1082 O.3   1 <1>  -0.5325 
  7 H       -2.6453     1.1718     0.9388 H     1 <1>   0.4500 
  8 C       -0.6742    -0.2262     1.2220 C.ar  1 <1>  -0.1500 
  9 H       -1.3319    -0.2770     2.0837 H     1 <1>   0.1500 
 10 C        0.5179    -0.9598     1.1941 C.ar  1 <1>   0.0825 
 11 O        0.8300    -1.7424     2.2696 O.3   1 <1>  -0.5325 
 12 H        0.1468    -1.6693     2.9544 H     1 <1>   0.4500 
 13 C        1.3700    -0.8970     0.0836 C.ar  1 <1>   0.0862 
 14 C        2.6423    -1.6369    -0.0036 C.2   1 <1>   0.4694 
 15 C        3.4202    -1.4982    -1.2662 C.2   1 <1>   0.0911 
 16 O        4.6089    -2.2008    -1.3583 O.3   1 <1>  -0.5267 
 17 H        5.0827    -1.9381    -2.1646 H     1 <1>   0.4500 
 18 C        2.9270    -0.7058    -2.2317 C.2   1 <1>   0.0483 
 19 C        3.5873    -0.5349    -3.5315 C.ar  1 <1>   0.0284 
 20 O        3.0614    -2.3404     0.9080 O.2   1 <1>  -0.5700 
 21 C        3.6141    -1.5938    -4.4527 C.ar  1 <1>  -0.1500 
 22 H        3.1452    -2.5429    -4.2069 H     1 <1>   0.1500 
 23 C        4.2373    -1.4080    -5.6806 C.ar  1 <1>   0.0825 
 24 O        4.2998    -2.3979    -6.6222 O.3   1 <1>  -0.5325 
 25 H        3.8321    -3.1788    -6.2771 H     1 <1>   0.4500 
 26 C        4.8270    -0.1872    -5.9979 C.ar  1 <1>   0.0825 
 27 O        5.4340    -0.0316    -7.2120 O.3   1 <1>  -0.5325 
 28 H        5.3183    -0.9014    -7.6463 H     1 <1>   0.4500 
 29 C        4.8027     0.8698    -5.1007 C.ar  1 <1>  -0.1500 
 30 H        5.2591     1.8200    -5.3592 H     1 <1>   0.1500 
 31 C        4.1781     0.6960    -3.8633 C.ar  1 <1>  -0.1500 
 32 H        4.1531     1.5266    -3.1606 H     1 <1>   0.1500 
@<TRIPOS>BOND
  1   1   2  1   
  2   1   3  ar  
  3   1  13  ar  
  4   2  18  1   
  5   3   4  1   
  6   3   5  ar  
  7   5   6  1   
  8   5   8  ar  
  9   6   7  1   
 10   8   9  1   
 11   8  10  ar  
 12  10  11  1   
 13  10  13  ar  
 14  11  12  1   
 15  13  14  1   
 16  14  15  1   
 17  14  20  2   
 18  15  16  1   
 19  15  18  2   
 20  16  17  1   
 21  18  19  1   
 22  19  21  ar  
 23  19  31  ar  
 24  21  22  1   
 25  21  23  ar  
 26  23  24  1   
 27  23  26  ar  
 28  24  25  1   
 29  26  27  1   
 30  26  29  ar  
 31  27  28  1   
 32  29  30  1   
 33  29  31  ar  
 34  31  32  1   
@<TRIPOS>SUBSTRUCTURE
  1 <1>   0 RESIDUE 1 * * 1
# MOE 2007.09 (io_trps.svl 2007.09)
