@<TRIPOS>MOLECULE
J12_08
39 41 1 0 0 
SMALL
USER_CHARGES


@<TRIPOS>ATOM
  1 C        0.4963     1.2402    -0.2876 C.3   1 <1>  -0.1950 
  2 H        1.5009     0.8321    -0.2025 H     1 <1>   0.1000 
  3 C       -0.3198     1.2394     0.9832 C.3   1 <1>  -0.0600 
  4 C        0.2068     2.5539     0.4286 C.3   1 <1>  -0.1900 
  5 C       -0.7439     3.5668    -0.1639 C.3   1 <1>   0.0950 
  6 H1      -1.6432     3.1251    -0.6009 H     1 <1>   0.0000 
  7 H2      -0.2387     4.1395    -0.9488 H     1 <1>   0.0000 
  8 H3      -1.0746     4.2694     0.6089 H     1 <1>   0.0000 
  9 C        1.3613     3.1965     1.1617 C.3   1 <1>   0.0950 
 10 H1       0.9916     3.8093     1.9905 H     1 <1>   0.0000 
 11 H2       1.9317     3.8394     0.4832 H     1 <1>   0.0000 
 12 H3       2.0507     2.4535     1.5774 H     1 <1>   0.0000 
 13 H2       0.1902     0.8417     1.8592 H     1 <1>   0.1000 
 14 C       -1.7471     0.9178     0.9898 C.2   1 <1>  -0.1782 
 15 C       -2.3946     0.0723    -0.0876 C.3   1 <1>   0.1382 
 16 C       -1.5549    -1.0711    -0.7011 C.3   1 <1>   0.0000 
 17 H       -2.2497    -1.7055    -1.2704 H     1 <1>   0.0000 
 18 C       -0.9011    -2.0027     0.3320 C.3   1 <1>   0.0000 
 19 H1      -0.1098    -1.5045     0.8984 H     1 <1>   0.0000 
 20 H2      -0.4463    -2.8637    -0.1714 H     1 <1>   0.0000 
 21 H3      -1.6295    -2.3997     1.0438 H     1 <1>   0.0000 
 22 C       -0.4933    -0.5763    -1.7202 C.3   1 <1>   0.0000 
 23 H1      -0.9025    -0.7271    -2.7284 H     1 <1>   0.0000 
 24 H2       0.4023    -1.2088    -1.6711 H     1 <1>   0.0000 
 25 C       -0.0781     0.8943    -1.6235 C.3   1 <1>   0.0950 
 26 H1      -0.9185     1.5346    -1.9041 H     1 <1>   0.0000 
 27 H2       0.6904     1.0866    -2.3830 H     1 <1>   0.0000 
 28 C       -2.6552     1.2604     1.9219 C.2   1 <1>  -0.2764 
 29 C       -2.4506     2.0985     3.1351 C.3   1 <1>   0.1382 
 30 H1      -1.4213     2.4594     3.2218 H     1 <1>   0.0000 
 31 H2      -2.6798     1.5225     4.0371 H     1 <1>   0.0000 
 32 H3      -3.1085     2.9728     3.1057 H     1 <1>   0.0000 
 33 C       -4.0067     0.6871     1.6265 C.3   1 <1>   0.1382 
 34 H1      -4.6632     1.4531     1.2005 H     1 <1>   0.0000 
 35 H2      -4.4827     0.2600     2.5144 H     1 <1>   0.0000 
 36 C       -3.6786    -0.4045     0.6123 C.3   1 <1>   0.0000 
 37 H1      -4.4982    -0.5532    -0.0992 H     1 <1>   0.0000 
 38 H2      -3.5331    -1.3558     1.1363 H     1 <1>   0.0000 
 39 H       -2.7131     0.7406    -0.8999 H     1 <1>   0.0000 
@<TRIPOS>BOND
  1   1   2  1   
  2   1   3  1   
  3   1   4  1   
  4   1  25  1   
  5   3   4  1   
  6   3  13  1   
  7   3  14  1   
  8   4   5  1   
  9   4   9  1   
 10   5   6  1   
 11   5   7  1   
 12   5   8  1   
 13   9  10  1   
 14   9  11  1   
 15   9  12  1   
 16  14  15  1   
 17  14  28  2   
 18  15  16  1   
 19  15  36  1   
 20  15  39  1   
 21  16  17  1   
 22  16  18  1   
 23  16  22  1   
 24  18  19  1   
 25  18  20  1   
 26  18  21  1   
 27  22  23  1   
 28  22  24  1   
 29  22  25  1   
 30  25  26  1   
 31  25  27  1   
 32  28  29  1   
 33  28  33  1   
 34  29  30  1   
 35  29  31  1   
 36  29  32  1   
 37  33  34  1   
 38  33  35  1   
 39  33  36  1   
 40  36  37  1   
 41  36  38  1   
@<TRIPOS>SUBSTRUCTURE
  1 <1>   0 RESIDUE 1 * * 1
# MOE 2007.09 (io_trps.svl 2007.09)
