@<TRIPOS>MOLECULE
J12_03
26 27 1 0 0 
SMALL
USER_CHARGES


@<TRIPOS>ATOM
  1 C        0.9337     0.5792    -0.4249 C.3   1 <1>   0.0000 
  2 H1       1.0611     1.3496     0.3443 H     1 <1>   0.0000 
  3 H2       1.6948     0.7811    -1.1882 H     1 <1>   0.0000 
  4 C       -0.4716     0.6872    -1.0469 C.3   1 <1>   0.0000 
  5 H       -0.5816     1.5908    -1.6555 H     1 <1>   0.0000 
  6 C       -1.6790     0.4004    -0.0548 C.3   1 <1>   0.0000 
  7 C       -3.0655     0.8206    -0.5802 C.3   1 <1>   0.0000 
  8 H1      -3.8573     0.4006     0.0502 H     1 <1>   0.0000 
  9 H2      -3.2625     0.4923    -1.6037 H     1 <1>   0.0000 
 10 H3      -3.1658     1.9117    -0.5670 H     1 <1>   0.0000 
 11 C       -1.5454     0.9271     1.3801 C.3   1 <1>   0.0000 
 12 H1      -0.5914     0.6781     1.8511 H     1 <1>   0.0000 
 13 H2      -2.3346     0.5124     2.0173 H     1 <1>   0.0000 
 14 H3      -1.6361     2.0190     1.3987 H     1 <1>   0.0000 
 15 C       -1.3002    -1.1195    -0.3220 C.3   1 <1>   0.1160 
 16 C       -0.8684    -0.6454    -1.7556 C.3   1 <1>   0.0000 
 17 H1      -0.0623    -1.2030    -2.2447 H     1 <1>   0.0000 
 18 H2      -1.6796    -0.5679    -2.4873 H     1 <1>   0.0000 
 19 H2      -2.1342    -1.8290    -0.3103 H     1 <1>   0.0000 
 20 C       -0.1014    -1.5647     0.4690 C.2   1 <1>  -0.2542 
 21 C       -0.2300    -2.5148     1.4037 C.2   1 <1>  -0.3000 
 22 H1       0.6196    -2.8306     2.0009 H     1 <1>   0.1500 
 23 H2      -1.1809    -3.0006     1.5979 H     1 <1>   0.1500 
 24 C        1.1832    -0.8238     0.1745 C.3   1 <1>   0.1382 
 25 H1       1.7537    -1.4152    -0.5534 H     1 <1>   0.0000 
 26 H2       1.8114    -0.7353     1.0683 H     1 <1>   0.0000 
@<TRIPOS>BOND
  1   1   2  1   
  2   1   3  1   
  3   1   4  1   
  4   1  24  1   
  5   4   5  1   
  6   4   6  1   
  7   4  16  1   
  8   6   7  1   
  9   6  11  1   
 10   6  15  1   
 11   7   8  1   
 12   7   9  1   
 13   7  10  1   
 14  11  12  1   
 15  11  13  1   
 16  11  14  1   
 17  15  16  1   
 18  15  19  1   
 19  15  20  1   
 20  16  17  1   
 21  16  18  1   
 22  20  21  2   
 23  20  24  1   
 24  21  22  1   
 25  21  23  1   
 26  24  25  1   
 27  24  26  1   
@<TRIPOS>SUBSTRUCTURE
  1 <1>   0 RESIDUE 1 * * 1
# MOE 2007.09 (io_trps.svl 2007.09)
