@<TRIPOS>MOLECULE
J13_02
36 39 1 0 0 
SMALL
USER_CHARGES


@<TRIPOS>ATOM
  1 C        1.3518     0.6985     0.6230 C.ar  1 <1>   0.0862 
  2 C        0.1344     1.3609     0.8071 C.ar  1 <1>  -0.1500 
  3 H        0.0373     2.4164     0.5658 H     1 <1>   0.1500 
  4 C       -0.9617     0.6577     1.3053 C.ar  1 <1>  -0.1500 
  5 H       -1.9121     1.1646     1.4524 H     1 <1>   0.1500 
  6 C       -0.8382    -0.6973     1.6143 C.ar  1 <1>  -0.1500 
  7 H       -1.6928    -1.2462     2.0021 H     1 <1>   0.1500 
  8 C        0.3827    -1.3528     1.4255 C.ar  1 <1>  -0.1500 
  9 H        0.4714    -2.4089     1.6677 H     1 <1>   0.1500 
 10 C        1.4924    -0.6641     0.9284 C.ar  1 <1>   0.1790 
 11 N        2.7010    -1.3690     0.7528 N.2   1 <1>  -0.6290 
 12 C        3.7026    -0.6916     0.3015 C.2   1 <1>   0.4490 
 13 N        3.6589     0.6561    -0.0124 N.am  1 <1>  -0.4201 
 14 C        2.5245     1.4245     0.1018 C.2   1 <1>   0.5438 
 15 O        2.4551     2.6114    -0.1979 O.2   1 <1>  -0.5700 
 16 C        5.0856    -1.2300     0.0231 C.3   1 <1>   0.2045 
 17 C        5.2413    -2.0043    -1.2794 C.ar  1 <1>  -0.1435 
 18 H2       5.3644    -1.8781     0.8625 H     1 <1>   0.0000 
 19 C        5.9067     0.0753     0.0225 C.3   1 <1>   0.0000 
 20 H1       6.8230     0.0447    -0.5744 H     1 <1>   0.0000 
 21 H2       6.1919     0.3143     1.0557 H     1 <1>   0.0000 
 22 C        4.9354     1.1323    -0.4784 C.3   1 <1>   0.3001 
 23 H1       4.9052     1.1762    -1.5726 H     1 <1>   0.0000 
 24 H2       5.1492     2.1325    -0.0903 H     1 <1>   0.0000 
 25 C        4.2287    -1.9938    -2.2611 C.ar  1 <1>  -0.1500 
 26 H        3.2996    -1.4493    -2.1101 H     1 <1>   0.1500 
 27 C        4.3791    -2.6821    -3.4657 C.ar  1 <1>  -0.1500 
 28 H        3.5847    -2.6603    -4.2070 H     1 <1>   0.1500 
 29 C        5.5441    -3.3934    -3.7157 C.ar  1 <1>  -0.1500 
 30 H        5.6661    -3.9295    -4.6523 H     1 <1>   0.1500 
 31 C        6.5567    -3.4176    -2.7584 C.ar  1 <1>  -0.1500 
 32 H        7.4621    -3.9802    -2.9708 H     1 <1>   0.1500 
 33 C        6.4246    -2.7340    -1.5390 C.ar  1 <1>   0.1000 
 34 N        7.4731    -2.7991    -0.6304 N.pl3 1 <1>  -0.9000 
 35 H1       8.3111    -3.3156    -0.8592 H     1 <1>   0.4000 
 36 H2       7.4297    -2.3459     0.2695 H     1 <1>   0.4000 
@<TRIPOS>BOND
  1   1   2  ar  
  2   1  10  ar  
  3   1  14  1   
  4   2   3  1   
  5   2   4  ar  
  6   4   5  1   
  7   4   6  ar  
  8   6   7  1   
  9   6   8  ar  
 10   8   9  1   
 11   8  10  ar  
 12  10  11  1   
 13  11  12  2   
 14  12  13  1   
 15  12  16  1   
 16  13  14  am  
 17  13  22  1   
 18  14  15  2   
 19  16  17  1   
 20  16  18  1   
 21  16  19  1   
 22  17  25  ar  
 23  17  33  ar  
 24  19  20  1   
 25  19  21  1   
 26  19  22  1   
 27  22  23  1   
 28  22  24  1   
 29  25  26  1   
 30  25  27  ar  
 31  27  28  1   
 32  27  29  ar  
 33  29  30  1   
 34  29  31  ar  
 35  31  32  1   
 36  31  33  ar  
 37  33  34  1   
 38  34  35  1   
 39  34  36  1   
@<TRIPOS>SUBSTRUCTURE
  1 <1>   0 RESIDUE 1 * * 1
# MOE 2007.09 (io_trps.svl 2007.09)
