@<TRIPOS>MOLECULE
J14_12
27 29 1 0 0 
SMALL
USER_CHARGES


@<TRIPOS>ATOM
  1 C        1.2669     0.7149    -0.0045 C.ar  1 <1>   0.0000 
  2 C        0.0943     1.4698    -0.1168 C.ar  1 <1>  -0.1516 
  3 C       -1.1616     0.8831    -0.3088 C.ar  1 <1>  -0.1500 
  4 H       -2.0643     1.4779    -0.3944 H     1 <1>   0.1500 
  5 C       -1.2108    -0.5089    -0.3858 C.ar  1 <1>   0.0825 
  6 O       -2.4392    -1.0789    -0.5742 O.3   1 <1>  -0.5325 
  7 H       -2.3284    -2.0427    -0.6115 H     1 <1>   0.4500 
  8 C       -0.0665    -1.2935    -0.2761 C.ar  1 <1>  -0.1500 
  9 H       -0.1196    -2.3764    -0.3366 H     1 <1>   0.1500 
 10 C        1.1821    -0.6896    -0.0833 C.ar  1 <1>  -0.1500 
 11 H        2.0758    -1.3006     0.0034 H     1 <1>   0.1500 
 12 C        2.3247     1.6389     0.1804 C.2   1 <1>  -0.1810 
 13 C        1.7955     2.9107     0.1715 C.2   1 <1>  -0.2366 
 14 N        0.4437     2.7997     0.0015 N.pl3 1 <1>   0.0332 
 15 H       -0.2126     3.5674    -0.0362 H     1 <1>   0.2700 
 16 C        3.7823     1.4642     0.3910 C.3   1 <1>   0.1810 
 17 H1       3.9710     1.3312     1.4632 H     1 <1>   0.0000 
 18 H2       4.1579     0.5755    -0.1269 H     1 <1>   0.0000 
 19 C        4.5252     2.7168    -0.1097 C.3   1 <1>   0.2460 
 20 H1       5.5515     2.6978     0.2735 H     1 <1>   0.0000 
 21 H2       4.5966     2.6955    -1.2047 H     1 <1>   0.0000 
 22 N        3.9057     4.0098     0.2793 N.2   1 <1>  -0.6960 
 23 C        2.6154     4.0819     0.3454 C.2   1 <1>   0.4740 
 24 C        1.9586     5.4037     0.6310 C.3   1 <1>   0.0610 
 25 H1       2.7123     6.1805     0.7887 H     1 <1>   0.0000 
 26 H2       1.3399     5.3230     1.5294 H     1 <1>   0.0000 
 27 H3       1.3271     5.6910    -0.2146 H     1 <1>   0.0000 
@<TRIPOS>BOND
  1   1   2  ar  
  2   1  10  ar  
  3   1  12  1   
  4   2   3  ar  
  5   2  14  1   
  6   3   4  1   
  7   3   5  ar  
  8   5   6  1   
  9   5   8  ar  
 10   6   7  1   
 11   8   9  1   
 12   8  10  ar  
 13  10  11  1   
 14  12  13  2   
 15  12  16  1   
 16  13  14  1   
 17  13  23  1   
 18  14  15  1   
 19  16  17  1   
 20  16  18  1   
 21  16  19  1   
 22  19  20  1   
 23  19  21  1   
 24  19  22  1   
 25  22  23  2   
 26  23  24  1   
 27  24  25  1   
 28  24  26  1   
 29  24  27  1   
@<TRIPOS>SUBSTRUCTURE
  1 <1>   0 RESIDUE 1 * * 1
# MOE 2007.09 (io_trps.svl 2007.09)
