@<TRIPOS>MOLECULE
J14_17
41 43 1 0 0 
SMALL
USER_CHARGES


@<TRIPOS>ATOM
  1 C        1.3747     0.7805     0.2651 C.ar  1 <1>   0.0000 
  2 C        0.1354     1.4087     0.3565 C.ar  1 <1>  -0.1516 
  3 C       -1.0840     0.7384     0.1902 C.ar  1 <1>  -0.1500 
  4 H       -2.0106     1.2925     0.2738 H     1 <1>   0.1500 
  5 C       -1.0510    -0.6368    -0.0752 C.ar  1 <1>   0.0825 
  6 O       -2.1744    -1.4092    -0.2572 O.3   1 <1>  -0.3625 
  7 C       -3.4387    -0.7647    -0.1854 C.3   1 <1>   0.2800 
  8 H1      -4.2095    -1.5215    -0.3605 H     1 <1>   0.0000 
  9 H2      -3.5393    -0.0026    -0.9652 H     1 <1>   0.0000 
 10 H3      -3.6103    -0.3409     0.8095 H     1 <1>   0.0000 
 11 C        0.1784    -1.3133    -0.1655 C.ar  1 <1>   0.0825 
 12 O        0.1037    -2.6636    -0.4216 O.3   1 <1>  -0.3625 
 13 C        1.3237    -3.3875    -0.5081 C.3   1 <1>   0.2800 
 14 H1       1.0767    -4.4343    -0.7099 H     1 <1>   0.0000 
 15 H2       1.8722    -3.3533     0.4390 H     1 <1>   0.0000 
 16 H3       1.9397    -3.0266    -1.3384 H     1 <1>   0.0000 
 17 C        1.3839    -0.6104     0.0039 C.ar  1 <1>  -0.1500 
 18 H        2.3342    -1.1224    -0.0547 H     1 <1>   0.1500 
 19 C        2.3921     1.7852     0.4816 C.ar  1 <1>   0.0000 
 20 C        1.7149     2.9821     0.7284 C.ar  1 <1>  -0.1516 
 21 N        0.3693     2.7314     0.6328 N.pl3 1 <1>   0.0332 
 22 H       -0.3551     3.4255     0.7529 H     1 <1>   0.2700 
 23 C        3.8151     1.7895     0.5016 C.ar  1 <1>  -0.1435 
 24 C        4.6560     0.5591     0.2625 C.3   1 <1>   0.1435 
 25 C        4.9033    -0.2160     1.5481 C.3   1 <1>   0.0000 
 26 H1       5.4960    -1.1125     1.3403 H     1 <1>   0.0000 
 27 H2       3.9638    -0.5321     2.0133 H     1 <1>   0.0000 
 28 H3       5.4509     0.3895     2.2782 H     1 <1>   0.0000 
 29 H2       5.6119     0.8100    -0.2050 H     1 <1>   0.0000 
 30 H3       4.1651    -0.0845    -0.4732 H     1 <1>   0.0000 
 31 C        4.3883     3.0336     0.8248 C.ar  1 <1>   0.3962 
 32 N        3.7066     4.1833     1.0741 N.ar  1 <1>  -0.6200 
 33 C        2.3650     4.1704     1.0169 C.ar  1 <1>   0.1600 
 34 H        1.8530     5.1045     1.2132 H     1 <1>   0.1500 
 35 C        5.8489     3.1899     0.9223 C.2   1 <1>   0.6338 
 36 O        6.6344     2.9612     0.0139 O.2   1 <1>  -0.5700 
 37 O        6.1562     3.5988     2.1819 O.3   1 <1>  -0.4300 
 38 C        7.5524     3.7912     2.4101 C.3   1 <1>   0.2800 
 39 H1       7.6845     4.1297     3.4414 H     1 <1>   0.0000 
 40 H2       7.9482     4.5597     1.7387 H     1 <1>   0.0000 
 41 H3       8.0936     2.8485     2.2818 H     1 <1>   0.0000 
@<TRIPOS>BOND
  1   1   2  ar  
  2   1  17  ar  
  3   1  19  1   
  4   2   3  ar  
  5   2  21  1   
  6   3   4  1   
  7   3   5  ar  
  8   5   6  1   
  9   5  11  ar  
 10   6   7  1   
 11   7   8  1   
 12   7   9  1   
 13   7  10  1   
 14  11  12  1   
 15  11  17  ar  
 16  12  13  1   
 17  13  14  1   
 18  13  15  1   
 19  13  16  1   
 20  17  18  1   
 21  19  20  ar  
 22  19  23  ar  
 23  20  21  1   
 24  20  33  ar  
 25  21  22  1   
 26  23  24  1   
 27  23  31  ar  
 28  24  25  1   
 29  24  29  1   
 30  24  30  1   
 31  25  26  1   
 32  25  27  1   
 33  25  28  1   
 34  31  32  ar  
 35  31  35  1   
 36  32  33  ar  
 37  33  34  1   
 38  35  36  2   
 39  35  37  1   
 40  37  38  1   
 41  38  39  1   
 42  38  40  1   
 43  38  41  1   
@<TRIPOS>SUBSTRUCTURE
  1 <1>   0 RESIDUE 1 * * 1
# MOE 2007.09 (io_trps.svl 2007.09)
