@<TRIPOS>MOLECULE
J14_08
28 29 1 0 0 
SMALL
USER_CHARGES


@<TRIPOS>ATOM
  1 C        1.2360     0.8147     0.0239 C.2   1 <1>   0.5412 
  2 O        2.2124     1.5456    -0.0663 O.2   1 <1>  -0.5700 
  3 C       -0.0702     1.3366     0.4436 C.2   1 <1>  -0.1356 
  4 H       -0.1249     2.3930     0.6670 H     1 <1>   0.1500 
  5 C       -1.1101     0.4999     0.5288 C.2   1 <1>   0.1534 
  6 O       -2.3551     0.9529     0.9195 O.3   1 <1>  -0.5267 
  7 H       -2.3080     1.9082     1.0898 H     1 <1>   0.4500 
  8 O       -1.0007    -0.8503     0.2341 O.3   1 <1>  -0.1534 
  9 C        0.2210    -1.3694    -0.1656 C.2   1 <1>   0.0767 
 10 C        0.2286    -2.7944    -0.4518 C.2   1 <1>  -0.1500 
 11 H        1.1877    -3.2090    -0.7558 H     1 <1>   0.1500 
 12 C       -0.8358    -3.6054    -0.3522 C.2   1 <1>  -0.1784 
 13 H       -1.7982    -3.2197    -0.0238 H     1 <1>   0.1500 
 14 C       -0.7977    -5.0461    -0.6378 C.ar  1 <1>   0.0284 
 15 C        1.3220    -0.6184    -0.2826 C.2   1 <1>  -0.1356 
 16 H        2.2852    -1.0024    -0.5925 H     1 <1>   0.1500 
 17 C       -1.5349    -5.9160     0.1831 C.ar  1 <1>  -0.1500 
 18 H       -2.0925    -5.5211     1.0276 H     1 <1>   0.1500 
 19 C       -1.5348    -7.2813    -0.0877 C.ar  1 <1>   0.0825 
 20 O       -2.2246    -8.1808     0.6788 O.3   1 <1>  -0.5325 
 21 H       -2.6875    -7.6932     1.3825 H     1 <1>   0.4500 
 22 C       -0.8210    -7.7870    -1.1695 C.ar  1 <1>   0.0825 
 23 O       -0.8368    -9.1303    -1.4159 O.3   1 <1>  -0.5325 
 24 H       -1.4046    -9.4945    -0.7065 H     1 <1>   0.4500 
 25 C       -0.1012    -6.9442    -2.0010 C.ar  1 <1>  -0.1500 
 26 H        0.4441    -7.3465    -2.8490 H     1 <1>   0.1500 
 27 C       -0.0945    -5.5709    -1.7369 C.ar  1 <1>  -0.1500 
 28 H        0.4565    -4.9153    -2.4073 H     1 <1>   0.1500 
@<TRIPOS>BOND
  1   1   2  2   
  2   1   3  1   
  3   1  15  1   
  4   3   4  1   
  5   3   5  2   
  6   5   6  1   
  7   5   8  1   
  8   6   7  1   
  9   8   9  1   
 10   9  10  1   
 11   9  15  2   
 12  10  11  1   
 13  10  12  2   
 14  12  13  1   
 15  12  14  1   
 16  14  17  ar  
 17  14  27  ar  
 18  15  16  1   
 19  17  18  1   
 20  17  19  ar  
 21  19  20  1   
 22  19  22  ar  
 23  20  21  1   
 24  22  23  1   
 25  22  25  ar  
 26  23  24  1   
 27  25  26  1   
 28  25  27  ar  
 29  27  28  1   
@<TRIPOS>SUBSTRUCTURE
  1 <1>   0 RESIDUE 1 * * 1
# MOE 2007.09 (io_trps.svl 2007.09)
