@<TRIPOS>MOLECULE
J14_09
54 54 1 0 0 
SMALL
USER_CHARGES


@<TRIPOS>ATOM
  1 C        4.2083     1.0923    -0.2916 C.2   1 <1>   0.7200 
  2 C        4.3815     2.2366    -1.2125 C.3   1 <1>   0.0480 
  3 H        4.2313     2.0254    -2.2650 H     1 <1>   0.1000 
  4 O        4.6336     1.0924     0.8555 O.2   1 <1>  -0.5700 
  5 O        3.5305     0.0749    -0.8908 O.3   1 <1>  -0.4300 
  6 C        3.3189    -1.0737    -0.0582 C.3   1 <1>   0.2800 
  7 C        2.5540    -2.1072    -0.8616 C.3   1 <1>   0.0000 
  8 H1       2.3685    -3.0054    -0.2660 H     1 <1>   0.0000 
  9 H2       3.1131    -2.3880    -1.7603 H     1 <1>   0.0000 
 10 H3       1.5942    -1.7012    -1.1977 H     1 <1>   0.0000 
 11 H2       2.7383    -0.7862     0.8255 H     1 <1>   0.0000 
 12 H3       4.2853    -1.4858     0.2528 H     1 <1>   0.0000 
 13 C        5.2842     3.3874    -0.8425 C.3   1 <1>   0.0480 
 14 H2       5.8661     3.3050     0.0678 H     1 <1>   0.1000 
 15 O        3.8562     3.4856    -0.7210 O.3   1 <1>  -0.2960 
 16 C        5.8888     4.2224    -1.9026 C.2   1 <1>   0.6300 
 17 N        5.3865     5.5030    -1.9774 N.am  1 <1>  -0.7301 
 18 C        5.9103     6.4992    -2.9200 C.3   1 <1>   0.3611 
 19 H2       5.8643     6.0362    -3.9124 H     1 <1>   0.0000 
 20 C        7.3508     6.9228    -2.5582 C.3   1 <1>   0.0000 
 21 H1       7.7849     6.2076    -1.8478 H     1 <1>   0.0000 
 22 H2       7.3538     7.8903    -2.0392 H     1 <1>   0.0000 
 23 C        8.2952     7.0073    -3.7763 C.3   1 <1>   0.0000 
 24 C        9.7238     7.2954    -3.3056 C.3   1 <1>   0.0000 
 25 H1      10.4167     7.3170    -4.1535 H     1 <1>   0.0000 
 26 H2      10.0703     6.5200    -2.6142 H     1 <1>   0.0000 
 27 H3       9.7862     8.2609    -2.7921 H     1 <1>   0.0000 
 28 C        7.8625     8.0706    -4.7858 C.3   1 <1>   0.0000 
 29 H1       6.9112     7.8072    -5.2566 H     1 <1>   0.0000 
 30 H2       8.6011     8.1680    -5.5889 H     1 <1>   0.0000 
 31 H3       7.7513     9.0504    -4.3091 H     1 <1>   0.0000 
 32 H3       8.3016     6.0338    -4.2831 H     1 <1>   0.0000 
 33 H2       4.6026     5.7362    -1.3753 H     1 <1>   0.3700 
 34 O        6.7799     3.7689    -2.6073 O.2   1 <1>  -0.5700 
 35 C        4.9784     7.7251    -2.9064 C.2   1 <1>   0.5690 
 36 N        4.6670     8.1837    -1.6357 N.am  1 <1>  -0.7301 
 37 C        3.7912     9.3184    -1.4187 C.3   1 <1>   0.3001 
 38 C        4.5696    10.6333    -1.4651 C.3   1 <1>   0.0000 
 39 C        3.7203    11.8612    -1.0911 C.3   1 <1>   0.0000 
 40 C        4.6092    13.1054    -1.0188 C.3   1 <1>   0.0000 
 41 H2       5.0699    13.3221    -1.9887 H     1 <1>   0.0000 
 42 H3       5.4109    12.9693    -0.2852 H     1 <1>   0.0000 
 43 H2       3.2873    11.6997    -0.0957 H     1 <1>   0.0000 
 44 C        2.5762    12.1004    -2.0776 C.3   1 <1>   0.0000 
 45 H1       1.8538    11.2789    -2.0573 H     1 <1>   0.0000 
 46 H2       2.9498    12.2016    -3.1022 H     1 <1>   0.0000 
 47 H3       2.0309    13.0163    -1.8252 H     1 <1>   0.0000 
 48 H1       4.0276    13.9827    -0.7161 H     1 <1>   0.0000 
 49 H2       5.0043    10.7697    -2.4639 H     1 <1>   0.0000 
 50 H3       5.4188    10.5619    -0.7723 H     1 <1>   0.0000 
 51 H2       3.3269     9.1804    -0.4369 H     1 <1>   0.0000 
 52 H3       3.0041     9.2988    -2.1790 H     1 <1>   0.0000 
 53 H2       5.0776     7.7340    -0.8261 H     1 <1>   0.3700 
 54 O        4.6436     8.3090    -3.9352 O.2   1 <1>  -0.5700 
@<TRIPOS>BOND
  1   1   2  1   
  2   1   4  2   
  3   1   5  1   
  4   2   3  1   
  5   2  13  1   
  6   2  15  1   
  7   5   6  1   
  8   6   7  1   
  9   6  11  1   
 10   6  12  1   
 11   7   8  1   
 12   7   9  1   
 13   7  10  1   
 14  13  14  1   
 15  13  15  1   
 16  13  16  1   
 17  16  17  am  
 18  16  34  2   
 19  17  18  1   
 20  17  33  1   
 21  18  19  1   
 22  18  20  1   
 23  18  35  1   
 24  20  21  1   
 25  20  22  1   
 26  20  23  1   
 27  23  24  1   
 28  23  28  1   
 29  23  32  1   
 30  24  25  1   
 31  24  26  1   
 32  24  27  1   
 33  28  29  1   
 34  28  30  1   
 35  28  31  1   
 36  35  36  am  
 37  35  54  2   
 38  36  37  1   
 39  36  53  1   
 40  37  38  1   
 41  37  51  1   
 42  37  52  1   
 43  38  39  1   
 44  38  49  1   
 45  38  50  1   
 46  39  40  1   
 47  39  43  1   
 48  39  44  1   
 49  40  41  1   
 50  40  42  1   
 51  40  48  1   
 52  44  45  1   
 53  44  46  1   
 54  44  47  1   
@<TRIPOS>SUBSTRUCTURE
  1 <1>   0 RESIDUE 1 * * 1
# MOE 2007.09 (io_trps.svl 2007.09)
