@<TRIPOS>MOLECULE
J18_27
42 44 1 0 0 
SMALL
USER_CHARGES


@<TRIPOS>ATOM
  1 C        1.8977     0.4800    -0.9370 C.ar  1 <1>   0.0825 
  2 C        0.9203     1.2521    -1.5632 C.ar  1 <1>  -0.1500 
  3 H        1.1918     1.9637    -2.3374 H     1 <1>   0.1500 
  4 C       -0.4125     1.1046    -1.1888 C.ar  1 <1>   0.0825 
  5 O       -1.3390     1.8785    -1.8248 O.3   1 <1>  -0.5325 
  6 H       -2.2197     1.6745    -1.4686 H     1 <1>   0.4500 
  7 C       -0.7824     0.1966    -0.1981 C.ar  1 <1>  -0.1500 
  8 H       -1.8201     0.0765     0.0988 H     1 <1>   0.1500 
  9 C        0.1994    -0.5753     0.4272 C.ar  1 <1>  -0.1500 
 10 H       -0.0848    -1.2849     1.2013 H     1 <1>   0.1500 
 11 C        1.5390    -0.4297     0.0540 C.ar  1 <1>   0.0862 
 12 C        2.5872    -1.2309     0.6992 C.2   1 <1>   0.4694 
 13 O        2.3010    -2.0400     1.5744 O.2   1 <1>  -0.5700 
 14 C        3.9830    -1.0044     0.2420 C.2   1 <1>  -0.0140 
 15 C        5.1263    -1.7532     0.7928 C.ar  1 <1>   0.0284 
 16 C        4.1644    -0.0981    -0.7285 C.2   1 <1>  -0.0733 
 17 H        5.1284     0.1426    -1.1617 H     1 <1>   0.1500 
 18 O        3.1953     0.6600    -1.3405 O.3   1 <1>  -0.1592 
 19 C        5.0911    -3.1521     0.8597 C.ar  1 <1>  -0.1500 
 20 H        4.2169    -3.6995     0.5124 H     1 <1>   0.1500 
 21 C        6.1751    -3.8695     1.3710 C.ar  1 <1>  -0.1500 
 22 H        6.1182    -4.9533     1.4047 H     1 <1>   0.1500 
 23 C        7.3036    -3.1889     1.8255 C.ar  1 <1>   0.0825 
 24 O        8.3729    -3.8855     2.3161 O.3   1 <1>  -0.5325 
 25 H        8.1751    -4.8357     2.2799 H     1 <1>   0.4500 
 26 C        7.3650    -1.7915     1.7890 C.ar  1 <1>  -0.1435 
 27 C        8.5830    -1.0339     2.2637 C.3   1 <1>   0.2817 
 28 H1       8.2658    -0.0928     2.7251 H     1 <1>   0.0000 
 29 C        9.5853    -0.8196     1.1622 C.2   1 <1>  -0.2882 
 30 H       10.1185    -1.7276     0.8788 H     1 <1>   0.1500 
 31 C        9.8988     0.3284     0.5298 C.2   1 <1>  -0.2764 
 32 C       10.9592     0.3453    -0.5404 C.3   1 <1>   0.1382 
 33 H1      11.7654     1.0327    -0.2636 H     1 <1>   0.0000 
 34 H2      10.5316     0.6754    -1.4928 H     1 <1>   0.0000 
 35 H3      11.4056    -0.6416    -0.7015 H     1 <1>   0.0000 
 36 C        9.2605     1.6648     0.7870 C.3   1 <1>   0.1382 
 37 H1       8.4432     1.6275     1.5098 H     1 <1>   0.0000 
 38 H2       8.8460     2.0678    -0.1434 H     1 <1>   0.0000 
 39 H3      10.0068     2.3711     1.1654 H     1 <1>   0.0000 
 40 H3       9.0717    -1.5804     3.0803 H     1 <1>   0.0000 
 41 C        6.2686    -1.0845     1.2631 C.ar  1 <1>  -0.1500 
 42 H        6.3123     0.0030     1.2295 H     1 <1>   0.1500 
@<TRIPOS>BOND
  1   1   2  ar  
  2   1  11  ar  
  3   1  18  1   
  4   2   3  1   
  5   2   4  ar  
  6   4   5  1   
  7   4   7  ar  
  8   5   6  1   
  9   7   8  1   
 10   7   9  ar  
 11   9  10  1   
 12   9  11  ar  
 13  11  12  1   
 14  12  13  2   
 15  12  14  1   
 16  14  15  1   
 17  14  16  2   
 18  15  19  ar  
 19  15  41  ar  
 20  16  17  1   
 21  16  18  1   
 22  19  20  1   
 23  19  21  ar  
 24  21  22  1   
 25  21  23  ar  
 26  23  24  1   
 27  23  26  ar  
 28  24  25  1   
 29  26  27  1   
 30  26  41  ar  
 31  27  28  1   
 32  27  29  1   
 33  27  40  1   
 34  29  30  1   
 35  29  31  2   
 36  31  32  1   
 37  31  36  1   
 38  32  33  1   
 39  32  34  1   
 40  32  35  1   
 41  36  37  1   
 42  36  38  1   
 43  36  39  1   
 44  41  42  1   
@<TRIPOS>SUBSTRUCTURE
  1 <1>   0 RESIDUE 1 * * 1
# MOE 2007.09 (io_trps.svl 2007.09)
