@<TRIPOS>MOLECULE
J18_16
21 21 1 0 0 
SMALL
USER_CHARGES


@<TRIPOS>ATOM
  1 C        1.1938     0.7016    -0.0166 C.ar  1 <1>   0.0284 
  2 C        2.4158     1.4898     0.1886 C.2   1 <1>  -0.1784 
  3 H        2.5873     2.2870    -0.5332 H     1 <1>   0.1500 
  4 C        3.2802     1.2992     1.1913 C.2   1 <1>  -0.1356 
  5 H        3.1511     0.5395     1.9522 H     1 <1>   0.1500 
  6 C        0.0777     1.3326    -0.5988 C.ar  1 <1>  -0.1500 
  7 H        0.1188     2.3894    -0.8575 H     1 <1>   0.1500 
  8 C       -1.1049     0.6262    -0.8503 C.ar  1 <1>  -0.1500 
  9 H       -1.9501     1.1422    -1.2952 H     1 <1>   0.1500 
 10 C       -1.1652    -0.7219    -0.5270 C.ar  1 <1>   0.0825 
 11 O       -2.2843    -1.4776    -0.7468 O.3   1 <1>  -0.5325 
 12 H       -2.9633    -0.8990    -1.1342 H     1 <1>   0.4500 
 13 C       -0.0627    -1.3575     0.0355 C.ar  1 <1>   0.0825 
 14 O       -0.1387    -2.6884     0.3367 O.3   1 <1>  -0.5325 
 15 H       -1.0444    -2.9431     0.0654 H     1 <1>   0.4500 
 16 C        1.1152    -0.6635     0.2896 C.ar  1 <1>  -0.1500 
 17 H        1.9595    -1.2011     0.7103 H     1 <1>   0.1500 
 18 C        4.4606     2.1608     1.2982 C.2   1 <1>   0.7056 
 19 O        4.7784     3.0730     0.5540 O.2   1 <1>  -0.5700 
 20 O        5.1937     1.8113     2.3719 O.3   1 <1>  -0.6500 
 21 H        5.9555     2.4280     2.3736 H     1 <1>   0.5000 
@<TRIPOS>BOND
  1   1   2  1   
  2   1   6  ar  
  3   1  16  ar  
  4   2   3  1   
  5   2   4  2   
  6   4   5  1   
  7   4  18  1   
  8   6   7  1   
  9   6   8  ar  
 10   8   9  1   
 11   8  10  ar  
 12  10  11  1   
 13  10  13  ar  
 14  11  12  1   
 15  13  14  1   
 16  13  16  ar  
 17  14  15  1   
 18  16  17  1   
 19  18  19  2   
 20  18  20  1   
 21  20  21  1   
@<TRIPOS>SUBSTRUCTURE
  1 <1>   0 RESIDUE 1 * * 1
# MOE 2007.09 (io_trps.svl 2007.09)
