@<TRIPOS>MOLECULE
J18_05
50 53 1 0 0 
SMALL
USER_CHARGES


@<TRIPOS>ATOM
  1 C        0.4860     0.4885    -1.1265 C.ar  1 <1>   0.0825 
  2 C       -0.7212     0.5023    -1.8301 C.ar  1 <1>  -0.1500 
  3 H       -0.8733     1.2439    -2.6083 H     1 <1>   0.1500 
  4 C       -1.7093    -0.4237    -1.5123 C.ar  1 <1>   0.0825 
  5 O       -2.9060    -0.4415    -2.1684 O.3   1 <1>  -0.5325 
  6 H       -2.9028     0.2586    -2.8419 H     1 <1>   0.4500 
  7 C       -1.5088    -1.3625    -0.5074 C.ar  1 <1>  -0.1500 
  8 H       -2.3001    -2.0684    -0.2771 H     1 <1>   0.1500 
  9 C       -0.2966    -1.3745     0.1803 C.ar  1 <1>   0.0825 
 10 O       -0.0800    -2.2844     1.1776 O.3   1 <1>  -0.5325 
 11 H       -0.8736    -2.8361     1.2783 H     1 <1>   0.4500 
 12 C        0.7226    -0.4646    -0.1276 C.ar  1 <1>  -0.1435 
 13 C        2.0309    -0.4997     0.6186 C.3   1 <1>   0.1435 
 14 H1       2.3764    -1.5359     0.7124 H     1 <1>   0.0000 
 15 H2       1.8569    -0.0973     1.6240 H     1 <1>   0.0000 
 16 C        3.0985     0.3354    -0.0848 C.3   1 <1>   0.2800 
 17 H        3.9188     0.5493     0.6121 H     1 <1>   0.0000 
 18 O        3.5959    -0.4073    -1.2244 O.3   1 <1>  -0.4300 
 19 C        2.4655     1.6516    -0.5655 C.3   1 <1>   0.4235 
 20 H        2.0283     2.1878     0.2897 H     1 <1>   0.0000 
 21 C        3.5128     2.5640    -1.1855 C.ar  1 <1>  -0.1435 
 22 O        1.4005     1.4358    -1.5046 O.3   1 <1>  -0.3625 
 23 C        3.8049     2.5173    -2.5588 C.ar  1 <1>  -0.1500 
 24 H        3.2599     1.8373    -3.2107 H     1 <1>   0.1500 
 25 C        4.7990     3.3307    -3.1082 C.ar  1 <1>  -0.1500 
 26 H        4.9971     3.2710    -4.1737 H     1 <1>   0.1500 
 27 C        5.5150     4.1954    -2.2839 C.ar  1 <1>   0.0825 
 28 O        6.4910     4.9988    -2.8063 O.3   1 <1>  -0.5325 
 29 H        6.5816     4.8058    -3.7527 H     1 <1>   0.4500 
 30 C        5.2407     4.2473    -0.9176 C.ar  1 <1>   0.0825 
 31 O        5.9611     5.0917    -0.1193 O.3   1 <1>  -0.5325 
 32 H        5.6270     5.0350     0.7897 H     1 <1>   0.4500 
 33 C        4.2458     3.4388    -0.3663 C.ar  1 <1>  -0.1500 
 34 H        4.0400     3.4757     0.7001 H     1 <1>   0.1500 
 35 C        4.7095    -1.1548    -1.0330 C.2   1 <1>   0.6338 
 36 C        5.0893    -1.8280    -2.2854 C.ar  1 <1>   0.0862 
 37 O        5.3419    -1.2621     0.0068 O.2   1 <1>  -0.5700 
 38 C        4.1978    -1.9436    -3.3610 C.ar  1 <1>  -0.1500 
 39 H        3.1943    -1.5331    -3.2957 H     1 <1>   0.1500 
 40 C        4.6108    -2.6067    -4.5118 C.ar  1 <1>   0.0825 
 41 O        3.7870    -2.7596    -5.5945 O.3   1 <1>  -0.5325 
 42 H        2.9482    -2.3003    -5.4127 H     1 <1>   0.4500 
 43 C        5.8912    -3.1504    -4.6046 C.ar  1 <1>   0.0825 
 44 O        6.2442    -3.7961    -5.7585 O.3   1 <1>  -0.5325 
 45 H        5.4390    -3.7611    -6.3127 H     1 <1>   0.4500 
 46 C        6.7780    -3.0346    -3.5400 C.ar  1 <1>   0.0825 
 47 O        8.0318    -3.5689    -3.6407 O.3   1 <1>  -0.5325 
 48 H        8.5262    -3.3670    -2.8302 H     1 <1>   0.4500 
 49 C        6.3798    -2.3768    -2.3749 C.ar  1 <1>  -0.1500 
 50 H        7.0631    -2.2855    -1.5335 H     1 <1>   0.1500 
@<TRIPOS>BOND
  1   1   2  ar  
  2   1  12  ar  
  3   1  22  1   
  4   2   3  1   
  5   2   4  ar  
  6   4   5  1   
  7   4   7  ar  
  8   5   6  1   
  9   7   8  1   
 10   7   9  ar  
 11   9  10  1   
 12   9  12  ar  
 13  10  11  1   
 14  12  13  1   
 15  13  14  1   
 16  13  15  1   
 17  13  16  1   
 18  16  17  1   
 19  16  18  1   
 20  16  19  1   
 21  18  35  1   
 22  19  20  1   
 23  19  21  1   
 24  19  22  1   
 25  21  23  ar  
 26  21  33  ar  
 27  23  24  1   
 28  23  25  ar  
 29  25  26  1   
 30  25  27  ar  
 31  27  28  1   
 32  27  30  ar  
 33  28  29  1   
 34  30  31  1   
 35  30  33  ar  
 36  31  32  1   
 37  33  34  1   
 38  35  36  1   
 39  35  37  2   
 40  36  38  ar  
 41  36  49  ar  
 42  38  39  1   
 43  38  40  ar  
 44  40  41  1   
 45  40  43  ar  
 46  41  42  1   
 47  43  44  1   
 48  43  46  ar  
 49  44  45  1   
 50  46  47  1   
 51  46  49  ar  
 52  47  48  1   
 53  49  50  1   
@<TRIPOS>SUBSTRUCTURE
  1 <1>   0 RESIDUE 1 * * 1
# MOE 2007.09 (io_trps.svl 2007.09)
