@<TRIPOS>MOLECULE
J18_14
32 34 1 0 0 
SMALL
USER_CHARGES


@<TRIPOS>ATOM
  1 C        1.2896     0.5811     0.2640 C.ar  1 <1>   0.0825 
  2 C        0.0407     1.0503    -0.1513 C.ar  1 <1>  -0.1500 
  3 H       -0.0143     1.9297    -0.7860 H     1 <1>   0.1500 
  4 C       -1.1070     0.3751     0.2458 C.ar  1 <1>   0.0825 
  5 O       -2.3478     0.7879    -0.1425 O.3   1 <1>  -0.5325 
  6 H       -2.2590     1.5754    -0.7052 H     1 <1>   0.4500 
  7 C       -1.0259    -0.7516     1.0570 C.ar  1 <1>  -0.1500 
  8 H       -1.9433    -1.2543     1.3487 H     1 <1>   0.1500 
  9 C        0.2232    -1.2073     1.4875 C.ar  1 <1>   0.0825 
 10 O        0.2771    -2.3040     2.2995 O.3   1 <1>  -0.5325 
 11 H       -0.6184    -2.6378     2.4684 H     1 <1>   0.4500 
 12 C        1.3909    -0.5405     1.0993 C.ar  1 <1>   0.0862 
 13 C        2.7388    -0.9366     1.5586 C.2   1 <1>   0.4228 
 14 O        2.9511    -1.9395     2.2338 O.2   1 <1>  -0.5700 
 15 C        3.8646    -0.0054     1.1986 C.3   1 <1>   0.0610 
 16 H1       4.8057    -0.5671     1.2064 H     1 <1>   0.0000 
 17 H2       3.9135     0.7748     1.9673 H     1 <1>   0.0000 
 18 C        3.5903     0.5602    -0.1848 C.3   1 <1>   0.4235 
 19 H        3.4828    -0.2467    -0.9246 H     1 <1>   0.0000 
 20 O        2.3654     1.3062    -0.1824 O.3   1 <1>  -0.3625 
 21 C        4.7223     1.4694    -0.6252 C.ar  1 <1>  -0.1435 
 22 C        5.7253     0.9778    -1.4773 C.ar  1 <1>  -0.1500 
 23 H        5.6860    -0.0473    -1.8404 H     1 <1>   0.1500 
 24 C        6.7906     1.7925    -1.8715 C.ar  1 <1>  -0.1500 
 25 H        7.5506     1.3871    -2.5320 H     1 <1>   0.1500 
 26 C        6.8578     3.1032    -1.4093 C.ar  1 <1>   0.0825 
 27 O        7.8817     3.9319    -1.7674 O.3   1 <1>  -0.5325 
 28 H        8.4957     3.4359    -2.3331 H     1 <1>   0.4500 
 29 C        5.8790     3.6088    -0.5620 C.ar  1 <1>  -0.1500 
 30 H        5.9423     4.6325    -0.2057 H     1 <1>   0.1500 
 31 C        4.8156     2.7942    -0.1681 C.ar  1 <1>  -0.1500 
 32 H        4.0578     3.2007     0.4983 H     1 <1>   0.1500 
@<TRIPOS>BOND
  1   1   2  ar  
  2   1  12  ar  
  3   1  20  1   
  4   2   3  1   
  5   2   4  ar  
  6   4   5  1   
  7   4   7  ar  
  8   5   6  1   
  9   7   8  1   
 10   7   9  ar  
 11   9  10  1   
 12   9  12  ar  
 13  10  11  1   
 14  12  13  1   
 15  13  14  2   
 16  13  15  1   
 17  15  16  1   
 18  15  17  1   
 19  15  18  1   
 20  18  19  1   
 21  18  20  1   
 22  18  21  1   
 23  21  22  ar  
 24  21  31  ar  
 25  22  23  1   
 26  22  24  ar  
 27  24  25  1   
 28  24  26  ar  
 29  26  27  1   
 30  26  29  ar  
 31  27  28  1   
 32  29  30  1   
 33  29  31  ar  
 34  31  32  1   
@<TRIPOS>SUBSTRUCTURE
  1 <1>   0 RESIDUE 1 * * 1
# MOE 2007.09 (io_trps.svl 2007.09)
