@<TRIPOS>MOLECULE
J18_01
32 34 1 0 0 
SMALL
USER_CHARGES


@<TRIPOS>ATOM
  1 C        1.3661     0.4615    -0.8020 C.ar  1 <1>   0.0825 
  2 C        0.2158     1.1244    -1.2395 C.ar  1 <1>  -0.1500 
  3 H        0.3117     2.0401    -1.8153 H     1 <1>   0.1500 
  4 C       -1.0308     0.6001    -0.9252 C.ar  1 <1>   0.0825 
  5 O       -2.1817     1.2136    -1.3231 O.3   1 <1>  -0.5325 
  6 H       -1.9575     2.0202    -1.8175 H     1 <1>   0.4500 
  7 C       -1.1423    -0.5721    -0.1862 C.ar  1 <1>  -0.1500 
  8 H       -2.1321    -0.9547     0.0453 H     1 <1>   0.1500 
  9 C        0.0134    -1.2300     0.2462 C.ar  1 <1>   0.0825 
 10 O       -0.1213    -2.3723     0.9823 O.3   1 <1>  -0.5325 
 11 H       -1.0604    -2.5922     1.0901 H     1 <1>   0.4500 
 12 C        1.2799    -0.7183    -0.0619 C.ar  1 <1>   0.0862 
 13 C        2.5382    -1.3602     0.3595 C.2   1 <1>   0.4694 
 14 O        2.5665    -2.4355     0.9465 O.2   1 <1>  -0.5700 
 15 C        3.8042    -0.6401     0.0426 C.2   1 <1>   0.0911 
 16 O        4.9778    -1.1817     0.5368 O.3   1 <1>  -0.5267 
 17 H        5.7127    -0.5668     0.3798 H     1 <1>   0.4500 
 18 C        3.7298     0.4859    -0.6862 C.2   1 <1>   0.0483 
 19 C        4.9091     1.2758    -1.0701 C.ar  1 <1>   0.0284 
 20 O        2.5551     1.0481    -1.1453 O.3   1 <1>  -0.1592 
 21 C        5.8994     0.7430    -1.9086 C.ar  1 <1>  -0.1500 
 22 H        5.8102    -0.2712    -2.2948 H     1 <1>   0.1500 
 23 C        7.0095     1.5116    -2.2720 C.ar  1 <1>  -0.1500 
 24 H        7.7628     1.0758    -2.9218 H     1 <1>   0.1500 
 25 C        7.1262     2.8205    -1.8060 C.ar  1 <1>   0.0825 
 26 O        8.2051     3.5848    -2.1564 O.3   1 <1>  -0.5325 
 27 H        8.7964     3.0591    -2.7176 H     1 <1>   0.4500 
 28 C        6.1379     3.3620    -0.9832 C.ar  1 <1>   0.0825 
 29 O        6.2568     4.6510    -0.5415 O.3   1 <1>  -0.5325 
 30 H        5.4693     4.8793    -0.0218 H     1 <1>   0.4500 
 31 C        5.0320     2.5960    -0.6135 C.ar  1 <1>  -0.1500 
 32 H        4.2611     3.0162     0.0277 H     1 <1>   0.1500 
@<TRIPOS>BOND
  1   1   2  ar  
  2   1  12  ar  
  3   1  20  1   
  4   2   3  1   
  5   2   4  ar  
  6   4   5  1   
  7   4   7  ar  
  8   5   6  1   
  9   7   8  1   
 10   7   9  ar  
 11   9  10  1   
 12   9  12  ar  
 13  10  11  1   
 14  12  13  1   
 15  13  14  2   
 16  13  15  1   
 17  15  16  1   
 18  15  18  2   
 19  16  17  1   
 20  18  19  1   
 21  18  20  1   
 22  19  21  ar  
 23  19  31  ar  
 24  21  22  1   
 25  21  23  ar  
 26  23  24  1   
 27  23  25  ar  
 28  25  26  1   
 29  25  28  ar  
 30  26  27  1   
 31  28  29  1   
 32  28  31  ar  
 33  29  30  1   
 34  31  32  1   
@<TRIPOS>SUBSTRUCTURE
  1 <1>   0 RESIDUE 1 * * 1
# MOE 2007.09 (io_trps.svl 2007.09)
