@<TRIPOS>MOLECULE
J18_13
30 32 1 0 0 
SMALL
USER_CHARGES


@<TRIPOS>ATOM
  1 C        0.6629     0.4094    -0.2469 C.ar  1 <1>   0.0825 
  2 C       -0.7181     0.2128    -0.3423 C.ar  1 <1>  -0.1500 
  3 H       -1.2535     0.5889    -1.2090 H     1 <1>   0.1500 
  4 C       -1.3792    -0.4614     0.6757 C.ar  1 <1>   0.0825 
  5 O       -2.7248    -0.6799     0.6308 O.3   1 <1>  -0.5325 
  6 H       -3.0820    -0.2983    -0.1885 H     1 <1>   0.4500 
  7 C       -0.6831    -0.9385     1.7806 C.ar  1 <1>  -0.1500 
  8 H       -1.2308    -1.4619     2.5587 H     1 <1>   0.1500 
  9 C        0.6982    -0.7387     1.8705 C.ar  1 <1>   0.0825 
 10 O        1.3544    -1.2212     2.9675 O.3   1 <1>  -0.5325 
 11 H        0.7295    -1.6654     3.5629 H     1 <1>   0.4500 
 12 C        1.3851    -0.0605     0.8551 C.ar  1 <1>   0.0862 
 13 C        2.8425     0.1853     0.8852 C.2   1 <1>   0.4694 
 14 O        3.5537    -0.1829     1.8121 O.2   1 <1>  -0.5700 
 15 C        3.4293     0.9066    -0.2778 C.2   1 <1>  -0.0140 
 16 C        2.5930     1.2944    -1.2474 C.2   1 <1>  -0.0733 
 17 H        2.8998     1.8437    -2.1299 H     1 <1>   0.1500 
 18 O        1.2408     1.0833    -1.2933 O.3   1 <1>  -0.1592 
 19 C        4.8648     1.2271    -0.3724 C.ar  1 <1>   0.0284 
 20 C        5.6164     0.8365    -1.4932 C.ar  1 <1>  -0.1500 
 21 H        5.1535     0.2708    -2.2993 H     1 <1>   0.1500 
 22 C        6.9737     1.1587    -1.5914 C.ar  1 <1>  -0.1500 
 23 H        7.5305     0.8449    -2.4688 H     1 <1>   0.1500 
 24 C        7.5837     1.8732    -0.5653 C.ar  1 <1>   0.0825 
 25 O        8.9039     2.2153    -0.6226 O.3   1 <1>  -0.5325 
 26 H        9.2828     1.8616    -1.4439 H     1 <1>   0.4500 
 27 C        6.8597     2.2610     0.5566 C.ar  1 <1>  -0.1500 
 28 H        7.3477     2.8126     1.3549 H     1 <1>   0.1500 
 29 C        5.5040     1.9366     0.6546 C.ar  1 <1>  -0.1500 
 30 H        4.9523     2.2421     1.5413 H     1 <1>   0.1500 
@<TRIPOS>BOND
  1   1   2  ar  
  2   1  12  ar  
  3   1  18  1   
  4   2   3  1   
  5   2   4  ar  
  6   4   5  1   
  7   4   7  ar  
  8   5   6  1   
  9   7   8  1   
 10   7   9  ar  
 11   9  10  1   
 12   9  12  ar  
 13  10  11  1   
 14  12  13  1   
 15  13  14  2   
 16  13  15  1   
 17  15  16  2   
 18  15  19  1   
 19  16  17  1   
 20  16  18  1   
 21  19  20  ar  
 22  19  29  ar  
 23  20  21  1   
 24  20  22  ar  
 25  22  23  1   
 26  22  24  ar  
 27  24  25  1   
 28  24  27  ar  
 29  25  26  1   
 30  27  28  1   
 31  27  29  ar  
 32  29  30  1   
@<TRIPOS>SUBSTRUCTURE
  1 <1>   0 RESIDUE 1 * * 1
# MOE 2007.09 (io_trps.svl 2007.09)
