@<TRIPOS>MOLECULE
J19_02
30 32 1 0 0 
SMALL
USER_CHARGES


@<TRIPOS>ATOM
  1 C        1.3021     0.8489    -0.0573 C.ar  1 <1>   0.0284 
  2 C        2.5473     1.6384    -0.0060 C.2   1 <1>   0.0483 
  3 C        0.1209     1.3678    -0.6131 C.ar  1 <1>  -0.1500 
  4 H        0.0959     2.3738    -1.0268 H     1 <1>   0.1500 
  5 C       -1.0474     0.5990    -0.6633 C.ar  1 <1>  -0.1500 
  6 H       -1.9444     1.0285    -1.0986 H     1 <1>   0.1500 
  7 C       -1.0353    -0.6989    -0.1632 C.ar  1 <1>   0.0825 
  8 O       -2.1514    -1.4836    -0.1926 O.3   1 <1>  -0.5325 
  9 H       -2.8793    -0.9708    -0.5808 H     1 <1>   0.4500 
 10 C        0.1238    -1.2378     0.3811 C.ar  1 <1>  -0.1500 
 11 H        0.1260    -2.2535     0.7652 H     1 <1>   0.1500 
 12 C        1.2886    -0.4677     0.4319 C.ar  1 <1>  -0.1500 
 13 H        2.1860    -0.9057     0.8642 H     1 <1>   0.1500 
 14 O        3.6890     0.9153    -0.2998 O.3   1 <1>  -0.1592 
 15 C        4.9009     1.5588    -0.2583 C.ar  1 <1>   0.0825 
 16 C        5.0435     2.9116     0.0618 C.ar  1 <1>   0.0862 
 17 C        3.8226     3.6719     0.3690 C.2   1 <1>   0.4694 
 18 C        2.5510     2.9333     0.3231 C.2   1 <1>  -0.1356 
 19 O        3.8055     4.8614     0.6551 O.2   1 <1>  -0.5700 
 20 C        6.0174     0.7768    -0.5579 C.ar  1 <1>  -0.1500 
 21 H        5.9035    -0.2748    -0.8063 H     1 <1>   0.1500 
 22 C        7.2818     1.3506    -0.5361 C.ar  1 <1>   0.0825 
 23 O        8.3442     0.5485    -0.8332 O.3   1 <1>  -0.5325 
 24 H        9.1638     1.0672    -0.7808 H     1 <1>   0.4500 
 25 C        7.4489     2.6959    -0.2207 C.ar  1 <1>  -0.1500 
 26 H        8.4418     3.1334    -0.2069 H     1 <1>   0.1500 
 27 C        6.3253     3.4753     0.0781 C.ar  1 <1>   0.0825 
 28 O        6.5032     4.7944     0.3870 O.3   1 <1>  -0.5325 
 29 H        7.4444     5.0269     0.3527 H     1 <1>   0.4500 
 30 H        1.6600     3.4943     0.5757 H     1 <1>   0.1500 
@<TRIPOS>BOND
  1   1   2  1   
  2   1   3  ar  
  3   1  12  ar  
  4   2  14  1   
  5   2  18  2   
  6   3   4  1   
  7   3   5  ar  
  8   5   6  1   
  9   5   7  ar  
 10   7   8  1   
 11   7  10  ar  
 12   8   9  1   
 13  10  11  1   
 14  10  12  ar  
 15  12  13  1   
 16  14  15  1   
 17  15  16  ar  
 18  15  20  ar  
 19  16  17  1   
 20  16  27  ar  
 21  17  18  1   
 22  17  19  2   
 23  18  30  1   
 24  20  21  1   
 25  20  22  ar  
 26  22  23  1   
 27  22  25  ar  
 28  23  24  1   
 29  25  26  1   
 30  25  27  ar  
 31  27  28  1   
 32  28  29  1   
@<TRIPOS>SUBSTRUCTURE
  1 <1>   0 RESIDUE 1 * * 1
# MOE 2007.09 (io_trps.svl 2007.09)
