@<TRIPOS>MOLECULE
J19_09
30 32 1 0 0 
SMALL
USER_CHARGES


@<TRIPOS>ATOM
  1 C        1.2883     1.1183     0.1878 C.ar  1 <1>   0.0284 
  2 C        2.6149     1.7609     0.2516 C.2   1 <1>   0.0483 
  3 C        0.6976     0.8611    -1.0613 C.ar  1 <1>  -0.1500 
  4 H        1.2051     1.1513    -1.9795 H     1 <1>   0.1500 
  5 C       -0.5500     0.2361    -1.1533 C.ar  1 <1>  -0.1500 
  6 H       -0.9774     0.0540    -2.1342 H     1 <1>   0.1500 
  7 C       -1.2128    -0.1407     0.0095 C.ar  1 <1>   0.0825 
  8 O       -2.4305    -0.7556    -0.0318 O.3   1 <1>  -0.5325 
  9 H       -2.6997    -0.8500    -0.9602 H     1 <1>   0.4500 
 10 C       -0.6464     0.0965     1.2565 C.ar  1 <1>  -0.1500 
 11 H       -1.1699    -0.2081     2.1582 H     1 <1>   0.1500 
 12 C        0.6019     0.7209     1.3461 C.ar  1 <1>  -0.1500 
 13 H        1.0327     0.8778     2.3324 H     1 <1>   0.1500 
 14 O        3.5028     1.3172    -0.7112 O.3   1 <1>  -0.1592 
 15 C        4.7598     1.8670    -0.7468 C.ar  1 <1>   0.0825 
 16 C        5.1931     2.8557     0.1405 C.ar  1 <1>   0.0862 
 17 C        4.2402     3.3227     1.1590 C.2   1 <1>   0.4694 
 18 C        2.9040     2.7053     1.1513 C.2   1 <1>  -0.1356 
 19 H        2.2012     3.0692     1.8905 H     1 <1>   0.1500 
 20 O        4.4919     4.1805     1.9945 O.2   1 <1>  -0.5700 
 21 C        5.6097     1.3800    -1.7409 C.ar  1 <1>  -0.1500 
 22 H        5.2687     0.6112    -2.4287 H     1 <1>   0.1500 
 23 C        6.8988     1.8848    -1.8480 C.ar  1 <1>   0.0825 
 24 O        7.6940     1.3814    -2.8350 O.3   1 <1>  -0.5325 
 25 H        8.5618     1.8169    -2.8028 H     1 <1>   0.4500 
 26 C        7.3535     2.8692    -0.9753 C.ar  1 <1>  -0.1500 
 27 H        8.3631     3.2561    -1.0682 H     1 <1>   0.1500 
 28 C        6.4965     3.3534     0.0201 C.ar  1 <1>   0.0825 
 29 O        6.9554     4.3198     0.8700 O.3   1 <1>  -0.5325 
 30 H        7.8721     4.5533     0.6548 H     1 <1>   0.4500 
@<TRIPOS>BOND
  1   1   2  1   
  2   1   3  ar  
  3   1  12  ar  
  4   2  14  1   
  5   2  18  2   
  6   3   4  1   
  7   3   5  ar  
  8   5   6  1   
  9   5   7  ar  
 10   7   8  1   
 11   7  10  ar  
 12   8   9  1   
 13  10  11  1   
 14  10  12  ar  
 15  12  13  1   
 16  14  15  1   
 17  15  16  ar  
 18  15  21  ar  
 19  16  17  1   
 20  16  28  ar  
 21  17  18  1   
 22  17  20  2   
 23  18  19  1   
 24  21  22  1   
 25  21  23  ar  
 26  23  24  1   
 27  23  26  ar  
 28  24  25  1   
 29  26  27  1   
 30  26  28  ar  
 31  28  29  1   
 32  29  30  1   
@<TRIPOS>SUBSTRUCTURE
  1 <1>   0 RESIDUE 1 * * 1
# MOE 2007.09 (io_trps.svl 2007.09)
