@<TRIPOS>MOLECULE
J19_01
31 33 1 0 0 
SMALL
USER_CHARGES


@<TRIPOS>ATOM
  1 C        1.2957     0.8389    -0.0346 C.ar  1 <1>   0.0284 
  2 C        2.5409     1.6252     0.0229 C.2   1 <1>   0.0483 
  3 C        0.1344     1.3559    -0.6337 C.ar  1 <1>  -0.1500 
  4 H        0.1372     2.3518    -1.0671 H     1 <1>   0.1500 
  5 C       -1.0174     0.5770    -0.6843 C.ar  1 <1>   0.0825 
  6 O       -2.1776     1.0283    -1.2520 O.3   1 <1>  -0.5325 
  7 H       -2.0271     1.9329    -1.5780 H     1 <1>   0.4500 
  8 C       -1.0274    -0.7096    -0.1547 C.ar  1 <1>   0.0825 
  9 O       -2.1721    -1.4525    -0.2191 O.3   1 <1>  -0.5325 
 10 H       -2.8109    -0.8597    -0.6653 H     1 <1>   0.4500 
 11 C        0.1084    -1.2434     0.4312 C.ar  1 <1>  -0.1500 
 12 H        0.0969    -2.2491     0.8385 H     1 <1>   0.1500 
 13 C        1.2702    -0.4686     0.4882 C.ar  1 <1>  -0.1500 
 14 H        2.1592    -0.8937     0.9508 H     1 <1>   0.1500 
 15 O        3.6799     0.9028    -0.2781 O.3   1 <1>  -0.1592 
 16 C        4.8889     1.5518    -0.2581 C.ar  1 <1>   0.0825 
 17 C        5.0304     2.9053     0.0597 C.ar  1 <1>   0.0862 
 18 C        3.8130     3.6590     0.3952 C.2   1 <1>   0.4694 
 19 C        2.5433     2.9184     0.3576 C.2   1 <1>  -0.1356 
 20 O        3.7963     4.8449     0.6961 O.2   1 <1>  -0.5700 
 21 C        6.0028     0.7757    -0.5803 C.ar  1 <1>  -0.1500 
 22 H        5.8898    -0.2765    -0.8261 H     1 <1>   0.1500 
 23 C        7.2635     1.3572    -0.5859 C.ar  1 <1>   0.0825 
 24 O        8.3232     0.5607    -0.9056 O.3   1 <1>  -0.5325 
 25 H        9.1410     1.0837    -0.8706 H     1 <1>   0.4500 
 26 C        7.4291     2.7041    -0.2762 C.ar  1 <1>  -0.1500 
 27 H        8.4193     3.1480    -0.2857 H     1 <1>   0.1500 
 28 C        6.3078     3.4770     0.0462 C.ar  1 <1>   0.0825 
 29 O        6.4815     4.7985     0.3453 O.3   1 <1>  -0.5325 
 30 H        7.4206     5.0371     0.2949 H     1 <1>   0.4500 
 31 H        1.6525     3.4770     0.6167 H     1 <1>   0.1500 
@<TRIPOS>BOND
  1   1   2  1   
  2   1   3  ar  
  3   1  13  ar  
  4   2  15  1   
  5   2  19  2   
  6   3   4  1   
  7   3   5  ar  
  8   5   6  1   
  9   5   8  ar  
 10   6   7  1   
 11   8   9  1   
 12   8  11  ar  
 13   9  10  1   
 14  11  12  1   
 15  11  13  ar  
 16  13  14  1   
 17  15  16  1   
 18  16  17  ar  
 19  16  21  ar  
 20  17  18  1   
 21  17  28  ar  
 22  18  19  1   
 23  18  20  2   
 24  19  31  1   
 25  21  22  1   
 26  21  23  ar  
 27  23  24  1   
 28  23  26  ar  
 29  24  25  1   
 30  26  27  1   
 31  26  28  ar  
 32  28  29  1   
 33  29  30  1   
@<TRIPOS>SUBSTRUCTURE
  1 <1>   0 RESIDUE 1 * * 1
# MOE 2007.09 (io_trps.svl 2007.09)
