@<TRIPOS>MOLECULE
J19_05
32 34 1 0 0 
SMALL
USER_CHARGES


@<TRIPOS>ATOM
  1 C        1.3941     0.5851    -0.5111 C.ar  1 <1>   0.0825 
  2 C        0.2448     1.2728    -0.9073 C.ar  1 <1>  -0.1500 
  3 H        0.3236     2.2173    -1.4387 H     1 <1>   0.1500 
  4 C       -1.0066     0.7445    -0.6177 C.ar  1 <1>   0.0825 
  5 O       -2.1017     1.4501    -1.0218 O.3   1 <1>  -0.5325 
  6 H       -2.9088     0.9695    -0.7718 H     1 <1>   0.4500 
  7 C       -1.1276    -0.4618     0.0639 C.ar  1 <1>  -0.1500 
  8 H       -2.1096    -0.8652     0.2893 H     1 <1>   0.1500 
  9 C        0.0290    -1.1456     0.4576 C.ar  1 <1>   0.0825 
 10 O       -0.1072    -2.3238     1.1355 O.3   1 <1>  -0.5325 
 11 H       -1.0446    -2.5495     1.2427 H     1 <1>   0.4500 
 12 C        1.2996    -0.6288     0.1697 C.ar  1 <1>   0.0862 
 13 C        2.5531    -1.3036     0.5526 C.2   1 <1>   0.4694 
 14 O        2.5720    -2.3964     1.1068 O.2   1 <1>  -0.5700 
 15 C        3.8261    -0.5970     0.2371 C.2   1 <1>   0.0911 
 16 O        4.9997    -1.1896     0.6691 O.3   1 <1>  -0.5267 
 17 H        5.7491    -0.5945     0.5031 H     1 <1>   0.4500 
 18 C        3.7588     0.5662    -0.4316 C.2   1 <1>   0.0483 
 19 C        4.9518     1.3419    -0.8005 C.ar  1 <1>   0.0284 
 20 O        2.5871     1.1782    -0.8310 O.3   1 <1>  -0.1592 
 21 C        5.8733     0.8478    -1.7360 C.ar  1 <1>  -0.1500 
 22 H        5.7123    -0.1164    -2.2155 H     1 <1>   0.1500 
 23 C        7.0099     1.5898    -2.0718 C.ar  1 <1>  -0.1500 
 24 H        7.7085     1.1849    -2.7981 H     1 <1>   0.1500 
 25 C        7.2231     2.8327    -1.4774 C.ar  1 <1>   0.0825 
 26 O        8.3306     3.5694    -1.7964 O.3   1 <1>  -0.5325 
 27 H        8.8662     3.0747    -2.4363 H     1 <1>   0.4500 
 28 C        6.3049     3.3356    -0.5547 C.ar  1 <1>   0.0825 
 29 O        6.5254     4.5580     0.0186 O.3   1 <1>  -0.5325 
 30 H        5.7700     4.7779     0.5873 H     1 <1>   0.4500 
 31 C        5.1702     2.5971    -0.2153 C.ar  1 <1>  -0.1500 
 32 H        4.4544     2.9856     0.5047 H     1 <1>   0.1500 
@<TRIPOS>BOND
  1   1   2  ar  
  2   1  12  ar  
  3   1  20  1   
  4   2   3  1   
  5   2   4  ar  
  6   4   5  1   
  7   4   7  ar  
  8   5   6  1   
  9   7   8  1   
 10   7   9  ar  
 11   9  10  1   
 12   9  12  ar  
 13  10  11  1   
 14  12  13  1   
 15  13  14  2   
 16  13  15  1   
 17  15  16  1   
 18  15  18  2   
 19  16  17  1   
 20  18  19  1   
 21  18  20  1   
 22  19  21  ar  
 23  19  31  ar  
 24  21  22  1   
 25  21  23  ar  
 26  23  24  1   
 27  23  25  ar  
 28  25  26  1   
 29  25  28  ar  
 30  26  27  1   
 31  28  29  1   
 32  28  31  ar  
 33  29  30  1   
 34  31  32  1   
@<TRIPOS>SUBSTRUCTURE
  1 <1>   0 RESIDUE 1 * * 1
# MOE 2007.09 (io_trps.svl 2007.09)
