@<TRIPOS>MOLECULE
J19_18
31 33 1 0 0 
SMALL
USER_CHARGES


@<TRIPOS>ATOM
  1 C        1.0950     0.5530    -0.1160 C.ar  1 <1>  -0.1500 
  2 H        2.0780     0.9720    -0.3070 H     1 <1>   0.1500 
  3 C       -0.0580     1.2930    -0.3820 C.ar  1 <1>   0.0820 
  4 O        0.0390     2.5600    -0.8880 O.3   1 <1>  -0.5320 
  5 H        0.9740     2.7990    -1.0030 H     1 <1>   0.4500 
  6 C       -1.3400     0.7600    -0.1400 C.ar  1 <1>   0.0000 
  7 C       -1.4430    -0.5440     0.3810 C.ar  1 <1>   0.2100 
  8 C       -0.2880    -1.2870     0.6480 C.ar  1 <1>  -0.1500 
  9 H       -0.3480    -2.2960     1.0500 H     1 <1>   0.1500 
 10 C        0.9640    -0.7340     0.3970 C.ar  1 <1>   0.0820 
 11 O        2.0520    -1.5080     0.6760 O.3   1 <1>  -0.5320 
 12 H        2.8660    -1.0220     0.4620 H     1 <1>   0.4500 
 13 C       -2.5330     1.4410    -0.3860 C.ar  1 <1>  -0.1500 
 14 H       -2.5140     2.4490    -0.7940 H     1 <1>   0.1500 
 15 C       -3.7220     0.7960    -0.1040 C.ar  1 <1>   0.0820 
 16 O       -4.9120     1.4100    -0.3530 O.3   1 <1>  -0.5320 
 17 C       -3.6880    -0.5080     0.4210 C.ar  1 <1>   0.2100 
 18 C       -4.8820    -1.2980     0.7660 C.ar  1 <1>   0.0000 
 19 O       -2.5690    -1.0570     0.6100 O.2   1 <1>   0.5800 
 20 C       -5.9690    -0.7400     1.4640 C.ar  1 <1>  -0.1500 
 21 H       -5.9640     0.3100     1.7540 H     1 <1>   0.1500 
 22 C       -7.0850    -1.5110     1.8100 C.ar  1 <1>  -0.1500 
 23 H       -7.9060    -1.0430     2.3460 H     1 <1>   0.1500 
 24 C       -7.1190    -2.8550     1.4650 C.ar  1 <1>   0.0820 
 25 O       -8.1830    -3.6470     1.7800 O.3   1 <1>  -0.5320 
 26 H       -8.8510    -3.1140     2.2420 H     1 <1>   0.4500 
 27 H       -4.7680     2.2880    -0.7500 H     1 <1>   0.4500 
 28 C       -6.0600    -3.4370     0.7810 C.ar  1 <1>  -0.1500 
 29 H       -6.1000    -4.4900     0.5140 H     1 <1>   0.1500 
 30 C       -4.9480    -2.6650     0.4340 C.ar  1 <1>  -0.1500 
 31 H       -4.1460    -3.1560    -0.1140 H     1 <1>   0.1500 
@<TRIPOS>BOND
  1   1   2  1   
  2   1   3  ar  
  3   1  10  ar  
  4   3   4  1   
  5   3   6  ar  
  6   4   5  1   
  7   6   7  ar  
  8   6  13  ar  
  9   7   8  ar  
 10   7  19  ar  
 11   8   9  1   
 12   8  10  ar  
 13  10  11  1   
 14  11  12  1   
 15  13  14  1   
 16  13  15  ar  
 17  15  16  1   
 18  15  17  ar  
 19  16  27  1   
 20  17  18  1   
 21  17  19  ar  
 22  18  20  ar  
 23  18  30  ar  
 24  20  21  1   
 25  20  22  ar  
 26  22  23  1   
 27  22  24  ar  
 28  24  25  1   
 29  24  28  ar  
 30  25  26  1   
 31  28  29  1   
 32  28  30  ar  
 33  30  31  1   
@<TRIPOS>SUBSTRUCTURE
  1 <1>   0 RESIDUE 1 * * 1
# MOE 2007.09 (io_trps.svl 2007.09)
