@<TRIPOS>MOLECULE
J19_20
55 57 1 0 0 
SMALL
USER_CHARGES


@<TRIPOS>ATOM
  1 C        0.7390    -0.8570    -1.0360 C.ar  1 <1>  -0.1500 
  2 H        0.7880    -1.9320    -1.1970 H     1 <1>   0.1500 
  3 C        0.3180    -0.0260    -2.0760 C.ar  1 <1>  -0.1500 
  4 H        0.0420    -0.4680    -3.0290 H     1 <1>   0.1500 
  5 C        0.2620     1.3500    -1.8730 C.ar  1 <1>   0.0820 
  6 O       -0.1390     2.2000    -2.8620 O.3   1 <1>  -0.5320 
  7 H       -0.3500     1.6780    -3.6530 H     1 <1>   0.4500 
  8 C        0.6200     1.9080    -0.6510 C.ar  1 <1>  -0.1500 
  9 H        0.5760     2.9830    -0.5090 H     1 <1>   0.1500 
 10 C        1.0400     1.0790     0.3870 C.ar  1 <1>  -0.1500 
 11 H        1.3280     1.5170     1.3400 H     1 <1>   0.1500 
 12 C        1.1000    -0.3110     0.2040 C.ar  1 <1>  -0.1440 
 13 C        1.5920    -1.1890     1.3260 C.3   1 <1>   0.1440 
 14 H1       1.2610    -0.7650     2.2800 H     1 <1>   0.0000 
 15 C        3.1120    -1.3290     1.2930 C.3   1 <1>   0.0610 
 16 C        3.6340    -1.8260     2.6220 C.2   1 <1>   0.4230 
 17 C        5.0420    -1.5460     2.9240 C.ar  1 <1>   0.0860 
 18 O        2.9650    -2.4440     3.4430 O.2   1 <1>  -0.5700 
 19 H2       3.5800    -0.3660     1.0620 H     1 <1>   0.0000 
 20 H3       3.4110    -2.0400     0.5140 H     1 <1>   0.0000 
 21 H3       1.1190    -2.1770     1.2650 H     1 <1>   0.0000 
 22 C        5.4420    -0.2580     3.2940 C.ar  1 <1>   0.0820 
 23 O        4.5900     0.8120     3.2790 O.3   1 <1>  -0.3620 
 24 C        3.7510     0.9230     4.4460 C.3   1 <1>   0.5600 
 25 H        3.6960    -0.0300     4.9900 H     1 <1>   0.0000 
 26 C        6.7890     0.0010     3.5560 C.ar  1 <1>  -0.1500 
 27 H        7.0990     1.0120     3.8060 H     1 <1>   0.1500 
 28 C        7.7130    -1.0390     3.4850 C.ar  1 <1>   0.0820 
 29 O        9.0360    -0.8290     3.7520 O.3   1 <1>  -0.5320 
 30 H        9.1620     0.1050     3.9900 H     1 <1>   0.4500 
 31 C        7.3230    -2.3260     3.1220 C.ar  1 <1>  -0.1500 
 32 H        8.0730    -3.1070     3.0590 H     1 <1>   0.1500 
 33 C        5.9840    -2.5760     2.8290 C.ar  1 <1>   0.0820 
 34 O        5.5950    -3.8180     2.4070 O.3   1 <1>  -0.5320 
 35 H        6.3610    -4.4170     2.4030 H     1 <1>   0.4500 
 36 C        4.3220     2.0410     5.3480 C.3   1 <1>   0.2800 
 37 H1       4.5360     2.9300     4.7430 H     1 <1>   0.0000 
 38 O        5.5660     1.6820     5.9710 O.3   1 <1>  -0.6800 
 39 H        5.4700     0.8060     6.3850 H     1 <1>   0.4000 
 40 C        3.3390     2.4090     6.4590 C.3   1 <1>   0.2800 
 41 O        3.8000     3.5720     7.1610 O.3   1 <1>  -0.6800 
 42 H        4.7620     3.4440     7.2810 H     1 <1>   0.4000 
 43 H2       3.2900     1.6110     7.2110 H     1 <1>   0.0000 
 44 C        1.9500     2.6960     5.8980 C.3   1 <1>   0.2800 
 45 H1       1.9840     3.6060     5.2840 H     1 <1>   0.0000 
 46 O        1.0580     2.9500     6.9820 O.3   1 <1>  -0.6800 
 47 H        1.5250     3.5900     7.5570 H     1 <1>   0.4000 
 48 C        1.4930     1.5000     5.0600 C.3   1 <1>   0.2800 
 49 C        0.1120     1.7610     4.4430 C.3   1 <1>   0.2800 
 50 O       -0.3910     0.5590     3.8620 O.3   1 <1>  -0.6800 
 51 H       -1.2200     0.7860     3.4080 H     1 <1>   0.4000 
 52 H2       0.1780     2.5130     3.6500 H     1 <1>   0.0000 
 53 H3      -0.6100     2.0890     5.1960 H     1 <1>   0.0000 
 54 H2       1.4320     0.5880     5.6690 H     1 <1>   0.0000 
 55 O        2.4360     1.2800     3.9960 O.3   1 <1>  -0.5600 
@<TRIPOS>BOND
  1   1   2  1   
  2   1   3  ar  
  3   1  12  ar  
  4   3   4  1   
  5   3   5  ar  
  6   5   6  1   
  7   5   8  ar  
  8   6   7  1   
  9   8   9  1   
 10   8  10  ar  
 11  10  11  1   
 12  10  12  ar  
 13  12  13  1   
 14  13  14  1   
 15  13  15  1   
 16  13  21  1   
 17  15  16  1   
 18  15  19  1   
 19  15  20  1   
 20  16  17  1   
 21  16  18  2   
 22  17  22  ar  
 23  17  33  ar  
 24  22  23  1   
 25  22  26  ar  
 26  23  24  1   
 27  24  25  1   
 28  24  36  1   
 29  24  55  1   
 30  26  27  1   
 31  26  28  ar  
 32  28  29  1   
 33  28  31  ar  
 34  29  30  1   
 35  31  32  1   
 36  31  33  ar  
 37  33  34  1   
 38  34  35  1   
 39  36  37  1   
 40  36  38  1   
 41  36  40  1   
 42  38  39  1   
 43  40  41  1   
 44  40  43  1   
 45  40  44  1   
 46  41  42  1   
 47  44  45  1   
 48  44  46  1   
 49  44  48  1   
 50  46  47  1   
 51  48  49  1   
 52  48  54  1   
 53  48  55  1   
 54  49  50  1   
 55  49  52  1   
 56  49  53  1   
 57  50  51  1   
@<TRIPOS>SUBSTRUCTURE
  1 <1>   0 RESIDUE 1 * * 1
# MOE 2007.09 (io_trps.svl 2007.09)
