@<TRIPOS>MOLECULE
J19_13
29 31 1 0 0 
SMALL
USER_CHARGES


@<TRIPOS>ATOM
  1 C        1.2190     0.6550     0.0180 C.ar  1 <1>   0.0860 
  2 C       -0.0650     1.2000    -0.0830 C.ar  1 <1>  -0.1500 
  3 H       -0.2120     2.1910    -0.5070 H     1 <1>   0.1500 
  4 C       -1.1660     0.4670     0.3650 C.ar  1 <1>  -0.1500 
  5 H       -2.1590     0.8990     0.2830 H     1 <1>   0.1500 
  6 C       -0.9700    -0.8020     0.9080 C.ar  1 <1>   0.0820 
  7 O       -2.0180    -1.5520     1.3570 O.3   1 <1>  -0.5320 
  8 H       -2.8420    -1.0540     1.2270 H     1 <1>   0.4500 
  9 C        0.3070    -1.3470     1.0100 C.ar  1 <1>  -0.1500 
 10 H        0.4420    -2.3370     1.4360 H     1 <1>   0.1500 
 11 C        1.4040    -0.6130     0.5620 C.ar  1 <1>   0.0820 
 12 O        2.6400    -1.1910     0.6840 O.3   1 <1>  -0.1590 
 13 C        3.7270    -0.4710     0.2490 C.2   1 <1>  -0.0730 
 14 H        4.6280    -1.0460     0.4290 H     1 <1>   0.1500 
 15 C        3.7140     0.7510    -0.3020 C.2   1 <1>  -0.0140 
 16 C        4.9700     1.4050    -0.7070 C.ar  1 <1>   0.0280 
 17 C        2.3900     1.4090    -0.4480 C.2   1 <1>   0.4690 
 18 O        2.2560     2.5260    -0.9350 O.2   1 <1>  -0.5700 
 19 C        5.8880     0.7530    -1.5480 C.ar  1 <1>  -0.1500 
 20 H        5.6790    -0.2460    -1.9250 H     1 <1>   0.1500 
 21 C        7.0800     1.3770    -1.9270 C.ar  1 <1>  -0.1500 
 22 H        7.7710     0.8510    -2.5780 H     1 <1>   0.1500 
 23 C        7.3560     2.6600    -1.4660 C.ar  1 <1>   0.0820 
 24 O        8.5060     3.3090    -1.8100 O.3   1 <1>  -0.5320 
 25 H        9.0300     2.7340    -2.3920 H     1 <1>   0.4500 
 26 C        6.4600     3.3260    -0.6380 C.ar  1 <1>  -0.1500 
 27 H        6.6840     4.3300    -0.2890 H     1 <1>   0.1500 
 28 C        5.2690     2.7010    -0.2610 C.ar  1 <1>  -0.1500 
 29 H        4.5760     3.2390     0.3830 H     1 <1>   0.1500 
@<TRIPOS>BOND
  1   1   2  ar  
  2   1  11  ar  
  3   1  17  1   
  4   2   3  1   
  5   2   4  ar  
  6   4   5  1   
  7   4   6  ar  
  8   6   7  1   
  9   6   9  ar  
 10   7   8  1   
 11   9  10  1   
 12   9  11  ar  
 13  11  12  1   
 14  12  13  1   
 15  13  14  1   
 16  13  15  2   
 17  15  16  1   
 18  15  17  1   
 19  16  19  ar  
 20  16  28  ar  
 21  17  18  2   
 22  19  20  1   
 23  19  21  ar  
 24  21  22  1   
 25  21  23  ar  
 26  23  24  1   
 27  23  26  ar  
 28  24  25  1   
 29  26  27  1   
 30  26  28  ar  
 31  28  29  1   
@<TRIPOS>SUBSTRUCTURE
  1 <1>   0 RESIDUE 1 * * 1
# MOE 2007.09 (io_trps.svl 2007.09)
