JBB20_0026.mol
  ChemDraw04102412112D

 26 29  0  0  0  0  0  0  0  0999 V2000
   -1.1270   -0.2063    0.0000 C   0  0  0  0  0  0  0  0  0  0  0  0
   -1.1270    0.6187    0.0000 C   0  0  0  0  0  0  0  0  0  0  0  0
   -0.4125    1.0313    0.0000 C   0  0  0  0  0  0  0  0  0  0  0  0
    0.3020    0.6187    0.0000 C   0  0  0  0  0  0  0  0  0  0  0  0
    0.3020   -0.2063    0.0000 C   0  0  0  0  0  0  0  0  0  0  0  0
   -0.4125   -0.6187    0.0000 O   0  0  0  0  0  0  0  0  0  0  0  0
   -1.8414    1.0313    0.0000 C   0  0  0  0  0  0  0  0  0  0  0  0
   -2.5559    0.6187    0.0000 C   0  0  0  0  0  0  0  0  0  0  0  0
   -2.5559   -0.2063    0.0000 C   0  0  0  0  0  0  0  0  0  0  0  0
   -1.8414   -0.6187    0.0000 C   0  0  0  0  0  0  0  0  0  0  0  0
   -0.4125    1.8563    0.0000 O   0  0  0  0  0  0  0  0  0  0  0  0
   -1.8414    1.8563    0.0000 O   0  0  0  0  0  0  0  0  0  0  0  0
   -3.2704   -0.6187    0.0000 O   0  0  0  0  0  0  0  0  0  0  0  0
    1.0164    1.0313    0.0000 C   0  0  0  0  0  0  0  0  0  0  0  0
    1.0164   -0.6187    0.0000 C   0  0  0  0  0  0  0  0  0  0  0  0
    1.0164   -1.4437    0.0000 C   0  0  0  0  0  0  0  0  0  0  0  0
    1.7309   -1.8563    0.0000 C   0  0  0  0  0  0  0  0  0  0  0  0
    2.4454   -1.4437    0.0000 C   0  0  0  0  0  0  0  0  0  0  0  0
    2.4454   -0.6187    0.0000 C   0  0  0  0  0  0  0  0  0  0  0  0
    1.7309   -0.2063    0.0000 C   0  0  0  0  0  0  0  0  0  0  0  0
    3.1599   -0.2063    0.0000 O   0  0  0  0  0  0  0  0  0  0  0  0
    3.1599   -1.8563    0.0000 O   0  0  0  0  0  0  0  0  0  0  0  0
    1.7309    0.6187    0.0000 C   0  0  0  0  0  0  0  0  0  0  0  0
    2.4454    1.0313    0.0000 C   0  0  0  0  0  0  0  0  0  0  0  0
    3.2704    1.0313    0.0000 C   0  0  0  0  0  0  0  0  0  0  0  0
    2.8579    1.7457    0.0000 O   0  0  0  0  0  0  0  0  0  0  0  0
  1  2  1  0      
  2  3  1  0      
  3  4  1  0      
  4  5  2  0      
  5  6  1  0      
  1  6  1  0      
  7  8  1  0      
  8  9  2  0      
  9 10  1  0      
 10  1  2  0      
  7  2  2  0      
  3 11  2  0      
  7 12  1  0      
  9 13  1  0      
  4 14  1  0      
  5 15  1  0      
 15 16  2  0      
 16 17  1  0      
 17 18  2  0      
 18 19  1  0      
 19 20  2  0      
 20 15  1  0      
 19 21  1  0      
 18 22  1  0      
 14 23  1  0      
 23 24  1  0      
 24 25  1  0      
 25 26  1  0      
 26 24  1  0      
M  END
