JBB41_0020.mol
  ChemDraw04092412352D

 41 45  0  0  1  0  0  0  0  0999 V2000
    0.2906    0.7127    0.0000 C   0  0  0  0  0  0  0  0  0  0  0  0
    0.2906   -0.1123    0.0000 C   0  0  0  0  0  0  0  0  0  0  0  0
   -0.4239   -0.5248    0.0000 C   0  0  0  0  0  0  0  0  0  0  0  0
   -1.1384   -0.1123    0.0000 C   0  0  0  0  0  0  0  0  0  0  0  0
   -1.8529   -0.5248    0.0000 C   0  0  0  0  0  0  0  0  0  0  0  0
   -1.8529   -1.3498    0.0000 O   0  0  0  0  0  0  0  0  0  0  0  0
   -2.5673   -0.1123    0.0000 C   0  0  0  0  0  0  0  0  0  0  0  0
   -2.5673    0.7127    0.0000 C   0  0  0  0  0  0  0  0  0  0  0  0
   -3.2818    1.1252    0.0000 O   0  0  0  0  0  0  0  0  0  0  0  0
   -1.8529    1.1252    0.0000 C   0  0  0  0  0  0  0  0  0  0  0  0
   -1.1384    0.7127    0.0000 C   0  0  0  0  0  0  0  0  0  0  0  0
   -0.4239    1.1252    0.0000 O   0  0  0  0  0  0  0  0  0  0  0  0
    1.0050    1.1252    0.0000 C   0  0  0  0  0  0  0  0  0  0  0  0
    1.7195    0.7127    0.0000 C   0  0  0  0  0  0  0  0  0  0  0  0
    2.4340    1.1252    0.0000 C   0  0  0  0  0  0  0  0  0  0  0  0
    3.1484    0.7127    0.0000 O   0  0  0  0  0  0  0  0  0  0  0  0
    2.4340    1.9502    0.0000 C   0  0  0  0  0  0  0  0  0  0  0  0
    3.1484    2.3627    0.0000 O   0  0  0  0  0  0  0  0  0  0  0  0
    1.7195    2.3627    0.0000 C   0  0  0  0  0  0  0  0  0  0  0  0
    1.0050    1.9502    0.0000 C   0  0  0  0  0  0  0  0  0  0  0  0
    1.0050   -1.3498    0.0000 C   0  0  0  0  0  0  0  0  0  0  0  0
    1.7746   -1.8247    0.0000 C   0  0  0  0  0  0  0  0  0  0  0  0
    2.4891   -1.4122    0.0000 C   0  0  0  0  0  0  0  0  0  0  0  0
    3.2035   -1.8247    0.0000 C   0  0  0  0  0  0  0  0  0  0  0  0
    3.9180   -1.4122    0.0000 O   0  0  0  0  0  0  0  0  0  0  0  0
    3.2035   -2.6497    0.0000 C   0  0  0  0  0  0  0  0  0  0  0  0
    3.9180   -3.0622    0.0000 O   0  0  0  0  0  0  0  0  0  0  0  0
    2.4891   -3.0622    0.0000 C   0  0  0  0  0  0  0  0  0  0  0  0
    1.7746   -2.6497    0.0000 C   0  0  0  0  0  0  0  0  0  0  0  0
    0.2906   -1.7623    0.0000 O   0  0  0  0  0  0  0  0  0  0  0  0
    1.0050   -0.5248    0.0000 O   0  0  0  0  0  0  0  0  0  0  0  0
    1.7195    3.1877    0.0000 O   0  0  0  0  0  0  0  0  0  0  0  0
   -1.8529    1.9502    0.0000 C   0  0  0  0  0  0  0  0  0  0  0  0
   -1.1854    2.4352    0.0000 C   0  0  0  0  0  0  0  0  0  0  0  0
   -1.4404    3.2198    0.0000 C   0  0  0  0  0  0  0  0  0  0  0  0
   -2.2654    3.2198    0.0000 C   0  0  0  0  0  0  0  0  0  0  0  0
   -2.5203    2.4352    0.0000 N   0  0  0  0  0  0  0  0  0  0  0  0
   -2.7503    3.8872    0.0000 O   0  0  0  0  0  0  0  0  0  0  0  0
   -3.3049    2.1802    0.0000 C   0  0  0  0  0  0  0  0  0  0  0  0
   -3.9180    2.7323    0.0000 C   0  0  0  0  0  0  0  0  0  0  0  0
    2.4891   -3.8872    0.0000 O   0  0  0  0  0  0  0  0  0  0  0  0
  1  2  1  0      
  2  3  1  0      
  3  4  1  0      
  4  5  1  0      
  5  6  1  0      
  5  7  2  0      
  7  8  1  0      
  8  9  1  0      
  8 10  2  0      
 10 11  1  0      
  4 11  2  0      
 11 12  1  0      
  1 12  1  0      
  1 13  1  6      
 13 14  1  0      
 14 15  2  0      
 15 16  1  0      
 15 17  1  0      
 17 18  1  0      
 17 19  2  0      
 19 20  1  0      
 13 20  2  0      
 22 23  1  0      
 23 24  2  0      
 24 25  1  0      
 24 26  1  0      
 26 27  1  0      
 26 28  2  0      
 28 29  1  0      
 22 29  2  0      
 21 30  2  0      
 21 31  1  0      
  2 31  1  6      
 19 32  1  0      
 10 33  1  0      
 33 34  1  0      
 34 35  1  0      
 35 36  1  0      
 36 37  1  0      
 37 33  1  0      
 36 38  2  0      
 37 39  1  0      
 39 40  1  0      
 21 22  1  0      
 28 41  1  0      
M  END
