@<TRIPOS>MOLECULE
J08_23
57 60 1 0 0 
SMALL
USER_CHARGES


@<TRIPOS>ATOM
  1 C        0.3020     0.3820    -1.4720 C.ar  1 <1>   0.0820 
  2 O        1.0040     0.3100    -2.6450 O.3   1 <1>  -0.3620 
  3 C       -1.0570     0.6800    -1.6010 C.ar  1 <1>  -0.1500 
  4 H       -1.4710     0.8560    -2.5900 H     1 <1>   0.1500 
  5 C       -1.8540     0.7520    -0.4630 C.ar  1 <1>   0.0820 
  6 O       -3.1840     1.0420    -0.5420 O.3   1 <1>  -0.5320 
  7 H       -3.4290     1.1860    -1.4720 H     1 <1>   0.4500 
  8 C       -1.3190     0.5260     0.8000 C.ar  1 <1>  -0.1500 
  9 H       -1.9660     0.5900     1.6690 H     1 <1>   0.1500 
 10 C        0.0340     0.2180     0.9160 C.ar  1 <1>   0.0820 
 11 O        0.5850    -0.0280     2.1440 O.3   1 <1>  -0.5320 
 12 H       -0.1090     0.0410     2.8210 H     1 <1>   0.4500 
 13 C        0.8600     0.1380    -0.2120 C.ar  1 <1>  -0.1440 
 14 C        2.3200    -0.1670    -0.0720 C.3   1 <1>   0.1440 
 15 H1       2.4970    -0.9030     0.7200 H     1 <1>   0.0000 
 16 H2       2.8510     0.7460     0.2260 H     1 <1>   0.0000 
 17 C        2.8820    -0.7040    -1.3820 C.3   1 <1>   0.2800 
 18 H        2.4890    -1.7090    -1.5680 H     1 <1>   0.0000 
 19 O        4.3290    -0.6910    -1.2970 O.3   1 <1>  -0.4300 
 20 C        5.1140    -1.7210    -0.9010 C.2   1 <1>   0.6590 
 21 O        6.3320    -1.5740    -0.8380 O.2   1 <1>  -0.5700 
 22 C        2.4330     0.2260    -2.5260 C.3   1 <1>   0.4240 
 23 H        2.8100     1.2450    -2.3630 H     1 <1>   0.0000 
 24 C        2.9790    -0.2780    -3.8570 C.ar  1 <1>  -0.1440 
 25 C        2.3750    -1.3570    -4.5290 C.ar  1 <1>  -0.1500 
 26 H        1.4780    -1.8140    -4.1200 H     1 <1>   0.1500 
 27 C        2.9400    -1.8390    -5.7060 C.ar  1 <1>   0.0820 
 28 O        2.4070    -2.9000    -6.3890 O.3   1 <1>  -0.5320 
 29 H        1.6690    -3.2560    -5.8650 H     1 <1>   0.4500 
 30 C        4.0920    -1.2600    -6.2320 C.ar  1 <1>   0.0820 
 31 O        4.6050    -1.7710    -7.3940 O.3   1 <1>  -0.5320 
 32 H        4.0020    -2.5100    -7.6130 H     1 <1>   0.4500 
 33 C        4.6970    -0.1930    -5.5800 C.ar  1 <1>   0.0820 
 34 O        5.8340     0.3570    -6.0980 O.3   1 <1>  -0.5320 
 35 H        6.0690     1.1530    -5.5940 H     1 <1>   0.4500 
 36 C        4.1470     0.2980    -4.3940 C.ar  1 <1>  -0.1500 
 37 H        4.6340     1.1130    -3.8640 H     1 <1>   0.1500 
 38 C        4.4480    -3.0440    -0.5650 C.3   1 <1>   0.0610 
 39 H        3.5030    -2.8510    -0.0480 H     1 <1>   0.0000 
 40 C        4.2090    -3.8610    -1.8400 C.3   1 <1>   0.0000 
 41 H1       3.5980    -3.3120    -2.5630 H     1 <1>   0.0000 
 42 H2       5.1590    -4.0420    -2.3610 H     1 <1>   0.0000 
 43 C        3.5360    -5.1890    -1.5120 C.3   1 <1>   0.2800 
 44 O        3.3490    -5.9330    -2.7130 O.3   1 <1>  -0.6800 
 45 H        3.1050    -6.8340    -2.4190 H     1 <1>   0.4000 
 46 H2       2.5370    -5.0140    -1.0940 H     1 <1>   0.0000 
 47 C        4.3810    -6.0070    -0.5350 C.3   1 <1>   0.2800 
 48 H1       5.3100    -6.3420    -1.0130 H     1 <1>   0.0000 
 49 O        3.6590    -7.1980    -0.1990 O.3   1 <1>  -0.6800 
 50 H        4.1060    -7.5600     0.5920 H     1 <1>   0.4000 
 51 C        4.6820    -5.2090     0.7380 C.3   1 <1>   0.2800 
 52 O        5.5440    -5.9860     1.5710 O.3   1 <1>  -0.6800 
 53 H        6.4460    -5.9460     1.2050 H     1 <1>   0.4000 
 54 H2       3.7560    -5.0650     1.3080 H     1 <1>   0.0000 
 55 C        5.3130    -3.8530     0.4210 C.3   1 <1>   0.0000 
 56 H2       5.4620    -3.2900     1.3510 H     1 <1>   0.0000 
 57 H1       6.3220    -4.0070     0.0130 H     1 <1>   0.0000 
@<TRIPOS>BOND
  1   1   2  1   
  2   1   3  ar  
  3   1  13  ar  
  4   2  22  1   
  5   3   4  1   
  6   3   5  ar  
  7   5   6  1   
  8   5   8  ar  
  9   6   7  1   
 10   8   9  1   
 11   8  10  ar  
 12  10  11  1   
 13  10  13  ar  
 14  11  12  1   
 15  13  14  1   
 16  14  15  1   
 17  14  16  1   
 18  14  17  1   
 19  17  18  1   
 20  17  19  1   
 21  17  22  1   
 22  19  20  1   
 23  20  21  2   
 24  20  38  1   
 25  22  23  1   
 26  22  24  1   
 27  24  25  ar  
 28  24  36  ar  
 29  25  26  1   
 30  25  27  ar  
 31  27  28  1   
 32  27  30  ar  
 33  28  29  1   
 34  30  31  1   
 35  30  33  ar  
 36  31  32  1   
 37  33  34  1   
 38  33  36  ar  
 39  34  35  1   
 40  36  37  1   
 41  38  39  1   
 42  38  40  1   
 43  38  55  1   
 44  40  41  1   
 45  40  42  1   
 46  40  43  1   
 47  43  44  1   
 48  43  46  1   
 49  43  47  1   
 50  44  45  1   
 51  47  48  1   
 52  47  49  1   
 53  47  51  1   
 54  49  50  1   
 55  51  52  1   
 56  51  54  1   
 57  51  55  1   
 58  52  53  1   
 59  55  56  1   
 60  55  57  1   
@<TRIPOS>SUBSTRUCTURE
  1 <1>   0 RESIDUE 1 * * 1
# MOE 2007.09 (io_trps.svl 2007.09)
