Jozipeltine A
  -OEChem-01222104412D

104111  0     1  0  0  0  0  0999 V2000
   13.0275   -4.1841    0.0000 O   0  0  0  0  0  0  0  0  0  0  0  0
    3.4030    1.4222    0.0000 O   0  0  0  0  0  0  0  0  0  0  0  0
    8.6936   -4.6507    0.0000 O   0  0  0  0  0  0  0  0  0  0  0  0
    5.1350   -2.5778    0.0000 O   0  0  0  0  0  0  0  0  0  0  0  0
    7.8010   -3.1469    0.0000 O   0  0  0  0  0  0  0  0  0  0  0  0
    6.8834   -2.6124    0.0000 O   0  0  0  0  0  0  0  0  0  0  0  0
   12.1499   -5.6774    0.0000 O   0  0  0  0  0  0  0  0  0  0  0  0
    2.5369   -0.0778    0.0000 O   0  0  0  0  0  0  0  0  0  0  0  0
   15.7049   -2.7255    0.0000 N   0  0  0  0  0  0  0  0  0  0  0  0
    3.3510    4.4707    0.0000 N   0  0  0  0  0  0  0  0  0  0  0  0
   15.7129   -1.6839    0.0000 C   0  0  1  0  0  0  0  0  0  0  0  0
    4.2530    4.9915    0.0000 C   0  0  1  0  0  0  0  0  0  0  0  0
   14.7949   -3.2323    0.0000 C   0  0  1  0  0  0  0  0  0  0  0  0
    3.3590    3.4291    0.0000 C   0  0  1  0  0  0  0  0  0  0  0  0
   14.8108   -1.1631    0.0000 C   0  0  0  0  0  0  0  0  0  0  0  0
    5.1511    4.4637    0.0000 C   0  0  0  0  0  0  0  0  0  0  0  0
   13.9051   -2.6908    0.0000 C   0  0  0  0  0  0  0  0  0  0  0  0
    4.2690    2.9222    0.0000 C   0  0  0  0  0  0  0  0  0  0  0  0
   13.9128   -1.6908    0.0000 C   0  0  0  0  0  0  0  0  0  0  0  0
    5.1350    3.4222    0.0000 C   0  0  0  0  0  0  0  0  0  0  0  0
   13.0352   -3.1841    0.0000 C   0  0  0  0  0  0  0  0  0  0  0  0
    4.2690    1.9222    0.0000 C   0  0  0  0  0  0  0  0  0  0  0  0
   12.1731   -2.6774    0.0000 C   0  0  0  0  0  0  0  0  0  0  0  0
    5.1350    1.4222    0.0000 C   0  0  0  0  0  0  0  0  0  0  0  0
   16.5808   -1.1872    0.0000 C   0  0  0  0  0  0  0  0  0  0  0  0
    4.2569    5.9915    0.0000 C   0  0  0  0  0  0  0  0  0  0  0  0
   14.7756   -4.2321    0.0000 C   0  0  0  0  0  0  0  0  0  0  0  0
    2.4988    2.9191    0.0000 C   0  0  0  0  0  0  0  0  0  0  0  0
   13.0506   -1.1842    0.0000 C   0  0  0  0  0  0  0  0  0  0  0  0
    6.0010    2.9222    0.0000 C   0  0  0  0  0  0  0  0  0  0  0  0
   11.3032   -3.1708    0.0000 C   0  0  0  0  0  0  0  0  0  0  0  0
    5.1350    0.4222    0.0000 C   0  0  0  0  0  0  0  0  0  0  0  0
   12.1808   -1.6775    0.0000 C   0  0  0  0  0  0  0  0  0  0  0  0
    6.0010    1.9222    0.0000 C   0  0  0  0  0  0  0  0  0  0  0  0
   10.4411   -2.6641    0.0000 C   0  0  0  0  0  0  0  0  0  0  0  0
    6.0010   -0.0778    0.0000 C   0  0  0  0  0  0  0  0  0  0  0  0
   11.2955   -4.1707    0.0000 C   0  0  0  0  0  0  0  0  0  0  0  0
    4.2690   -0.0778    0.0000 C   0  0  0  0  0  0  0  0  0  0  0  0
    9.5712   -3.1574    0.0000 C   0  0  0  0  0  0  0  0  0  0  0  0
    6.0010   -1.0778    0.0000 C   0  0  0  0  0  0  0  0  0  0  0  0
    8.6651   -1.6019    0.0000 C   0  0  0  0  0  0  0  0  0  0  0  0
    7.8010   -1.0986    0.0000 C   0  0  0  0  0  0  0  0  0  0  0  0
    8.6651   -2.6436    0.0000 C   0  0  0  0  0  0  0  0  0  0  0  0
    6.8950   -1.6124    0.0000 C   0  0  0  0  0  0  0  0  0  0  0  0
   10.4651   -1.6227    0.0000 C   0  0  0  0  0  0  0  0  0  0  0  0
    6.8950    0.4569    0.0000 C   0  0  0  0  0  0  0  0  0  0  0  0
    9.5635   -4.1574    0.0000 C   0  0  0  0  0  0  0  0  0  0  0  0
    5.1350   -1.5778    0.0000 C   0  0  0  0  0  0  0  0  0  0  0  0
   10.4256   -4.6640    0.0000 C   0  0  0  0  0  0  0  0  0  0  0  0
    4.2690   -1.0778    0.0000 C   0  0  0  0  0  0  0  0  0  0  0  0
    9.5712   -1.0881    0.0000 C   0  0  0  0  0  0  0  0  0  0  0  0
    7.8010   -0.0570    0.0000 C   0  0  0  0  0  0  0  0  0  0  0  0
   12.1576   -4.6774    0.0000 C   0  0  0  0  0  0  0  0  0  0  0  0
    3.4030    0.4222    0.0000 C   0  0  0  0  0  0  0  0  0  0  0  0
    4.2690   -3.0778    0.0000 C   0  0  0  0  0  0  0  0  0  0  0  0
    8.6859   -5.6506    0.0000 C   0  0  0  0  0  0  0  0  0  0  0  0
   16.2480   -1.9970    0.0000 H   0  0  0  0  0  0  0  0  0  0  0  0
    3.7167    5.3025    0.0000 H   0  0  0  0  0  0  0  0  0  0  0  0
   15.3263   -3.5516    0.0000 H   0  0  0  0  0  0  0  0  0  0  0  0
    2.8191    3.7339    0.0000 H   0  0  0  0  0  0  0  0  0  0  0  0
   15.2081   -0.6871    0.0000 H   0  0  0  0  0  0  0  0  0  0  0  0
   14.4098   -0.6902    0.0000 H   0  0  0  0  0  0  0  0  0  0  0  0
    5.7602    4.3482    0.0000 H   0  0  0  0  0  0  0  0  0  0  0  0
    5.3691    5.0441    0.0000 H   0  0  0  0  0  0  0  0  0  0  0  0
   16.2382   -3.0417    0.0000 H   0  0  0  0  0  0  0  0  0  0  0  0
    2.8128    4.7786    0.0000 H   0  0  0  0  0  0  0  0  0  0  0  0
   16.8888   -1.7254    0.0000 H   0  0  0  0  0  0  0  0  0  0  0  0
   17.1190   -0.8793    0.0000 H   0  0  0  0  0  0  0  0  0  0  0  0
   16.2729   -0.6491    0.0000 H   0  0  0  0  0  0  0  0  0  0  0  0
    4.8769    5.9891    0.0000 H   0  0  0  0  0  0  0  0  0  0  0  0
    4.2593    6.6115    0.0000 H   0  0  0  0  0  0  0  0  0  0  0  0
    3.6369    5.9939    0.0000 H   0  0  0  0  0  0  0  0  0  0  0  0
   14.1557   -4.2202    0.0000 H   0  0  0  0  0  0  0  0  0  0  0  0
   14.7636   -4.8520    0.0000 H   0  0  0  0  0  0  0  0  0  0  0  0
   15.3955   -4.2441    0.0000 H   0  0  0  0  0  0  0  0  0  0  0  0
    2.1826    3.4524    0.0000 H   0  0  0  0  0  0  0  0  0  0  0  0
    1.9655    2.6029    0.0000 H   0  0  0  0  0  0  0  0  0  0  0  0
    2.8150    2.3858    0.0000 H   0  0  0  0  0  0  0  0  0  0  0  0
   13.0554   -0.5642    0.0000 H   0  0  0  0  0  0  0  0  0  0  0  0
    6.5380    3.2322    0.0000 H   0  0  0  0  0  0  0  0  0  0  0  0
   11.6462   -1.3633    0.0000 H   0  0  0  0  0  0  0  0  0  0  0  0
    6.5380    1.6122    0.0000 H   0  0  0  0  0  0  0  0  0  0  0  0
   11.0080   -1.3231    0.0000 H   0  0  0  0  0  0  0  0  0  0  0  0
    6.8878    1.0768    0.0000 H   0  0  0  0  0  0  0  0  0  0  0  0
   10.4209   -5.2840    0.0000 H   0  0  0  0  0  0  0  0  0  0  0  0
    3.7320   -1.3878    0.0000 H   0  0  0  0  0  0  0  0  0  0  0  0
   13.5620   -4.4982    0.0000 H   0  0  0  0  0  0  0  0  0  0  0  0
    2.8660    1.7322    0.0000 H   0  0  0  0  0  0  0  0  0  0  0  0
    9.5784   -0.4681    0.0000 H   0  0  0  0  0  0  0  0  0  0  0  0
    8.3368    0.2551    0.0000 H   0  0  0  0  0  0  0  0  0  0  0  0
   12.7674   -4.7898    0.0000 H   0  0  0  0  0  0  0  0  0  0  0  0
   12.3742   -4.0964    0.0000 H   0  0  0  0  0  0  0  0  0  0  0  0
    3.8015    0.8972    0.0000 H   0  0  0  0  0  0  0  0  0  0  0  0
    3.0044    0.8972    0.0000 H   0  0  0  0  0  0  0  0  0  0  0  0
    7.8034   -3.7669    0.0000 H   0  0  0  0  0  0  0  0  0  0  0  0
    6.3429   -2.9161    0.0000 H   0  0  0  0  0  0  0  0  0  0  0  0
   12.6845   -5.9915    0.0000 H   0  0  0  0  0  0  0  0  0  0  0  0
    2.0000    0.2322    0.0000 H   0  0  0  0  0  0  0  0  0  0  0  0
    3.9590   -2.5408    0.0000 H   0  0  0  0  0  0  0  0  0  0  0  0
    3.7320   -3.3878    0.0000 H   0  0  0  0  0  0  0  0  0  0  0  0
    4.5790   -3.6147    0.0000 H   0  0  0  0  0  0  0  0  0  0  0  0
    8.0660   -5.6459    0.0000 H   0  0  0  0  0  0  0  0  0  0  0  0
    8.6812   -6.2706    0.0000 H   0  0  0  0  0  0  0  0  0  0  0  0
    9.3059   -5.6554    0.0000 H   0  0  0  0  0  0  0  0  0  0  0  0
  1 21  1  0  0  0  0
  1 87  1  0  0  0  0
  2 22  1  0  0  0  0
  2 88  1  0  0  0  0
  3 47  1  0  0  0  0
  3 56  1  0  0  0  0
  4 48  1  0  0  0  0
  4 55  1  0  0  0  0
  5 43  1  0  0  0  0
  5 95  1  0  0  0  0
  6 44  1  0  0  0  0
  6 96  1  0  0  0  0
  7 53  1  0  0  0  0
  7 97  1  0  0  0  0
  8 54  1  0  0  0  0
  8 98  1  0  0  0  0
  9 11  1  0  0  0  0
  9 13  1  0  0  0  0
  9 65  1  0  0  0  0
 10 12  1  0  0  0  0
 10 14  1  0  0  0  0
 10 66  1  0  0  0  0
 11 15  1  0  0  0  0
 11 25  1  1  0  0  0
 11 57  1  0  0  0  0
 12 16  1  0  0  0  0
 12 26  1  6  0  0  0
 12 58  1  0  0  0  0
 13 17  1  0  0  0  0
 13 27  1  6  0  0  0
 13 59  1  0  0  0  0
 14 18  1  0  0  0  0
 14 28  1  1  0  0  0
 14 60  1  0  0  0  0
 15 19  1  0  0  0  0
 15 61  1  0  0  0  0
 15 62  1  0  0  0  0
 16 20  1  0  0  0  0
 16 63  1  0  0  0  0
 16 64  1  0  0  0  0
 17 19  2  0  0  0  0
 17 21  1  0  0  0  0
 18 20  2  0  0  0  0
 18 22  1  0  0  0  0
 19 29  1  0  0  0  0
 20 30  1  0  0  0  0
 21 23  2  0  0  0  0
 22 24  2  0  0  0  0
 23 31  1  0  0  0  0
 23 33  1  0  0  0  0
 24 32  1  0  0  0  0
 24 34  1  0  0  0  0
 25 67  1  0  0  0  0
 25 68  1  0  0  0  0
 25 69  1  0  0  0  0
 26 70  1  0  0  0  0
 26 71  1  0  0  0  0
 26 72  1  0  0  0  0
 27 73  1  0  0  0  0
 27 74  1  0  0  0  0
 27 75  1  0  0  0  0
 28 76  1  0  0  0  0
 28 77  1  0  0  0  0
 28 78  1  0  0  0  0
 29 33  2  0  0  0  0
 29 79  1  0  0  0  0
 30 34  2  0  0  0  0
 30 80  1  0  0  0  0
 31 35  2  0  0  0  0
 31 37  1  0  0  0  0
 32 36  2  0  0  0  0
 32 38  1  0  0  0  0
 33 81  1  0  0  0  0
 34 82  1  0  0  0  0
 35 39  1  0  0  0  0
 35 45  1  0  0  0  0
 36 40  1  0  0  0  0
 36 46  1  0  0  0  0
 37 49  2  0  0  0  0
 37 53  1  0  0  0  0
 38 50  2  0  0  0  0
 38 54  1  0  0  0  0
 39 43  1  0  0  0  0
 39 47  2  0  0  0  0
 40 44  1  0  0  0  0
 40 48  2  0  0  0  0
 41 42  1  0  0  0  0
 41 43  2  0  0  0  0
 41 51  1  0  0  0  0
 42 44  2  0  0  0  0
 42 52  1  0  0  0  0
 45 51  2  0  0  0  0
 45 83  1  0  0  0  0
 46 52  2  0  0  0  0
 46 84  1  0  0  0  0
 47 49  1  0  0  0  0
 48 50  1  0  0  0  0
 49 85  1  0  0  0  0
 50 86  1  0  0  0  0
 51 89  1  0  0  0  0
 52 90  1  0  0  0  0
 53 91  1  0  0  0  0
 53 92  1  0  0  0  0
 54 93  1  0  0  0  0
 54 94  1  0  0  0  0
 55 99  1  0  0  0  0
 55100  1  0  0  0  0
 55101  1  0  0  0  0
 56102  1  0  0  0  0
 56103  1  0  0  0  0
 56104  1  0  0  0  0
M  END
> <PUBCHEM_COMPOUND_CID>
10010334

> <PUBCHEM_COMPOUND_CANONICALIZED>
1

> <PUBCHEM_CACTVS_COMPLEXITY>
1210

> <PUBCHEM_CACTVS_HBOND_ACCEPTOR>
10

> <PUBCHEM_CACTVS_HBOND_DONOR>
8

> <PUBCHEM_CACTVS_ROTATABLE_BOND>
7

> <PUBCHEM_CACTVS_SUBSKEYS>
AAADcfB/PAAAAAAAAAAAAAAAAAAAAAAAAAA8eMGDAAAAAADxVAAAHgAQCAAADCzhmAYyBsLABgCAAiBCAACCCAAgIAAIiIAODIgMNyKGsRuEcChn0BWIuAfQ8PcO4AADAAAYAADAAAYAADAAAAAAAAAAAA==

> <PUBCHEM_IUPAC_OPENEYE_NAME>
(1R,3R)-7-[5-hydroxy-6-[1-hydroxy-5-[(1R,3R)-8-hydroxy-1,3-dimethyl-1,2,3,4-tetrahydroisoquinolin-7-yl]-6-(hydroxymethyl)-8-methoxy-2-naphthyl]-2-(hydroxymethyl)-4-methoxy-1-naphthyl]-1,3-dimethyl-1,2,3,4-tetrahydroisoquinolin-8-ol

> <PUBCHEM_IUPAC_CAS_NAME>
(1R,3R)-7-[5-hydroxy-6-[1-hydroxy-5-[(1R,3R)-8-hydroxy-1,3-dimethyl-1,2,3,4-tetrahydroisoquinolin-7-yl]-6-(hydroxymethyl)-8-methoxy-2-naphthalenyl]-2-(hydroxymethyl)-4-methoxy-1-naphthalenyl]-1,3-dimethyl-1,2,3,4-tetrahydroisoquinolin-8-ol

> <PUBCHEM_IUPAC_NAME_MARKUP>
(1<I>R</I>,3<I>R</I>)-7-[5-hydroxy-6-[1-hydroxy-5-[(1<I>R</I>,3<I>R</I>)-8-hydroxy-1,3-dimethyl-1,2,3,4-tetrahydroisoquinolin-7-yl]-6-(hydroxymethyl)-8-methoxynaphthalen-2-yl]-2-(hydroxymethyl)-4-methoxynaphthalen-1-yl]-1,3-dimethyl-1,2,3,4-tetrahydroisoquinolin-8-ol

> <PUBCHEM_IUPAC_NAME>
(1R,3R)-7-[5-hydroxy-6-[1-hydroxy-5-[(1R,3R)-8-hydroxy-1,3-dimethyl-1,2,3,4-tetrahydroisoquinolin-7-yl]-6-(hydroxymethyl)-8-methoxynaphthalen-2-yl]-2-(hydroxymethyl)-4-methoxynaphthalen-1-yl]-1,3-dimethyl-1,2,3,4-tetrahydroisoquinolin-8-ol

> <PUBCHEM_IUPAC_SYSTEMATIC_NAME>
(1R,3R)-7-[6-[5-[(1R,3R)-1,3-dimethyl-8-oxidanyl-1,2,3,4-tetrahydroisoquinolin-7-yl]-6-(hydroxymethyl)-8-methoxy-1-oxidanyl-naphthalen-2-yl]-2-(hydroxymethyl)-4-methoxy-5-oxidanyl-naphthalen-1-yl]-1,3-dimethyl-1,2,3,4-tetrahydroisoquinolin-8-ol

> <PUBCHEM_IUPAC_TRADITIONAL_NAME>
(1R,3R)-7-[5-hydroxy-6-[1-hydroxy-5-[(1R,3R)-8-hydroxy-1,3-dimethyl-1,2,3,4-tetrahydroisoquinolin-7-yl]-8-methoxy-6-methylol-2-naphthyl]-4-methoxy-2-methylol-1-naphthyl]-1,3-dimethyl-1,2,3,4-tetrahydroisoquinolin-8-ol

> <PUBCHEM_IUPAC_INCHI>
InChI=1S/C46H48N2O8/c1-21-15-25-7-9-33(45(53)37(25)23(3)47-21)39-27(19-49)17-35(55-5)41-31(39)13-11-29(43(41)51)30-12-14-32-40(28(20-50)18-36(56-6)42(32)44(30)52)34-10-8-26-16-22(2)48-24(4)38(26)46(34)54/h7-14,17-18,21-24,47-54H,15-16,19-20H2,1-6H3/t21-,22-,23-,24-/m1/s1

> <PUBCHEM_IUPAC_INCHIKEY>
SZJNFQPWPPALHV-MOUTVQLLSA-N

> <PUBCHEM_XLOGP3_AA>
6.5

> <PUBCHEM_EXACT_MASS>
756.341067

> <PUBCHEM_MOLECULAR_FORMULA>
C46H48N2O8

> <PUBCHEM_MOLECULAR_WEIGHT>
756.9

> <PUBCHEM_OPENEYE_CAN_SMILES>
CC1CC2=C(C(N1)C)C(=C(C=C2)C3=C4C=CC(=C(C4=C(C=C3CO)OC)O)C5=C(C6=C(C=C(C(=C6C=C5)C7=C(C8=C(CC(NC8C)C)C=C7)O)CO)OC)O)O

> <PUBCHEM_OPENEYE_ISO_SMILES>
C[C@@H]1CC2=C([C@H](N1)C)C(=C(C=C2)C3=C4C=CC(=C(C4=C(C=C3CO)OC)O)C5=C(C6=C(C=C(C(=C6C=C5)C7=C(C8=C(C[C@H](N[C@@H]8C)C)C=C7)O)CO)OC)O)O

> <PUBCHEM_CACTVS_TPSA>
164

> <PUBCHEM_MONOISOTOPIC_WEIGHT>
756.341067

> <PUBCHEM_TOTAL_CHARGE>
0

> <PUBCHEM_HEAVY_ATOM_COUNT>
56

> <PUBCHEM_ATOM_DEF_STEREO_COUNT>
4

> <PUBCHEM_ATOM_UDEF_STEREO_COUNT>
0

> <PUBCHEM_BOND_DEF_STEREO_COUNT>
0

> <PUBCHEM_BOND_UDEF_STEREO_COUNT>
0

> <PUBCHEM_ISOTOPIC_ATOM_COUNT>
0

> <PUBCHEM_COMPONENT_COUNT>
1

> <PUBCHEM_CACTVS_TAUTO_COUNT>
-1

> <PUBCHEM_COORDINATE_TYPE>
1
5
255

> <PUBCHEM_BONDANNOTATIONS>
11  25  5
12  26  6
13  27  6
14  28  5
17  19  8
17  21  8
18  20  8
18  22  8
19  29  8
20  30  8
21  23  8
22  24  8
23  33  8
24  34  8
29  33  8
30  34  8
31  35  8
31  37  8
32  36  8
32  38  8
35  39  8
35  45  8
36  40  8
36  46  8
37  49  8
38  50  8
39  43  8
39  47  8
40  44  8
40  48  8
41  43  8
41  51  8
42  44  8
42  52  8
45  51  8
46  52  8
47  49  8
48  50  8

$$$$
