Lup-20(29)-en-3-ol,acetate,(3beta)
  -OEChem-12152007073D

 86 90  0     1  0  0  0  0  0999 V2000
    6.1702    0.3868    0.2678 O   0  0  0  0  0  0  0  0  0  0  0  0
    6.1508    2.6181    0.8659 O   0  0  0  0  0  0  0  0  0  0  0  0
   -0.3850   -1.2794   -0.2352 C   0  0  1  0  0  0  0  0  0  0  0  0
   -1.8241   -1.0466    0.4919 C   0  0  1  0  0  0  0  0  0  0  0  0
    0.3998    0.0966   -0.2648 C   0  0  1  0  0  0  0  0  0  0  0  0
   -2.6174    0.0664   -0.3102 C   0  0  1  0  0  0  0  0  0  0  0  0
    1.9331    0.0324   -0.7042 C   0  0  2  0  0  0  0  0  0  0  0  0
   -4.0520    0.2286    0.2370 C   0  0  2  0  0  0  0  0  0  0  0  0
   -4.8425   -1.0976    0.1338 C   0  0  1  0  0  0  0  0  0  0  0  0
    2.6314   -1.0503    0.2047 C   0  0  1  0  0  0  0  0  0  0  0  0
   -2.6792   -2.3632    0.5681 C   0  0  0  0  0  0  0  0  0  0  0  0
    0.4669   -2.3335    0.5252 C   0  0  0  0  0  0  0  0  0  0  0  0
   -0.4262    1.2016   -0.9630 C   0  0  0  0  0  0  0  0  0  0  0  0
   -1.8295    1.3802   -0.3757 C   0  0  0  0  0  0  0  0  0  0  0  0
   -4.1480   -2.1598    0.9952 C   0  0  0  0  0  0  0  0  0  0  0  0
    1.9319   -2.4186    0.0825 C   0  0  0  0  0  0  0  0  0  0  0  0
   -5.0137    1.2562   -0.3892 C   0  0  1  0  0  0  0  0  0  0  0  0
    4.2037   -1.1034    0.1365 C   0  0  0  0  0  0  0  0  0  0  0  0
    2.6019    1.4101   -0.3990 C   0  0  0  0  0  0  0  0  0  0  0  0
   -0.6022   -1.8371   -1.6745 C   0  0  0  0  0  0  0  0  0  0  0  0
   -1.6315   -0.6011    1.9834 C   0  0  0  0  0  0  0  0  0  0  0  0
   -6.2091   -0.6411    0.6613 C   0  0  0  0  0  0  0  0  0  0  0  0
   -6.4143    0.7505    0.0358 C   0  0  0  0  0  0  0  0  0  0  0  0
    2.0927   -0.2319   -2.2206 C   0  0  0  0  0  0  0  0  0  0  0  0
    4.7506    0.3299    0.4041 C   0  0  2  0  0  0  0  0  0  0  0  0
    4.1272    1.4046   -0.4793 C   0  0  0  0  0  0  0  0  0  0  0  0
   -5.0313   -1.6403   -1.3062 C   0  0  0  0  0  0  0  0  0  0  0  0
    4.7509   -2.0168    1.2688 C   0  0  0  0  0  0  0  0  0  0  0  0
    4.7502   -1.6891   -1.1809 C   0  0  0  0  0  0  0  0  0  0  0  0
   -4.7975    2.6677    0.0527 C   0  0  0  0  0  0  0  0  0  0  0  0
   -4.8676    2.9165    1.5302 C   0  0  0  0  0  0  0  0  0  0  0  0
   -4.5544    3.6551   -0.8220 C   0  0  0  0  0  0  0  0  0  0  0  0
    6.7397    1.5992    0.5309 C   0  0  0  0  0  0  0  0  0  0  0  0
    8.2245    1.5094    0.3492 C   0  0  0  0  0  0  0  0  0  0  0  0
    0.4665    0.4217    0.7810 H   0  0  0  0  0  0  0  0  0  0  0  0
   -2.7251   -0.2622   -1.3483 H   0  0  0  0  0  0  0  0  0  0  0  0
   -3.9681    0.4763    1.3005 H   0  0  0  0  0  0  0  0  0  0  0  0
    2.4270   -0.7253    1.2393 H   0  0  0  0  0  0  0  0  0  0  0  0
   -2.2149   -3.0701    1.2670 H   0  0  0  0  0  0  0  0  0  0  0  0
   -2.6955   -2.8761   -0.3948 H   0  0  0  0  0  0  0  0  0  0  0  0
    0.0151   -3.3283    0.4274 H   0  0  0  0  0  0  0  0  0  0  0  0
    0.4851   -2.1136    1.5963 H   0  0  0  0  0  0  0  0  0  0  0  0
   -0.5252    0.9990   -2.0337 H   0  0  0  0  0  0  0  0  0  0  0  0
    0.0805    2.1685   -0.8825 H   0  0  0  0  0  0  0  0  0  0  0  0
   -1.7629    1.8470    0.6130 H   0  0  0  0  0  0  0  0  0  0  0  0
   -2.3464    2.0906   -1.0255 H   0  0  0  0  0  0  0  0  0  0  0  0
   -4.6802   -3.1165    0.9216 H   0  0  0  0  0  0  0  0  0  0  0  0
   -4.1880   -1.8801    2.0544 H   0  0  0  0  0  0  0  0  0  0  0  0
    2.4124   -3.1552    0.7341 H   0  0  0  0  0  0  0  0  0  0  0  0
    2.0080   -2.8248   -0.9291 H   0  0  0  0  0  0  0  0  0  0  0  0
   -4.9375    1.1966   -1.4832 H   0  0  0  0  0  0  0  0  0  0  0  0
    2.3159    1.7426    0.6079 H   0  0  0  0  0  0  0  0  0  0  0  0
    2.2321    2.1729   -1.0947 H   0  0  0  0  0  0  0  0  0  0  0  0
   -1.1140   -1.1368   -2.3371 H   0  0  0  0  0  0  0  0  0  0  0  0
    0.3299   -2.1041   -2.1687 H   0  0  0  0  0  0  0  0  0  0  0  0
   -1.1752   -2.7673   -1.6740 H   0  0  0  0  0  0  0  0  0  0  0  0
   -1.1373   -1.3749    2.5776 H   0  0  0  0  0  0  0  0  0  0  0  0
   -1.0540    0.3178    2.0942 H   0  0  0  0  0  0  0  0  0  0  0  0
   -2.5791   -0.4186    2.4959 H   0  0  0  0  0  0  0  0  0  0  0  0
   -6.1904   -0.5439    1.7541 H   0  0  0  0  0  0  0  0  0  0  0  0
   -7.0241   -1.3265    0.4065 H   0  0  0  0  0  0  0  0  0  0  0  0
   -7.0384    0.6548   -0.8624 H   0  0  0  0  0  0  0  0  0  0  0  0
   -6.9759    1.4006    0.7119 H   0  0  0  0  0  0  0  0  0  0  0  0
    1.2552    0.1606   -2.8018 H   0  0  0  0  0  0  0  0  0  0  0  0
    2.9752    0.2542   -2.6435 H   0  0  0  0  0  0  0  0  0  0  0  0
    2.1923   -1.2913   -2.4611 H   0  0  0  0  0  0  0  0  0  0  0  0
    4.5170    0.5807    1.4497 H   0  0  0  0  0  0  0  0  0  0  0  0
    4.4674    1.2734   -1.5127 H   0  0  0  0  0  0  0  0  0  0  0  0
    4.4106    2.4280   -0.2397 H   0  0  0  0  0  0  0  0  0  0  0  0
   -5.5474   -0.9337   -1.9630 H   0  0  0  0  0  0  0  0  0  0  0  0
   -4.0867   -1.8933   -1.7942 H   0  0  0  0  0  0  0  0  0  0  0  0
   -5.6371   -2.5543   -1.2882 H   0  0  0  0  0  0  0  0  0  0  0  0
    4.5229   -3.0724    1.0901 H   0  0  0  0  0  0  0  0  0  0  0  0
    5.8417   -1.9436    1.3505 H   0  0  0  0  0  0  0  0  0  0  0  0
    4.3303   -1.7391    2.2416 H   0  0  0  0  0  0  0  0  0  0  0  0
    4.6081   -1.0236   -2.0327 H   0  0  0  0  0  0  0  0  0  0  0  0
    5.8303   -1.8669   -1.1122 H   0  0  0  0  0  0  0  0  0  0  0  0
    4.2866   -2.6516   -1.4186 H   0  0  0  0  0  0  0  0  0  0  0  0
   -5.7664    2.5082    1.9961 H   0  0  0  0  0  0  0  0  0  0  0  0
   -3.9926    2.5021    2.0402 H   0  0  0  0  0  0  0  0  0  0  0  0
   -4.8715    3.9915    1.7468 H   0  0  0  0  0  0  0  0  0  0  0  0
   -4.3967    4.6760   -0.4905 H   0  0  0  0  0  0  0  0  0  0  0  0
   -4.5062    3.4673   -1.8895 H   0  0  0  0  0  0  0  0  0  0  0  0
    8.4552    1.2353   -0.6834 H   0  0  0  0  0  0  0  0  0  0  0  0
    8.6391    0.7754    1.0447 H   0  0  0  0  0  0  0  0  0  0  0  0
    8.6754    2.4833    0.5602 H   0  0  0  0  0  0  0  0  0  0  0  0
  1 25  1  0  0  0  0
  1 33  1  0  0  0  0
  2 33  2  0  0  0  0
  3  4  1  0  0  0  0
  3  5  1  0  0  0  0
  3 12  1  0  0  0  0
  3 20  1  0  0  0  0
  4  6  1  0  0  0  0
  4 11  1  0  0  0  0
  4 21  1  0  0  0  0
  5  7  1  0  0  0  0
  5 13  1  0  0  0  0
  5 35  1  0  0  0  0
  6  8  1  0  0  0  0
  6 14  1  0  0  0  0
  6 36  1  0  0  0  0
  7 10  1  0  0  0  0
  7 19  1  0  0  0  0
  7 24  1  0  0  0  0
  8  9  1  0  0  0  0
  8 17  1  0  0  0  0
  8 37  1  0  0  0  0
  9 15  1  0  0  0  0
  9 22  1  0  0  0  0
  9 27  1  0  0  0  0
 10 16  1  0  0  0  0
 10 18  1  0  0  0  0
 10 38  1  0  0  0  0
 11 15  1  0  0  0  0
 11 39  1  0  0  0  0
 11 40  1  0  0  0  0
 12 16  1  0  0  0  0
 12 41  1  0  0  0  0
 12 42  1  0  0  0  0
 13 14  1  0  0  0  0
 13 43  1  0  0  0  0
 13 44  1  0  0  0  0
 14 45  1  0  0  0  0
 14 46  1  0  0  0  0
 15 47  1  0  0  0  0
 15 48  1  0  0  0  0
 16 49  1  0  0  0  0
 16 50  1  0  0  0  0
 17 23  1  0  0  0  0
 17 30  1  0  0  0  0
 17 51  1  0  0  0  0
 18 25  1  0  0  0  0
 18 28  1  0  0  0  0
 18 29  1  0  0  0  0
 19 26  1  0  0  0  0
 19 52  1  0  0  0  0
 19 53  1  0  0  0  0
 20 54  1  0  0  0  0
 20 55  1  0  0  0  0
 20 56  1  0  0  0  0
 21 57  1  0  0  0  0
 21 58  1  0  0  0  0
 21 59  1  0  0  0  0
 22 23  1  0  0  0  0
 22 60  1  0  0  0  0
 22 61  1  0  0  0  0
 23 62  1  0  0  0  0
 23 63  1  0  0  0  0
 24 64  1  0  0  0  0
 24 65  1  0  0  0  0
 24 66  1  0  0  0  0
 25 26  1  0  0  0  0
 25 67  1  0  0  0  0
 26 68  1  0  0  0  0
 26 69  1  0  0  0  0
 27 70  1  0  0  0  0
 27 71  1  0  0  0  0
 27 72  1  0  0  0  0
 28 73  1  0  0  0  0
 28 74  1  0  0  0  0
 28 75  1  0  0  0  0
 29 76  1  0  0  0  0
 29 77  1  0  0  0  0
 29 78  1  0  0  0  0
 30 31  1  0  0  0  0
 30 32  2  0  0  0  0
 31 79  1  0  0  0  0
 31 80  1  0  0  0  0
 31 81  1  0  0  0  0
 32 82  1  0  0  0  0
 32 83  1  0  0  0  0
 33 34  1  0  0  0  0
 34 84  1  0  0  0  0
 34 85  1  0  0  0  0
 34 86  1  0  0  0  0
M  END
> <PUBCHEM_COMPOUND_CID>
92157

> <PUBCHEM_CONFORMER_RMSD>
0.8

> <PUBCHEM_CONFORMER_DIVERSEORDER>
2
1

> <PUBCHEM_MMFF94_PARTIAL_CHARGES>
11
1 -0.43
17 0.14
2 -0.57
25 0.28
30 -0.28
31 0.14
32 -0.3
33 0.66
34 0.06
82 0.15
83 0.15

> <PUBCHEM_EFFECTIVE_ROTOR_COUNT>
5.6

> <PUBCHEM_PHARMACOPHORE_FEATURES>
7
1 2 acceptor
3 18 28 29 hydrophobe
5 8 9 17 22 23 rings
6 3 4 5 6 13 14 rings
6 3 5 7 10 12 16 rings
6 4 6 8 9 11 15 rings
6 7 10 18 19 25 26 rings

> <PUBCHEM_HEAVY_ATOM_COUNT>
34

> <PUBCHEM_ATOM_DEF_STEREO_COUNT>
10

> <PUBCHEM_ATOM_UDEF_STEREO_COUNT>
0

> <PUBCHEM_BOND_DEF_STEREO_COUNT>
0

> <PUBCHEM_BOND_UDEF_STEREO_COUNT>
0

> <PUBCHEM_ISOTOPIC_ATOM_COUNT>
0

> <PUBCHEM_COMPONENT_COUNT>
1

> <PUBCHEM_CACTVS_TAUTO_COUNT>
1

> <PUBCHEM_CONFORMER_ID>
000167FD00000002

> <PUBCHEM_MMFF94_ENERGY>
163.5321

> <PUBCHEM_FEATURE_SELFOVERLAP>
35.617

> <PUBCHEM_SHAPE_FINGERPRINT>
10 15 18260266365100165752
10595046 47 18413103953387150575
10674148 151 18334573569647605912
10675989 125 16749298472918889781
10835480 77 18412540985742254628
10906281 52 17749969816162767438
11991303 11 16630237104125505732
12107183 9 17900534584279787003
12128747 34 18410009918633523208
12236239 1 18201718470206478646
12422481 6 18115024078642360407
13073987 5 18334013878303016779
13785724 45 17834956365737880618
13811026 1 18408039593674852526
13911987 19 17132115753797751183
14394314 77 18410295779125920841
14466204 15 18408040710366901712
14790565 3 18336269024017362974
14849402 71 18337674217200779584
15021287 119 16370729240045675533
15064986 96 18058442116126658926
15183329 4 17385729088264222822
15289351 153 18272082774421654456
15419008 145 18188194430800147464
17349148 13 17676496033820617463
17980427 23 18259707804487439277
1813 80 16081090363723860038
19309040 13 17272574920147380253
20511986 3 18114734946187288759
21033648 144 18335132056006387157
21033648 29 18130211723288663088
21130935 74 18187927235735218866
21236236 1 18410011018688314069
21279426 13 18338801087326301231
23522609 53 17534373087736863172
23559900 14 18334575780136536193
23569914 2 17623518256423203552
23569943 247 16589695760820317914
24771293 8 18335420214432511532
2838139 119 18201995581949928300
3383291 50 17604438513098302139
34797466 226 17989493999914180855
350125 39 18335419106135516580
3680242 22 18042407937082160554
4073 2 18114186362794289842
4093350 32 17703794700426142142
4144715 1 18334586710892245091
4169191 19 18040998496720687012
4340502 62 18409164442232501646
44280116 191 15613031266073443144
504579 68 11599723943946400721
5104073 3 18260831466573850290
6086070 43 17489292122928539977
9981440 41 18261118469769914179

> <PUBCHEM_SHAPE_MULTIPOLES>
687.97
17.78
3.3
1.37
15.14
1.42
-0.17
9.6
3.47
-1.92
0.34
-0.12
-0.21
0.46

> <PUBCHEM_SHAPE_SELFOVERLAP>
1448.791

> <PUBCHEM_SHAPE_VOLUME>
385.6

> <PUBCHEM_COORDINATE_TYPE>
2
5
10

$$$$
