MCSJ31_0009.mol
  ChemDraw04172415532D

 29 30  0  0  1  0  0  0  0  0999 V2000
   -5.0013    1.4649    0.0000 C   0  0  0  0  0  0  0  0  0  0  0  0
   -5.0013    0.6399    0.0000 C   0  0  0  0  0  0  0  0  0  0  0  0
   -4.2868    0.2274    0.0000 C   0  0  0  0  0  0  0  0  0  0  0  0
   -3.5724    0.6399    0.0000 C   0  0  0  0  0  0  0  0  0  0  0  0
   -3.5724    1.4649    0.0000 C   0  0  0  0  0  0  0  0  0  0  0  0
   -4.2868    1.8774    0.0000 C   0  0  0  0  0  0  0  0  0  0  0  0
   -2.8579    0.2274    0.0000 C   0  0  0  0  0  0  0  0  0  0  0  0
   -2.8579   -0.5976    0.0000 C   0  0  0  0  0  0  0  0  0  0  0  0
   -1.9790   -1.0524    0.0000 N   0  0  0  0  0  0  0  0  0  0  0  0
   -1.4289   -0.5976    0.0000 C   0  0  0  0  0  0  0  0  0  0  0  0
   -1.4289    0.2274    0.0000 C   0  0  0  0  0  0  0  0  0  0  0  0
   -2.1434    0.6399    0.0000 C   0  0  0  0  0  0  0  0  0  0  0  0
   -2.1434    1.4649    0.0000 O   0  0  0  0  0  0  0  0  0  0  0  0
   -0.7145    0.6400    0.0000 C   0  0  0  0  0  0  0  0  0  0  0  0
   -0.6825   -0.9489    0.0000 O   0  0  0  0  0  0  0  0  0  0  0  0
   -0.7145    1.4650    0.0000 O   0  0  0  0  0  0  0  0  0  0  0  0
    0.0000    0.2275    0.0000 C   0  0  0  0  0  0  0  0  0  0  0  0
    0.7145    0.6400    0.0000 C   0  0  0  0  0  0  0  0  0  0  0  0
    1.4289    0.2275    0.0000 C   0  0  0  0  0  0  0  0  0  0  0  0
    2.1434    0.6400    0.0000 C   0  0  0  0  0  0  0  0  0  0  0  0
    2.8579    0.2275    0.0000 C   0  0  0  0  0  0  0  0  0  0  0  0
    3.5724    0.6400    0.0000 C   0  0  0  0  0  0  0  0  0  0  0  0
    4.2868    0.2275    0.0000 C   0  0  0  0  0  0  0  0  0  0  0  0
    4.2868   -0.5975    0.0000 C   0  0  0  0  0  0  0  0  0  0  0  0
    5.0013    0.6400    0.0000 C   0  0  0  0  0  0  0  0  0  0  0  0
    5.7158    0.2275    0.0000 C   0  0  0  0  0  0  0  0  0  0  0  0
    3.5724   -1.0100    0.0000 O   0  0  0  0  0  0  0  0  0  0  0  0
   -1.9790   -1.8774    0.0000 O   0  0  0  0  0  0  0  0  0  0  0  0
   -5.7158    1.8774    0.0000 O   0  0  0  0  0  0  0  0  0  0  0  0
  1  2  1  0      
  2  3  1  0      
  3  4  1  0      
  4  5  2  0      
  5  6  1  0      
  6  1  1  0      
  4  7  1  0      
  7  8  2  0      
  8  9  1  0      
  9 10  1  0      
 10 11  1  0      
 11 12  2  0      
 12  7  1  0      
 12 13  1  0      
 11 14  1  0      
 10 15  2  0      
 14 16  2  0      
 14 17  1  0      
 17 18  2  0      
 18 19  1  0      
 19 20  2  0      
 20 21  1  0      
 21 22  2  0      
 22 23  1  0      
 23 24  1  1      
 23 25  1  0      
 25 26  1  0      
 24 27  1  0      
  9 28  1  0      
  1 29  1  0      
M  END
