MCSJ44_0026.mol
  ChemDraw04182414212D

 23 25  0  0  1  0  0  0  0  0999 V2000
   -2.5006   -0.2615    0.0000 C   0  0  0  0  0  0  0  0  0  0  0  0
   -2.5006   -1.0865    0.0000 C   0  0  0  0  0  0  0  0  0  0  0  0
   -1.7862   -1.4990    0.0000 C   0  0  0  0  0  0  0  0  0  0  0  0
   -1.0717   -1.0865    0.0000 C   0  0  0  0  0  0  0  0  0  0  0  0
   -1.0717   -0.2615    0.0000 C   0  0  0  0  0  0  0  0  0  0  0  0
   -1.7862    0.1510    0.0000 C   0  0  0  0  0  0  0  0  0  0  0  0
   -0.3572   -1.4990    0.0000 C   0  0  0  0  0  0  0  0  0  0  0  0
    0.3572   -1.0865    0.0000 C   0  0  0  0  0  0  0  0  0  0  0  0
    0.3572   -0.2615    0.0000 C   0  0  0  0  0  0  0  0  0  0  0  0
   -0.3572    0.1510    0.0000 C   0  0  0  0  0  0  0  0  0  0  0  0
    1.0717    0.1510    0.0000 C   0  0  0  0  0  0  0  0  0  0  0  0
    1.0717    0.9760    0.0000 C   0  0  0  0  0  0  0  0  0  0  0  0
    0.3572    1.3885    0.0000 C   0  0  0  0  0  0  0  0  0  0  0  0
   -0.3572    0.9760    0.0000 C   0  0  0  0  0  0  0  0  0  0  0  0
    1.7862    1.3885    0.0000 C   0  0  0  0  0  0  0  0  0  0  0  0
    1.7862    2.2135    0.0000 C   0  0  0  0  0  0  0  0  0  0  0  0
    2.5006    0.9760    0.0000 C   0  0  0  0  0  0  0  0  0  0  0  0
   -2.1987   -2.2135    0.0000 C   0  0  0  0  0  0  0  0  0  0  0  0
   -1.3737   -2.2135    0.0000 C   0  0  0  0  0  0  0  0  0  0  0  0
    0.3572    2.2135    0.0000 O   0  0  0  0  0  0  0  0  0  0  0  0
   -1.0717    0.5635    0.0000 C   0  0  0  0  0  0  0  0  0  0  0  0
    1.1541   -0.4750    0.0000 O   0  0  0  0  0  0  0  0  0  0  0  0
   -1.0717   -1.9115    0.0000 H   0  0  0  0  0  0  0  0  0  0  0  0
  1  2  1  0      
  2  3  1  0      
  3  4  1  0      
  4  5  1  0      
  5  6  1  0      
  6  1  1  0      
  4  7  1  0      
  7  8  1  0      
  8  9  1  0      
  9 10  1  0      
 10  5  1  0      
  9 11  1  0      
 11 12  2  0      
 12 13  1  0      
 13 14  1  0      
 14 10  2  0      
 12 15  1  0      
 15 16  1  0      
 15 17  1  0      
  3 18  1  0      
  3 19  1  0      
 13 20  2  0      
  5 21  1  1      
  9 22  1  1      
  4 23  1  6      
M  END
