MCSJ49_0002.mol
  ChemDraw04182414552D

 21 24  0  0  0  0  0  0  0  0999 V2000
   -2.3195    0.7843    0.0000 C   0  0  0  0  0  0  0  0  0  0  0  0
   -2.5330   -0.0126    0.0000 C   0  0  0  0  0  0  0  0  0  0  0  0
   -1.9496   -0.5959    0.0000 C   0  0  0  0  0  0  0  0  0  0  0  0
   -1.1527   -0.3824    0.0000 C   0  0  0  0  0  0  0  0  0  0  0  0
   -0.9392    0.4145    0.0000 C   0  0  0  0  0  0  0  0  0  0  0  0
   -1.5226    0.9979    0.0000 C   0  0  0  0  0  0  0  0  0  0  0  0
   -0.4608   -0.8317    0.0000 O   0  0  0  0  0  0  0  0  0  0  0  0
    0.1803   -0.3125    0.0000 C   0  0  0  0  0  0  0  0  0  0  0  0
   -0.1153    0.4145    0.0000 C   0  0  0  0  0  0  0  0  0  0  0  0
    0.9578   -0.4200    0.0000 C   0  0  0  0  0  0  0  0  0  0  0  0
    1.4396    0.1996    0.0000 C   0  0  0  0  0  0  0  0  0  0  0  0
    1.1439    0.9266    0.0000 O   0  0  0  0  0  0  0  0  0  0  0  0
    0.3664    1.0341    0.0000 C   0  0  0  0  0  0  0  0  0  0  0  0
    1.2534   -1.1470    0.0000 C   0  0  0  0  0  0  0  0  0  0  0  0
    2.0309   -1.2545    0.0000 C   0  0  0  0  0  0  0  0  0  0  0  0
    2.5127   -0.6349    0.0000 C   0  0  0  0  0  0  0  0  0  0  0  0
    2.2170    0.0921    0.0000 C   0  0  0  0  0  0  0  0  0  0  0  0
    0.0557    1.7983    0.0000 O   0  0  0  0  0  0  0  0  0  0  0  0
    3.3299   -0.7479    0.0000 O   0  0  0  0  0  0  0  0  0  0  0  0
    0.7470   -1.7983    0.0000 O   0  0  0  0  0  0  0  0  0  0  0  0
   -3.3299   -0.2261    0.0000 O   0  0  0  0  0  0  0  0  0  0  0  0
  1  2  2  0      
  2  3  1  0      
  3  4  2  0      
  4  5  1  0      
  5  6  2  0      
  6  1  1  0      
  4  7  1  0      
  7  8  1  0      
  8  9  2  0      
  9  5  1  0      
  8 10  1  0      
 10 11  2  0      
 11 12  1  0      
 12 13  1  0      
 13  9  1  0      
 10 14  1  0      
 14 15  2  0      
 15 16  1  0      
 16 17  2  0      
 17 11  1  0      
 13 18  2  0      
 16 19  1  0      
 14 20  1  0      
  2 21  1  0      
M  END
