MCSJ38_0006.mol
  ChemDraw04182411422D

 52 58  0  0  1  0  0  0  0  0999 V2000
   -2.7735   -2.6509    0.0000 C   0  0  0  0  0  0  0  0  0  0  0  0
   -2.7735   -3.4759    0.0000 C   0  0  0  0  0  0  0  0  0  0  0  0
   -2.0590   -3.8884    0.0000 C   0  0  0  0  0  0  0  0  0  0  0  0
   -1.3445   -3.4759    0.0000 C   0  0  0  0  0  0  0  0  0  0  0  0
   -1.3445   -2.6509    0.0000 C   0  0  0  0  0  0  0  0  0  0  0  0
   -2.0590   -2.2384    0.0000 C   0  0  0  0  0  0  0  0  0  0  0  0
   -0.6301   -3.8884    0.0000 C   0  0  0  0  0  0  0  0  0  0  0  0
    0.0844   -3.4759    0.0000 C   0  0  0  0  0  0  0  0  0  0  0  0
    0.0844   -2.6509    0.0000 C   0  0  0  0  0  0  0  0  0  0  0  0
   -0.6301   -2.2384    0.0000 O   0  0  0  0  0  0  0  0  0  0  0  0
    0.7989   -2.2384    0.0000 C   0  0  0  0  0  0  0  0  0  0  0  0
    1.4805   -2.7032    0.0000 C   0  0  0  0  0  0  0  0  0  0  0  0
    2.2689   -2.4600    0.0000 C   0  0  0  0  0  0  0  0  0  0  0  0
    2.5703   -1.6920    0.0000 C   0  0  0  0  0  0  0  0  0  0  0  0
    2.1578   -0.9776    0.0000 C   0  0  0  0  0  0  0  0  0  0  0  0
    1.3420   -0.8546    0.0000 C   0  0  0  0  0  0  0  0  0  0  0  0
    0.7372   -1.4157    0.0000 C   0  0  0  0  0  0  0  0  0  0  0  0
    2.6722   -0.3326    0.0000 C   0  0  0  0  0  0  0  0  0  0  0  0
    2.3708    0.4354    0.0000 C   0  0  0  0  0  0  0  0  0  0  0  0
    1.5550    0.5584    0.0000 C   0  0  0  0  0  0  0  0  0  0  0  0
    1.0406   -0.0866    0.0000 C   0  0  0  0  0  0  0  0  0  0  0  0
   -1.2265    1.0009    0.0000 C   0  0  0  0  0  0  0  0  0  0  0  0
   -1.2265    0.1759    0.0000 C   0  0  0  0  0  0  0  0  0  0  0  0
   -0.5120   -0.2366    0.0000 O   0  0  0  0  0  0  0  0  0  0  0  0
    0.2024    0.1759    0.0000 C   0  0  0  0  0  0  0  0  0  0  0  0
    0.2024    1.0009    0.0000 C   0  0  0  0  0  0  0  0  0  0  0  0
   -0.5120    1.4134    0.0000 C   0  0  0  0  0  0  0  0  0  0  0  0
   -1.9410    1.4134    0.0000 C   0  0  0  0  0  0  0  0  0  0  0  0
   -2.6554    1.0009    0.0000 C   0  0  0  0  0  0  0  0  0  0  0  0
   -2.6554    0.1759    0.0000 C   0  0  0  0  0  0  0  0  0  0  0  0
   -1.9410   -0.2366    0.0000 C   0  0  0  0  0  0  0  0  0  0  0  0
    0.9169    1.4134    0.0000 O   0  0  0  0  0  0  0  0  0  0  0  0
    0.9169    2.2384    0.0000 C   0  0  0  0  0  0  0  0  0  0  0  0
    0.2024    2.6509    0.0000 C   0  0  0  0  0  0  0  0  0  0  0  0
    1.6314    2.6509    0.0000 O   0  0  0  0  0  0  0  0  0  0  0  0
    0.2024    3.4759    0.0000 C   0  0  0  0  0  0  0  0  0  0  0  0
   -0.5120    3.8884    0.0000 C   0  0  0  0  0  0  0  0  0  0  0  0
   -1.2265    3.4759    0.0000 C   0  0  0  0  0  0  0  0  0  0  0  0
   -1.2265    2.6509    0.0000 C   0  0  0  0  0  0  0  0  0  0  0  0
   -0.5120    2.2384    0.0000 C   0  0  0  0  0  0  0  0  0  0  0  0
   -0.5120    4.7134    0.0000 O   0  0  0  0  0  0  0  0  0  0  0  0
    0.9169    3.8884    0.0000 O   0  0  0  0  0  0  0  0  0  0  0  0
   -1.9410    3.8884    0.0000 O   0  0  0  0  0  0  0  0  0  0  0  0
   -1.9410    2.2384    0.0000 O   0  0  0  0  0  0  0  0  0  0  0  0
   -3.3699   -0.2366    0.0000 O   0  0  0  0  0  0  0  0  0  0  0  0
   -3.4879   -2.2384    0.0000 O   0  0  0  0  0  0  0  0  0  0  0  0
   -2.0590   -4.7134    0.0000 O   0  0  0  0  0  0  0  0  0  0  0  0
    2.8300   -3.0648    0.0000 O   0  0  0  0  0  0  0  0  0  0  0  0
    3.3930   -1.6304    0.0000 O   0  0  0  0  0  0  0  0  0  0  0  0
    3.4879   -0.4555    0.0000 O   0  0  0  0  0  0  0  0  0  0  0  0
    2.8851    1.0804    0.0000 O   0  0  0  0  0  0  0  0  0  0  0  0
    0.7989   -3.8884    0.0000 O   0  0  0  0  0  0  0  0  0  0  0  0
  1  2  2  0      
  2  3  1  0      
  3  4  2  0      
  4  5  1  0      
  5  6  2  0      
  6  1  1  0      
  4  7  1  0      
  7  8  1  0      
  8  9  1  0      
  9 10  1  0      
 10  5  1  0      
  9 11  1  0      
 11 12  1  0      
 12 13  2  0      
 13 14  1  0      
 14 15  1  0      
 15 16  2  0      
 16 17  1  0      
 17 11  2  0      
 15 18  1  0      
 18 19  2  0      
 19 20  1  0      
 20 21  2  0      
 21 16  1  0      
 22 23  2  0      
 23 24  1  0      
 24 25  1  0      
 25 26  1  0      
 26 27  1  0      
 27 22  1  0      
 25 21  1  0      
 22 28  1  0      
 28 29  2  0      
 29 30  1  0      
 30 31  2  0      
 31 23  1  0      
 26 32  1  6      
 32 33  1  0      
 33 34  1  0      
 33 35  2  0      
 34 36  2  0      
 36 37  1  0      
 37 38  2  0      
 38 39  1  0      
 39 40  2  0      
 40 34  1  0      
 37 41  1  0      
 36 42  1  0      
 38 43  1  0      
 28 44  1  0      
 30 45  1  0      
  1 46  1  0      
  3 47  1  0      
 13 48  1  0      
 14 49  2  0      
 18 50  1  0      
 19 51  1  0      
  8 52  1  6      
M  END
