MCSJ37_0004.mol
  ChemDraw04182411172D

 21 23  0  0  1  0  0  0  0  0999 V2000
   -1.7862    0.0000    0.0000 C   0  0  0  0  0  0  0  0  0  0  0  0
   -1.7862   -0.8250    0.0000 C   0  0  0  0  0  0  0  0  0  0  0  0
   -1.0717   -1.2375    0.0000 C   0  0  0  0  0  0  0  0  0  0  0  0
   -0.3572   -0.8250    0.0000 C   0  0  0  0  0  0  0  0  0  0  0  0
   -0.3572    0.0000    0.0000 C   0  0  0  0  0  0  0  0  0  0  0  0
   -1.0717    0.4125    0.0000 C   0  0  0  0  0  0  0  0  0  0  0  0
    0.3572   -1.2375    0.0000 C   0  0  0  0  0  0  0  0  0  0  0  0
    1.0717   -0.8250    0.0000 C   0  0  0  0  0  0  0  0  0  0  0  0
    1.0717    0.0000    0.0000 C   0  0  0  0  0  0  0  0  0  0  0  0
    0.3572    0.4125    0.0000 C   0  0  0  0  0  0  0  0  0  0  0  0
    1.7862    0.4125    0.0000 C   0  0  0  0  0  0  0  0  0  0  0  0
    1.7862    1.2375    0.0000 C   0  0  0  0  0  0  0  0  0  0  0  0
    1.0717    1.6500    0.0000 C   0  0  0  0  0  0  0  0  0  0  0  0
    0.3572    1.2375    0.0000 C   0  0  0  0  0  0  0  0  0  0  0  0
   -2.5006    0.4125    0.0000 O   0  0  0  0  0  0  0  0  0  0  0  0
    2.5006    0.0000    0.0000 C   0  0  0  0  0  0  0  0  0  0  0  0
    2.5006    0.8250    0.0000 C   0  0  0  0  0  0  0  0  0  0  0  0
   -2.5006   -1.2375    0.0000 C   0  0  0  0  0  0  0  0  0  0  0  0
   -0.3572    0.8250    0.0000 C   0  0  0  0  0  0  0  0  0  0  0  0
   -0.3572   -1.6500    0.0000 O   0  0  0  0  0  0  0  0  0  0  0  0
    1.7862   -0.4125    0.0000 H   0  0  0  0  0  0  0  0  0  0  0  0
  1  2  1  0      
  2  3  2  0      
  3  4  1  0      
  4  5  1  0      
  5  6  2  0      
  6  1  1  0      
  4  7  1  0      
  7  8  1  0      
  8  9  1  0      
  9 10  1  0      
 10  5  1  0      
  9 11  1  0      
 11 12  1  0      
 12 13  1  0      
 13 14  1  0      
 14 10  1  0      
  1 15  2  0      
 11 16  1  0      
 11 17  1  0      
  2 18  1  0      
 10 19  1  6      
  4 20  1  6      
  9 21  1  1      
M  END
