MCSJ29_0002.mol
  ChemDraw04172415052D

 32 34  0  0  1  0  0  0  0  0999 V2000
   -1.0717    0.3290    0.0000 C   0  0  0  0  0  0  0  0  0  0  0  0
   -1.7862   -0.0835    0.0000 C   0  0  0  0  0  0  0  0  0  0  0  0
   -1.7862   -0.9085    0.0000 C   0  0  0  0  0  0  0  0  0  0  0  0
   -1.0717   -1.3210    0.0000 C   0  0  0  0  0  0  0  0  0  0  0  0
   -0.3572   -0.9085    0.0000 C   0  0  0  0  0  0  0  0  0  0  0  0
   -0.3572   -0.0835    0.0000 C   0  0  0  0  0  0  0  0  0  0  0  0
    0.3572    0.3290    0.0000 N   0  0  0  0  0  0  0  0  0  0  0  0
   -2.5006   -1.3210    0.0000 C   0  0  0  0  0  0  0  0  0  0  0  0
   -2.5006   -2.1460    0.0000 C   0  0  0  0  0  0  0  0  0  0  0  0
   -3.2151   -0.9085    0.0000 C   0  0  0  0  0  0  0  0  0  0  0  0
   -2.5006   -0.4960    0.0000 C   0  0  0  0  0  0  0  0  0  0  0  0
    1.0717   -0.0835    0.0000 C   0  0  0  0  0  0  0  0  0  0  0  0
    0.3572    1.1540    0.0000 C   0  0  0  0  0  0  0  0  0  0  0  0
   -0.3572    1.5665    0.0000 C   0  0  0  0  0  0  0  0  0  0  0  0
    1.0717    1.5665    0.0000 O   0  0  0  0  0  0  0  0  0  0  0  0
   -0.4435    2.3870    0.0000 C   0  0  0  0  0  0  0  0  0  0  0  0
   -1.2504    2.5585    0.0000 C   0  0  0  0  0  0  0  0  0  0  0  0
   -1.6629    1.8440    0.0000 C   0  0  0  0  0  0  0  0  0  0  0  0
   -1.1109    1.2309    0.0000 O   0  0  0  0  0  0  0  0  0  0  0  0
    1.7862    0.3290    0.0000 C   0  0  0  0  0  0  0  0  0  0  0  0
    1.0717   -0.9085    0.0000 C   0  0  0  0  0  0  0  0  0  0  0  0
    1.7862   -1.3210    0.0000 N   0  0  0  0  0  0  0  0  0  0  0  0
    0.3572   -1.3210    0.0000 O   0  0  0  0  0  0  0  0  0  0  0  0
    2.5006   -0.0835    0.0000 C   0  0  0  0  0  0  0  0  0  0  0  0
    3.2151    0.3290    0.0000 N   0  0  0  0  0  0  0  0  0  0  0  0
    3.2151    1.1540    0.0000 C   0  0  0  0  0  0  0  0  0  0  0  0
    2.5006    1.5665    0.0000 C   0  0  0  0  0  0  0  0  0  0  0  0
    1.7862    1.1540    0.0000 C   0  0  0  0  0  0  0  0  0  0  0  0
    1.7862   -2.1460    0.0000 C   0  0  0  0  0  0  0  0  0  0  0  0
    2.5006   -2.5585    0.0000 C   0  0  0  0  0  0  0  0  0  0  0  0
    1.0717   -2.5585    0.0000 C   0  0  0  0  0  0  0  0  0  0  0  0
    2.5006   -1.7335    0.0000 C   0  0  0  0  0  0  0  0  0  0  0  0
  1  2  2  0      
  2  3  1  0      
  3  4  2  0      
  4  5  1  0      
  5  6  2  0      
  6  1  1  0      
  6  7  1  0      
  3  8  1  0      
  8  9  1  0      
  8 10  1  0      
  8 11  1  0      
 12  7  1  6      
  7 13  1  0      
 13 14  1  0      
 13 15  2  0      
 14 16  2  0      
 16 17  1  0      
 17 18  2  0      
 18 19  1  0      
 19 14  1  0      
 12 20  1  0      
 12 21  1  0      
 21 22  1  0      
 21 23  2  0      
 20 24  2  0      
 24 25  1  0      
 25 26  2  0      
 26 27  1  0      
 27 28  2  0      
 28 20  1  0      
 22 29  1  0      
 29 30  1  0      
 29 31  1  0      
 29 32  1  0      
M  END
