MCSJ37_0006.mol
  ChemDraw04182411202D

 25 27  0  0  1  0  0  0  0  0999 V2000
   -1.4289    0.2062    0.0000 C   0  0  0  0  0  0  0  0  0  0  0  0
   -1.4289   -0.6188    0.0000 C   0  0  0  0  0  0  0  0  0  0  0  0
   -0.7145   -1.0313    0.0000 C   0  0  0  0  0  0  0  0  0  0  0  0
   -0.0000   -0.6188    0.0000 C   0  0  0  0  0  0  0  0  0  0  0  0
   -0.0000    0.2062    0.0000 C   0  0  0  0  0  0  0  0  0  0  0  0
   -0.7145    0.6188    0.0000 C   0  0  0  0  0  0  0  0  0  0  0  0
    0.7145   -1.0313    0.0000 C   0  0  0  0  0  0  0  0  0  0  0  0
    1.4289   -0.6188    0.0000 C   0  0  0  0  0  0  0  0  0  0  0  0
    1.4289    0.2062    0.0000 C   0  0  0  0  0  0  0  0  0  0  0  0
    0.7145    0.6188    0.0000 C   0  0  0  0  0  0  0  0  0  0  0  0
    2.1434    0.6188    0.0000 C   0  0  0  0  0  0  0  0  0  0  0  0
    2.1434    1.4437    0.0000 C   0  0  0  0  0  0  0  0  0  0  0  0
    1.4289    1.8563    0.0000 C   0  0  0  0  0  0  0  0  0  0  0  0
    0.7145    1.4437    0.0000 C   0  0  0  0  0  0  0  0  0  0  0  0
    2.8579    0.2062    0.0000 C   0  0  0  0  0  0  0  0  0  0  0  0
    2.8579    1.0313    0.0000 C   0  0  0  0  0  0  0  0  0  0  0  0
   -2.1434   -1.0313    0.0000 C   0  0  0  0  0  0  0  0  0  0  0  0
   -0.0000    1.0313    0.0000 C   0  0  0  0  0  0  0  0  0  0  0  0
    2.1434   -0.2062    0.0000 H   0  0  0  0  0  0  0  0  0  0  0  0
   -0.7145    1.4437    0.0000 O   0  0  0  0  0  0  0  0  0  0  0  0
   -2.1434    0.6188    0.0000 O   0  0  0  0  0  0  0  0  0  0  0  0
   -2.1434    1.4437    0.0000 C   0  0  0  0  0  0  0  0  0  0  0  0
    0.7145   -1.8563    0.0000 O   0  0  0  0  0  0  0  0  0  0  0  0
   -2.8579   -0.6188    0.0000 C   0  0  0  0  0  0  0  0  0  0  0  0
   -2.1434   -1.8563    0.0000 C   0  0  0  0  0  0  0  0  0  0  0  0
  1  2  1  0      
  2  3  2  0      
  3  4  1  0      
  4  5  2  0      
  5  6  1  0      
  6  1  2  0      
  4  7  1  0      
  7  8  1  0      
  8  9  1  0      
  9 10  1  0      
 10  5  1  0      
  9 11  1  0      
 11 12  1  0      
 12 13  1  0      
 13 14  1  0      
 14 10  1  0      
 11 15  1  0      
 11 16  1  0      
  2 17  1  0      
 10 18  1  6      
  9 19  1  1      
  6 20  1  0      
  1 21  1  0      
 21 22  1  0      
  7 23  1  6      
 17 24  1  0      
 17 25  1  0      
M  END
