MCSJ31_0016.mol
  ChemDraw04172416012D

 38 41  0  0  1  0  0  0  0  0999 V2000
   -4.8308    1.6482    0.0000 C   0  0  0  0  0  0  0  0  0  0  0  0
   -5.1724    0.8972    0.0000 C   0  0  0  0  0  0  0  0  0  0  0  0
   -4.6928    0.2259    0.0000 C   0  0  0  0  0  0  0  0  0  0  0  0
   -3.8717    0.3056    0.0000 C   0  0  0  0  0  0  0  0  0  0  0  0
   -3.5301    1.0565    0.0000 C   0  0  0  0  0  0  0  0  0  0  0  0
   -4.0096    1.7279    0.0000 C   0  0  0  0  0  0  0  0  0  0  0  0
   -3.2630   -0.2513    0.0000 C   0  0  0  0  0  0  0  0  0  0  0  0
   -2.5453    0.1554    0.0000 C   0  0  0  0  0  0  0  0  0  0  0  0
   -2.7103    0.9637    0.0000 O   0  0  0  0  0  0  0  0  0  0  0  0
   -3.2696   -1.0763    0.0000 C   0  0  0  0  0  0  0  0  0  0  0  0
   -2.5585   -1.4945    0.0000 N   0  0  0  0  0  0  0  0  0  0  0  0
   -1.8408   -1.0878    0.0000 C   0  0  0  0  0  0  0  0  0  0  0  0
   -1.8341   -0.2628    0.0000 C   0  0  0  0  0  0  0  0  0  0  0  0
   -5.3103    2.3195    0.0000 O   0  0  0  0  0  0  0  0  0  0  0  0
   -3.1119    1.7677    0.0000 H   0  0  0  0  0  0  0  0  0  0  0  0
   -4.1329   -0.4770    0.0000 O   0  0  0  0  0  0  0  0  0  0  0  0
   -1.1164    0.1440    0.0000 C   0  0  0  0  0  0  0  0  0  0  0  0
   -2.5651   -2.3195    0.0000 C   0  0  0  0  0  0  0  0  0  0  0  0
   -1.1296   -1.5060    0.0000 O   0  0  0  0  0  0  0  0  0  0  0  0
   -4.9412   -0.6420    0.0000 C   0  0  0  0  0  0  0  0  0  0  0  0
   -0.4052   -0.2743    0.0000 O   0  0  0  0  0  0  0  0  0  0  0  0
    0.3125    0.1325    0.0000 C   0  0  0  0  0  0  0  0  0  0  0  0
    0.3191    0.9575    0.0000 C   0  0  0  0  0  0  0  0  0  0  0  0
   -0.3920    1.3757    0.0000 C   0  0  0  0  0  0  0  0  0  0  0  0
   -1.1098    0.9689    0.0000 C   0  0  0  0  0  0  0  0  0  0  0  0
    1.0369    1.3642    0.0000 C   0  0  0  0  0  0  0  0  0  0  0  0
   -1.1164   -0.6810    0.0000 C   0  0  0  0  0  0  0  0  0  0  0  0
    1.0237   -0.2857    0.0000 C   0  0  0  0  0  0  0  0  0  0  0  0
    1.0170   -1.1107    0.0000 C   0  0  0  0  0  0  0  0  0  0  0  0
    1.7414    0.1210    0.0000 C   0  0  0  0  0  0  0  0  0  0  0  0
    2.4526   -0.2972    0.0000 C   0  0  0  0  0  0  0  0  0  0  0  0
    2.4459   -1.1222    0.0000 C   0  0  0  0  0  0  0  0  0  0  0  0
    3.1703    0.1096    0.0000 C   0  0  0  0  0  0  0  0  0  0  0  0
    3.8814   -0.3086    0.0000 C   0  0  0  0  0  0  0  0  0  0  0  0
    4.5992    0.0981    0.0000 C   0  0  0  0  0  0  0  0  0  0  0  0
    5.3103   -0.3201    0.0000 C   0  0  0  0  0  0  0  0  0  0  0  0
    3.8748   -1.1336    0.0000 C   0  0  0  0  0  0  0  0  0  0  0  0
    0.3125   -0.6925    0.0000 C   0  0  0  0  0  0  0  0  0  0  0  0
  1  2  1  0      
  2  3  1  0      
  3  4  1  0      
  4  5  1  0      
  5  6  1  0      
  6  1  1  0      
  4  7  1  0      
  7  8  1  0      
  8  9  1  0      
  9  5  1  0      
  7 10  2  0      
 10 11  1  0      
 11 12  1  0      
 12 13  1  0      
 13  8  2  0      
  1 14  2  0      
  5 15  1  6      
  4 16  1  6      
 13 17  1  0      
 11 18  1  0      
 12 19  2  0      
 16 20  1  0      
 17 21  1  0      
 21 22  1  0      
 22 23  1  0      
 23 24  1  0      
 24 25  1  0      
 25 17  1  0      
 23 26  1  1      
 17 27  1  6      
 22 28  1  0      
 28 29  1  0      
 28 30  2  0      
 30 31  1  0      
 31 32  1  1      
 31 33  1  0      
 33 34  1  0      
 34 35  1  0      
 35 36  1  0      
 34 37  1  6      
 22 38  1  6      
M  END
