MCSJ29_0001.mol
  ChemDraw04172415052D

 34 34  0  0  1  0  0  0  0  0999 V2000
   -5.3737    0.7691    0.0000 C   0  0  0  0  0  0  0  0  0  0  0  0
   -5.3737   -0.0526    0.0000 C   0  0  0  0  0  0  0  0  0  0  0  0
   -4.6621   -0.4634    0.0000 C   0  0  0  0  0  0  0  0  0  0  0  0
   -3.9505   -0.0526    0.0000 C   0  0  0  0  0  0  0  0  0  0  0  0
   -3.9505    0.7691    0.0000 C   0  0  0  0  0  0  0  0  0  0  0  0
   -4.6621    1.1799    0.0000 C   0  0  0  0  0  0  0  0  0  0  0  0
   -3.2389   -0.4634    0.0000 C   0  0  0  0  0  0  0  0  0  0  0  0
   -2.5274   -0.0526    0.0000 O   0  0  0  0  0  0  0  0  0  0  0  0
   -1.8158   -0.4634    0.0000 C   0  0  0  0  0  0  0  0  0  0  0  0
   -1.1042   -0.0526    0.0000 N   0  0  0  0  0  0  0  0  0  0  0  0
   -1.8158   -1.2851    0.0000 O   0  0  0  0  0  0  0  0  0  0  0  0
   -0.3926   -0.4634    0.0000 C   0  0  0  0  0  0  0  0  0  0  0  0
    0.3190   -0.0526    0.0000 C   0  0  0  0  0  0  0  0  0  0  0  0
    1.0306   -0.4634    0.0000 N   0  0  0  0  0  0  0  0  0  0  0  0
   -0.3926   -1.2851    0.0000 C   0  0  0  0  0  0  0  0  0  0  0  0
    0.3190   -1.6959    0.0000 C   0  0  0  0  0  0  0  0  0  0  0  0
    0.3190   -2.5176    0.0000 C   0  0  0  0  0  0  0  0  0  0  0  0
    1.0306   -1.2851    0.0000 C   0  0  0  0  0  0  0  0  0  0  0  0
    0.3190    0.7691    0.0000 O   0  0  0  0  0  0  0  0  0  0  0  0
    1.7422   -0.0526    0.0000 C   0  0  0  0  0  0  0  0  0  0  0  0
    2.4538   -0.4634    0.0000 C   0  0  0  0  0  0  0  0  0  0  0  0
    1.7422    0.7691    0.0000 C   0  0  0  0  0  0  0  0  0  0  0  0
    2.4538    1.1799    0.0000 C   0  0  0  0  0  0  0  0  0  0  0  0
    2.4538   -1.2851    0.0000 S   0  0  0  0  0  0  0  0  0  0  0  0
    3.1654   -0.0526    0.0000 C   0  0  0  0  0  0  0  0  0  0  0  0
    3.2754   -1.2851    0.0000 O   0  0  0  0  0  0  0  0  0  0  0  0
    3.1859    0.8069    0.0000 C   0  0  0  0  0  0  0  0  0  0  0  0
    2.4538   -2.1067    0.0000 O   0  5  0  0  0  0  0  0  0  0  0  0
    3.7380    1.5240    0.0000 C   0  0  0  0  0  0  0  0  0  0  0  0
    3.2904    2.2132    0.0000 N   0  0  0  0  0  0  0  0  0  0  0  0
    2.4968    2.0005    0.0000 C   0  0  0  0  0  0  0  0  0  0  0  0
    1.6321   -1.2851    0.0000 O   0  0  0  0  0  0  0  0  0  0  0  0
    1.8582    2.5176    0.0000 O   0  0  0  0  0  0  0  0  0  0  0  0
    5.3737    1.7001    0.0000 Na  0  3  0  0  0  0  0  0  0  0  0  0
  1  2  2  0      
  2  3  1  0      
  3  4  2  0      
  4  5  1  0      
  5  6  2  0      
  6  1  1  0      
  4  7  1  0      
  7  8  1  0      
  8  9  1  0      
  9 10  1  0      
  9 11  2  0      
 12 10  1  6      
 12 13  1  0      
 13 14  1  0      
 12 15  1  0      
 15 16  1  0      
 16 17  1  0      
 16 18  1  0      
 13 19  2  0      
 20 14  1  1      
 20 21  1  0      
 20 22  1  0      
 22 23  1  0      
 21 24  1  0      
 21 25  1  0      
 24 26  2  0      
 24 28  1  0      
 23 27  1  0      
 27 29  1  0      
 29 30  1  0      
 30 31  1  0      
 31 23  1  0      
 24 32  2  0      
 31 33  2  0      
M  CHG  2  28  -1  34   1
M  END
