Quercetin-3-Î²-galactoside
  -OEChem-12162008173D

 70 74  0     1  0  0  0  0  0999 V2000
   -3.7408    0.0520    0.6922 O   0  0  0  0  0  0  0  0  0  0  0  0
   -2.8063    1.3633   -1.0173 O   0  0  0  0  0  0  0  0  0  0  0  0
   -6.1112    3.2052    1.9846 O   0  0  0  0  0  0  0  0  0  0  0  0
   -6.5015    0.4909    1.5632 O   0  0  0  0  0  0  0  0  0  0  0  0
   -5.4546    2.0405   -0.4872 O   0  0  0  0  0  0  0  0  0  0  0  0
    5.2066    0.3839    1.1330 O   0  0  0  0  0  0  0  0  0  0  0  0
    4.9247    0.6881   -1.1783 O   0  0  0  0  0  0  0  0  0  0  0  0
   -3.2964   -2.1912    2.5423 O   0  0  0  0  0  0  0  0  0  0  0  0
    8.8103   -1.5692    0.5308 O   0  0  0  0  0  0  0  0  0  0  0  0
    7.5805    0.7545   -0.3660 O   0  0  0  0  0  0  0  0  0  0  0  0
    7.4135   -1.8154    3.0759 O   0  0  0  0  0  0  0  0  0  0  0  0
    0.3407   -0.5425   -1.2462 O   0  0  0  0  0  0  0  0  0  0  0  0
   -0.8512    3.3354   -0.8657 O   0  0  0  0  0  0  0  0  0  0  0  0
    1.6469    4.1054   -0.8255 O   0  0  0  0  0  0  0  0  0  0  0  0
   -2.5830   -4.4742    0.4891 O   0  0  0  0  0  0  0  0  0  0  0  0
   -4.4218   -4.6493   -1.5885 O   0  0  0  0  0  0  0  0  0  0  0  0
   -4.9842    2.3460    1.8659 C   0  0  1  0  0  0  0  0  0  0  0  0
   -5.3591    0.9246    2.3012 C   0  0  2  0  0  0  0  0  0  0  0  0
   -4.4222    2.3727    0.4432 C   0  0  1  0  0  0  0  0  0  0  0  0
   -4.1740   -0.0225    2.0588 C   0  0  1  0  0  0  0  0  0  0  0  0
   -3.2841    1.3565    0.3246 C   0  0  1  0  0  0  0  0  0  0  0  0
   -4.5066   -1.4808    2.3502 C   0  0  0  0  0  0  0  0  0  0  0  0
    7.4028   -1.4168    0.6878 C   0  0  2  0  0  0  0  0  0  0  0  0
    6.8703   -0.4877   -0.4034 C   0  0  1  0  0  0  0  0  0  0  0  0
    7.0844   -0.8568    2.0762 C   0  0  1  0  0  0  0  0  0  0  0  0
    5.3879   -0.1960   -0.1621 C   0  0  1  0  0  0  0  0  0  0  0  0
    5.6047   -0.4969    2.1817 C   0  0  0  0  0  0  0  0  0  0  0  0
   -1.4639    1.0582   -1.0815 C   0  0  0  0  0  0  0  0  0  0  0  0
   -1.0014   -0.1986   -1.2116 C   0  0  0  0  0  0  0  0  0  0  0  0
   -0.4901    2.1720   -0.9836 C   0  0  0  0  0  0  0  0  0  0  0  0
    0.9325    1.8020   -1.0341 C   0  0  0  0  0  0  0  0  0  0  0  0
    3.6141    1.0532   -1.1311 C   0  0  0  0  0  0  0  0  0  0  0  0
    1.2745    0.4577   -1.1630 C   0  0  0  0  0  0  0  0  0  0  0  0
    2.6169    0.0809   -1.2118 C   0  0  0  0  0  0  0  0  0  0  0  0
    1.9281    2.7787   -0.9526 C   0  0  0  0  0  0  0  0  0  0  0  0
    3.2701    2.3994   -1.0016 C   0  0  0  0  0  0  0  0  0  0  0  0
   -1.8963   -1.3656   -1.3076 C   0  0  0  0  0  0  0  0  0  0  0  0
   -1.8201   -2.3826   -0.3561 C   0  0  0  0  0  0  0  0  0  0  0  0
   -2.8192   -1.4536   -2.3499 C   0  0  0  0  0  0  0  0  0  0  0  0
   -2.6667   -3.4875   -0.4465 C   0  0  0  0  0  0  0  0  0  0  0  0
   -3.6656   -2.5585   -2.4405 C   0  0  0  0  0  0  0  0  0  0  0  0
   -3.5895   -3.5754   -1.4888 C   0  0  0  0  0  0  0  0  0  0  0  0
   -4.2128    2.7298    2.5458 H   0  0  0  0  0  0  0  0  0  0  0  0
   -5.6470    0.9272    3.3589 H   0  0  0  0  0  0  0  0  0  0  0  0
   -4.0767    3.3772    0.1750 H   0  0  0  0  0  0  0  0  0  0  0  0
   -3.3295    0.2811    2.6924 H   0  0  0  0  0  0  0  0  0  0  0  0
   -2.4814    1.6552    1.0157 H   0  0  0  0  0  0  0  0  0  0  0  0
   -5.0486   -1.9459    1.5204 H   0  0  0  0  0  0  0  0  0  0  0  0
   -5.0930   -1.5732    3.2696 H   0  0  0  0  0  0  0  0  0  0  0  0
    6.9590   -2.4150    0.5871 H   0  0  0  0  0  0  0  0  0  0  0  0
    7.0385   -0.9095   -1.3998 H   0  0  0  0  0  0  0  0  0  0  0  0
    7.7050    0.0276    2.2635 H   0  0  0  0  0  0  0  0  0  0  0  0
    4.8311   -1.1405   -0.2163 H   0  0  0  0  0  0  0  0  0  0  0  0
    4.9732   -1.3943    2.1712 H   0  0  0  0  0  0  0  0  0  0  0  0
    5.4092    0.0026    3.1370 H   0  0  0  0  0  0  0  0  0  0  0  0
   -6.4222    3.1567    2.9046 H   0  0  0  0  0  0  0  0  0  0  0  0
   -6.8097   -0.3432    1.9554 H   0  0  0  0  0  0  0  0  0  0  0  0
   -6.1805    2.6735   -0.3525 H   0  0  0  0  0  0  0  0  0  0  0  0
   -3.5323   -3.1170    2.7235 H   0  0  0  0  0  0  0  0  0  0  0  0
    8.9689   -1.9244   -0.3605 H   0  0  0  0  0  0  0  0  0  0  0  0
    7.2907    1.2498    0.4185 H   0  0  0  0  0  0  0  0  0  0  0  0
    7.1948   -1.4255    3.9395 H   0  0  0  0  0  0  0  0  0  0  0  0
    2.8727   -0.9687   -1.3297 H   0  0  0  0  0  0  0  0  0  0  0  0
    4.0515    3.1529   -0.9383 H   0  0  0  0  0  0  0  0  0  0  0  0
   -1.1025   -2.3154    0.4590 H   0  0  0  0  0  0  0  0  0  0  0  0
   -2.8897   -0.6751   -3.1058 H   0  0  0  0  0  0  0  0  0  0  0  0
    0.6886    4.2500   -0.8048 H   0  0  0  0  0  0  0  0  0  0  0  0
   -4.3790   -2.6150   -3.2583 H   0  0  0  0  0  0  0  0  0  0  0  0
   -1.8933   -4.2418    1.1343 H   0  0  0  0  0  0  0  0  0  0  0  0
   -4.9904   -4.5379   -2.3698 H   0  0  0  0  0  0  0  0  0  0  0  0
  1 20  1  0  0  0  0
  1 21  1  0  0  0  0
  2 21  1  0  0  0  0
  2 28  1  0  0  0  0
  3 17  1  0  0  0  0
  3 56  1  0  0  0  0
  4 18  1  0  0  0  0
  4 57  1  0  0  0  0
  5 19  1  0  0  0  0
  5 58  1  0  0  0  0
  6 26  1  0  0  0  0
  6 27  1  0  0  0  0
  7 26  1  0  0  0  0
  7 32  1  0  0  0  0
  8 22  1  0  0  0  0
  8 59  1  0  0  0  0
  9 23  1  0  0  0  0
  9 60  1  0  0  0  0
 10 24  1  0  0  0  0
 10 61  1  0  0  0  0
 11 25  1  0  0  0  0
 11 62  1  0  0  0  0
 12 29  1  0  0  0  0
 12 33  1  0  0  0  0
 13 30  2  0  0  0  0
 14 35  1  0  0  0  0
 14 67  1  0  0  0  0
 15 40  1  0  0  0  0
 15 69  1  0  0  0  0
 16 42  1  0  0  0  0
 16 70  1  0  0  0  0
 17 18  1  0  0  0  0
 17 19  1  0  0  0  0
 17 43  1  0  0  0  0
 18 20  1  0  0  0  0
 18 44  1  0  0  0  0
 19 21  1  0  0  0  0
 19 45  1  0  0  0  0
 20 22  1  0  0  0  0
 20 46  1  0  0  0  0
 21 47  1  0  0  0  0
 22 48  1  0  0  0  0
 22 49  1  0  0  0  0
 23 24  1  0  0  0  0
 23 25  1  0  0  0  0
 23 50  1  0  0  0  0
 24 26  1  0  0  0  0
 24 51  1  0  0  0  0
 25 27  1  0  0  0  0
 25 52  1  0  0  0  0
 26 53  1  0  0  0  0
 27 54  1  0  0  0  0
 27 55  1  0  0  0  0
 28 29  2  0  0  0  0
 28 30  1  0  0  0  0
 29 37  1  0  0  0  0
 30 31  1  0  0  0  0
 31 33  1  0  0  0  0
 31 35  2  0  0  0  0
 32 34  1  0  0  0  0
 32 36  2  0  0  0  0
 33 34  2  0  0  0  0
 34 63  1  0  0  0  0
 35 36  1  0  0  0  0
 36 64  1  0  0  0  0
 37 38  2  0  0  0  0
 37 39  1  0  0  0  0
 38 40  1  0  0  0  0
 38 65  1  0  0  0  0
 39 41  2  0  0  0  0
 39 66  1  0  0  0  0
 40 42  2  0  0  0  0
 41 42  1  0  0  0  0
 41 68  1  0  0  0  0
M  END
> <PUBCHEM_COMPOUND_CID>
44259102

> <PUBCHEM_CONFORMER_RMSD>
1.4

> <PUBCHEM_CONFORMER_DIVERSEORDER>
1
6
92
31
48
29
49
60
21
78
37
89
64
34
90
85
68
58
28
51
73
83
94
71
59
56
72
77
82
14
11
53
22
93
57
18
91
9
41
40
66
61
23
8
26
5
16
65
81
33
39
52
3
84
36
4
43
75
46
67
70
12
35
32
45
42
74
25
76
86
10
47
19
62
80
63
20
50
13
69
24
38
27
88
79
44
17
7
30
54
15
55
2
87

> <PUBCHEM_MMFF94_PARTIAL_CHARGES>
57
1 -0.56
10 -0.68
11 -0.68
12 -0.16
13 -0.57
14 -0.53
15 -0.53
16 -0.53
17 0.28
18 0.28
19 0.28
2 -0.36
20 0.28
21 0.56
22 0.28
23 0.28
24 0.28
25 0.28
26 0.56
27 0.28
28 0.09
29 0.05
3 -0.68
30 0.47
31 0.09
32 0.08
33 0.08
34 -0.15
35 0.08
36 -0.15
37 0.03
38 -0.15
39 -0.15
4 -0.68
40 0.08
41 -0.15
42 0.08
5 -0.68
56 0.4
57 0.4
58 0.4
59 0.4
6 -0.56
60 0.4
61 0.4
62 0.4
63 0.15
64 0.15
65 0.15
66 0.15
67 0.45
68 0.15
69 0.45
7 -0.36
70 0.45
8 -0.68
9 -0.68

> <PUBCHEM_EFFECTIVE_ROTOR_COUNT>
8.4

> <PUBCHEM_PHARMACOPHORE_FEATURES>
28
1 1 acceptor
1 10 acceptor
1 10 donor
1 11 acceptor
1 11 donor
1 12 acceptor
1 13 acceptor
1 14 donor
1 15 donor
1 16 donor
1 2 acceptor
1 3 acceptor
1 3 donor
1 4 acceptor
1 4 donor
1 5 acceptor
1 5 donor
1 6 acceptor
1 7 acceptor
1 8 acceptor
1 8 donor
1 9 acceptor
1 9 donor
6 1 17 18 19 20 21 rings
6 12 28 29 30 31 33 rings
6 31 32 33 34 35 36 rings
6 37 38 39 40 41 42 rings
6 6 23 24 25 26 27 rings

> <PUBCHEM_HEAVY_ATOM_COUNT>
42

> <PUBCHEM_ATOM_DEF_STEREO_COUNT>
5

> <PUBCHEM_ATOM_UDEF_STEREO_COUNT>
4

> <PUBCHEM_BOND_DEF_STEREO_COUNT>
0

> <PUBCHEM_BOND_UDEF_STEREO_COUNT>
0

> <PUBCHEM_ISOTOPIC_ATOM_COUNT>
0

> <PUBCHEM_COMPONENT_COUNT>
1

> <PUBCHEM_CACTVS_TAUTO_COUNT>
68

> <PUBCHEM_CONFORMER_ID>
02A3571E00000001

> <PUBCHEM_MMFF94_ENERGY>
143.2469

> <PUBCHEM_FEATURE_SELFOVERLAP>
142.307

> <PUBCHEM_SHAPE_FINGERPRINT>
10305334 12 18411420596468578127
10319926 262 17917995001286379804
10677351 27 17676771977613421074
11387372 6 17241059776735611459
11621639 254 8718247092493688702
12107183 9 18410583893815557116
12422481 6 18271815609632122902
12633046 712 17386576906281536501
12655364 131 18269836402813783979
131258 38 16311926546945205891
13383668 90 13262687997546432529
13540713 5 18266467687779965236
13782708 43 15357696384260213920
14068700 675 17984412203716791311
14118638 360 18126844039648614980
14705955 166 17130708267314426560
14856354 85 17313682472474089033
14866123 147 18410294735379672623
14950920 106 17969799655385984699
15320294 125 18260836946941855981
15352257 5 16370732509037975096
15392192 29 18334301955552011174
15705408 1 8428025338028472635
19246450 95 18265615373105705785
19303781 99 17025697185217398226
21033648 29 17845387565541129433
21792965 215 16055458669565206047
21795232 338 18410856573490211624
23522609 53 18190768468845776700
312425 54 18131060503743186362
3383291 50 18342744009766164295
3504750 166 18059007418804319831
397638 26 18059300859369402041
44880168 125 18339640015500524302
474113 269 17896042199846267699
484985 159 17967810600508537315
5104073 3 18271803588224792124
513202 73 17094962130550718821
563151 248 18335424551573760530
563151 74 16200439035536215990
6058803 2 18193850468241171445
6691757 9 18131630063150019237
9896288 288 18048315553235237296
999808 66 17458351805973130512

> <PUBCHEM_SHAPE_MULTIPOLES>
770.43
19.76
4.71
2.67
39.02
2.31
-1.61
4.33
-14.02
-7.38
1.31
-1.21
0.93
-5.16

> <PUBCHEM_SHAPE_SELFOVERLAP>
1686.416

> <PUBCHEM_SHAPE_VOLUME>
409

> <PUBCHEM_COORDINATE_TYPE>
2
5
10

$$$$
