SA4_0004.mol
  ChemDraw02202410412D

 25 26  0  0  0  0  0  0  0  0999 V2000
    2.8611    1.8580    0.0000 C   0  0  0  0  0  0  0  0  0  0  0  0
    2.1467    1.4455    0.0000 C   0  0  0  0  0  0  0  0  0  0  0  0
    2.1467    0.6205    0.0000 C   0  0  0  0  0  0  0  0  0  0  0  0
    2.8611    0.2080    0.0000 C   0  0  0  0  0  0  0  0  0  0  0  0
    3.5756    0.6205    0.0000 C   0  0  0  0  0  0  0  0  0  0  0  0
    3.5756    1.4455    0.0000 C   0  0  0  0  0  0  0  0  0  0  0  0
    4.2901    1.8580    0.0000 O   0  0  0  0  0  0  0  0  0  0  0  0
   -0.7177   -1.0330    0.0000 C   0  0  0  0  0  0  0  0  0  0  0  0
   -0.0032   -0.6205    0.0000 C   0  0  0  0  0  0  0  0  0  0  0  0
   -0.0032    0.2045    0.0000 C   0  0  0  0  0  0  0  0  0  0  0  0
   -0.7177    0.6170    0.0000 C   0  0  0  0  0  0  0  0  0  0  0  0
   -1.4322    0.2045    0.0000 C   0  0  0  0  0  0  0  0  0  0  0  0
   -1.4322   -0.6205    0.0000 C   0  0  0  0  0  0  0  0  0  0  0  0
   -2.1467    0.6170    0.0000 O   0  0  0  0  0  0  0  0  0  0  0  0
   -2.1467   -1.0330    0.0000 C   0  0  0  0  0  0  0  0  0  0  0  0
   -2.8611   -0.6205    0.0000 C   0  0  0  0  0  0  0  0  0  0  0  0
   -3.5756   -1.0330    0.0000 C   0  0  0  0  0  0  0  0  0  0  0  0
   -4.2901   -0.6205    0.0000 C   0  0  0  0  0  0  0  0  0  0  0  0
   -3.5756   -1.8580    0.0000 C   0  0  0  0  0  0  0  0  0  0  0  0
    0.7112   -1.0330    0.0000 C   0  0  0  0  0  0  0  0  0  0  0  0
    1.4257   -0.6205    0.0000 C   0  0  0  0  0  0  0  0  0  0  0  0
    1.4257    0.2045    0.0000 C   0  0  0  0  0  0  0  0  0  0  0  0
    0.7112    0.6170    0.0000 O   0  0  0  0  0  0  0  0  0  0  0  0
   -2.5592    1.3314    0.0000 C   0  0  0  0  0  0  0  0  0  0  0  0
    0.7112   -1.8580    0.0000 O   0  0  0  0  0  0  0  0  0  0  0  0
  1  2  2  0      
  2  3  1  0      
  3  4  2  0      
  4  5  1  0      
  5  6  2  0      
  6  1  1  0      
  6  7  1  0      
  8  9  2  0      
  9 10  1  0      
 10 11  2  0      
 11 12  1  0      
 12 13  2  0      
 13  8  1  0      
 12 14  1  0      
 13 15  1  0      
 15 16  1  0      
 16 17  2  0      
 17 18  1  0      
 17 19  1  0      
  9 20  1  0      
 20 21  1  0      
 21 22  2  0      
 23 10  1  0      
 22  3  1  0      
 14 24  1  0      
 20 25  2  0      
M  END
