SV_J25_0002.mol
  ChemDraw04112414182D

 67 72  0  0  1  0  0  0  0  0999 V2000
    1.4289    1.4437    0.0000 O   0  0  0  0  0  0  0  0  0  0  0  0
    0.7145    1.0312    0.0000 C   0  0  0  0  0  0  0  0  0  0  0  0
    0.7145    0.2062    0.0000 C   0  0  0  0  0  0  0  0  0  0  0  0
    1.4289   -0.2062    0.0000 O   0  0  0  0  0  0  0  0  0  0  0  0
   -0.0000   -0.2062    0.0000 C   0  0  0  0  0  0  0  0  0  0  0  0
   -0.0000   -1.0312    0.0000 O   0  0  0  0  0  0  0  0  0  0  0  0
   -0.7145    0.2062    0.0000 C   0  0  0  0  0  0  0  0  0  0  0  0
   -1.4289   -0.2062    0.0000 O   0  0  0  0  0  0  0  0  0  0  0  0
   -0.7145    1.0312    0.0000 C   0  0  0  0  0  0  0  0  0  0  0  0
   -0.0000    1.4437    0.0000 O   0  0  0  0  0  0  0  0  0  0  0  0
   -1.4289    1.4437    0.0000 C   0  0  0  0  0  0  0  0  0  0  0  0
   -1.4289    2.2687    0.0000 O   0  0  0  0  0  0  0  0  0  0  0  0
   -2.1434    2.6812    0.0000 C   0  0  0  0  0  0  0  0  0  0  0  0
   -2.8579    2.2687    0.0000 C   0  0  0  0  0  0  0  0  0  0  0  0
   -3.5724    2.6812    0.0000 C   0  0  0  0  0  0  0  0  0  0  0  0
   -4.2868    2.2687    0.0000 C   0  0  0  0  0  0  0  0  0  0  0  0
   -5.0013    2.6812    0.0000 O   0  0  0  0  0  0  0  0  0  0  0  0
   -4.2868    1.4437    0.0000 C   0  0  0  0  0  0  0  0  0  0  0  0
   -5.0013    1.0312    0.0000 O   0  0  0  0  0  0  0  0  0  0  0  0
   -3.5724    1.0312    0.0000 C   0  0  0  0  0  0  0  0  0  0  0  0
   -3.5724    0.2062    0.0000 O   0  0  0  0  0  0  0  0  0  0  0  0
   -2.8579    1.4437    0.0000 C   0  0  0  0  0  0  0  0  0  0  0  0
   -2.1434    3.5062    0.0000 O   0  0  0  0  0  0  0  0  0  0  0  0
   -1.4289   -1.0312    0.0000 C   0  0  0  0  0  0  0  0  0  0  0  0
   -2.1434   -1.4437    0.0000 C   0  0  0  0  0  0  0  0  0  0  0  0
   -2.1434   -2.2687    0.0000 C   0  0  0  0  0  0  0  0  0  0  0  0
   -2.8579   -2.6812    0.0000 C   0  0  0  0  0  0  0  0  0  0  0  0
   -2.8579   -3.5062    0.0000 O   0  0  0  0  0  0  0  0  0  0  0  0
   -3.5724   -2.2687    0.0000 C   0  0  0  0  0  0  0  0  0  0  0  0
   -4.2868   -2.6812    0.0000 O   0  0  0  0  0  0  0  0  0  0  0  0
   -3.5724   -1.4437    0.0000 C   0  0  0  0  0  0  0  0  0  0  0  0
   -4.2868   -1.0312    0.0000 O   0  0  0  0  0  0  0  0  0  0  0  0
   -2.8579   -1.0312    0.0000 C   0  0  0  0  0  0  0  0  0  0  0  0
   -0.7145   -1.4437    0.0000 O   0  0  0  0  0  0  0  0  0  0  0  0
    0.7145   -1.4437    0.0000 C   0  0  0  0  0  0  0  0  0  0  0  0
    0.7145   -2.2687    0.0000 C   0  0  0  0  0  0  0  0  0  0  0  0
    1.4289   -2.6812    0.0000 C   0  0  0  0  0  0  0  0  0  0  0  0
    1.4289   -3.5062    0.0000 C   0  0  0  0  0  0  0  0  0  0  0  0
    2.1434   -3.9187    0.0000 O   0  0  0  0  0  0  0  0  0  0  0  0
    0.7145   -3.9187    0.0000 C   0  0  0  0  0  0  0  0  0  0  0  0
    0.7145   -4.7437    0.0000 O   0  0  0  0  0  0  0  0  0  0  0  0
   -0.0000   -3.5062    0.0000 C   0  0  0  0  0  0  0  0  0  0  0  0
   -0.7145   -3.9187    0.0000 O   0  0  0  0  0  0  0  0  0  0  0  0
   -0.0000   -2.6812    0.0000 C   0  0  0  0  0  0  0  0  0  0  0  0
    1.4289   -1.0312    0.0000 O   0  0  0  0  0  0  0  0  0  0  0  0
    2.1434    0.2062    0.0000 C   0  0  0  0  0  0  0  0  0  0  0  0
    2.8579   -0.2062    0.0000 C   0  0  0  0  0  0  0  0  0  0  0  0
    2.8579   -1.0312    0.0000 C   0  0  0  0  0  0  0  0  0  0  0  0
    3.5724   -1.4437    0.0000 C   0  0  0  0  0  0  0  0  0  0  0  0
    3.5724   -2.2687    0.0000 O   0  0  0  0  0  0  0  0  0  0  0  0
    4.2868   -1.0312    0.0000 C   0  0  0  0  0  0  0  0  0  0  0  0
    5.0013   -1.4437    0.0000 O   0  0  0  0  0  0  0  0  0  0  0  0
    4.2868   -0.2062    0.0000 C   0  0  0  0  0  0  0  0  0  0  0  0
    5.0013    0.2062    0.0000 O   0  0  0  0  0  0  0  0  0  0  0  0
    3.5724    0.2062    0.0000 C   0  0  0  0  0  0  0  0  0  0  0  0
    2.1434    1.0312    0.0000 O   0  0  0  0  0  0  0  0  0  0  0  0
    1.4289    2.2687    0.0000 C   0  0  0  0  0  0  0  0  0  0  0  0
    2.1434    2.6812    0.0000 C   0  0  0  0  0  0  0  0  0  0  0  0
    2.8579    2.2687    0.0000 C   0  0  0  0  0  0  0  0  0  0  0  0
    3.5724    2.6812    0.0000 C   0  0  0  0  0  0  0  0  0  0  0  0
    4.2868    2.2687    0.0000 O   0  0  0  0  0  0  0  0  0  0  0  0
    3.5724    3.5062    0.0000 C   0  0  0  0  0  0  0  0  0  0  0  0
    4.2868    3.9187    0.0000 O   0  0  0  0  0  0  0  0  0  0  0  0
    2.8579    3.9187    0.0000 C   0  0  0  0  0  0  0  0  0  0  0  0
    2.8579    4.7437    0.0000 O   0  0  0  0  0  0  0  0  0  0  0  0
    2.1434    3.5062    0.0000 C   0  0  0  0  0  0  0  0  0  0  0  0
    0.7145    2.6812    0.0000 O   0  0  0  0  0  0  0  0  0  0  0  0
  2  1  1  1      
  2  3  1  0      
  3  4  1  6      
  3  5  1  0      
  5  6  1  1      
  5  7  1  0      
  7  8  1  6      
  7  9  1  0      
  9 10  1  0      
  9 11  1  1      
 11 12  1  0      
  2 10  1  0      
 13 14  1  0      
 14 15  1  0      
 15 16  2  0      
 16 17  1  0      
 16 18  1  0      
 18 19  1  0      
 18 20  2  0      
 20 21  1  0      
 20 22  1  0      
 14 22  2  0      
 13 23  2  0      
 12 13  1  0      
 24 25  1  0      
 25 26  1  0      
 26 27  2  0      
 27 28  1  0      
 27 29  1  0      
 29 30  1  0      
 29 31  2  0      
 31 32  1  0      
 31 33  1  0      
 25 33  2  0      
 24 34  2  0      
  8 24  1  0      
 35 36  1  0      
 36 37  1  0      
 37 38  2  0      
 38 39  1  0      
 38 40  1  0      
 40 41  1  0      
 40 42  2  0      
 42 43  1  0      
 42 44  1  0      
 36 44  2  0      
 35 45  2  0      
  6 35  1  0      
 46 47  1  0      
 47 48  1  0      
 48 49  2  0      
 49 50  1  0      
 49 51  1  0      
 51 52  1  0      
 51 53  2  0      
 53 54  1  0      
 53 55  1  0      
 47 55  2  0      
 46 56  2  0      
  4 46  1  0      
 57 58  1  0      
 58 59  1  0      
 59 60  2  0      
 60 61  1  0      
 60 62  1  0      
 62 63  1  0      
 62 64  2  0      
 64 65  1  0      
 64 66  1  0      
 58 66  2  0      
 57 67  2  0      
  1 57  1  0      
M  END
