Anagliptin
  -OEChem-12182004303D

 53 55  0     1  0  0  0  0  0999 V2000
    0.6397    1.6833   -4.8473 O   0  0  0  0  0  0  0  0  0  0  0  0
   -1.1267   -1.0746    1.5463 O   0  0  0  0  0  0  0  0  0  0  0  0
    0.3030   -0.5508   -5.3492 N   0  0  0  0  0  0  0  0  0  0  0  0
   -0.0366    1.5411   -2.3864 N   0  0  0  0  0  0  0  0  0  0  0  0
    0.5720    0.4602    1.0984 N   0  0  0  0  0  0  0  0  0  0  0  0
   -0.9825    0.6814   -8.2874 N   0  0  0  0  0  0  0  0  0  0  0  0
   -0.1027   -0.7164    5.6114 N   0  0  0  0  0  0  0  0  0  0  0  0
    0.7219    1.5005    5.1567 N   0  0  0  0  0  0  0  0  0  0  0  0
   -0.3334   -1.5507    6.6590 N   0  0  0  0  0  0  0  0  0  0  0  0
    0.7879   -0.4853   -6.7287 C   0  0  1  0  0  0  0  0  0  0  0  0
    0.9981   -1.9511   -7.1128 C   0  0  0  0  0  0  0  0  0  0  0  0
   -0.0605   -2.6858   -6.2949 C   0  0  0  0  0  0  0  0  0  0  0  0
   -0.0744   -1.9146   -4.9839 C   0  0  0  0  0  0  0  0  0  0  0  0
   -0.4215    1.4021   -0.9846 C   0  0  0  0  0  0  0  0  0  0  0  0
    0.3145    0.5462   -4.5018 C   0  0  0  0  0  0  0  0  0  0  0  0
   -0.1145    0.2750   -3.0817 C   0  0  0  0  0  0  0  0  0  0  0  0
    0.5423    0.3890   -0.3383 C   0  0  0  0  0  0  0  0  0  0  0  0
   -1.8754    0.9111   -0.9217 C   0  0  0  0  0  0  0  0  0  0  0  0
   -0.3046    2.7835   -0.3263 C   0  0  0  0  0  0  0  0  0  0  0  0
   -0.2020    0.1670   -7.6002 C   0  0  0  0  0  0  0  0  0  0  0  0
   -0.2676   -0.2802    1.9127 C   0  0  0  0  0  0  0  0  0  0  0  0
   -0.0401   -0.0303    3.3480 C   0  0  0  0  0  0  0  0  0  0  0  0
   -0.3238   -0.9686    4.2589 C   0  0  0  0  0  0  0  0  0  0  0  0
    0.5049    1.2357    3.9036 C   0  0  0  0  0  0  0  0  0  0  0  0
    0.4141    0.5077    6.0395 C   0  0  0  0  0  0  0  0  0  0  0  0
    0.5080    0.4296    7.4104 C   0  0  0  0  0  0  0  0  0  0  0  0
    0.0372   -0.8509    7.7306 C   0  0  0  0  0  0  0  0  0  0  0  0
   -0.0774   -1.4539    9.0696 C   0  0  0  0  0  0  0  0  0  0  0  0
    1.7296    0.0739   -6.7579 H   0  0  0  0  0  0  0  0  0  0  0  0
    1.9926   -2.2794   -6.7850 H   0  0  0  0  0  0  0  0  0  0  0  0
    0.9119   -2.1488   -8.1859 H   0  0  0  0  0  0  0  0  0  0  0  0
   -1.0362   -2.6085   -6.7893 H   0  0  0  0  0  0  0  0  0  0  0  0
    0.1679   -3.7460   -6.1558 H   0  0  0  0  0  0  0  0  0  0  0  0
    0.6796   -2.2987   -4.2884 H   0  0  0  0  0  0  0  0  0  0  0  0
   -1.0535   -1.9350   -4.4979 H   0  0  0  0  0  0  0  0  0  0  0  0
    0.5755   -0.4774   -2.6908 H   0  0  0  0  0  0  0  0  0  0  0  0
   -1.1315   -0.1230   -3.1252 H   0  0  0  0  0  0  0  0  0  0  0  0
   -0.6426    2.2232   -2.8433 H   0  0  0  0  0  0  0  0  0  0  0  0
    0.2958   -0.6449   -0.6063 H   0  0  0  0  0  0  0  0  0  0  0  0
    1.5754    0.5790   -0.6569 H   0  0  0  0  0  0  0  0  0  0  0  0
   -1.9874   -0.1473   -1.1792 H   0  0  0  0  0  0  0  0  0  0  0  0
   -2.5300    1.4968   -1.5785 H   0  0  0  0  0  0  0  0  0  0  0  0
   -2.2747    1.0248    0.0932 H   0  0  0  0  0  0  0  0  0  0  0  0
   -0.6425    2.7690    0.7159 H   0  0  0  0  0  0  0  0  0  0  0  0
   -0.9212    3.5255   -0.8482 H   0  0  0  0  0  0  0  0  0  0  0  0
    0.7301    3.1461   -0.3388 H   0  0  0  0  0  0  0  0  0  0  0  0
    1.2895    1.0514    1.5041 H   0  0  0  0  0  0  0  0  0  0  0  0
   -0.7245   -1.9447    4.0103 H   0  0  0  0  0  0  0  0  0  0  0  0
    0.7172    2.0383    3.1808 H   0  0  0  0  0  0  0  0  0  0  0  0
    0.8692    1.2002    8.0763 H   0  0  0  0  0  0  0  0  0  0  0  0
    0.2649   -0.7645    9.8482 H   0  0  0  0  0  0  0  0  0  0  0  0
    0.5286   -2.3634    9.1377 H   0  0  0  0  0  0  0  0  0  0  0  0
   -1.1177   -1.7161    9.2883 H   0  0  0  0  0  0  0  0  0  0  0  0
  1 15  2  0  0  0  0
  2 21  2  0  0  0  0
  3 10  1  0  0  0  0
  3 13  1  0  0  0  0
  3 15  1  0  0  0  0
  4 14  1  0  0  0  0
  4 16  1  0  0  0  0
  4 38  1  0  0  0  0
  5 17  1  0  0  0  0
  5 21  1  0  0  0  0
  5 47  1  0  0  0  0
  6 20  3  0  0  0  0
  7  9  1  0  0  0  0
  7 23  1  0  0  0  0
  7 25  1  0  0  0  0
  8 24  2  0  0  0  0
  8 25  1  0  0  0  0
  9 27  2  0  0  0  0
 10 11  1  0  0  0  0
 10 20  1  0  0  0  0
 10 29  1  0  0  0  0
 11 12  1  0  0  0  0
 11 30  1  0  0  0  0
 11 31  1  0  0  0  0
 12 13  1  0  0  0  0
 12 32  1  0  0  0  0
 12 33  1  0  0  0  0
 13 34  1  0  0  0  0
 13 35  1  0  0  0  0
 14 17  1  0  0  0  0
 14 18  1  0  0  0  0
 14 19  1  0  0  0  0
 15 16  1  0  0  0  0
 16 36  1  0  0  0  0
 16 37  1  0  0  0  0
 17 39  1  0  0  0  0
 17 40  1  0  0  0  0
 18 41  1  0  0  0  0
 18 42  1  0  0  0  0
 18 43  1  0  0  0  0
 19 44  1  0  0  0  0
 19 45  1  0  0  0  0
 19 46  1  0  0  0  0
 21 22  1  0  0  0  0
 22 23  2  0  0  0  0
 22 24  1  0  0  0  0
 23 48  1  0  0  0  0
 24 49  1  0  0  0  0
 25 26  2  0  0  0  0
 26 27  1  0  0  0  0
 26 50  1  0  0  0  0
 27 28  1  0  0  0  0
 28 51  1  0  0  0  0
 28 52  1  0  0  0  0
 28 53  1  0  0  0  0
M  END
> <PUBCHEM_COMPOUND_CID>
44513473

> <PUBCHEM_CONFORMER_RMSD>
1.2

> <PUBCHEM_CONFORMER_DIVERSEORDER>
1
99
28
5
23
15
3
84
38
91
90
98
78
37
18
40
42
39
26
82
34
17
41
70
77
69
96
93
56
72
20
11
121
81
51
54
4
6
45
116
113
114
49
107
128
83
127
71
66
95
52
58
105
64
53
62
106
14
60
68
50
100
79
111
27
108
2
22
33
55
74
59
8
123
102
104
13
124
117
110
47
9
88
30
57
24
63
36
12
67
80
118
31
86
65
75
97
103
32
87
16
44
89
85
25
35
48
21
92
94
10
119
29
112
19
73
61
7
46
126
101
120
115
125
109
122
43
76

> <PUBCHEM_MMFF94_PARTIAL_CHARGES>
29
1 -0.57
10 0.5
13 0.3
14 0.27
15 0.57
16 0.33
17 0.3
2 -0.57
20 0.36
21 0.62
22 0.03
23 -0.18
24 0.38
25 -0.03
26 -0.15
27 0.11
28 0.18
3 -0.66
38 0.36
4 -0.9
47 0.37
48 0.15
49 0.06
5 -0.73
50 0.15
6 -0.56
7 0.6
8 -0.58
9 -0.71

> <PUBCHEM_EFFECTIVE_ROTOR_COUNT>
9

> <PUBCHEM_PHARMACOPHORE_FEATURES>
12
1 1 acceptor
1 2 acceptor
1 4 cation
1 4 donor
1 5 donor
1 6 acceptor
1 8 acceptor
1 9 acceptor
3 14 18 19 hydrophobe
5 3 10 11 12 13 rings
5 7 9 25 26 27 rings
6 7 8 22 23 24 25 rings

> <PUBCHEM_HEAVY_ATOM_COUNT>
28

> <PUBCHEM_ATOM_DEF_STEREO_COUNT>
1

> <PUBCHEM_ATOM_UDEF_STEREO_COUNT>
0

> <PUBCHEM_BOND_DEF_STEREO_COUNT>
0

> <PUBCHEM_BOND_UDEF_STEREO_COUNT>
0

> <PUBCHEM_ISOTOPIC_ATOM_COUNT>
0

> <PUBCHEM_COMPONENT_COUNT>
1

> <PUBCHEM_CACTVS_TAUTO_COUNT>
2

> <PUBCHEM_CONFORMER_ID>
02A738C100000001

> <PUBCHEM_MMFF94_ENERGY>
55.4255

> <PUBCHEM_FEATURE_SELFOVERLAP>
61.026

> <PUBCHEM_SHAPE_FINGERPRINT>
10 15 10220487091871441454
10299344 5 15816684231123355798
11135926 11 15382926834042520870
11315181 36 15676793439904794901
11524674 6 14460837097456265870
11963148 33 15315653309882264522
12166972 35 15666379806597089640
12236239 1 15744063652936090704
12643181 29 15601072217236197782
13073987 5 14323773038097962082
13533116 47 13641457427154783625
13631057 29 15602761054258596477
13668630 136 15749131349373189474
13673619 4 14961850383810675605
13690498 29 15236557655809056980
13692114 37 15236839161067427435
14123256 10 15085420857380946053
14178184 131 15313690797664739198
15183329 4 14797465380785334975
15301273 46 13962360323316201845
15461852 350 15960239712278467232
18603816 31 14600149558607153726
18681886 176 15382082443503346857
20028762 73 15673130876373475018
21150785 3 15303560700156592210
21267235 1 15746315491288417408
21315763 28 15670879059506059504
21756936 100 8492526482005738029
22224240 67 12523756080103908948
23035841 295 15675946790054859348
232437 2 15742656286489479054
23522609 53 16970474388830535101
23559900 14 15306647205432078685
23569917 315 15895502739811081074
23576562 1 12981454651248316574
3004659 81 15305804867876682465
3178227 256 14389905394043967378
4169191 19 9933679466369983463
4325135 7 15670035712559697926
439807 62 15745189591397404945
44389302 135 15391373355171141755
45266715 3 14797194815627229379
484989 97 15880585618237607299
5283156 175 15818937130448726921
54039377 194 15737875567056199519
58083652 198 13383634590640592685
5969126 39 14870369564854943812
6081469 158 14289417242636689442
67123 10 15671723510121346880
9663363 56 14246912781797126053

> <PUBCHEM_SHAPE_MULTIPOLES>
529.62
28.05
2.19
0.95
8.04
0.11
-0.22
13.62
2.58
-1.99
-0.04
-0.49
-0.11
-1.25

> <PUBCHEM_SHAPE_SELFOVERLAP>
1116.515

> <PUBCHEM_SHAPE_VOLUME>
296.6

> <PUBCHEM_COORDINATE_TYPE>
2
5
10

$$$$
