Anidulafungin
  -OEChem-01222105332D

155161  0     1  0  0  0  0  0999 V2000
   10.0863    3.3696    0.0000 O   0  0  0  0  0  0  0  0  0  0  0  0
    6.8903    1.2545    0.0000 O   0  0  0  0  0  0  0  0  0  0  0  0
   10.0399    1.7450    0.0000 O   0  0  0  0  0  0  0  0  0  0  0  0
    6.3756   -3.3512    0.0000 O   0  0  0  0  0  0  0  0  0  0  0  0
    4.9845    4.2393    0.0000 O   0  0  0  0  0  0  0  0  0  0  0  0
   10.4207    0.3241    0.0000 O   0  0  0  0  0  0  0  0  0  0  0  0
   10.1055   -1.8520    0.0000 O   0  0  0  0  0  0  0  0  0  0  0  0
    6.2166   -1.6268    0.0000 O   0  0  0  0  0  0  0  0  0  0  0  0
    9.0043   -0.9294    0.0000 O   0  0  0  0  0  0  0  0  0  0  0  0
    7.4933    1.5053    0.0000 O   0  0  0  0  0  0  0  0  0  0  0  0
    4.1185    0.7393    0.0000 O   0  0  0  0  0  0  0  0  0  0  0  0
    8.7488   -4.6046    0.0000 O   0  0  0  0  0  0  0  0  0  0  0  0
    6.7941    3.2111    0.0000 O   0  0  0  0  0  0  0  0  0  0  0  0
    6.1507   -2.4728    0.0000 O   0  0  0  0  0  0  0  0  0  0  0  0
    8.1697    0.4552    0.0000 O   0  0  0  0  0  0  0  0  0  0  0  0
    2.2120    3.1396    0.0000 O   0  0  0  0  0  0  0  0  0  0  0  0
   18.9508    0.7532    0.0000 O   0  0  0  0  0  0  0  0  0  0  0  0
    7.5826    2.7393    0.0000 N   0  0  0  0  0  0  0  0  0  0  0  0
    8.4486   -0.7607    0.0000 N   0  0  0  0  0  0  0  0  0  0  0  0
    8.7897    0.6485    0.0000 N   0  0  0  0  0  0  0  0  0  0  0  0
    4.9845    2.2393    0.0000 N   0  0  0  0  0  0  0  0  0  0  0  0
    5.8505   -0.2607    0.0000 N   0  0  0  0  0  0  0  0  0  0  0  0
    7.3755   -3.1799    0.0000 N   0  0  0  0  0  0  0  0  0  0  0  0
    8.0826   -0.5410    0.0000 N   0  0  0  0  0  0  0  0  0  0  0  0
    8.4615    4.0876    0.0000 C   0  0  2  0  0  0  0  0  0  0  0  0
    9.0877    3.3156    0.0000 C   0  0  1  0  0  0  0  0  0  0  0  0
    8.5485    2.4804    0.0000 C   0  0  1  0  0  0  0  0  0  0  0  0
    7.5331    3.7321    0.0000 C   0  0  0  0  0  0  0  0  0  0  0  0
    8.7203    5.0535    0.0000 C   0  0  0  0  0  0  0  0  0  0  0  0
    6.7165    2.2393    0.0000 C   0  0  0  0  0  0  0  0  0  0  0  0
    9.0485    1.6144    0.0000 C   0  0  0  0  0  0  0  0  0  0  0  0
    5.8505    2.7393    0.0000 C   0  0  2  0  0  0  0  0  0  0  0  0
    7.5826   -0.2607    0.0000 C   0  0  1  0  0  0  0  0  0  0  0  0
    6.3344   -1.0886    0.0000 C   0  0  0  0  0  0  0  0  0  0  0  0
    6.8756   -2.4852    0.0000 C   0  0  2  0  0  0  0  0  0  0  0  0
    8.3557   -2.2556    0.0000 C   0  0  0  0  0  0  0  0  0  0  0  0
    5.8505    3.7393    0.0000 C   0  0  1  0  0  0  0  0  0  0  0  0
    9.4968   -0.0586    0.0000 C   0  0  1  0  0  0  0  0  0  0  0  0
    5.8505    0.7393    0.0000 C   0  0  2  0  0  0  0  0  0  0  0  0
    6.7165   -0.7607    0.0000 C   0  0  0  0  0  0  0  0  0  0  0  0
    8.4486   -1.7607    0.0000 C   0  0  0  0  0  0  0  0  0  0  0  0
    9.4968   -1.0586    0.0000 C   0  0  1  0  0  0  0  0  0  0  0  0
    4.9845    1.2393    0.0000 C   0  0  0  0  0  0  0  0  0  0  0  0
    8.3414   -2.9211    0.0000 C   0  0  2  0  0  0  0  0  0  0  0  0
    6.4933    1.5053    0.0000 C   0  0  1  0  0  0  0  0  0  0  0  0
    8.7897   -1.7657    0.0000 C   0  0  0  0  0  0  0  0  0  0  0  0
    6.3505    4.6053    0.0000 C   0  0  0  0  0  0  0  0  0  0  0  0
    7.8238   -1.5069    0.0000 C   0  0  1  0  0  0  0  0  0  0  0  0
    9.0311   -3.6452    0.0000 C   0  0  1  0  0  0  0  0  0  0  0  0
    6.1513    2.4450    0.0000 C   0  0  2  0  0  0  0  0  0  0  0  0
    7.1166   -2.2140    0.0000 C   0  0  0  0  0  0  0  0  0  0  0  0
   10.0030   -3.4100    0.0000 C   0  0  0  0  0  0  0  0  0  0  0  0
    5.1665    2.6187    0.0000 C   0  0  0  0  0  0  0  0  0  0  0  0
    8.9889   -0.1183    0.0000 C   0  0  0  0  0  0  0  0  0  0  0  0
    4.5237    1.8526    0.0000 C   0  0  0  0  0  0  0  0  0  0  0  0
    4.8245    3.5584    0.0000 C   0  0  0  0  0  0  0  0  0  0  0  0
    9.9851   -0.0312    0.0000 C   0  0  0  0  0  0  0  0  0  0  0  0
    3.5389    2.0263    0.0000 C   0  0  0  0  0  0  0  0  0  0  0  0
    3.8396    3.7320    0.0000 C   0  0  0  0  0  0  0  0  0  0  0  0
    3.1969    2.9660    0.0000 C   0  0  0  0  0  0  0  0  0  0  0  0
   10.5586   -0.8503    0.0000 C   0  0  0  0  0  0  0  0  0  0  0  0
   10.4077    0.8751    0.0000 C   0  0  0  0  0  0  0  0  0  0  0  0
   11.5548   -0.7632    0.0000 C   0  0  0  0  0  0  0  0  0  0  0  0
   11.4039    0.9623    0.0000 C   0  0  0  0  0  0  0  0  0  0  0  0
   11.9775    0.1431    0.0000 C   0  0  0  0  0  0  0  0  0  0  0  0
   12.9737    0.2303    0.0000 C   0  0  0  0  0  0  0  0  0  0  0  0
   13.3963    1.1366    0.0000 C   0  0  0  0  0  0  0  0  0  0  0  0
   13.5472   -0.5889    0.0000 C   0  0  0  0  0  0  0  0  0  0  0  0
   14.3925    1.2237    0.0000 C   0  0  0  0  0  0  0  0  0  0  0  0
   14.5434   -0.5017    0.0000 C   0  0  0  0  0  0  0  0  0  0  0  0
   14.9660    0.4046    0.0000 C   0  0  0  0  0  0  0  0  0  0  0  0
   15.9622    0.4917    0.0000 C   0  0  0  0  0  0  0  0  0  0  0  0
   16.3849    1.3980    0.0000 C   0  0  0  0  0  0  0  0  0  0  0  0
   16.5358   -0.3274    0.0000 C   0  0  0  0  0  0  0  0  0  0  0  0
   17.3811    1.4852    0.0000 C   0  0  0  0  0  0  0  0  0  0  0  0
   17.5320   -0.2403    0.0000 C   0  0  0  0  0  0  0  0  0  0  0  0
   17.9546    0.6661    0.0000 C   0  0  0  0  0  0  0  0  0  0  0  0
   20.5206    0.0212    0.0000 C   0  0  0  0  0  0  0  0  0  0  0  0
   19.5244   -0.0659    0.0000 C   0  0  0  0  0  0  0  0  0  0  0  0
   21.0942   -0.7979    0.0000 C   0  0  0  0  0  0  0  0  0  0  0  0
   22.0904   -0.7108    0.0000 C   0  0  0  0  0  0  0  0  0  0  0  0
   22.6639   -1.5299    0.0000 C   0  0  0  0  0  0  0  0  0  0  0  0
    8.0009    4.5026    0.0000 H   0  0  0  0  0  0  0  0  0  0  0  0
    9.3392    3.8823    0.0000 H   0  0  0  0  0  0  0  0  0  0  0  0
    9.3982    2.4593    0.0000 H   0  0  0  0  0  0  0  0  0  0  0  0
    7.3735    4.3312    0.0000 H   0  0  0  0  0  0  0  0  0  0  0  0
    6.9206    3.6364    0.0000 H   0  0  0  0  0  0  0  0  0  0  0  0
    9.3192    4.8930    0.0000 H   0  0  0  0  0  0  0  0  0  0  0  0
    8.8808    5.6524    0.0000 H   0  0  0  0  0  0  0  0  0  0  0  0
    8.1214    5.2140    0.0000 H   0  0  0  0  0  0  0  0  0  0  0  0
    6.5866    3.1643    0.0000 H   0  0  0  0  0  0  0  0  0  0  0  0
    7.5826    0.5893    0.0000 H   0  0  0  0  0  0  0  0  0  0  0  0
   10.4249    2.8502    0.0000 H   0  0  0  0  0  0  0  0  0  0  0  0
    6.0297   -0.5486    0.0000 H   0  0  0  0  0  0  0  0  0  0  0  0
    5.7739   -1.3536    0.0000 H   0  0  0  0  0  0  0  0  0  0  0  0
    6.2575   -2.4375    0.0000 H   0  0  0  0  0  0  0  0  0  0  0  0
    8.4064   -2.8736    0.0000 H   0  0  0  0  0  0  0  0  0  0  0  0
    8.9757   -2.2495    0.0000 H   0  0  0  0  0  0  0  0  0  0  0  0
    8.5278    1.2105    0.0000 H   0  0  0  0  0  0  0  0  0  0  0  0
    5.3136    3.4293    0.0000 H   0  0  0  0  0  0  0  0  0  0  0  0
    4.4476    2.5493    0.0000 H   0  0  0  0  0  0  0  0  0  0  0  0
   10.0123   -0.4031    0.0000 H   0  0  0  0  0  0  0  0  0  0  0  0
    6.6492    0.4486    0.0000 H   0  0  0  0  0  0  0  0  0  0  0  0
   10.0839   -0.8593    0.0000 H   0  0  0  0  0  0  0  0  0  0  0  0
    9.1443   -2.6421    0.0000 H   0  0  0  0  0  0  0  0  0  0  0  0
    5.3136   -0.5707    0.0000 H   0  0  0  0  0  0  0  0  0  0  0  0
    6.7553    0.9434    0.0000 H   0  0  0  0  0  0  0  0  0  0  0  0
    8.5276   -2.3276    0.0000 H   0  0  0  0  0  0  0  0  0  0  0  0
    9.2976   -2.1213    0.0000 H   0  0  0  0  0  0  0  0  0  0  0  0
    6.8874    4.2953    0.0000 H   0  0  0  0  0  0  0  0  0  0  0  0
    6.6605    5.1422    0.0000 H   0  0  0  0  0  0  0  0  0  0  0  0
    5.8136    4.9153    0.0000 H   0  0  0  0  0  0  0  0  0  0  0  0
    7.2868   -1.1969    0.0000 H   0  0  0  0  0  0  0  0  0  0  0  0
    8.4285   -3.7911    0.0000 H   0  0  0  0  0  0  0  0  0  0  0  0
    5.7556   -3.3512    0.0000 H   0  0  0  0  0  0  0  0  0  0  0  0
    7.0655   -3.7169    0.0000 H   0  0  0  0  0  0  0  0  0  0  0  0
    5.9392    3.0276    0.0000 H   0  0  0  0  0  0  0  0  0  0  0  0
    4.9845    4.8593    0.0000 H   0  0  0  0  0  0  0  0  0  0  0  0
   10.9125   -0.0534    0.0000 H   0  0  0  0  0  0  0  0  0  0  0  0
    9.8683   -2.4248    0.0000 H   0  0  0  0  0  0  0  0  0  0  0  0
   10.1489   -4.0126    0.0000 H   0  0  0  0  0  0  0  0  0  0  0  0
   10.6056   -3.2641    0.0000 H   0  0  0  0  0  0  0  0  0  0  0  0
    9.8572   -2.8074    0.0000 H   0  0  0  0  0  0  0  0  0  0  0  0
    7.8205    0.0209    0.0000 H   0  0  0  0  0  0  0  0  0  0  0  0
    7.8033    2.0422    0.0000 H   0  0  0  0  0  0  0  0  0  0  0  0
    9.1765   -5.0535    0.0000 H   0  0  0  0  0  0  0  0  0  0  0  0
    6.9017    3.8216    0.0000 H   0  0  0  0  0  0  0  0  0  0  0  0
    4.7357    1.2700    0.0000 H   0  0  0  0  0  0  0  0  0  0  0  0
    5.2230    4.0333    0.0000 H   0  0  0  0  0  0  0  0  0  0  0  0
    3.1404    1.5513    0.0000 H   0  0  0  0  0  0  0  0  0  0  0  0
    3.6276    4.3146    0.0000 H   0  0  0  0  0  0  0  0  0  0  0  0
   10.2966   -1.4122    0.0000 H   0  0  0  0  0  0  0  0  0  0  0  0
   10.0521    1.3830    0.0000 H   0  0  0  0  0  0  0  0  0  0  0  0
   11.9105   -1.2711    0.0000 H   0  0  0  0  0  0  0  0  0  0  0  0
   11.6659    1.5242    0.0000 H   0  0  0  0  0  0  0  0  0  0  0  0
    2.0000    3.7222    0.0000 H   0  0  0  0  0  0  0  0  0  0  0  0
   13.0407    1.6445    0.0000 H   0  0  0  0  0  0  0  0  0  0  0  0
   13.2852   -1.1508    0.0000 H   0  0  0  0  0  0  0  0  0  0  0  0
   14.6545    1.7856    0.0000 H   0  0  0  0  0  0  0  0  0  0  0  0
   14.8990   -1.0096    0.0000 H   0  0  0  0  0  0  0  0  0  0  0  0
   16.0292    1.9059    0.0000 H   0  0  0  0  0  0  0  0  0  0  0  0
   16.2738   -0.8893    0.0000 H   0  0  0  0  0  0  0  0  0  0  0  0
   17.6431    2.0471    0.0000 H   0  0  0  0  0  0  0  0  0  0  0  0
   17.8876   -0.7481    0.0000 H   0  0  0  0  0  0  0  0  0  0  0  0
   21.0825    0.2832    0.0000 H   0  0  0  0  0  0  0  0  0  0  0  0
   20.3601    0.6201    0.0000 H   0  0  0  0  0  0  0  0  0  0  0  0
   18.9625   -0.3280    0.0000 H   0  0  0  0  0  0  0  0  0  0  0  0
   19.6849   -0.6648    0.0000 H   0  0  0  0  0  0  0  0  0  0  0  0
   20.5323   -1.0600    0.0000 H   0  0  0  0  0  0  0  0  0  0  0  0
   21.2546   -1.3968    0.0000 H   0  0  0  0  0  0  0  0  0  0  0  0
   22.6523   -0.4488    0.0000 H   0  0  0  0  0  0  0  0  0  0  0  0
   21.9299   -0.1119    0.0000 H   0  0  0  0  0  0  0  0  0  0  0  0
   22.1561   -1.8856    0.0000 H   0  0  0  0  0  0  0  0  0  0  0  0
   23.0196   -2.0378    0.0000 H   0  0  0  0  0  0  0  0  0  0  0  0
   23.1718   -1.1743    0.0000 H   0  0  0  0  0  0  0  0  0  0  0  0
 26  1  1  6  0  0  0
  1 93  1  0  0  0  0
  2 30  2  0  0  0  0
  3 31  2  0  0  0  0
 35  4  1  6  0  0  0
  4115  1  0  0  0  0
 37  5  1  6  0  0  0
  5118  1  0  0  0  0
 38  6  1  6  0  0  0
  6119  1  0  0  0  0
 42  7  1  6  0  0  0
  7120  1  0  0  0  0
  8 40  2  0  0  0  0
  9 41  2  0  0  0  0
 45 10  1  1  0  0  0
 10125  1  0  0  0  0
 11 43  2  0  0  0  0
 49 12  1  1  0  0  0
 12126  1  0  0  0  0
 50 13  1  6  0  0  0
 13127  1  0  0  0  0
 14 51  2  0  0  0  0
 15 54  2  0  0  0  0
 16 60  1  0  0  0  0
 16136  1  0  0  0  0
 17 77  1  0  0  0  0
 17 79  1  0  0  0  0
 18 27  1  0  0  0  0
 18 28  1  0  0  0  0
 18 30  1  0  0  0  0
 19 33  1  0  0  0  0
 19 36  1  0  0  0  0
 19 41  1  0  0  0  0
 20 31  1  0  0  0  0
 20 38  1  0  0  0  0
 20 99  1  0  0  0  0
 21 32  1  0  0  0  0
 21 43  1  0  0  0  0
 21101  1  0  0  0  0
 22 39  1  0  0  0  0
 22 40  1  0  0  0  0
 22106  1  0  0  0  0
 23 44  1  0  0  0  0
 23 51  1  0  0  0  0
 23116  1  0  0  0  0
 48 24  1  1  0  0  0
 24 54  1  0  0  0  0
 24124  1  0  0  0  0
 25 26  1  0  0  0  0
 25 28  1  0  0  0  0
 25 29  1  6  0  0  0
 25 83  1  0  0  0  0
 26 27  1  0  0  0  0
 26 84  1  0  0  0  0
 27 31  1  0  0  0  0
 27 85  1  6  0  0  0
 28 86  1  0  0  0  0
 28 87  1  0  0  0  0
 29 88  1  0  0  0  0
 29 89  1  0  0  0  0
 29 90  1  0  0  0  0
 30 32  1  0  0  0  0
 32 37  1  0  0  0  0
 32 91  1  6  0  0  0
 33 34  1  0  0  0  0
 33 40  1  0  0  0  0
 33 92  1  6  0  0  0
 34 35  1  0  0  0  0
 34 94  1  0  0  0  0
 34 95  1  0  0  0  0
 35 36  1  0  0  0  0
 35 96  1  0  0  0  0
 36 97  1  0  0  0  0
 36 98  1  0  0  0  0
 37 47  1  0  0  0  0
 37100  1  0  0  0  0
 38 42  1  0  0  0  0
 38102  1  0  0  0  0
 39 43  1  0  0  0  0
 39 45  1  0  0  0  0
 39103  1  1  0  0  0
 41 44  1  0  0  0  0
 42 46  1  0  0  0  0
 42104  1  0  0  0  0
 44 49  1  0  0  0  0
 44105  1  1  0  0  0
 45 50  1  0  0  0  0
 45107  1  0  0  0  0
 46 48  1  0  0  0  0
 46108  1  0  0  0  0
 46109  1  0  0  0  0
 47110  1  0  0  0  0
 47111  1  0  0  0  0
 47112  1  0  0  0  0
 48 51  1  0  0  0  0
 48113  1  0  0  0  0
 49 52  1  0  0  0  0
 49114  1  0  0  0  0
 50 53  1  0  0  0  0
 50117  1  0  0  0  0
 52121  1  0  0  0  0
 52122  1  0  0  0  0
 52123  1  0  0  0  0
 53 55  2  0  0  0  0
 53 56  1  0  0  0  0
 54 57  1  0  0  0  0
 55 58  1  0  0  0  0
 55128  1  0  0  0  0
 56 59  2  0  0  0  0
 56129  1  0  0  0  0
 57 61  2  0  0  0  0
 57 62  1  0  0  0  0
 58 60  2  0  0  0  0
 58130  1  0  0  0  0
 59 60  1  0  0  0  0
 59131  1  0  0  0  0
 61 63  1  0  0  0  0
 61132  1  0  0  0  0
 62 64  2  0  0  0  0
 62133  1  0  0  0  0
 63 65  2  0  0  0  0
 63134  1  0  0  0  0
 64 65  1  0  0  0  0
 64135  1  0  0  0  0
 65 66  1  0  0  0  0
 66 67  2  0  0  0  0
 66 68  1  0  0  0  0
 67 69  1  0  0  0  0
 67137  1  0  0  0  0
 68 70  2  0  0  0  0
 68138  1  0  0  0  0
 69 71  2  0  0  0  0
 69139  1  0  0  0  0
 70 71  1  0  0  0  0
 70140  1  0  0  0  0
 71 72  1  0  0  0  0
 72 73  2  0  0  0  0
 72 74  1  0  0  0  0
 73 75  1  0  0  0  0
 73141  1  0  0  0  0
 74 76  2  0  0  0  0
 74142  1  0  0  0  0
 75 77  2  0  0  0  0
 75143  1  0  0  0  0
 76 77  1  0  0  0  0
 76144  1  0  0  0  0
 78 79  1  0  0  0  0
 78 80  1  0  0  0  0
 78145  1  0  0  0  0
 78146  1  0  0  0  0
 79147  1  0  0  0  0
 79148  1  0  0  0  0
 80 81  1  0  0  0  0
 80149  1  0  0  0  0
 80150  1  0  0  0  0
 81 82  1  0  0  0  0
 81151  1  0  0  0  0
 81152  1  0  0  0  0
 82153  1  0  0  0  0
 82154  1  0  0  0  0
 82155  1  0  0  0  0
M  END
> <PUBCHEM_COMPOUND_CID>
166548

> <PUBCHEM_COMPOUND_CANONICALIZED>
1

> <PUBCHEM_CACTVS_COMPLEXITY>
2150

> <PUBCHEM_CACTVS_HBOND_ACCEPTOR>
17

> <PUBCHEM_CACTVS_HBOND_DONOR>
14

> <PUBCHEM_CACTVS_ROTATABLE_BOND>
14

> <PUBCHEM_CACTVS_SUBSKEYS>
AAADcfB/vgAAAAAAAAAAAAAAAAAAAWLAAAAwYMGAAAAAAAABVAAAHgAQCAAADTzhmAYyBoPABgCIAiFSEACCCAAkIAAIiIGODMkPdjaGtTuWeSjm9hGZuYe6/faO4AAAAAAAAADAAAAAAAAAAAAAAAAAAA==

> <PUBCHEM_IUPAC_OPENEYE_NAME>
N-[(3S,6S,9S,11R,15S,18S,20R,21R,24S,25S,26S)-6-[(1S,2S)-1,2-dihydroxy-2-(4-hydroxyphenyl)ethyl]-11,20,21,25-tetrahydroxy-3,15-bis[(1R)-1-hydroxyethyl]-26-methyl-2,5,8,14,17,23-hexaoxo-1,4,7,13,16,22-hexazatricyclo[22.3.0.09,13]heptacosan-18-yl]-4-[4-(4-pentoxyphenyl)phenyl]benzamide

> <PUBCHEM_IUPAC_CAS_NAME>
N-[(3S,6S,9S,11R,15S,18S,20R,21R,24S,25S,26S)-6-[(1S,2S)-1,2-dihydroxy-2-(4-hydroxyphenyl)ethyl]-11,20,21,25-tetrahydroxy-3,15-bis[(1R)-1-hydroxyethyl]-26-methyl-2,5,8,14,17,23-hexaoxo-1,4,7,13,16,22-hexazatricyclo[22.3.0.09,13]heptacosan-18-yl]-4-[4-(4-pentoxyphenyl)phenyl]benzamide

> <PUBCHEM_IUPAC_NAME_MARKUP>
<I>N</I>-[(3<I>S</I>,6<I>S</I>,9<I>S</I>,11<I>R</I>,15<I>S</I>,18<I>S</I>,20<I>R</I>,21<I>R</I>,24<I>S</I>,25<I>S</I>,26<I>S</I>)-6-[(1<I>S</I>,2<I>S</I>)-1,2-dihydroxy-2-(4-hydroxyphenyl)ethyl]-11,20,21,25-tetrahydroxy-3,15-bis[(1<I>R</I>)-1-hydroxyethyl]-26-methyl-2,5,8,14,17,23-hexaoxo-1,4,7,13,16,22-hexazatricyclo[22.3.0.0<SUP>9,13</SUP>]heptacosan-18-yl]-4-[4-(4-pentoxyphenyl)phenyl]benzamide

> <PUBCHEM_IUPAC_NAME>
N-[(3S,6S,9S,11R,15S,18S,20R,21R,24S,25S,26S)-6-[(1S,2S)-1,2-dihydroxy-2-(4-hydroxyphenyl)ethyl]-11,20,21,25-tetrahydroxy-3,15-bis[(1R)-1-hydroxyethyl]-26-methyl-2,5,8,14,17,23-hexaoxo-1,4,7,13,16,22-hexazatricyclo[22.3.0.09,13]heptacosan-18-yl]-4-[4-(4-pentoxyphenyl)phenyl]benzamide

> <PUBCHEM_IUPAC_SYSTEMATIC_NAME>
N-[(3S,6S,9S,11R,15S,18S,20R,21R,24S,25S,26S)-6-[(1S,2S)-2-(4-hydroxyphenyl)-1,2-bis(oxidanyl)ethyl]-26-methyl-11,20,21,25-tetrakis(oxidanyl)-3,15-bis[(1R)-1-oxidanylethyl]-2,5,8,14,17,23-hexakis(oxidanylidene)-1,4,7,13,16,22-hexazatricyclo[22.3.0.09,13]heptacosan-18-yl]-4-[4-(4-pentoxyphenyl)phenyl]benzamide

> <PUBCHEM_IUPAC_TRADITIONAL_NAME>
4-[4-(4-amoxyphenyl)phenyl]-N-[(3S,6S,9S,11R,15S,18S,20R,21R,24S,25S,26S)-6-[(1S,2S)-1,2-dihydroxy-2-(4-hydroxyphenyl)ethyl]-11,20,21,25-tetrahydroxy-3,15-bis[(1R)-1-hydroxyethyl]-2,5,8,14,17,23-hexaketo-26-methyl-1,4,7,13,16,22-hexazatricyclo[22.3.0.09,13]heptacosan-18-yl]benzamide

> <PUBCHEM_IUPAC_INCHI>
InChI=1S/C58H73N7O17/c1-5-6-7-24-82-40-22-18-35(19-23-40)33-10-8-32(9-11-33)34-12-14-37(15-13-34)51(74)59-41-26-43(70)54(77)63-56(79)47-48(71)29(2)27-65(47)58(81)45(31(4)67)61-55(78)46(50(73)49(72)36-16-20-38(68)21-17-36)62-53(76)42-25-39(69)28-64(42)57(80)44(30(3)66)60-52(41)75/h8-23,29-31,39,41-50,54,66-73,77H,5-7,24-28H2,1-4H3,(H,59,74)(H,60,75)(H,61,78)(H,62,76)(H,63,79)/t29-,30+,31+,39+,41-,42-,43+,44-,45-,46-,47-,48-,49-,50-,54+/m0/s1

> <PUBCHEM_IUPAC_INCHIKEY>
JHVAMHSQVVQIOT-MFAJLEFUSA-N

> <PUBCHEM_XLOGP3_AA>
2.3

> <PUBCHEM_EXACT_MASS>
1139.506294

> <PUBCHEM_MOLECULAR_FORMULA>
C58H73N7O17

> <PUBCHEM_MOLECULAR_WEIGHT>
1140.2

> <PUBCHEM_OPENEYE_CAN_SMILES>
CCCCCOC1=CC=C(C=C1)C2=CC=C(C=C2)C3=CC=C(C=C3)C(=O)NC4CC(C(NC(=O)C5C(C(CN5C(=O)C(NC(=O)C(NC(=O)C6CC(CN6C(=O)C(NC4=O)C(C)O)O)C(C(C7=CC=C(C=C7)O)O)O)C(C)O)C)O)O)O

> <PUBCHEM_OPENEYE_ISO_SMILES>
CCCCCOC1=CC=C(C=C1)C2=CC=C(C=C2)C3=CC=C(C=C3)C(=O)N[C@H]4C[C@H]([C@H](NC(=O)[C@@H]5[C@H]([C@H](CN5C(=O)[C@@H](NC(=O)[C@@H](NC(=O)[C@@H]6C[C@H](CN6C(=O)[C@@H](NC4=O)[C@@H](C)O)O)[C@@H]([C@H](C7=CC=C(C=C7)O)O)O)[C@@H](C)O)C)O)O)O

> <PUBCHEM_CACTVS_TPSA>
377

> <PUBCHEM_MONOISOTOPIC_WEIGHT>
1139.506294

> <PUBCHEM_TOTAL_CHARGE>
0

> <PUBCHEM_HEAVY_ATOM_COUNT>
82

> <PUBCHEM_ATOM_DEF_STEREO_COUNT>
15

> <PUBCHEM_ATOM_UDEF_STEREO_COUNT>
0

> <PUBCHEM_BOND_DEF_STEREO_COUNT>
0

> <PUBCHEM_BOND_UDEF_STEREO_COUNT>
0

> <PUBCHEM_ISOTOPIC_ATOM_COUNT>
0

> <PUBCHEM_COMPONENT_COUNT>
1

> <PUBCHEM_CACTVS_TAUTO_COUNT>
-1

> <PUBCHEM_COORDINATE_TYPE>
1
5
255

> <PUBCHEM_BONDANNOTATIONS>
26  1  6
45  10  5
49  12  5
50  13  6
48  24  5
25  29  6
27  85  6
32  91  6
33  92  6
39  103  5
35  4  6
44  105  5
37  5  6
53  55  8
53  56  8
55  58  8
56  59  8
57  61  8
57  62  8
58  60  8
59  60  8
38  6  6
61  63  8
62  64  8
63  65  8
64  65  8
66  67  8
66  68  8
67  69  8
68  70  8
69  71  8
42  7  6
70  71  8
72  73  8
72  74  8
73  75  8
74  76  8
75  77  8
76  77  8

$$$$
