@<TRIPOS>MOLECULE
J11_03.****
44 45 1 0 0 
SMALL
USER_CHARGES


@<TRIPOS>ATOM
  1 N        0.2111     0.5735     1.5465 N.am  1 <1>  -0.4900 
  2 H        0.4345     1.1801     2.3218 H     1 <1>   0.3700 
  3 C       -0.4093     1.1483     0.4680 C.2   1 <1>   0.6900 
  4 O       -0.6308     2.3608     0.4324 O.2   1 <1>  -0.5700 
  5 N       -0.7320     0.2880    -0.5834 N.am  1 <1>  -0.4691 
  6 C       -1.4512     0.8738    -1.7461 C.3   1 <1>   0.3001 
  7 H       -2.1373     1.6152    -1.3077 H     1 <1>   0.0000 
  8 C       -0.3741    -1.0477    -0.5383 C.2   1 <1>  -0.0410 
  9 H       -0.6074    -1.6603    -1.4015 H     1 <1>   0.1500 
 10 C        0.2485    -1.6020     0.5078 C.2   1 <1>  -0.1238 
 11 C        0.6488    -3.0396     0.5805 C.3   1 <1>   0.1382 
 12 H1       1.7328    -3.1301     0.7060 H     1 <1>   0.0000 
 13 H2       0.3735    -3.5861    -0.3278 H     1 <1>   0.0000 
 14 H3       0.1577    -3.5326     1.4258 H     1 <1>   0.0000 
 15 C        0.5642    -0.7462     1.6687 C.2   1 <1>   0.6156 
 16 O        1.1131    -1.1852     2.6727 O.2   1 <1>  -0.5700 
 17 C       -2.3515    -0.1030    -2.5341 C.3   1 <1>   0.3001 
 18 H1      -3.0441    -0.6006    -1.8468 H     1 <1>   0.0000 
 19 H2      -1.7721    -0.8903    -3.0280 H     1 <1>   0.0000 
 20 N       -3.0775     0.5981    -3.5939 N.am  1 <1>  -0.6602 
 21 C       -4.4686     0.5713    -3.6024 C.2   1 <1>   0.5690 
 22 O       -5.1253    -0.0272    -2.7487 O.2   1 <1>  -0.5700 
 23 C       -5.1638     1.3248    -4.7244 C.3   1 <1>   0.0610 
 24 C       -6.6836     1.2447    -4.6078 C.3   1 <1>   0.0610 
 25 C       -7.3648     1.9929    -5.7226 C.2   1 <1>   0.6590 
 26 O       -8.7841     2.1270    -5.6395 O.co2 1 <1>   0.0000 
 27 O       -6.8167     2.4962    -6.6919 O.co2 1 <1>  -0.5700 
 28 H2      -7.0041     1.6787    -3.6534 H     1 <1>   0.0000 
 29 H3      -7.0119     0.1998    -4.6463 H     1 <1>   0.0000 
 30 H2      -4.8452     0.8972    -5.6821 H     1 <1>   0.0000 
 31 H3      -4.8529     2.3755    -4.6892 H     1 <1>   0.0000 
 32 C       -2.2278     1.2859    -4.5667 C.3   1 <1>   0.3001 
 33 H1      -2.8129     1.7956    -5.3340 H     1 <1>   0.0000 
 34 H2      -1.6287     0.5248    -5.0790 H     1 <1>   0.0000 
 35 C       -1.3376     2.2985    -3.8566 C.3   1 <1>   0.0000 
 36 H1      -1.9666     3.1010    -3.4460 H     1 <1>   0.0000 
 37 H2      -0.6766     2.7897    -4.5817 H     1 <1>   0.0000 
 38 C       -0.5104     1.6807    -2.7083 C.3   1 <1>   0.2800 
 39 O        0.1096     2.7944    -2.0414 O.3   1 <1>  -0.6800 
 40 H       -0.2539     2.8755    -1.1306 H     1 <1>   0.4000 
 41 C        0.6377     0.8288    -3.2642 C.3   1 <1>   0.0000 
 42 H1       1.3217     0.5216    -2.4654 H     1 <1>   0.0000 
 43 H2       1.2457     1.4114    -3.9666 H     1 <1>   0.0000 
 44 H3       0.2873    -0.0675    -3.7827 H     1 <1>   0.0000 
@<TRIPOS>BOND
  1   1   2  1   
  2   1   3  am  
  3   1  15  am  
  4   3   4  2   
  5   3   5  am  
  6   5   6  1   
  7   5   8  1   
  8   6   7  1   
  9   6  17  1   
 10   6  38  1   
 11   8   9  1   
 12   8  10  2   
 13  10  11  1   
 14  10  15  1   
 15  11  12  1   
 16  11  13  1   
 17  11  14  1   
 18  15  16  2   
 19  17  18  1   
 20  17  19  1   
 21  17  20  1   
 22  20  21  am  
 23  20  32  1   
 24  21  22  2   
 25  21  23  1   
 26  23  24  1   
 27  23  30  1   
 28  23  31  1   
 29  24  25  1   
 30  24  28  1   
 31  24  29  1   
 32  25  26  ar  
 33  25  27  ar  
 34  32  33  1   
 35  32  34  1   
 36  32  35  1   
 37  35  36  1   
 38  35  37  1   
 39  35  38  1   
 40  38  39  1   
 41  38  41  1   
 42  39  40  1   
 43  41  42  1   
 44  41  43  1   
 45  41  44  1   
@<TRIPOS>SUBSTRUCTURE
  1 ****  17 GROUP 4 **** **** 0

# MOE 2015.10 (io_trps.svl 2015.10)
