@<TRIPOS>MOLECULE
J11_02.****
41 42 1 0 0 
SMALL
USER_CHARGES


@<TRIPOS>ATOM
  1 C        0.7558     0.6263    -0.2017 C.3   1 <1>   0.3001 
  2 H1       1.6625     1.2390    -0.1870 H     1 <1>   0.0000 
  3 H2       0.4579     0.5146    -1.2511 H     1 <1>   0.0000 
  4 N       -0.3443     1.2805     0.5025 N.am  1 <1>  -0.6602 
  5 C       -0.1279     2.5175     1.1009 C.2   1 <1>   0.5690 
  6 C       -1.3200     3.1710     1.7786 C.3   1 <1>   0.0610 
  7 O        0.9722     3.0716     1.0936 O.2   1 <1>  -0.5700 
  8 C       -0.9703     4.5394     2.3579 C.3   1 <1>   0.0610 
  9 H2      -0.5964     5.1966     1.5643 H     1 <1>   0.0000 
 10 H2      -1.6718     2.5135     2.5819 H     1 <1>   0.0000 
 11 H3      -2.1233     3.2823     1.0409 H     1 <1>   0.0000 
 12 C       -2.1725     5.1938     2.9848 C.2   1 <1>   0.6590 
 13 O       -1.9908     6.5022     3.5272 O.co2 1 <1>   0.0000 
 14 C       -1.6033     0.5318     0.5166 C.3   1 <1>   0.3001 
 15 H1      -1.9330     0.4420    -0.5270 H     1 <1>   0.0000 
 16 H2      -2.4060     1.0716     1.0251 H     1 <1>   0.0000 
 17 C       -1.4339    -0.8775     1.1406 C.3   1 <1>   0.2800 
 18 O       -2.6453    -1.6154     0.8951 O.3   1 <1>  -0.6800 
 19 H       -2.7848    -1.6870    -0.0643 H     1 <1>   0.4000 
 20 C       -1.3114    -0.7531     2.6618 C.3   1 <1>   0.0000 
 21 H1      -1.3488    -1.7346     3.1455 H     1 <1>   0.0000 
 22 H2      -2.1633    -0.1965     3.0711 H     1 <1>   0.0000 
 23 H3      -0.3970    -0.2371     2.9676 H     1 <1>   0.0000 
 24 C       -0.2290    -1.6001     0.4503 C.3   1 <1>   0.3001 
 25 H1      -0.5142    -1.7048    -0.6083 H     1 <1>   0.0000 
 26 N        0.0074    -2.9942     0.9229 N.am  1 <1>  -0.4691 
 27 C        1.0462    -0.7332     0.4238 C.3   1 <1>   0.0000 
 28 H1       1.8335    -1.2416    -0.1452 H     1 <1>   0.0000 
 29 H2       1.4384    -0.5649     1.4308 H     1 <1>   0.0000 
 30 C       -0.5297    -4.0307     0.1725 C.2   1 <1>  -0.0410 
 31 H       -1.0932    -3.7634    -0.7163 H     1 <1>   0.1500 
 32 C       -0.3862    -5.3139     0.5004 C.2   1 <1>  -0.1356 
 33 H       -0.8063    -6.1219    -0.0839 H     1 <1>   0.1500 
 34 C        0.3693    -5.6594     1.7049 C.2   1 <1>   0.6156 
 35 O        0.5331    -6.8247     2.0420 O.2   1 <1>  -0.5700 
 36 N        0.8673    -4.5958     2.4096 N.am  1 <1>  -0.4900 
 37 H        1.3891    -4.8032     3.2481 H     1 <1>   0.3700 
 38 C        0.7292    -3.2630     2.0910 C.2   1 <1>   0.6900 
 39 O        1.2352    -2.4203     2.8287 O.2   1 <1>  -0.5700 
 40 H3      -0.1939     4.4353     3.1243 H     1 <1>   0.0000 
 41 O       -3.2898     4.7064     3.0714 O.co2 1 <1>  -0.5700 
@<TRIPOS>BOND
  1   1   2  1   
  2   1   3  1   
  3   1   4  1   
  4   1  27  1   
  5   4   5  am  
  6   4  14  1   
  7   5   6  1   
  8   5   7  2   
  9   6   8  1   
 10   6  10  1   
 11   6  11  1   
 12   8   9  1   
 13   8  12  1   
 14   8  40  1   
 15  12  13  ar  
 16  12  41  ar  
 17  14  15  1   
 18  14  16  1   
 19  14  17  1   
 20  17  18  1   
 21  17  20  1   
 22  17  24  1   
 23  18  19  1   
 24  20  21  1   
 25  20  22  1   
 26  20  23  1   
 27  24  25  1   
 28  24  26  1   
 29  24  27  1   
 30  26  30  1   
 31  26  38  am  
 32  27  28  1   
 33  27  29  1   
 34  30  31  1   
 35  30  32  2   
 36  32  33  1   
 37  32  34  1   
 38  34  35  2   
 39  34  36  am  
 40  36  37  1   
 41  36  38  am  
 42  38  39  2   
@<TRIPOS>SUBSTRUCTURE
  1 ****  17 GROUP 4 **** **** 0

# MOE 2015.10 (io_trps.svl 2015.10)
