@<TRIPOS>MOLECULE
J11_45
49 51 1 0 0 
SMALL
USER_CHARGES


@<TRIPOS>ATOM
  1 C        1.0490     1.0533    -0.1589 C.3   1 <1>   0.2800 
  2 O        0.4183     1.4790     1.0494 O.3   1 <1>  -0.6800 
  3 H        1.1389     1.5103     1.7232 H     1 <1>   0.4000 
  4 H2       1.8317     1.7728    -0.4180 H     1 <1>   0.0000 
  5 C       -0.0406     0.9737    -1.2336 C.3   1 <1>   0.3001 
  6 H1       0.3840     1.0345    -2.2413 H     1 <1>   0.0000 
  7 H2      -0.8207     1.7306    -1.1149 H     1 <1>   0.0000 
  8 N       -0.6060    -0.3683    -1.0820 N.am  1 <1>  -0.6602 
  9 C        0.2296    -1.1847    -0.2083 C.3   1 <1>   0.3001 
 10 H1       0.3576    -2.1860    -0.6328 H     1 <1>   0.0000 
 11 H2      -0.2791    -1.2804     0.7583 H     1 <1>   0.0000 
 12 C        1.5469    -0.4067    -0.1008 C.3   1 <1>   0.2556 
 13 H1       2.1221    -0.5797    -1.0238 H     1 <1>   0.0000 
 14 N        2.4163    -0.8568     0.9663 N.pl3 1 <1>   0.0476 
 15 C       -1.7651    -0.8616    -1.6421 C.2   1 <1>   0.5690 
 16 C       -2.5472     0.1107    -2.5119 C.3   1 <1>   0.0610 
 17 C       -3.7961    -0.5348    -3.1137 C.3   1 <1>   0.0000 
 18 C       -4.5982     0.4577    -3.9559 C.3   1 <1>   0.0000 
 19 H2      -3.9737     0.8349    -4.7751 H     1 <1>   0.0000 
 20 H3      -4.8768     1.3216    -3.3397 H     1 <1>   0.0000 
 21 N       -6.6105     0.7947    -5.3135 N.4   1 <1>  -0.8530 
 22 H1      -7.4732     0.3808    -5.6920 H     1 <1>   0.4500 
 23 H2      -6.0662     1.1449    -6.1132 H     1 <1>   0.4500 
 24 H3      -6.8869     1.6061    -4.7443 H     1 <1>   0.4500 
 25 H2      -6.5199    -0.5491    -3.7269 H     1 <1>   0.0000 
 26 H2      -4.4307    -0.9271    -2.3089 H     1 <1>   0.0000 
 27 H3      -3.5053    -1.3931    -3.7324 H     1 <1>   0.0000 
 28 C       -5.8506    -0.1995    -4.5186 C.3   1 <1>   0.5030 
 29 H2      -1.8921     0.4703    -3.3133 H     1 <1>   0.0000 
 30 H3      -2.8426     0.9658    -1.8937 H     1 <1>   0.0000 
 31 O       -2.1481    -2.0156    -1.4508 O.2   1 <1>  -0.5700 
 32 H3      -5.6119    -1.0286    -5.1912 H     1 <1>   0.0000 
 33 C        2.9466    -2.1293     0.9968 C.2   1 <1>  -0.3016 
 34 H        2.7244    -2.8478     0.2174 H     1 <1>   0.1500 
 35 C        3.7523    -2.2392     2.1069 C.2   1 <1>  -0.1500 
 36 H        4.3221    -3.1208     2.3692 H     1 <1>   0.1500 
 37 C        3.7114    -0.9991     2.8003 C.ar  1 <1>   0.0000 
 38 C        2.8801    -0.1571     2.0566 C.ar  1 <1>   0.1054 
 39 N        2.5825     1.1298     2.3417 N.ar  1 <1>  -0.5670 
 40 C        3.1998     1.6008     3.4478 C.ar  1 <1>   0.1600 
 41 H        2.9816     2.6422     3.6752 H     1 <1>   0.1500 
 42 C        4.0443     0.8782     4.2709 C.ar  1 <1>  -0.1500 
 43 H        4.4884     1.3495     5.1433 H     1 <1>   0.1500 
 44 C        4.3011    -0.4631     3.9663 C.ar  1 <1>   0.0862 
 45 C        5.1928    -1.1977     4.8874 C.2   1 <1>   0.5438 
 46 N        4.9086    -2.5172     5.1067 N.am  1 <1>  -0.8000 
 47 H1       5.5171    -3.0400     5.7238 H     1 <1>   0.3700 
 48 H2       4.1181    -2.9990     4.6998 H     1 <1>   0.3700 
 49 O        6.1157    -0.6276     5.4581 O.2   1 <1>  -0.5700 
@<TRIPOS>BOND
  1   1   2  1   
  2   1   4  1   
  3   1   5  1   
  4   1  12  1   
  5   2   3  1   
  6   5   6  1   
  7   5   7  1   
  8   5   8  1   
  9   8   9  1   
 10   8  15  am  
 11   9  10  1   
 12   9  11  1   
 13   9  12  1   
 14  12  13  1   
 15  12  14  1   
 16  14  33  1   
 17  14  38  1   
 18  15  16  1   
 19  15  31  2   
 20  16  17  1   
 21  16  29  1   
 22  16  30  1   
 23  17  18  1   
 24  17  26  1   
 25  17  27  1   
 26  18  19  1   
 27  18  20  1   
 28  18  28  1   
 29  21  22  1   
 30  21  23  1   
 31  21  24  1   
 32  21  28  1   
 33  25  28  1   
 34  28  32  1   
 35  33  34  1   
 36  33  35  2   
 37  35  36  1   
 38  35  37  1   
 39  37  38  ar  
 40  37  44  ar  
 41  38  39  ar  
 42  39  40  ar  
 43  40  41  1   
 44  40  42  ar  
 45  42  43  1   
 46  42  44  ar  
 47  44  45  1   
 48  45  46  am  
 49  45  49  2   
 50  46  47  1   
 51  46  48  1   
@<TRIPOS>SUBSTRUCTURE
  1 <1>   0 RESIDUE 1 * * 1
# MOE 2007.09 (io_trps.svl 2007.09)
