@<TRIPOS>MOLECULE
J11_28
52 55 1 0 0 
SMALL
USER_CHARGES


@<TRIPOS>ATOM
  1 C        1.1527     1.4571     0.5810 C.ar  1 <1>   0.0862 
  2 C       -0.2103     1.7309     0.4202 C.ar  1 <1>  -0.1500 
  3 H       -0.5151     2.7196     0.0938 H     1 <1>   0.1500 
  4 C       -1.1453     0.7299     0.6801 C.ar  1 <1>   0.0825 
  5 O       -2.5013     0.8441     0.5433 O.3   1 <1>  -0.3625 
  6 C       -3.0042     2.0915     0.0473 C.3   1 <1>   0.1740 
  7 H2      -2.5734     2.3160    -0.9362 H     1 <1>   0.0000 
  8 H3      -2.7708     2.9009     0.7495 H     1 <1>   0.0000 
  9 C       -0.7051    -0.5229     1.1232 C.ar  1 <1>  -0.1500 
 10 H       -1.4347    -1.3027     1.3296 H     1 <1>   0.1500 
 11 C        0.6554    -0.7807     1.3090 C.ar  1 <1>  -0.1500 
 12 H        0.9811    -1.7550     1.6624 H     1 <1>   0.1500 
 13 C        1.5908     0.2146     1.0423 C.ar  1 <1>  -0.1500 
 14 H        2.6503     0.0235     1.1910 H     1 <1>   0.1500 
 15 C       -4.5281     1.9794    -0.0982 C.2   1 <1>   0.9060 
 16 O       -5.1958     2.3366     0.9150 O.co2 1 <1>  -0.9000 
 17 O       -4.9330     1.5799    -1.2287 O.co2 1 <1>  -0.9000 
 18 C        2.1531     2.5044     0.3125 C.2   1 <1>   0.5438 
 19 N        2.2549     3.0190    -0.9784 N.am  1 <1>  -0.6602 
 20 O        2.8590     2.8609     1.2520 O.2   1 <1>  -0.5700 
 21 C        3.1184     4.1711    -1.2080 C.3   1 <1>   0.3001 
 22 H1       3.5551     4.5250    -0.2670 H     1 <1>   0.0000 
 23 H2       2.4900     4.9870    -1.5862 H     1 <1>   0.0000 
 24 C        4.2262     3.7986    -2.2022 C.3   1 <1>   0.2556 
 25 H1       4.7786     2.9526    -1.7679 H     1 <1>   0.0000 
 26 N        5.1842     4.8847    -2.3222 N.pl3 1 <1>   0.0476 
 27 C        3.6146     3.2918    -3.5390 C.3   1 <1>   0.2800 
 28 C        4.6951     2.8346    -4.5252 C.3   1 <1>   0.0000 
 29 H1       4.2423     2.4318    -5.4386 H     1 <1>   0.0000 
 30 H2       5.3360     2.0608    -4.0904 H     1 <1>   0.0000 
 31 H3       5.3245     3.6726    -4.8435 H     1 <1>   0.0000 
 32 O        2.8578     4.3390    -4.1570 O.3   1 <1>  -0.6800 
 33 H        2.5389     4.0194    -5.0211 H     1 <1>   0.4000 
 34 C        2.6442     2.1263    -3.2421 C.3   1 <1>   0.0000 
 35 H1       3.2148     1.2560    -2.8923 H     1 <1>   0.0000 
 36 H2       2.1159     1.8276    -4.1559 H     1 <1>   0.0000 
 37 C        1.6005     2.4918    -2.1795 C.3   1 <1>   0.3001 
 38 H1       1.0081     1.6015    -1.9597 H     1 <1>   0.0000 
 39 H2       0.9175     3.2640    -2.5512 H     1 <1>   0.0000 
 40 C        6.4770     4.8479    -1.8728 C.ar  1 <1>   0.1054 
 41 C        6.9790     6.1129    -2.1247 C.ar  1 <1>   0.2272 
 42 N        6.0351     6.8987    -2.7504 N.2   1 <1>  -0.5653 
 43 C        4.9734     6.1271    -2.8595 C.2   1 <1>   0.0365 
 44 H        4.0306     6.4215    -3.3031 H     1 <1>   0.1500 
 45 C        8.2934     6.3661    -1.7069 C.ar  1 <1>   0.4100 
 46 N        8.9029     7.5890    -1.8667 N.pl3 1 <1>  -0.9000 
 47 H1       9.8440     7.6938    -1.5223 H     1 <1>   0.4000 
 48 H2       8.4058     8.3460    -2.3137 H     1 <1>   0.4000 
 49 N        8.9829     5.3645    -1.1065 N.ar  1 <1>  -0.6200 
 50 C        8.3674     4.1741    -0.9358 C.ar  1 <1>   0.4700 
 51 H        8.9583     3.4027    -0.4517 H     1 <1>   0.1500 
 52 N        7.1155     3.8234    -1.2852 N.ar  1 <1>  -0.5670 
@<TRIPOS>BOND
  1   1   2  ar  
  2   1  13  ar  
  3   1  18  1   
  4   2   3  1   
  5   2   4  ar  
  6   4   5  1   
  7   4   9  ar  
  8   5   6  1   
  9   6   7  1   
 10   6   8  1   
 11   6  15  1   
 12   9  10  1   
 13   9  11  ar  
 14  11  12  1   
 15  11  13  ar  
 16  13  14  1   
 17  15  16  ar  
 18  15  17  ar  
 19  18  19  am  
 20  18  20  2   
 21  19  21  1   
 22  19  37  1   
 23  21  22  1   
 24  21  23  1   
 25  21  24  1   
 26  24  25  1   
 27  24  26  1   
 28  24  27  1   
 29  26  40  1   
 30  26  43  1   
 31  27  28  1   
 32  27  32  1   
 33  27  34  1   
 34  28  29  1   
 35  28  30  1   
 36  28  31  1   
 37  32  33  1   
 38  34  35  1   
 39  34  36  1   
 40  34  37  1   
 41  37  38  1   
 42  37  39  1   
 43  40  41  ar  
 44  40  52  ar  
 45  41  42  1   
 46  41  45  ar  
 47  42  43  2   
 48  43  44  1   
 49  45  46  1   
 50  45  49  ar  
 51  46  47  1   
 52  46  48  1   
 53  49  50  ar  
 54  50  51  1   
 55  50  52  ar  
@<TRIPOS>SUBSTRUCTURE
  1 <1>   0 RESIDUE 1 * * 1
# MOE 2007.09 (io_trps.svl 2007.09)
