@<TRIPOS>MOLECULE
J11_48
52 55 1 0 0 
SMALL
USER_CHARGES


@<TRIPOS>ATOM
  1 C        1.3496     0.8531    -0.2581 C.ar  1 <1>   0.0862 
  2 C        0.0993     1.4221    -0.0010 C.ar  1 <1>  -0.1500 
  3 H        0.0559     2.4530     0.3346 H     1 <1>   0.1500 
  4 C       -1.0490     0.6537    -0.1884 C.ar  1 <1>   0.0825 
  5 O       -2.3354     1.0915    -0.0211 O.3   1 <1>  -0.3625 
  6 C       -2.5221     2.5047     0.0498 C.3   1 <1>   0.2800 
  7 C       -4.0145     2.7816    -0.0911 C.3   1 <1>   0.5030 
  8 N       -4.2895     4.2403    -0.0457 N.4   1 <1>  -0.8530 
  9 H1      -5.2920     4.4208    -0.1949 H     1 <1>   0.4500 
 10 H2      -3.7799     4.7559    -0.7777 H     1 <1>   0.4500 
 11 H3      -4.0553     4.6561     0.8674 H     1 <1>   0.4500 
 12 H2      -4.5891     2.3156     0.7156 H     1 <1>   0.0000 
 13 H3      -4.3995     2.4093    -1.0460 H     1 <1>   0.0000 
 14 H2      -1.9874     3.0090    -0.7652 H     1 <1>   0.0000 
 15 H3      -2.1637     2.8778     1.0166 H     1 <1>   0.0000 
 16 C       -0.9255    -0.6850    -0.5805 C.ar  1 <1>  -0.1500 
 17 H       -1.8175    -1.2925    -0.7153 H     1 <1>   0.1500 
 18 C        0.3309    -1.2525    -0.8092 C.ar  1 <1>  -0.1500 
 19 H        0.4125    -2.2933    -1.1138 H     1 <1>   0.1500 
 20 C        1.4775    -0.4791    -0.6539 C.ar  1 <1>  -0.1500 
 21 H        2.4573    -0.9112    -0.8424 H     1 <1>   0.1500 
 22 C        2.5494     1.6919    -0.1214 C.2   1 <1>   0.5438 
 23 N        3.1516     2.1081    -1.2888 N.am  1 <1>  -0.6602 
 24 O        2.9232     1.9922     1.0060 O.2   1 <1>  -0.5700 
 25 C        4.4174     2.8457    -1.2937 C.3   1 <1>   0.3001 
 26 H1       5.1378     2.3468    -0.6380 H     1 <1>   0.0000 
 27 H2       4.2096     3.8519    -0.9136 H     1 <1>   0.0000 
 28 C        4.8367     2.8746    -2.7744 C.3   1 <1>   0.2800 
 29 O        5.5733     1.6770    -3.0221 O.3   1 <1>  -0.6800 
 30 H        5.5512     1.5074    -3.9917 H     1 <1>   0.4000 
 31 H2       5.4751     3.7290    -3.0157 H     1 <1>   0.0000 
 32 C        3.4580     2.9317    -3.4602 C.3   1 <1>   0.3691 
 33 N        3.3701     2.6930    -4.8802 N.pl3 1 <1>  -0.7882 
 34 H2       3.0434     3.9304    -3.2563 H     1 <1>   0.0000 
 35 C        2.6616     1.9120    -2.6488 C.3   1 <1>   0.3001 
 36 H1       2.8753     0.8804    -2.9513 H     1 <1>   0.0000 
 37 H2       1.5822     2.0818    -2.7072 H     1 <1>   0.0000 
 38 C        4.1049     1.9210    -5.7206 C.2   1 <1>   0.5000 
 39 C        3.4222     1.9866    -7.0379 C.2   1 <1>   0.3890 
 40 N        2.3643     2.7541    -7.0483 N.2   1 <1>  -0.6960 
 41 C        2.3014     3.2915    -5.6625 C.3   1 <1>   0.6151 
 42 H1       1.3238     3.0467    -5.2329 H     1 <1>   0.0000 
 43 H2       2.4110     4.3811    -5.6951 H     1 <1>   0.0000 
 44 N        5.1716     1.2360    -5.5252 N.2   1 <1>  -0.6610 
 45 C        5.7049     0.5707    -6.5963 C.2   1 <1>   0.6010 
 46 H        6.6585     0.0523    -6.3978 H     1 <1>   0.0600 
 47 N        5.2210     0.5045    -7.7821 N.2   1 <1>  -0.6960 
 48 C        3.9610     1.1308    -8.1287 C.3   1 <1>   0.5770 
 49 H1       3.2171     0.3521    -8.3296 H     1 <1>   0.0000 
 50 N        4.1495     1.9227    -9.3335 N.3   1 <1>  -0.9900 
 51 H1       4.5156     1.2881   -10.0413 H     1 <1>   0.3600 
 52 H2       4.9064     2.5823    -9.1638 H     1 <1>   0.3600 
@<TRIPOS>BOND
  1   1   2  ar  
  2   1  20  ar  
  3   1  22  1   
  4   2   3  1   
  5   2   4  ar  
  6   4   5  1   
  7   4  16  ar  
  8   5   6  1   
  9   6   7  1   
 10   6  14  1   
 11   6  15  1   
 12   7   8  1   
 13   7  12  1   
 14   7  13  1   
 15   8   9  1   
 16   8  10  1   
 17   8  11  1   
 18  16  17  1   
 19  16  18  ar  
 20  18  19  1   
 21  18  20  ar  
 22  20  21  1   
 23  22  23  am  
 24  22  24  2   
 25  23  25  1   
 26  23  35  1   
 27  25  26  1   
 28  25  27  1   
 29  25  28  1   
 30  28  29  1   
 31  28  31  1   
 32  28  32  1   
 33  29  30  1   
 34  32  33  1   
 35  32  34  1   
 36  32  35  1   
 37  33  38  1   
 38  33  41  1   
 39  35  36  1   
 40  35  37  1   
 41  38  39  1   
 42  38  44  2   
 43  39  40  2   
 44  39  48  1   
 45  40  41  1   
 46  41  42  1   
 47  41  43  1   
 48  44  45  1   
 49  45  46  1   
 50  45  47  2   
 51  47  48  1   
 52  48  49  1   
 53  48  50  1   
 54  50  51  1   
 55  50  52  1   
@<TRIPOS>SUBSTRUCTURE
  1 <1>   0 RESIDUE 1 * * 1
# MOE 2007.09 (io_trps.svl 2007.09)
