@<TRIPOS>MOLECULE
J11_36
28 29 1 0 0 
SMALL
USER_CHARGES


@<TRIPOS>ATOM
  1 C        1.1338     0.5381    -0.8767 C.2   1 <1>   0.6900 
  2 O        2.0385     0.8920    -1.6310 O.2   1 <1>  -0.5700 
  3 N        0.5046     1.3689     0.0426 N.am  1 <1>  -0.4691 
  4 C        0.9624     2.7504     0.1172 C.3   1 <1>   0.7183 
  5 H        2.0101     2.8324    -0.1927 H     1 <1>   0.0000 
  6 C       -0.5275     0.9114     0.8425 C.2   1 <1>  -0.0410 
  7 H       -0.9690     1.6339     1.5234 H     1 <1>   0.1500 
  8 C       -0.9783    -0.3468     0.8015 C.2   1 <1>  -0.1238 
  9 C       -2.0886    -0.8703     1.6518 C.3   1 <1>   0.1382 
 10 H1      -2.4920    -0.0981     2.3154 H     1 <1>   0.0000 
 11 H2      -1.7356    -1.6955     2.2790 H     1 <1>   0.0000 
 12 H3      -2.9112    -1.2343     1.0277 H     1 <1>   0.0000 
 13 C       -0.3383    -1.2831    -0.1452 C.2   1 <1>   0.6156 
 14 O       -0.6875    -2.4545    -0.2416 O.2   1 <1>  -0.5700 
 15 N        0.6711    -0.7556    -0.9122 N.am  1 <1>  -0.4900 
 16 H        1.1198    -1.3751    -1.5696 H     1 <1>   0.3700 
 17 O        0.8562     3.2614     1.4619 O.3   1 <1>  -0.5600 
 18 C        0.1015     4.4932     1.4272 C.3   1 <1>   0.4182 
 19 C        1.0043     5.6479     1.8608 C.3   1 <1>   0.2800 
 20 H1       1.4689     5.4190     2.8263 H     1 <1>   0.0000 
 21 O        0.2499     6.8462     1.9941 O.3   1 <1>  -0.6800 
 22 H        0.8712     7.5472     2.2582 H     1 <1>   0.4000 
 23 H3       1.8138     5.8131     1.1404 H     1 <1>   0.0000 
 24 H2      -0.7503     4.3944     2.1093 H     1 <1>   0.0000 
 25 C       -0.3837     4.6226     0.0239 C.2   1 <1>  -0.2882 
 26 H       -1.0264     5.4177    -0.3251 H     1 <1>   0.1500 
 27 C        0.1006     3.6289    -0.7177 C.2   1 <1>  -0.2882 
 28 H       -0.0776     3.4868    -1.7729 H     1 <1>   0.1500 
@<TRIPOS>BOND
  1   1   2  2   
  2   1   3  am  
  3   1  15  am  
  4   3   4  1   
  5   3   6  1   
  6   4   5  1   
  7   4  17  1   
  8   4  27  1   
  9   6   7  1   
 10   6   8  2   
 11   8   9  1   
 12   8  13  1   
 13   9  10  1   
 14   9  11  1   
 15   9  12  1   
 16  13  14  2   
 17  13  15  am  
 18  15  16  1   
 19  17  18  1   
 20  18  19  1   
 21  18  24  1   
 22  18  25  1   
 23  19  20  1   
 24  19  21  1   
 25  19  23  1   
 26  21  22  1   
 27  25  26  1   
 28  25  27  2   
 29  27  28  1   
@<TRIPOS>SUBSTRUCTURE
  1 <1>   0 RESIDUE 1 * * 1
# MOE 2007.09 (io_trps.svl 2007.09)
