@<TRIPOS>MOLECULE
J11_18
42 46 1 0 0 
SMALL
USER_CHARGES


@<TRIPOS>ATOM
  1 C        1.2513     0.5079    -0.2104 C.ar  1 <1>  -0.1435 
  2 C        2.6759     0.9634    -0.4033 C.3   1 <1>   1.1635 
  3 F        2.7898     2.0064    -1.2723 F     1 <1>  -0.3400 
  4 F        3.4708    -0.0244    -0.8987 F     1 <1>  -0.3400 
  5 C        0.3216     0.6121    -1.2567 C.ar  1 <1>  -0.1500 
  6 H        0.6183     1.0498    -2.2095 H     1 <1>   0.1500 
  7 C       -0.9959     0.1721    -1.0898 C.ar  1 <1>  -0.1500 
  8 H       -1.6943     0.3078    -1.9110 H     1 <1>   0.1500 
  9 C       -1.3933    -0.3914     0.1259 C.ar  1 <1>   0.0862 
 10 C       -2.7778    -0.8654     0.3591 C.2   1 <1>   0.5438 
 11 N       -3.4389    -1.3825    -0.7380 N.am  1 <1>  -0.4300 
 12 N       -4.7385    -1.8094    -0.5766 N.am  1 <1>  -0.1200 
 13 H2      -3.0311    -1.4816    -1.6593 H     1 <1>   0.3700 
 14 O       -3.2563    -0.8032     1.4883 O.2   1 <1>  -0.5700 
 15 C       -0.4743    -0.4927     1.1768 C.ar  1 <1>  -0.1500 
 16 H       -0.7773    -0.9194     2.1314 H     1 <1>   0.1500 
 17 C        0.8413    -0.0539     1.0069 C.ar  1 <1>  -0.1500 
 18 H        1.5440    -0.1491     1.8336 H     1 <1>   0.1500 
 19 F        3.2685     1.3777     0.7513 F     1 <1>  -0.3400 
 20 C       -5.8422    -0.9459    -0.6970 C.2   1 <1>   0.5690 
 21 O       -5.9139     0.1787    -1.1515 O.2   1 <1>  -0.5700 
 22 C       -6.9106    -1.7419    -0.0085 C.3   1 <1>   0.0610 
 23 H       -6.5749    -1.5849     1.0280 H     1 <1>   0.0000 
 24 C       -6.5457    -3.1406    -0.5432 C.3   1 <1>   0.0610 
 25 H       -6.4961    -3.1114    -1.6537 H     1 <1>   0.0000 
 26 C       -5.0730    -3.1400    -0.2686 C.2   1 <1>   0.5690 
 27 O       -4.3649    -4.0844     0.0198 O.2   1 <1>  -0.5700 
 28 C       -8.4337    -1.6404     0.0533 C.3   1 <1>   0.2332 
 29 H1      -8.7899    -0.6130     0.1649 H     1 <1>   0.0000 
 30 C       -8.8476    -2.5198     1.2862 C.3   1 <1>  -0.1950 
 31 H       -9.8810    -2.3609     1.5750 H     1 <1>   0.1000 
 32 C       -7.9186    -3.1997     2.2868 C.3   1 <1>  -0.2000 
 33 H1      -6.8643    -2.9842     2.3830 H     1 <1>   0.1000 
 34 H2      -8.3503    -3.4666     3.2491 H     1 <1>   0.1000 
 35 C       -9.0545    -2.3358    -1.1684 C.2   1 <1>  -0.2882 
 36 H       -9.7536    -1.8260    -1.8191 H     1 <1>   0.1500 
 37 C       -8.7219    -3.6418    -1.3012 C.2   1 <1>  -0.2882 
 38 H       -9.1033    -4.2889    -2.0806 H     1 <1>   0.1500 
 39 C       -7.6789    -4.1359    -0.2612 C.3   1 <1>   0.2332 
 40 H1      -7.3833    -5.1721    -0.4453 H     1 <1>   0.0000 
 41 C       -8.3840    -3.9710     1.0888 C.3   1 <1>  -0.1950 
 42 H       -9.1161    -4.7555     1.2556 H     1 <1>   0.1000 
@<TRIPOS>BOND
  1   1   2  1   
  2   1   5  ar  
  3   1  17  ar  
  4   2   3  1   
  5   2   4  1   
  6   2  19  1   
  7   5   6  1   
  8   5   7  ar  
  9   7   8  1   
 10   7   9  ar  
 11   9  10  1   
 12   9  15  ar  
 13  10  11  am  
 14  10  14  2   
 15  11  12  1   
 16  11  13  1   
 17  12  20  am  
 18  12  26  am  
 19  15  16  1   
 20  15  17  ar  
 21  17  18  1   
 22  20  21  2   
 23  20  22  1   
 24  22  23  1   
 25  22  24  1   
 26  22  28  1   
 27  24  25  1   
 28  24  26  1   
 29  24  39  1   
 30  26  27  2   
 31  28  29  1   
 32  28  30  1   
 33  28  35  1   
 34  30  31  1   
 35  30  32  1   
 36  30  41  1   
 37  32  33  1   
 38  32  34  1   
 39  32  41  1   
 40  35  36  1   
 41  35  37  2   
 42  37  38  1   
 43  37  39  1   
 44  39  40  1   
 45  39  41  1   
 46  41  42  1   
@<TRIPOS>SUBSTRUCTURE
  1 <1>   0 RESIDUE 1 * * 1
# MOE 2007.09 (io_trps.svl 2007.09)
