@<TRIPOS>MOLECULE
J11_38
31 32 1 0 0 
SMALL
USER_CHARGES


@<TRIPOS>ATOM
  1 C        1.0793     0.6017    -0.8370 C.2   1 <1>   0.6900 
  2 O        1.9385     1.0377    -1.6006 O.2   1 <1>  -0.5700 
  3 N        0.3950     1.3708     0.0984 N.am  1 <1>  -0.4691 
  4 C        0.7358     2.7846     0.1768 C.3   1 <1>   0.5801 
  5 H        1.8031     2.9172    -0.0419 H     1 <1>   0.0000 
  6 C       -0.5881     0.8279     0.9047 C.2   1 <1>  -0.0410 
  7 H       -1.0800     1.5100     1.5951 H     1 <1>   0.1500 
  8 C       -0.9342    -0.4631     0.8539 C.2   1 <1>  -0.1238 
  9 C       -1.9799    -1.1050     1.6861 C.3   1 <1>   1.1582 
 10 F       -2.5577    -0.2192     2.5433 F     1 <1>  -0.3400 
 11 F       -1.4907    -2.1099     2.4562 F     1 <1>  -0.3400 
 12 F       -2.9905    -1.6208     0.9410 F     1 <1>  -0.3400 
 13 C       -0.2364    -1.3340    -0.0988 C.2   1 <1>   0.6156 
 14 O       -0.4908    -2.5273    -0.2037 O.2   1 <1>  -0.5700 
 15 N        0.7213    -0.7251    -0.8739 N.am  1 <1>  -0.4900 
 16 H        1.2119    -1.3036    -1.5397 H     1 <1>   0.3700 
 17 O        0.5158     3.3067     1.4969 O.3   1 <1>  -0.5600 
 18 C        0.0422     4.6639     1.3690 C.3   1 <1>   0.2800 
 19 C        0.9539     5.5714     2.1920 C.3   1 <1>   0.2800 
 20 H1       0.9343     5.2669     3.2443 H     1 <1>   0.0000 
 21 O        0.5476     6.9251     2.0978 O.3   1 <1>  -0.6800 
 22 H        1.1636     7.4561     2.6324 H     1 <1>   0.4000 
 23 H3       1.9925     5.4863     1.8522 H     1 <1>   0.0000 
 24 H2      -0.9760     4.7101     1.7744 H     1 <1>   0.0000 
 25 C        0.0343     5.0019    -0.1240 C.3   1 <1>   0.2800 
 26 H        0.9693     5.4853    -0.4312 H     1 <1>   0.0000 
 27 O       -1.0561     5.8304    -0.4889 O.3   1 <1>  -0.6800 
 28 H       -1.0443     5.9243    -1.4566 H     1 <1>   0.4000 
 29 C       -0.0948     3.6395    -0.7609 C.3   1 <1>   0.0000 
 30 H1      -1.1460     3.3237    -0.7773 H     1 <1>   0.0000 
 31 H2       0.2623     3.6126    -1.7952 H     1 <1>   0.0000 
@<TRIPOS>BOND
  1   1   2  2   
  2   1   3  am  
  3   1  15  am  
  4   3   4  1   
  5   3   6  1   
  6   4   5  1   
  7   4  17  1   
  8   4  29  1   
  9   6   7  1   
 10   6   8  2   
 11   8   9  1   
 12   8  13  1   
 13   9  10  1   
 14   9  11  1   
 15   9  12  1   
 16  13  14  2   
 17  13  15  am  
 18  15  16  1   
 19  17  18  1   
 20  18  19  1   
 21  18  24  1   
 22  18  25  1   
 23  19  20  1   
 24  19  21  1   
 25  19  23  1   
 26  21  22  1   
 27  25  26  1   
 28  25  27  1   
 29  25  29  1   
 30  27  28  1   
 31  29  30  1   
 32  29  31  1   
@<TRIPOS>SUBSTRUCTURE
  1 <1>   0 RESIDUE 1 * * 1
# MOE 2007.09 (io_trps.svl 2007.09)
