@<TRIPOS>MOLECULE
J11_12
29 30 1 0 0 
SMALL
USER_CHARGES


@<TRIPOS>ATOM
  1 C        1.0126     0.9072    -0.5097 C.3   1 <1>   0.2800 
  2 O        2.0973     1.6938    -0.0348 O.3   1 <1>  -0.6800 
  3 H        2.7842     1.0851     0.3330 H     1 <1>   0.4000 
  4 H2       0.7756     1.2795    -1.5148 H     1 <1>   0.0000 
  5 C       -0.2129     1.0558     0.3735 C.3   1 <1>   0.2800 
  6 O       -0.8242     2.3191     0.1761 O.3   1 <1>  -0.6800 
  7 H       -0.1272     2.9891     0.3083 H     1 <1>   0.4000 
  8 H2       0.0544     0.9593     1.4326 H     1 <1>   0.0000 
  9 C       -1.0594    -0.1146    -0.1177 C.3   1 <1>   0.2800 
 10 H1      -1.5503     0.1512    -1.0633 H     1 <1>   0.0000 
 11 C       -2.1223    -0.5934     0.8700 C.3   1 <1>   0.2800 
 12 H1      -2.5408    -1.5476     0.5307 H     1 <1>   0.0000 
 13 O       -3.1804     0.3454     0.9839 O.3   1 <1>  -0.6800 
 14 H       -3.8562    -0.0385     1.5690 H     1 <1>   0.4000 
 15 H3      -1.6859    -0.7657     1.8599 H     1 <1>   0.0000 
 16 O       -0.1259    -1.1868    -0.3853 O.3   1 <1>  -0.5600 
 17 C        1.1920    -0.6151    -0.5615 C.3   1 <1>   0.5356 
 18 H1       1.5914    -0.9363    -1.5299 H     1 <1>   0.0000 
 19 N        2.0868    -1.1709     0.4413 N.pl3 1 <1>   0.3140 
 20 C        1.9569    -2.3213     1.1521 C.2   1 <1>   0.0365 
 21 H        1.1046    -2.9826     1.0741 H     1 <1>   0.1500 
 22 N        3.0158    -2.4950     1.9081 N.2   1 <1>  -0.5653 
 23 C        3.8005    -1.3886     1.6270 C.2   1 <1>   0.4300 
 24 C        5.1257    -1.1948     2.2295 C.2   1 <1>   0.7160 
 25 O        5.8623    -0.2369     2.0104 O.2   1 <1>  -0.5700 
 26 N        5.5011    -2.2064     3.0820 N.am  1 <1>  -0.8000 
 27 H1       6.4007    -2.1695     3.5413 H     1 <1>   0.3700 
 28 H2       4.8733    -2.9868     3.2477 H     1 <1>   0.3700 
 29 N        3.2391    -0.5327     0.7510 N.2   1 <1>  -0.7068 
@<TRIPOS>BOND
  1   1   2  1   
  2   1   4  1   
  3   1   5  1   
  4   1  17  1   
  5   2   3  1   
  6   5   6  1   
  7   5   8  1   
  8   5   9  1   
  9   6   7  1   
 10   9  10  1   
 11   9  11  1   
 12   9  16  1   
 13  11  12  1   
 14  11  13  1   
 15  11  15  1   
 16  13  14  1   
 17  16  17  1   
 18  17  18  1   
 19  17  19  1   
 20  19  20  1   
 21  19  29  1   
 22  20  21  1   
 23  20  22  2   
 24  22  23  1   
 25  23  24  1   
 26  23  29  2   
 27  24  25  2   
 28  24  26  am  
 29  26  27  1   
 30  26  28  1   
@<TRIPOS>SUBSTRUCTURE
  1 <1>   0 RESIDUE 1 * * 1
# MOE 2007.09 (io_trps.svl 2007.09)
