@<TRIPOS>MOLECULE
J11_13
48 49 1 0 0 
SMALL
USER_CHARGES


@<TRIPOS>ATOM
  1 N        1.2682     0.3887     0.0906 N.2   1 <1>  -0.5760 
  2 C        0.4425     1.3776    -0.3621 C.2   1 <1>  -0.0256 
  3 C       -0.8777     1.2483    -0.7407 C.2   1 <1>   0.1412 
  4 C       -1.4793    -0.0616    -0.6469 C.2   1 <1>   0.7160 
  5 O       -2.6136    -0.4441    -0.9223 O.2   1 <1>  -0.5700 
  6 N       -0.6238    -1.0342    -0.1742 N.am  1 <1>  -0.4900 
  7 H       -1.0202    -1.9447    -0.1020 H     1 <1>   0.3700 
  8 C        0.6696    -0.7981     0.1650 C.2   1 <1>   0.5600 
  9 N        1.3787    -1.8138     0.5979 N.pl3 1 <1>  -0.8500 
 10 H1       2.3320    -1.6139     0.8496 H     1 <1>   0.4000 
 11 H2       0.9916    -2.7343     0.6840 H     1 <1>   0.4000 
 12 N        0.7494     2.7030    -0.5288 N.pl3 1 <1>   0.0476 
 13 C        2.0835     3.2670    -0.3671 C.3   1 <1>   0.3756 
 14 O        1.9406     4.4650     0.4762 O.3   1 <1>  -0.5600 
 15 C        1.8051     5.7543    -0.1750 C.3   1 <1>   0.2000 
 16 C        0.6727     6.4839     0.5753 C.3   1 <1>   0.1200 
 17 O        0.5601     7.8104    -0.0286 O.3   1 <1>  -0.4300 
 18 C        1.1154     8.8913     0.5428 C.2   1 <1>   0.6590 
 19 C        1.4294    10.0957    -0.3716 C.3   1 <1>   0.4840 
 20 C        0.7436    11.3965     0.1133 C.3   1 <1>  -0.0800 
 21 C        1.0726    12.6118    -0.7787 C.3   1 <1>  -0.2400 
 22 H1       0.5223    13.4878    -0.4266 H     1 <1>   0.0800 
 23 H2       0.7829    12.4211    -1.8143 H     1 <1>   0.0800 
 24 H3       2.1333    12.8601    -0.7342 H     1 <1>   0.0800 
 25 H1      -1.0923    10.4556     0.8303 H     1 <1>   0.0800 
 26 H2       1.0795    11.6135     1.1311 H     1 <1>   0.0800 
 27 C       -0.7895    11.2456     0.1401 C.3   1 <1>  -0.2400 
 28 H2      -1.1750    11.0176    -0.8558 H     1 <1>   0.0800 
 29 H3      -1.2501    12.1741     0.4852 H     1 <1>   0.0800 
 30 H3       1.0205     9.8527    -1.3544 H     1 <1>   0.0800 
 31 N1       2.9025    10.2850    -0.4913 N.4   1 <1>  -0.8530 
 32 H11      3.1283    11.0166    -1.1453 H     1 <1>   0.4500 
 33 H12      3.3020     9.3875    -0.7776 H     1 <1>   0.4500 
 34 H13      3.2714    10.4867     0.4289 H     1 <1>   0.4500 
 35 O        1.6286     8.8326     1.6599 O.2   1 <1>  -0.5700 
 36 H2       0.9009     6.5336     1.6419 H     1 <1>   0.0800 
 37 H3      -0.2610     5.9358     0.4443 H     1 <1>   0.0800 
 38 H2       1.5291     5.6622    -1.2265 H     1 <1>   0.0800 
 39 C        3.1788     6.4574    -0.0692 C.3   1 <1>   0.1200 
 40 H1       3.9613     5.7108    -0.2194 H     1 <1>   0.0800 
 41 H2       3.2960     6.8451     0.9452 H     1 <1>   0.0800 
 42 O        3.3576     7.5098    -1.0291 O.3   1 <1>  -0.6800 
 43 H        3.7029     7.1043    -1.8385 H     1 <1>   0.4000 
 44 H2       2.4826     3.5261    -1.3383 H     1 <1>   0.0800 
 45 H3       2.6969     2.5446     0.1568 H     1 <1>   0.0800 
 46 C       -0.3635     3.3078    -1.0514 C.2   1 <1>   0.0365 
 47 H       -0.4172     4.3503    -1.3245 H     1 <1>   0.1500 
 48 N       -1.3691     2.4892    -1.1843 N.2   1 <1>  -0.5653 
@<TRIPOS>BOND
  1   1   2  1   
  2   1   8  2   
  3   2   3  2   
  4   2  12  1   
  5   3   4  1   
  6   3  48  1   
  7   4   5  2   
  8   4   6  am  
  9   6   7  1   
 10   6   8  1   
 11   8   9  1   
 12   9  10  1   
 13   9  11  1   
 14  12  13  1   
 15  12  46  1   
 16  13  14  1   
 17  13  44  1   
 18  13  45  1   
 19  14  15  1   
 20  15  16  1   
 21  15  38  1   
 22  15  39  1   
 23  16  17  1   
 24  16  36  1   
 25  16  37  1   
 26  17  18  1   
 27  18  19  1   
 28  18  35  2   
 29  19  20  1   
 30  19  30  1   
 31  19  31  1   
 32  20  21  1   
 33  20  26  1   
 34  20  27  1   
 35  21  22  1   
 36  21  23  1   
 37  21  24  1   
 38  25  27  1   
 39  27  28  1   
 40  27  29  1   
 41  31  32  1   
 42  31  33  1   
 43  31  34  1   
 44  39  40  1   
 45  39  41  1   
 46  39  42  1   
 47  42  43  1   
 48  46  47  1   
 49  46  48  2   
@<TRIPOS>SUBSTRUCTURE
  1 ****  15 GROUP 4 **** **** 0

# MOE 2015.10 (io_trps.svl 2015.10)
@<TRIPOS>MOLECULE
NONAME
2 1 1 0 0 
SMALL
NO_CHARGES


@<TRIPOS>ATOM
  1 H        4.5352     9.0343     2.1030 H     1 <1>   0.0000 
  2 H        4.8510     8.8384     1.5945 H     1 <1>   0.0000 
@<TRIPOS>BOND
  1   1   2  1   
@<TRIPOS>SUBSTRUCTURE
  1 ****   1 GROUP 4 **** **** 0

# MOE 2015.10 (io_trps.svl 2015.10)
