JBB18_0006.mol
  ChemDraw04102410342D

 29 29  0  0  1  0  0  0  0  0999 V2000
    2.8462    0.4176    0.0000 C   0  0  0  0  0  0  0  0  0  0  0  0
    1.4231    0.4176    0.0000 N   0  0  0  0  0  0  0  0  0  0  0  0
    2.1346    0.8284    0.0000 C   0  0  0  0  0  0  0  0  0  0  0  0
    2.1346    1.6500    0.0000 C   0  0  0  0  0  0  0  0  0  0  0  0
    2.8462    2.0608    0.0000 S   0  0  0  0  0  0  0  0  0  0  0  0
    2.8462   -0.4040    0.0000 O   0  0  0  0  0  0  0  0  0  0  0  0
    3.5577    0.8284    0.0000 N   0  0  0  0  0  0  0  0  0  0  0  0
    0.7115    0.8284    0.0000 C   0  0  0  0  0  0  0  0  0  0  0  0
    0.7115    1.6500    0.0000 O   0  0  0  0  0  0  0  0  0  0  0  0
    0.0000    0.4176    0.0000 C   0  0  0  0  0  0  0  0  0  0  0  0
   -0.7115    0.8284    0.0000 N   0  0  0  0  0  0  0  0  0  0  0  0
   -1.4231    0.4176    0.0000 C   0  0  0  0  0  0  0  0  0  0  0  0
   -1.4231   -0.4040    0.0000 O   0  0  0  0  0  0  0  0  0  0  0  0
   -2.1346    0.8284    0.0000 C   0  0  0  0  0  0  0  0  0  0  0  0
   -2.8462    0.4176    0.0000 C   0  0  0  0  0  0  0  0  0  0  0  0
   -3.5577    0.8284    0.0000 S   0  0  0  0  0  0  0  0  0  0  0  0
   -2.1346    1.6500    0.0000 N   0  0  0  0  0  0  0  0  0  0  0  0
   -2.8462    2.0608    0.0000 C   0  0  0  0  0  0  0  0  0  0  0  0
   -2.8462    2.8824    0.0000 O   0  0  0  0  0  0  0  0  0  0  0  0
   -3.5577    1.6500    0.0000 C   0  0  0  0  0  0  0  0  0  0  0  0
    0.0000   -0.4074    0.0000 C   0  0  0  0  0  0  0  0  0  0  0  0
    0.7145   -0.8199    0.0000 C   0  0  0  0  0  0  0  0  0  0  0  0
    0.7145   -1.6449    0.0000 C   0  0  0  0  0  0  0  0  0  0  0  0
    1.4289   -2.0574    0.0000 C   0  0  0  0  0  0  0  0  0  0  0  0
    2.1434   -1.6449    0.0000 C   0  0  0  0  0  0  0  0  0  0  0  0
    2.1434   -0.8199    0.0000 C   0  0  0  0  0  0  0  0  0  0  0  0
    1.4289   -0.4074    0.0000 C   0  0  0  0  0  0  0  0  0  0  0  0
    1.4289   -2.8824    0.0000 O   0  0  0  0  0  0  0  0  0  0  0  0
    2.8579   -2.0574    0.0000 O   0  0  0  0  0  0  0  0  0  0  0  0
  2  3  1  0      
  1  3  1  0      
  3  4  1  1      
  4  5  1  0      
  1  6  2  0      
  1  7  1  0      
  8  9  2  0      
  8 10  1  0      
  2  8  1  0      
 10 11  1  0      
 11 12  1  0      
 12 13  2  0      
 14 15  1  0      
 15 16  1  0      
 14 17  1  6      
 17 18  1  0      
 18 19  2  0      
 18 20  1  0      
 12 14  1  0      
 10 21  1  6      
 21 22  1  0      
 22 23  2  0      
 23 24  1  0      
 24 25  2  0      
 25 26  1  0      
 26 27  2  0      
 27 22  1  0      
 24 28  1  0      
 25 29  1  0      
M  END
