JBB18_0002.mol
  ChemDraw04102410122D

 23 23  0  0  1  0  0  0  0  0999 V2000
    0.3344    1.6360    0.0000 C   0  0  0  0  0  0  0  0  0  0  0  0
    1.0226    0.3838    0.0000 N   0  0  0  0  0  0  0  0  0  0  0  0
    1.0400    1.2086    0.0000 C   0  0  0  0  0  0  0  0  0  0  0  0
    1.7630    1.6060    0.0000 C   0  0  0  0  0  0  0  0  0  0  0  0
    1.7804    2.4308    0.0000 S   0  0  0  0  0  0  0  0  0  0  0  0
   -0.3886    1.2387    0.0000 O   0  0  0  0  0  0  0  0  0  0  0  0
    0.3517    2.4609    0.0000 N   0  0  0  0  0  0  0  0  0  0  0  0
    1.7282   -0.0437    0.0000 C   0  0  0  0  0  0  0  0  0  0  0  0
    2.4512    0.3537    0.0000 O   0  0  0  0  0  0  0  0  0  0  0  0
    1.7109   -0.8685    0.0000 C   0  0  0  0  0  0  0  0  0  0  0  0
    2.3959   -1.3283    0.0000 C   0  0  0  0  0  0  0  0  0  0  0  0
    2.1703   -2.1218    0.0000 C   0  0  0  0  0  0  0  0  0  0  0  0
    1.3459   -2.1218    0.0000 C   0  0  0  0  0  0  0  0  0  0  0  0
    1.0619   -1.3283    0.0000 N   0  0  0  0  0  0  0  0  0  0  0  0
    0.2751   -1.0802    0.0000 C   0  0  0  0  0  0  0  0  0  0  0  0
    0.0965   -0.2748    0.0000 O   0  0  0  0  0  0  0  0  0  0  0  0
   -0.4480   -1.4074    0.0000 C   0  0  0  0  0  0  0  0  0  0  0  0
   -1.0562   -0.8500    0.0000 N   0  0  0  0  0  0  0  0  0  0  0  0
   -1.8430   -1.0980    0.0000 C   0  0  0  0  0  0  0  0  0  0  0  0
   -2.4512   -0.5407    0.0000 C   0  0  0  0  0  0  0  0  0  0  0  0
   -2.0216   -1.9035    0.0000 O   0  0  0  0  0  0  0  0  0  0  0  0
   -0.6265   -2.2128    0.0000 C   0  0  0  0  0  0  0  0  0  0  0  0
   -1.4134   -2.4609    0.0000 S   0  0  0  0  0  0  0  0  0  0  0  0
  3  2  1  6      
  1  3  1  0      
  3  4  1  0      
  4  5  1  0      
  1  6  2  0      
  1  7  1  0      
  8  9  2  0      
  8 10  1  6      
  2  8  1  0      
 10 11  1  0      
 11 12  1  0      
 12 13  1  0      
 13 14  1  0      
 14 10  1  0      
 14 15  1  0      
 15 16  2  0      
 17 18  1  0      
 18 19  1  0      
 19 20  1  0      
 19 21  2  0      
 17 22  1  6      
 22 23  1  0      
 15 17  1  0      
M  END
