JBB10_0001.mol
  ChemDraw04092414572D

 36 41  0  0  0  0  0  0  0  0999 V2000
   -4.2782    1.7335    0.0000 C   0  0  0  0  0  0  0  0  0  0  0  0
   -4.2782    0.9085    0.0000 C   0  0  0  0  0  0  0  0  0  0  0  0
   -3.5637    0.4960    0.0000 N   0  0  0  0  0  0  0  0  0  0  0  0
   -2.8493    0.9085    0.0000 C   0  0  0  0  0  0  0  0  0  0  0  0
   -2.8493    1.7335    0.0000 C   0  0  0  0  0  0  0  0  0  0  0  0
   -3.5637    2.1460    0.0000 N   0  0  0  0  0  0  0  0  0  0  0  0
   -3.5637    2.9710    0.0000 C   0  0  0  0  0  0  0  0  0  0  0  0
   -3.5637   -0.3290    0.0000 C   0  0  0  0  0  0  0  0  0  0  0  0
   -4.2782   -0.7415    0.0000 C   0  0  0  0  0  0  0  0  0  0  0  0
   -4.2782   -1.5665    0.0000 C   0  0  0  0  0  0  0  0  0  0  0  0
   -3.5637   -1.9790    0.0000 C   0  0  0  0  0  0  0  0  0  0  0  0
   -2.8493   -1.5665    0.0000 C   0  0  0  0  0  0  0  0  0  0  0  0
   -2.8493   -0.7415    0.0000 C   0  0  0  0  0  0  0  0  0  0  0  0
   -3.5637   -2.8040    0.0000 C   0  0  0  0  0  0  0  0  0  0  0  0
   -2.1348   -1.9790    0.0000 C   0  0  0  0  0  0  0  0  0  0  0  0
   -1.4203   -1.5665    0.0000 N   0  0  0  0  0  0  0  0  0  0  0  0
   -2.1348   -2.8040    0.0000 O   0  0  0  0  0  0  0  0  0  0  0  0
   -0.7059   -1.9790    0.0000 C   0  0  0  0  0  0  0  0  0  0  0  0
    0.0086   -1.5665    0.0000 C   0  0  0  0  0  0  0  0  0  0  0  0
   -1.1184   -2.6935    0.0000 C   0  0  0  0  0  0  0  0  0  0  0  0
   -0.2934   -2.6935    0.0000 C   0  0  0  0  0  0  0  0  0  0  0  0
    0.7231   -1.9790    0.0000 C   0  0  0  0  0  0  0  0  0  0  0  0
    1.4376   -1.5665    0.0000 C   0  0  0  0  0  0  0  0  0  0  0  0
    1.4376   -0.7415    0.0000 N   0  0  0  0  0  0  0  0  0  0  0  0
    0.7231   -0.3290    0.0000 C   0  0  0  0  0  0  0  0  0  0  0  0
    0.0086   -0.7415    0.0000 C   0  0  0  0  0  0  0  0  0  0  0  0
    2.1520   -1.9790    0.0000 C   0  0  0  0  0  0  0  0  0  0  0  0
    2.2383   -2.7995    0.0000 C   0  0  0  0  0  0  0  0  0  0  0  0
    3.0452   -2.9710    0.0000 N   0  0  0  0  0  0  0  0  0  0  0  0
    3.4577   -2.2565    0.0000 N   0  0  0  0  0  0  0  0  0  0  0  0
    2.9057   -1.6434    0.0000 C   0  0  0  0  0  0  0  0  0  0  0  0
    4.2782   -2.1703    0.0000 C   0  0  0  0  0  0  0  0  0  0  0  0
    0.7231    0.4960    0.0000 C   0  0  0  0  0  0  0  0  0  0  0  0
    0.0086    0.9085    0.0000 C   0  0  0  0  0  0  0  0  0  0  0  0
   -0.7059    0.4960    0.0000 C   0  0  0  0  0  0  0  0  0  0  0  0
   -0.7059   -0.3290    0.0000 C   0  0  0  0  0  0  0  0  0  0  0  0
  1  2  1  0      
  2  3  1  0      
  3  4  1  0      
  4  5  1  0      
  5  6  1  0      
  6  1  1  0      
  6  7  1  0      
  3  8  1  0      
  8  9  2  0      
  9 10  1  0      
 10 11  2  0      
 11 12  1  0      
 12 13  2  0      
 13  8  1  0      
 11 14  1  0      
 12 15  1  0      
 15 16  1  0      
 15 17  2  0      
 16 18  1  0      
 18 19  1  0      
 18 20  1  0      
 20 21  1  0      
 21 18  1  0      
 19 22  2  0      
 22 23  1  0      
 23 24  2  0      
 24 25  1  0      
 25 26  2  0      
 26 19  1  0      
 23 27  1  0      
 27 28  1  0      
 28 29  2  0      
 29 30  1  0      
 30 31  1  0      
 31 27  2  0      
 30 32  1  0      
 25 33  1  0      
 33 34  2  0      
 34 35  1  0      
 35 36  2  0      
 36 26  1  0      
M  END
