JBB14_0006.mol
  ChemDraw04092416192D

 55 58  0  0  1  0  0  0  0  0999 V2000
   -0.4728    1.0662    0.0000 C   0  0  0  0  0  0  0  0  0  0  0  0
    0.3516    1.0968    0.0000 C   0  0  0  0  0  0  0  0  0  0  0  0
    0.7373    1.8261    0.0000 N   0  0  0  0  0  0  0  0  0  0  0  0
    0.7904    0.3981    0.0000 O   0  0  0  0  0  0  0  0  0  0  0  0
    1.5620    1.8484    0.0000 C   0  0  0  0  0  0  0  0  0  0  0  0
    1.9550    2.5738    0.0000 C   0  0  0  0  0  0  0  0  0  0  0  0
    1.9938    1.1454    0.0000 C   0  0  0  0  0  0  0  0  0  0  0  0
    1.6008    0.4200    0.0000 O   0  0  0  0  0  0  0  0  0  0  0  0
    2.8185    1.1678    0.0000 N   0  0  0  0  0  0  0  0  0  0  0  0
    3.2572    0.4691    0.0000 C   0  0  0  0  0  0  0  0  0  0  0  0
   -5.1339    2.4629    0.0000 C   0  0  0  0  0  0  0  0  0  0  0  0
   -5.7835    1.9543    0.0000 C   0  0  0  0  0  0  0  0  0  0  0  0
   -5.6679    1.1374    0.0000 C   0  0  0  0  0  0  0  0  0  0  0  0
   -4.9027    0.8291    0.0000 C   0  0  0  0  0  0  0  0  0  0  0  0
   -4.2530    1.3377    0.0000 C   0  0  0  0  0  0  0  0  0  0  0  0
   -4.3687    2.1546    0.0000 C   0  0  0  0  0  0  0  0  0  0  0  0
   -3.4878    1.0294    0.0000 C   0  0  0  0  0  0  0  0  0  0  0  0
   -3.3722    0.2125    0.0000 O   0  0  0  0  0  0  0  0  0  0  0  0
   -2.6070   -0.0958    0.0000 C   0  0  0  0  0  0  0  0  0  0  0  0
   -2.2161   -0.8223    0.0000 N   0  0  0  0  0  0  0  0  0  0  0  0
   -1.9574    0.4128    0.0000 O   0  0  0  0  0  0  0  0  0  0  0  0
   -1.3915   -0.8470    0.0000 C   0  0  0  0  0  0  0  0  0  0  0  0
   -1.0006   -1.5736    0.0000 C   0  0  0  0  0  0  0  0  0  0  0  0
   -1.4343   -2.2753    0.0000 C   0  0  0  0  0  0  0  0  0  0  0  0
   -0.7827   -0.2903    0.0000 C   0  0  0  0  0  0  0  0  0  0  0  0
   -1.0605    0.4865    0.0000 N   0  0  0  0  0  0  0  0  0  0  0  0
    0.0290   -0.4380    0.0000 O   0  0  0  0  0  0  0  0  0  0  0  0
   -0.8000    1.8235    0.0000 C   0  0  0  0  0  0  0  0  0  0  0  0
   -2.2570   -2.3369    0.0000 C   0  0  0  0  0  0  0  0  0  0  0  0
   -2.4527   -3.1384    0.0000 N   0  0  0  0  0  0  0  0  0  0  0  0
   -1.7509   -3.5721    0.0000 C   0  0  0  0  0  0  0  0  0  0  0  0
   -1.1215   -3.0387    0.0000 C   0  0  0  0  0  0  0  0  0  0  0  0
   -1.6037   -4.3839    0.0000 C   0  0  0  0  0  0  0  0  0  0  0  0
   -0.8271   -4.6622    0.0000 C   0  0  0  0  0  0  0  0  0  0  0  0
   -0.1977   -4.1289    0.0000 C   0  0  0  0  0  0  0  0  0  0  0  0
   -0.3449   -3.3171    0.0000 C   0  0  0  0  0  0  0  0  0  0  0  0
   -0.3077    2.4855    0.0000 C   0  0  0  0  0  0  0  0  0  0  0  0
   -0.6349    3.2429    0.0000 C   0  0  0  0  0  0  0  0  0  0  0  0
   -0.1426    3.9049    0.0000 O   0  0  0  0  0  0  0  0  0  0  0  0
   -0.4698    4.6622    0.0000 C   0  0  0  0  0  0  0  0  0  0  0  0
   -1.4543    3.3382    0.0000 O   0  0  0  0  0  0  0  0  0  0  0  0
    2.7797    2.5962    0.0000 C   0  0  0  0  0  0  0  0  0  0  0  0
    3.4350    2.0950    0.0000 N   0  0  0  0  0  0  0  0  0  0  0  0
    4.1142    2.5634    0.0000 C   0  0  0  0  0  0  0  0  0  0  0  0
    3.8838    3.3556    0.0000 N   0  0  0  0  0  0  0  0  0  0  0  0
    3.0623    3.3768    0.0000 C   0  0  0  0  0  0  0  0  0  0  0  0
    4.0816    0.4997    0.0000 C   0  0  0  0  0  0  0  0  0  0  0  0
    2.8715   -0.2602    0.0000 C   0  0  0  0  0  0  0  0  0  0  0  0
    3.3102   -0.9588    0.0000 C   0  0  0  0  0  0  0  0  0  0  0  0
    2.0471   -0.2908    0.0000 O   0  0  0  0  0  0  0  0  0  0  0  0
    2.9245   -1.6881    0.0000 F   0  0  0  0  0  0  0  0  0  0  0  0
    4.5203   -0.1989    0.0000 C   0  0  0  0  0  0  0  0  0  0  0  0
    5.3448   -0.1683    0.0000 O   0  0  0  0  0  0  0  0  0  0  0  0
    5.7835   -0.8670    0.0000 C   0  0  0  0  0  0  0  0  0  0  0  0
    4.1346   -0.9282    0.0000 O   0  0  0  0  0  0  0  0  0  0  0  0
  1  2  1  0      
  2  3  1  0      
  2  4  2  0      
  3  5  1  0      
  5  6  1  1      
  5  7  1  0      
  7  8  2  0      
  7  9  1  0      
  9 10  1  0      
 11 12  2  0      
 12 13  1  0      
 13 14  2  0      
 14 15  1  0      
 15 16  2  0      
 16 11  1  0      
 15 17  1  0      
 17 18  1  0      
 18 19  1  0      
 19 20  1  0      
 19 21  2  0      
 20 22  1  0      
 22 23  1  6      
 23 24  1  0      
 22 25  1  0      
 25 26  1  0      
 25 27  2  0      
 26  1  1  0      
  1 28  1  1      
 24 29  2  0      
 29 30  1  0      
 30 31  1  0      
 31 32  2  0      
 32 24  1  0      
 31 33  1  0      
 33 34  2  0      
 34 35  1  0      
 35 36  2  0      
 36 32  1  0      
 28 37  1  0      
 37 38  1  0      
 38 39  1  0      
 39 40  1  0      
 38 41  2  0      
  6 42  1  0      
 42 43  1  0      
 43 44  1  0      
 44 45  2  0      
 45 46  1  0      
 46 42  2  0      
 10 47  1  0      
 10 48  1  0      
 48 49  1  0      
 48 50  2  0      
 49 51  1  0      
 47 52  1  0      
 52 53  1  0      
 53 54  1  0      
 52 55  2  0      
M  END
