JBB14_0003.mol
  ChemDraw04092415532D

 46 46  0  0  1  0  0  0  0  0999 V2000
   -3.5519   -2.0731    0.0000 C   0  0  0  0  0  0  0  0  0  0  0  0
   -3.5519   -2.8981    0.0000 C   0  0  0  0  0  0  0  0  0  0  0  0
   -2.8374   -3.3106    0.0000 C   0  0  0  0  0  0  0  0  0  0  0  0
   -2.1229   -2.8981    0.0000 C   0  0  0  0  0  0  0  0  0  0  0  0
   -2.1229   -2.0731    0.0000 C   0  0  0  0  0  0  0  0  0  0  0  0
   -2.8374   -1.6606    0.0000 C   0  0  0  0  0  0  0  0  0  0  0  0
   -1.4085   -1.6606    0.0000 C   0  0  0  0  0  0  0  0  0  0  0  0
   -0.6940   -2.0731    0.0000 C   0  0  0  0  0  0  0  0  0  0  0  0
    0.0205   -1.6606    0.0000 C   0  0  0  0  0  0  0  0  0  0  0  0
    0.7349   -2.0731    0.0000 N   0  0  0  0  0  0  0  0  0  0  0  0
    0.0205   -0.8356    0.0000 O   0  0  0  0  0  0  0  0  0  0  0  0
    1.4494   -1.6606    0.0000 C   0  0  0  0  0  0  0  0  0  0  0  0
    2.1639   -2.0731    0.0000 C   0  0  0  0  0  0  0  0  0  0  0  0
    2.8784   -1.6606    0.0000 C   0  0  0  0  0  0  0  0  0  0  0  0
    2.1639   -2.8981    0.0000 C   0  0  0  0  0  0  0  0  0  0  0  0
    2.8784   -3.3106    0.0000 C   0  0  0  0  0  0  0  0  0  0  0  0
    1.4494   -0.8356    0.0000 C   0  0  0  0  0  0  0  0  0  0  0  0
    2.1639   -0.4231    0.0000 N   0  0  0  0  0  0  0  0  0  0  0  0
    0.7349   -0.4231    0.0000 O   0  0  0  0  0  0  0  0  0  0  0  0
    2.1557    0.4019    0.0000 C   0  0  0  0  0  0  0  0  0  0  0  0
    2.8660    0.8215    0.0000 C   0  0  0  0  0  0  0  0  0  0  0  0
    1.4371    0.8072    0.0000 C   0  0  0  0  0  0  0  0  0  0  0  0
    2.8577    1.6464    0.0000 C   0  0  0  0  0  0  0  0  0  0  0  0
    3.5681    2.0660    0.0000 C   0  0  0  0  0  0  0  0  0  0  0  0
    3.5598    2.8910    0.0000 O   0  0  0  0  0  0  0  0  0  0  0  0
    4.2866    1.6607    0.0000 O   0  0  0  0  0  0  0  0  0  0  0  0
    4.2701    3.3106    0.0000 C   0  0  0  0  0  0  0  0  0  0  0  0
    0.7268    0.3876    0.0000 O   0  0  0  0  0  0  0  0  0  0  0  0
    1.4289    1.6322    0.0000 N   0  0  0  0  0  0  0  0  0  0  0  0
    0.7103    2.0375    0.0000 C   0  0  0  0  0  0  0  0  0  0  0  0
    0.7021    2.8625    0.0000 C   0  0  0  0  0  0  0  0  0  0  0  0
    0.0000    1.6179    0.0000 C   0  0  0  0  0  0  0  0  0  0  0  0
    1.4124    3.2821    0.0000 O   0  0  0  0  0  0  0  0  0  0  0  0
   -0.0165    3.2678    0.0000 C   0  0  0  0  0  0  0  0  0  0  0  0
   -0.7186    2.0232    0.0000 N   0  0  0  0  0  0  0  0  0  0  0  0
    0.0082    0.7929    0.0000 O   0  0  0  0  0  0  0  0  0  0  0  0
   -1.4289    1.6036    0.0000 C   0  0  0  0  0  0  0  0  0  0  0  0
   -2.1474    2.0090    0.0000 C   0  0  0  0  0  0  0  0  0  0  0  0
   -1.4206    0.7787    0.0000 C   0  0  0  0  0  0  0  0  0  0  0  0
   -2.8577    1.5894    0.0000 C   0  0  0  0  0  0  0  0  0  0  0  0
   -3.5763    1.9947    0.0000 O   0  0  0  0  0  0  0  0  0  0  0  0
   -2.8495    0.7644    0.0000 O   0  0  0  0  0  0  0  0  0  0  0  0
   -4.2866    1.5751    0.0000 C   0  0  0  0  0  0  0  0  0  0  0  0
   -2.1310    0.3591    0.0000 C   0  0  0  0  0  0  0  0  0  0  0  0
   -2.1227   -0.4659    0.0000 F   0  0  0  0  0  0  0  0  0  0  0  0
   -0.7021    0.3733    0.0000 O   0  0  0  0  0  0  0  0  0  0  0  0
  1  2  2  0      
  2  3  1  0      
  3  4  2  0      
  4  5  1  0      
  5  6  2  0      
  6  1  1  0      
  5  7  1  0      
  7  8  1  0      
  8  9  1  0      
  9 10  1  0      
  9 11  2  0      
 12 10  1  1      
 12 13  1  0      
 13 14  1  1      
 13 15  1  0      
 15 16  1  0      
 12 17  1  0      
 17 18  1  0      
 17 19  2  0      
 18 20  1  0      
 20 21  1  1      
 20 22  1  0      
 21 23  1  0      
 23 24  1  0      
 24 25  1  0      
 24 26  2  0      
 25 27  1  0      
 22 28  2  0      
 22 29  1  0      
 30 29  1  1      
 30 31  1  0      
 30 32  1  0      
 31 33  1  0      
 31 34  1  1      
 32 35  1  0      
 32 36  2  0      
 35 37  1  0      
 37 38  1  1      
 37 39  1  0      
 38 40  1  0      
 40 41  1  0      
 40 42  2  0      
 41 43  1  0      
 39 44  1  0      
 44 45  1  0      
 39 46  2  0      
M  END
