JBB1_0005.mol
  ChemDraw02202410412D

 29 32  0  0  0  0  0  0  0  0999 V2000
   -4.7415   -0.7023    0.0000 C   0  0  0  0  0  0  0  0  0  0  0  0
   -4.7415   -1.5273    0.0000 C   0  0  0  0  0  0  0  0  0  0  0  0
   -4.0270   -1.9398    0.0000 C   0  0  0  0  0  0  0  0  0  0  0  0
   -3.3125   -1.5273    0.0000 C   0  0  0  0  0  0  0  0  0  0  0  0
   -3.3125   -0.7023    0.0000 C   0  0  0  0  0  0  0  0  0  0  0  0
   -4.0270   -0.2898    0.0000 C   0  0  0  0  0  0  0  0  0  0  0  0
   -4.0270    0.5352    0.0000 C   0  0  0  0  0  0  0  0  0  0  0  0
   -4.7415    0.9477    0.0000 O   0  0  0  0  0  0  0  0  0  0  0  0
   -3.3125    0.9477    0.0000 O   0  0  0  0  0  0  0  0  0  0  0  0
   -2.5980   -0.2898    0.0000 C   0  0  0  0  0  0  0  0  0  0  0  0
   -1.8836   -0.7023    0.0000 N   0  0  0  0  0  0  0  0  0  0  0  0
   -2.5980    0.5352    0.0000 O   0  0  0  0  0  0  0  0  0  0  0  0
   -1.1691   -0.2898    0.0000 C   0  0  0  0  0  0  0  0  0  0  0  0
   -0.4546   -0.7023    0.0000 C   0  0  0  0  0  0  0  0  0  0  0  0
    0.2598   -0.2898    0.0000 C   0  0  0  0  0  0  0  0  0  0  0  0
    0.2598    0.5352    0.0000 C   0  0  0  0  0  0  0  0  0  0  0  0
   -0.4546    0.9477    0.0000 C   0  0  0  0  0  0  0  0  0  0  0  0
   -1.1691    0.5352    0.0000 C   0  0  0  0  0  0  0  0  0  0  0  0
    0.9743    0.9477    0.0000 C   0  0  0  0  0  0  0  0  0  0  0  0
    1.7280    0.6122    0.0000 O   0  0  0  0  0  0  0  0  0  0  0  0
    2.2800    1.2253    0.0000 C   0  0  0  0  0  0  0  0  0  0  0  0
    1.8675    1.9398    0.0000 N   0  0  0  0  0  0  0  0  0  0  0  0
    1.0605    1.7682    0.0000 N   0  0  0  0  0  0  0  0  0  0  0  0
    3.1005    1.1390    0.0000 C   0  0  0  0  0  0  0  0  0  0  0  0
    3.4361    0.3854    0.0000 C   0  0  0  0  0  0  0  0  0  0  0  0
    4.2565    0.2991    0.0000 C   0  0  0  0  0  0  0  0  0  0  0  0
    4.7415    0.9666    0.0000 C   0  0  0  0  0  0  0  0  0  0  0  0
    4.4059    1.7203    0.0000 C   0  0  0  0  0  0  0  0  0  0  0  0
    3.5854    1.8065    0.0000 C   0  0  0  0  0  0  0  0  0  0  0  0
  1  2  2  0      
  2  3  1  0      
  3  4  2  0      
  4  5  1  0      
  5  6  2  0      
  6  1  1  0      
  6  7  1  0      
  7  8  1  0      
  7  9  2  0      
  5 10  1  0      
 10 11  1  0      
 10 12  2  0      
 11 13  1  0      
 13 14  2  0      
 14 15  1  0      
 15 16  2  0      
 16 17  1  0      
 17 18  2  0      
 18 13  1  0      
 16 19  1  0      
 20 21  1  0      
 22 23  1  0      
 23 19  2  0      
 19 20  1  0      
 21 22  2  0      
 21 24  1  0      
 24 25  2  0      
 25 26  1  0      
 26 27  2  0      
 27 28  1  0      
 28 29  2  0      
 29 24  1  0      
M  END
