JBB19_0002.mol
  ChemDraw04102410402D

 27 29  0  0  0  0  0  0  0  0999 V2000
    3.4117   -0.5700    0.0000 N   0  0  0  0  0  0  0  0  0  0  0  0
    2.6580   -0.2345    0.0000 C   0  0  0  0  0  0  0  0  0  0  0  0
    2.7442    0.5860    0.0000 C   0  0  0  0  0  0  0  0  0  0  0  0
    3.5512    0.7575    0.0000 C   0  0  0  0  0  0  0  0  0  0  0  0
    3.9637    1.4720    0.0000 C   0  0  0  0  0  0  0  0  0  0  0  0
    4.7887    1.4720    0.0000 C   0  0  0  0  0  0  0  0  0  0  0  0
    5.2012    0.7575    0.0000 C   0  0  0  0  0  0  0  0  0  0  0  0
    4.7887    0.0430    0.0000 C   0  0  0  0  0  0  0  0  0  0  0  0
    3.9637    0.0430    0.0000 C   0  0  0  0  0  0  0  0  0  0  0  0
    1.9435   -0.6470    0.0000 C   0  0  0  0  0  0  0  0  0  0  0  0
    1.9435   -1.4720    0.0000 O   0  0  0  0  0  0  0  0  0  0  0  0
    1.2290   -0.2345    0.0000 N   0  0  0  0  0  0  0  0  0  0  0  0
    0.5146   -0.6470    0.0000 C   0  0  0  0  0  0  0  0  0  0  0  0
   -0.1999   -0.2345    0.0000 C   0  0  0  0  0  0  0  0  0  0  0  0
   -0.9144   -0.6470    0.0000 C   0  0  0  0  0  0  0  0  0  0  0  0
   -2.3433   -0.6470    0.0000 C   0  0  0  0  0  0  0  0  0  0  0  0
   -2.3433   -1.4720    0.0000 O   0  0  0  0  0  0  0  0  0  0  0  0
   -1.6288   -0.2345    0.0000 N   0  0  0  0  0  0  0  0  0  0  0  0
   -3.0578    0.5905    0.0000 C   0  0  0  0  0  0  0  0  0  0  0  0
   -3.7723    1.0030    0.0000 N   0  0  0  0  0  0  0  0  0  0  0  0
   -4.4867    0.5905    0.0000 C   0  0  0  0  0  0  0  0  0  0  0  0
   -4.4867   -0.2345    0.0000 C   0  0  0  0  0  0  0  0  0  0  0  0
   -3.7723   -0.6470    0.0000 C   0  0  0  0  0  0  0  0  0  0  0  0
   -3.0578   -0.2345    0.0000 N   0  0  0  0  0  0  0  0  0  0  0  0
   -5.2012    1.0030    0.0000 O   0  0  0  0  0  0  0  0  0  0  0  0
   -2.3433    1.0030    0.0000 O   0  0  0  0  0  0  0  0  0  0  0  0
   -5.2012   -0.6470    0.0000 F   0  0  0  0  0  0  0  0  0  0  0  0
  1  2  1  0      
  2  3  2  0      
  3  4  1  0      
  4  5  1  0      
  5  6  2  0      
  6  7  1  0      
  7  8  2  0      
  8  9  1  0      
  1  9  1  0      
  4  9  2  0      
 10 11  2  0      
 10 12  1  0      
  2 10  1  0      
 13 14  1  0      
 14 15  1  0      
 16 17  2  0      
 16 18  1  0      
 19 20  1  0      
 20 21  1  0      
 21 22  1  0      
 22 23  2  0      
 23 24  1  0      
 19 24  1  0      
 16 24  1  0      
 21 25  2  0      
 19 26  2  0      
 22 27  1  0      
 15 18  1  0      
 12 13  1  0      
M  END
