JBB20_0012.mol
  ChemDraw04102411162D

 30 32  0  0  0  0  0  0  0  0999 V2000
    0.6745    0.3412    0.0000 C   0  0  0  0  0  0  0  0  0  0  0  0
    0.0477   -0.1951    0.0000 C   0  0  0  0  0  0  0  0  0  0  0  0
    0.5235    1.1523    0.0000 O   0  0  0  0  0  0  0  0  0  0  0  0
    1.4525    0.0665    0.0000 N   0  0  0  0  0  0  0  0  0  0  0  0
    2.0793    0.6028    0.0000 C   0  0  0  0  0  0  0  0  0  0  0  0
    1.9283    1.4139    0.0000 C   0  0  0  0  0  0  0  0  0  0  0  0
    2.5552    1.9502    0.0000 C   0  0  0  0  0  0  0  0  0  0  0  0
    3.3331    1.6755    0.0000 C   0  0  0  0  0  0  0  0  0  0  0  0
    3.4841    0.8644    0.0000 C   0  0  0  0  0  0  0  0  0  0  0  0
    2.8573    0.3281    0.0000 C   0  0  0  0  0  0  0  0  0  0  0  0
   -0.7302    0.0797    0.0000 S   0  0  0  0  0  0  0  0  0  0  0  0
   -2.0537   -1.5954    0.0000 N   0  0  0  0  0  0  0  0  0  0  0  0
   -1.2917   -1.2791    0.0000 C   0  0  0  0  0  0  0  0  0  0  0  0
   -1.3571   -0.4567    0.0000 C   0  0  0  0  0  0  0  0  0  0  0  0
   -2.1595   -0.2647    0.0000 C   0  0  0  0  0  0  0  0  0  0  0  0
   -2.5538    0.4600    0.0000 C   0  0  0  0  0  0  0  0  0  0  0  0
   -3.3785    0.4809    0.0000 C   0  0  0  0  0  0  0  0  0  0  0  0
   -3.8090   -0.2229    0.0000 C   0  0  0  0  0  0  0  0  0  0  0  0
   -3.4147   -0.9476    0.0000 C   0  0  0  0  0  0  0  0  0  0  0  0
   -2.5900   -0.9685    0.0000 C   0  0  0  0  0  0  0  0  0  0  0  0
   -2.2456   -2.3978    0.0000 C   0  0  0  0  0  0  0  0  0  0  0  0
   -1.6467   -2.9652    0.0000 O   0  0  0  0  0  0  0  0  0  0  0  0
   -3.0364   -2.6328    0.0000 O   0  0  0  0  0  0  0  0  0  0  0  0
   -0.8558   -2.7302    0.0000 C   0  0  0  0  0  0  0  0  0  0  0  0
   -0.2569   -3.2976    0.0000 C   0  0  0  0  0  0  0  0  0  0  0  0
   -0.6639   -1.9278    0.0000 C   0  0  0  0  0  0  0  0  0  0  0  0
   -0.0650   -2.4952    0.0000 C   0  0  0  0  0  0  0  0  0  0  0  0
    2.4042    2.7613    0.0000 O   0  0  0  0  0  0  0  0  0  0  0  0
    3.0311    3.2976    0.0000 C   0  0  0  0  0  0  0  0  0  0  0  0
    3.8090    3.0228    0.0000 C   0  0  0  0  0  0  0  0  0  0  0  0
  1  2  1  0      
  1  3  2  0      
  1  4  1  0      
  5  6  1  0      
  6  7  2  0      
  7  8  1  0      
  8  9  2  0      
  9 10  1  0      
  5 10  2  0      
  4  5  1  0      
 12 13  1  0      
 13 14  2  0      
 14 15  1  0      
 15 16  1  0      
 16 17  2  0      
 17 18  1  0      
 18 19  2  0      
 19 20  1  0      
 12 20  1  0      
 15 20  2  0      
 11 14  1  0      
  2 11  1  0      
 12 21  1  0      
 21 22  1  0      
 21 23  2  0      
 22 24  1  0      
 24 25  1  0      
 24 26  1  0      
 24 27  1  0      
  7 28  1  0      
 28 29  1  0      
 29 30  1  0      
M  END
