JBB20_0018.mol
  ChemDraw04102411442D

 31 34  0  0  0  0  0  0  0  0999 V2000
    1.2945    0.6448    0.0000 C   0  0  0  0  0  0  0  0  0  0  0  0
    0.5830    0.2340    0.0000 C   0  0  0  0  0  0  0  0  0  0  0  0
    1.2945    1.4665    0.0000 O   0  0  0  0  0  0  0  0  0  0  0  0
    2.0061    0.2340    0.0000 N   0  0  0  0  0  0  0  0  0  0  0  0
    2.7176    0.6448    0.0000 C   0  0  0  0  0  0  0  0  0  0  0  0
   -0.1286    0.6448    0.0000 S   0  0  0  0  0  0  0  0  0  0  0  0
   -1.7297   -0.7539    0.0000 N   0  0  0  0  0  0  0  0  0  0  0  0
   -0.9260   -0.5831    0.0000 C   0  0  0  0  0  0  0  0  0  0  0  0
   -0.8401    0.2340    0.0000 C   0  0  0  0  0  0  0  0  0  0  0  0
   -1.5907    0.5682    0.0000 C   0  0  0  0  0  0  0  0  0  0  0  0
   -1.8446    1.3496    0.0000 C   0  0  0  0  0  0  0  0  0  0  0  0
   -2.6483    1.5205    0.0000 C   0  0  0  0  0  0  0  0  0  0  0  0
   -3.1980    0.9099    0.0000 C   0  0  0  0  0  0  0  0  0  0  0  0
   -2.9441    0.1285    0.0000 C   0  0  0  0  0  0  0  0  0  0  0  0
   -2.1405   -0.0424    0.0000 C   0  0  0  0  0  0  0  0  0  0  0  0
    3.4292    0.2340    0.0000 C   0  0  0  0  0  0  0  0  0  0  0  0
    4.1407    0.6448    0.0000 C   0  0  0  0  0  0  0  0  0  0  0  0
    4.8522    0.2340    0.0000 C   0  0  0  0  0  0  0  0  0  0  0  0
    4.8522   -0.5876    0.0000 C   0  0  0  0  0  0  0  0  0  0  0  0
    4.1407   -0.9984    0.0000 C   0  0  0  0  0  0  0  0  0  0  0  0
    3.4292   -0.5876    0.0000 C   0  0  0  0  0  0  0  0  0  0  0  0
    2.0061   -0.5910    0.0000 O   0  0  0  0  0  0  0  0  0  0  0  0
    2.7205   -1.0035    0.0000 C   0  0  0  0  0  0  0  0  0  0  0  0
    4.1407    1.4698    0.0000 O   0  0  0  0  0  0  0  0  0  0  0  0
    4.8552    1.8823    0.0000 C   0  0  0  0  0  0  0  0  0  0  0  0
   -3.4962   -0.4846    0.0000 C   0  0  0  0  0  0  0  0  0  0  0  0
   -4.3031   -0.3131    0.0000 C   0  0  0  0  0  0  0  0  0  0  0  0
   -4.8552   -0.9262    0.0000 C   0  0  0  0  0  0  0  0  0  0  0  0
   -4.6002   -1.7108    0.0000 C   0  0  0  0  0  0  0  0  0  0  0  0
   -3.7933   -1.8823    0.0000 C   0  0  0  0  0  0  0  0  0  0  0  0
   -3.2412   -1.2693    0.0000 C   0  0  0  0  0  0  0  0  0  0  0  0
  1  2  1  0      
  1  3  2  0      
  1  4  1  0      
  4  5  1  0      
  7  8  1  0      
  8  9  2  0      
  9 10  1  0      
 10 11  1  0      
 11 12  2  0      
 12 13  1  0      
 13 14  2  0      
 14 15  1  0      
  7 15  1  0      
 10 15  2  0      
  6  9  1  0      
  2  6  1  0      
 16 17  1  0      
 17 18  2  0      
 18 19  1  0      
 19 20  2  0      
 20 21  1  0      
 16 21  2  0      
 16  5  1  0      
  4 22  1  0      
 22 23  1  0      
 17 24  1  0      
 24 25  1  0      
 14 26  1  0      
 26 27  2  0      
 27 28  1  0      
 28 29  2  0      
 29 30  1  0      
 30 31  2  0      
 31 26  1  0      
M  END
