JBB20_0022.mol
  ChemDraw04102411562D

 35 38  0  0  1  0  0  0  0  0999 V2000
   -1.3281   -1.6500    0.0000 N   0  0  0  0  0  0  0  0  0  0  0  0
   -0.6136   -2.0625    0.0000 C   0  0  0  0  0  0  0  0  0  0  0  0
   -0.6136   -2.8875    0.0000 C   0  0  0  0  0  0  0  0  0  0  0  0
   -1.3281   -3.3000    0.0000 C   0  0  0  0  0  0  0  0  0  0  0  0
   -2.0426   -2.8875    0.0000 C   0  0  0  0  0  0  0  0  0  0  0  0
   -2.7571   -3.3000    0.0000 C   0  0  0  0  0  0  0  0  0  0  0  0
   -3.4715   -2.8875    0.0000 C   0  0  0  0  0  0  0  0  0  0  0  0
   -3.4715   -2.0625    0.0000 C   0  0  0  0  0  0  0  0  0  0  0  0
   -2.7571   -1.6500    0.0000 C   0  0  0  0  0  0  0  0  0  0  0  0
   -2.0426   -2.0625    0.0000 C   0  0  0  0  0  0  0  0  0  0  0  0
   -2.7571   -0.8250    0.0000 O   0  0  0  0  0  0  0  0  0  0  0  0
    0.1008   -1.6500    0.0000 N   0  0  0  0  0  0  0  0  0  0  0  0
   -2.0426   -0.4125    0.0000 C   0  0  0  0  0  0  0  0  0  0  0  0
   -2.0426    0.4125    0.0000 C   0  0  0  0  0  0  0  0  0  0  0  0
   -1.3281    0.8250    0.0000 N   0  0  0  0  0  0  0  0  0  0  0  0
   -2.7571    0.8250    0.0000 O   0  0  0  0  0  0  0  0  0  0  0  0
   -1.3281    1.6500    0.0000 C   0  0  0  0  0  0  0  0  0  0  0  0
   -0.6136    2.0625    0.0000 C   0  0  0  0  0  0  0  0  0  0  0  0
    0.1008    1.6500    0.0000 C   0  0  0  0  0  0  0  0  0  0  0  0
    0.8153    2.0625    0.0000 C   0  0  0  0  0  0  0  0  0  0  0  0
    0.8153    2.8875    0.0000 C   0  0  0  0  0  0  0  0  0  0  0  0
    0.1008    3.3000    0.0000 C   0  0  0  0  0  0  0  0  0  0  0  0
   -0.6136    2.8875    0.0000 C   0  0  0  0  0  0  0  0  0  0  0  0
    0.8545   -1.9856    0.0000 C   0  0  0  0  0  0  0  0  0  0  0  0
    1.4065   -1.3725    0.0000 C   0  0  0  0  0  0  0  0  0  0  0  0
    0.9940   -0.6580    0.0000 C   0  0  0  0  0  0  0  0  0  0  0  0
    0.1871   -0.8295    0.0000 C   0  0  0  0  0  0  0  0  0  0  0  0
    2.2270   -1.4587    0.0000 N   0  0  0  0  0  0  0  0  0  0  0  0
    2.6419   -0.7456    0.0000 C   0  0  0  0  0  0  0  0  0  0  0  0
    2.2317   -0.0298    0.0000 O   0  0  0  0  0  0  0  0  0  0  0  0
    3.4668   -0.7483    0.0000 O   0  0  0  0  0  0  0  0  0  0  0  0
    2.6465    0.6834    0.0000 C   0  0  0  0  0  0  0  0  0  0  0  0
    2.2364    1.3992    0.0000 C   0  0  0  0  0  0  0  0  0  0  0  0
    3.4715    0.6807    0.0000 C   0  0  0  0  0  0  0  0  0  0  0  0
    3.0614    1.3965    0.0000 C   0  0  0  0  0  0  0  0  0  0  0  0
  1  2  2  0      
  2  3  1  0      
  3  4  2  0      
  4  5  1  0      
  5  6  2  0      
  6  7  1  0      
  7  8  2  0      
  8  9  1  0      
  9 10  2  0      
  1 10  1  0      
  5 10  1  0      
  9 11  1  0      
  2 12  1  0      
 11 13  1  0      
 13 14  1  0      
 14 15  1  0      
 14 16  2  0      
 15 17  1  0      
 17 18  1  0      
 18 19  2  0      
 19 20  1  0      
 20 21  2  0      
 21 22  1  0      
 22 23  2  0      
 23 18  1  0      
 12 24  1  0      
 24 25  1  0      
 25 26  1  0      
 26 27  1  0      
 27 12  1  0      
 25 28  1  1      
 28 29  1  0      
 29 30  1  0      
 29 31  2  0      
 30 32  1  0      
 32 33  1  0      
 32 34  1  0      
 32 35  1  0      
M  END
