JBB20_0014.mol
  ChemDraw04102411202D

 35 38  0  0  0  0  0  0  0  0999 V2000
    0.3870    0.5037    0.0000 C   0  0  0  0  0  0  0  0  0  0  0  0
   -0.2399   -0.0326    0.0000 C   0  0  0  0  0  0  0  0  0  0  0  0
    0.2360    1.3147    0.0000 O   0  0  0  0  0  0  0  0  0  0  0  0
    1.1649    0.2290    0.0000 N   0  0  0  0  0  0  0  0  0  0  0  0
    1.7918    0.7653    0.0000 C   0  0  0  0  0  0  0  0  0  0  0  0
    1.6408    1.5763    0.0000 C   0  0  0  0  0  0  0  0  0  0  0  0
    2.2677    2.1127    0.0000 C   0  0  0  0  0  0  0  0  0  0  0  0
    3.0456    1.8379    0.0000 C   0  0  0  0  0  0  0  0  0  0  0  0
    3.1966    1.0269    0.0000 C   0  0  0  0  0  0  0  0  0  0  0  0
    2.5697    0.4905    0.0000 C   0  0  0  0  0  0  0  0  0  0  0  0
   -1.0178    0.2421    0.0000 S   0  0  0  0  0  0  0  0  0  0  0  0
   -2.3412   -1.4330    0.0000 N   0  0  0  0  0  0  0  0  0  0  0  0
   -1.5793   -1.1166    0.0000 C   0  0  0  0  0  0  0  0  0  0  0  0
   -1.6447   -0.2942    0.0000 C   0  0  0  0  0  0  0  0  0  0  0  0
   -2.4470   -0.1023    0.0000 C   0  0  0  0  0  0  0  0  0  0  0  0
   -2.8413    0.6224    0.0000 C   0  0  0  0  0  0  0  0  0  0  0  0
   -3.6660    0.6433    0.0000 C   0  0  0  0  0  0  0  0  0  0  0  0
   -4.0965   -0.0605    0.0000 C   0  0  0  0  0  0  0  0  0  0  0  0
   -3.7023   -0.7852    0.0000 C   0  0  0  0  0  0  0  0  0  0  0  0
   -2.8775   -0.8061    0.0000 C   0  0  0  0  0  0  0  0  0  0  0  0
    2.1166    2.9237    0.0000 Cl  0  0  0  0  0  0  0  0  0  0  0  0
   -0.8755   -1.5471    0.0000 S   0  0  0  0  0  0  0  0  0  0  0  0
   -0.1508   -1.1528    0.0000 C   0  0  0  0  0  0  0  0  0  0  0  0
    0.5530   -1.5833    0.0000 C   0  0  0  0  0  0  0  0  0  0  0  0
    1.2777   -1.1890    0.0000 N   0  0  0  0  0  0  0  0  0  0  0  0
    0.5321   -2.4080    0.0000 O   0  0  0  0  0  0  0  0  0  0  0  0
    1.9815   -1.6195    0.0000 C   0  0  0  0  0  0  0  0  0  0  0  0
    1.9504   -2.4439    0.0000 C   0  0  0  0  0  0  0  0  0  0  0  0
    2.6488   -2.8831    0.0000 C   0  0  0  0  0  0  0  0  0  0  0  0
    3.3783   -2.4978    0.0000 C   0  0  0  0  0  0  0  0  0  0  0  0
    3.3783   -1.6734    0.0000 C   0  0  0  0  0  0  0  0  0  0  0  0
    2.6488   -1.2342    0.0000 C   0  0  0  0  0  0  0  0  0  0  0  0
    4.0965   -1.2674    0.0000 Cl  0  0  0  0  0  0  0  0  0  0  0  0
    4.0849   -2.9237    0.0000 Cl  0  0  0  0  0  0  0  0  0  0  0  0
    3.6725    2.3742    0.0000 Cl  0  0  0  0  0  0  0  0  0  0  0  0
  1  2  1  0      
  1  3  2  0      
  1  4  1  0      
  5  6  1  0      
  6  7  2  0      
  7  8  1  0      
  8  9  2  0      
  9 10  1  0      
  5 10  2  0      
  4  5  1  0      
 12 13  1  0      
 13 14  2  0      
 14 15  1  0      
 15 16  1  0      
 16 17  2  0      
 17 18  1  0      
 18 19  2  0      
 19 20  1  0      
 12 20  1  0      
 15 20  2  0      
 11 14  1  0      
  2 11  1  0      
  7 21  1  0      
 13 22  1  0      
 22 23  1  0      
 23 24  1  0      
 24 25  1  0      
 24 26  2  0      
 25 27  1  0      
 27 28  2  0      
 28 29  1  0      
 29 30  2  0      
 30 31  1  0      
 31 32  2  0      
 32 27  1  0      
 31 33  1  0      
 30 34  1  0      
  8 35  1  0      
M  END
