JBB39_0013.mol
  ChemDraw04112415242D

 17 19  0  0  0  0  0  0  0  0999 V2000
   -0.3732   -0.9810    0.0000 Se  0  0  0  0  0  0  0  0  0  0  0  0
    0.1117   -0.3135    0.0000 N   0  0  0  0  0  0  0  0  0  0  0  0
   -0.3732    0.3539    0.0000 C   0  0  0  0  0  0  0  0  0  0  0  0
   -1.1578    0.0990    0.0000 C   0  0  0  0  0  0  0  0  0  0  0  0
   -1.8723    0.5115    0.0000 C   0  0  0  0  0  0  0  0  0  0  0  0
   -2.5867    0.0990    0.0000 C   0  0  0  0  0  0  0  0  0  0  0  0
   -2.5867   -0.7260    0.0000 C   0  0  0  0  0  0  0  0  0  0  0  0
   -1.8723   -1.1385    0.0000 C   0  0  0  0  0  0  0  0  0  0  0  0
   -1.1578   -0.7260    0.0000 C   0  0  0  0  0  0  0  0  0  0  0  0
   -0.1182    1.1385    0.0000 O   0  0  0  0  0  0  0  0  0  0  0  0
    0.9367   -0.3135    0.0000 C   0  0  0  0  0  0  0  0  0  0  0  0
    1.3492    0.4009    0.0000 C   0  0  0  0  0  0  0  0  0  0  0  0
    2.1742    0.4009    0.0000 C   0  0  0  0  0  0  0  0  0  0  0  0
    2.5867   -0.3135    0.0000 C   0  0  0  0  0  0  0  0  0  0  0  0
    2.1742   -1.0280    0.0000 C   0  0  0  0  0  0  0  0  0  0  0  0
    1.3492   -1.0280    0.0000 C   0  0  0  0  0  0  0  0  0  0  0  0
    0.9367    1.1154    0.0000 O   0  0  0  0  0  0  0  0  0  0  0  0
  1  2  1  0      
  2  3  1  0      
  3  4  1  0      
  4  5  1  0      
  5  6  2  0      
  6  7  1  0      
  7  8  2  0      
  8  9  1  0      
  1  9  1  0      
  4  9  2  0      
  3 10  2  0      
 11 12  1  0      
 12 13  2  0      
 13 14  1  0      
 14 15  2  0      
 15 16  1  0      
 11 16  2  0      
  2 11  1  0      
 12 17  1  0      
M  END
