JBB38_0014.mol
  ChemDraw04112411212D

 43 46  0  0  1  0  0  0  0  0999 V2000
   -2.8462   -0.1236    0.0000 C   0  0  0  0  0  0  0  0  0  0  0  0
   -2.1346   -0.5344    0.0000 C   0  0  0  0  0  0  0  0  0  0  0  0
   -1.4231   -0.1236    0.0000 N   0  0  0  0  0  0  0  0  0  0  0  0
   -2.1346   -1.3560    0.0000 O   0  0  0  0  0  0  0  0  0  0  0  0
   -0.7115   -0.5344    0.0000 C   0  0  0  0  0  0  0  0  0  0  0  0
    0.0000   -0.1236    0.0000 C   0  0  0  0  0  0  0  0  0  0  0  0
   -0.7115   -1.3560    0.0000 C   0  0  0  0  0  0  0  0  0  0  0  0
    0.0000   -1.7669    0.0000 C   0  0  0  0  0  0  0  0  0  0  0  0
    0.7115   -0.5344    0.0000 N   0  0  0  0  0  0  0  0  0  0  0  0
    0.0000    0.6980    0.0000 O   0  0  0  0  0  0  0  0  0  0  0  0
    2.1346   -0.5344    0.0000 C   0  0  0  0  0  0  0  0  0  0  0  0
    2.8462   -0.1236    0.0000 C   0  0  0  0  0  0  0  0  0  0  0  0
    2.1346   -1.3560    0.0000 O   0  0  0  0  0  0  0  0  0  0  0  0
    1.4231   -0.1236    0.0000 C   0  0  0  0  0  0  0  0  0  0  0  0
    1.4231    0.6980    0.0000 C   0  0  0  0  0  0  0  0  0  0  0  0
    2.1346    1.1088    0.0000 C   0  0  0  0  0  0  0  0  0  0  0  0
    3.5606   -0.5361    0.0000 N   0  0  0  0  0  0  0  0  0  0  0  0
    4.2751   -0.1236    0.0000 C   0  0  0  0  0  0  0  0  0  0  0  0
   -3.5606   -0.5361    0.0000 N   0  0  0  0  0  0  0  0  0  0  0  0
   -4.2751   -0.1236    0.0000 C   0  0  0  0  0  0  0  0  0  0  0  0
    2.8883    0.7733    0.0000 C   0  0  0  0  0  0  0  0  0  0  0  0
    3.4403    1.3863    0.0000 C   0  0  0  0  0  0  0  0  0  0  0  0
    3.0278    2.1008    0.0000 N   0  0  0  0  0  0  0  0  0  0  0  0
    2.2209    1.9293    0.0000 C   0  0  0  0  0  0  0  0  0  0  0  0
    1.6078    2.4813    0.0000 O   0  0  0  0  0  0  0  0  0  0  0  0
    2.8462    0.4732    0.0000 O   0  0  0  0  0  0  0  0  0  0  0  0
    4.9896   -0.5361    0.0000 C   0  0  0  0  0  0  0  0  0  0  0  0
    4.9896   -1.3611    0.0000 C   0  0  0  0  0  0  0  0  0  0  0  0
    5.7041   -1.7736    0.0000 C   0  0  0  0  0  0  0  0  0  0  0  0
    6.4185   -1.3611    0.0000 C   0  0  0  0  0  0  0  0  0  0  0  0
    6.4185   -0.5361    0.0000 C   0  0  0  0  0  0  0  0  0  0  0  0
    5.7041   -0.1236    0.0000 C   0  0  0  0  0  0  0  0  0  0  0  0
    0.4125   -2.4813    0.0000 C   0  0  0  0  0  0  0  0  0  0  0  0
    0.8250   -1.7669    0.0000 C   0  0  0  0  0  0  0  0  0  0  0  0
   -1.4231    0.6980    0.0000 C   0  0  0  0  0  0  0  0  0  0  0  0
   -2.1346    1.1088    0.0000 C   0  0  0  0  0  0  0  0  0  0  0  0
   -2.8462    0.6980    0.0000 C   0  0  0  0  0  0  0  0  0  0  0  0
   -4.9896   -0.5361    0.0000 O   0  0  0  0  0  0  0  0  0  0  0  0
   -4.2751    0.7014    0.0000 O   0  0  0  0  0  0  0  0  0  0  0  0
   -5.7041   -0.1236    0.0000 C   0  0  0  0  0  0  0  0  0  0  0  0
   -6.4185   -0.5361    0.0000 C   0  0  0  0  0  0  0  0  0  0  0  0
   -5.7041    0.7014    0.0000 C   0  0  0  0  0  0  0  0  0  0  0  0
   -4.9896    0.2889    0.0000 C   0  0  0  0  0  0  0  0  0  0  0  0
  2  3  1  0      
  2  4  2  0      
  3  5  1  0      
  5  6  1  0      
  5  7  1  6      
  7  8  1  0      
  6  9  1  0      
  6 10  2  0      
 11 12  1  0      
 11 13  2  0      
  9 14  1  0      
 14 11  1  0      
 14 15  1  1      
 15 16  1  0      
 12 17  1  0      
 17 18  1  0      
 19 20  1  0      
 16 21  1  1      
 21 22  1  0      
 22 23  1  0      
 23 24  1  0      
 24 16  1  0      
 24 25  2  0      
 12 26  2  0      
 18 27  1  0      
 27 28  2  0      
 28 29  1  0      
 29 30  2  0      
 30 31  1  0      
 31 32  2  0      
 32 27  1  0      
 19  1  1  0      
  8 33  1  0      
 33 34  1  0      
 34  8  1  0      
 35 36  2  0      
 37  1  2  0      
  2  1  1  0      
 36 37  1  0      
  3 35  1  0      
 20 38  1  0      
 20 39  2  0      
 38 40  1  0      
 40 41  1  0      
 40 42  1  0      
 40 43  1  0      
M  END
