JBB38_0007.mol
  ChemDraw04112410002D

 34 35  0  0  1  0  0  0  0  0999 V2000
   -2.0806    0.4972    0.0000 O   0  0  0  0  0  0  0  0  0  0  0  0
   -1.3229    0.8236    0.0000 C   0  0  0  0  0  0  0  0  0  0  0  0
   -0.6615    0.3305    0.0000 N   0  0  0  0  0  0  0  0  0  0  0  0
   -1.2267    1.6429    0.0000 O   0  0  0  0  0  0  0  0  0  0  0  0
    0.0963    0.6568    0.0000 C   0  0  0  0  0  0  0  0  0  0  0  0
    0.7577    0.1638    0.0000 C   0  0  0  0  0  0  0  0  0  0  0  0
    1.5154    0.4901    0.0000 N   0  0  0  0  0  0  0  0  0  0  0  0
    0.6615   -0.6556    0.0000 O   0  0  0  0  0  0  0  0  0  0  0  0
    2.1769   -0.0029    0.0000 C   0  0  0  0  0  0  0  0  0  0  0  0
    0.1925    1.4762    0.0000 C   0  0  0  0  0  0  0  0  0  0  0  0
    0.9502    1.8025    0.0000 C   0  0  0  0  0  0  0  0  0  0  0  0
    1.6117    1.3095    0.0000 C   0  0  0  0  0  0  0  0  0  0  0  0
    2.9346    0.3234    0.0000 C   0  0  0  0  0  0  0  0  0  0  0  0
    2.0806   -0.8223    0.0000 C   0  0  0  0  0  0  0  0  0  0  0  0
    2.7421   -1.3154    0.0000 C   0  0  0  0  0  0  0  0  0  0  0  0
    3.5298   -1.0702    0.0000 C   0  0  0  0  0  0  0  0  0  0  0  0
    4.0064   -1.7436    0.0000 C   0  0  0  0  0  0  0  0  0  0  0  0
    3.5298   -2.4050    0.0000 N   0  0  0  0  0  0  0  0  0  0  0  0
    2.7421   -2.1403    0.0000 C   0  0  0  0  0  0  0  0  0  0  0  0
    2.0723   -2.6219    0.0000 O   0  0  0  0  0  0  0  0  0  0  0  0
   -2.7421    0.9903    0.0000 C   0  0  0  0  0  0  0  0  0  0  0  0
   -3.4998    0.6640    0.0000 C   0  0  0  0  0  0  0  0  0  0  0  0
   -4.1613    1.1570    0.0000 C   0  0  0  0  0  0  0  0  0  0  0  0
   -4.9190    0.8307    0.0000 C   0  0  0  0  0  0  0  0  0  0  0  0
   -5.0153    0.0113    0.0000 C   0  0  0  0  0  0  0  0  0  0  0  0
   -4.3538   -0.4817    0.0000 C   0  0  0  0  0  0  0  0  0  0  0  0
   -3.5961   -0.1554    0.0000 C   0  0  0  0  0  0  0  0  0  0  0  0
    1.0465    2.6219    0.0000 C   0  0  0  0  0  0  0  0  0  0  0  0
    3.5961   -0.1697    0.0000 S   0  0  0  0  0  0  0  0  0  0  0  0
    3.0309    1.1427    0.0000 O   0  0  0  0  0  0  0  0  0  0  0  0
    4.3538    0.1566    0.0000 O   0  0  0  0  0  0  0  0  0  0  0  0
    4.0086   -0.8841    0.0000 O   0  0  0  0  0  0  0  0  0  0  0  0
    2.8816   -0.5822    0.0000 O   0  0  0  0  0  0  0  0  0  0  0  0
    5.0153   -0.3364    0.0000 Na  0  0  0  0  0  0  0  0  0  0  0  0
  1  2  1  0      
  2  3  1  0      
  2  4  2  0      
  3  5  1  0      
  5  6  1  0      
  6  7  1  0      
  6  8  2  0      
  7  9  1  0      
  5 10  1  6      
 10 11  1  0      
 12 11  1  0      
  9 13  1  0      
  9 14  1  1      
 14 15  1  0      
 15 16  1  1      
 16 17  1  0      
 17 18  1  0      
 18 19  1  0      
 19 15  1  0      
 19 20  2  0      
  1 21  1  0      
 21 22  1  0      
 22 23  2  0      
 23 24  1  0      
 24 25  2  0      
 25 26  1  0      
 26 27  2  0      
 27 22  1  0      
 11 28  1  0      
 13 29  1  0      
 13 30  1  0      
 29 31  1  0      
 29 32  2  0      
 29 33  2  0      
 31 34  1  0      
M  END
