JBB39_0010.mol
  ChemDraw04112415072D

 34 37  0  0  1  0  0  0  0  0999 V2000
   -2.8129   -1.4236    0.0000 C   0  0  0  0  0  0  0  0  0  0  0  0
   -2.1375   -0.9498    0.0000 C   0  0  0  0  0  0  0  0  0  0  0  0
   -2.3795   -0.1610    0.0000 N   0  0  0  0  0  0  0  0  0  0  0  0
   -3.2044   -0.1474    0.0000 C   0  0  0  0  0  0  0  0  0  0  0  0
   -3.4722   -0.9277    0.0000 N   0  0  0  0  0  0  0  0  0  0  0  0
   -1.3572   -1.2176    0.0000 C   0  0  0  0  0  0  0  0  0  0  0  0
   -0.7351   -0.6758    0.0000 N   0  0  0  0  0  0  0  0  0  0  0  0
   -1.1990   -2.0273    0.0000 O   0  0  0  0  0  0  0  0  0  0  0  0
    0.0452   -0.9436    0.0000 C   0  0  0  0  0  0  0  0  0  0  0  0
   -0.8933    0.1339    0.0000 C   0  0  0  0  0  0  0  0  0  0  0  0
   -0.2711    0.6758    0.0000 C   0  0  0  0  0  0  0  0  0  0  0  0
   -0.4293    1.4855    0.0000 C   0  0  0  0  0  0  0  0  0  0  0  0
   -1.2096    1.7533    0.0000 C   0  0  0  0  0  0  0  0  0  0  0  0
   -1.8318    1.2115    0.0000 C   0  0  0  0  0  0  0  0  0  0  0  0
   -1.6736    0.4018    0.0000 C   0  0  0  0  0  0  0  0  0  0  0  0
   -1.3678    2.5630    0.0000 C   0  0  0  0  0  0  0  0  0  0  0  0
   -0.7457    3.1048    0.0000 C   0  0  0  0  0  0  0  0  0  0  0  0
   -2.1481    2.8309    0.0000 C   0  0  0  0  0  0  0  0  0  0  0  0
   -1.5260    3.3727    0.0000 C   0  0  0  0  0  0  0  0  0  0  0  0
    0.6673   -0.4018    0.0000 C   0  0  0  0  0  0  0  0  0  0  0  0
    1.4477   -0.6696    0.0000 N   0  0  0  0  0  0  0  0  0  0  0  0
    0.5092    0.4079    0.0000 O   0  0  0  0  0  0  0  0  0  0  0  0
    2.0698   -0.1278    0.0000 C   0  0  0  0  0  0  0  0  0  0  0  0
    2.8501   -0.3957    0.0000 C   0  0  0  0  0  0  0  0  0  0  0  0
    3.4722    0.1462    0.0000 C   0  0  0  0  0  0  0  0  0  0  0  0
    3.3140    0.9559    0.0000 C   0  0  0  0  0  0  0  0  0  0  0  0
    2.5337    1.2237    0.0000 C   0  0  0  0  0  0  0  0  0  0  0  0
    1.9116    0.6819    0.0000 C   0  0  0  0  0  0  0  0  0  0  0  0
    0.2034   -1.7533    0.0000 C   0  0  0  0  0  0  0  0  0  0  0  0
   -0.4187   -2.2952    0.0000 C   0  0  0  0  0  0  0  0  0  0  0  0
   -0.2605   -3.1048    0.0000 N   0  0  0  0  0  0  0  0  0  0  0  0
    0.5198   -3.3727    0.0000 C   0  0  0  0  0  0  0  0  0  0  0  0
    1.1419   -2.8309    0.0000 C   0  0  0  0  0  0  0  0  0  0  0  0
    0.9837   -2.0212    0.0000 C   0  0  0  0  0  0  0  0  0  0  0  0
  1  2  2  0      
  2  3  1  0      
  3  4  2  0      
  4  5  1  0      
  5  1  1  0      
  2  6  1  0      
  6  7  1  0      
  6  8  2  0      
  7  9  1  0      
  7 10  1  0      
 10 11  2  0      
 11 12  1  0      
 12 13  2  0      
 13 14  1  0      
 14 15  2  0      
 15 10  1  0      
 13 16  1  0      
 16 17  1  0      
 16 18  1  0      
 16 19  1  0      
  9 20  1  0      
 20 21  1  0      
 20 22  2  0      
 21 23  1  0      
 23 24  1  0      
 24 25  1  0      
 25 26  1  0      
 26 27  1  0      
 27 28  1  0      
 28 23  1  0      
  9 29  1  1      
 29 30  2  0      
 30 31  1  0      
 31 32  2  0      
 32 33  1  0      
 33 34  2  0      
 34 29  1  0      
M  END
