JBB38_0011.mol
  ChemDraw04112410372D

 43 45  0  0  1  0  0  0  0  0999 V2000
   -2.7839    0.2702    0.0000 O   0  0  0  0  0  0  0  0  0  0  0  0
   -2.0724   -0.1406    0.0000 C   0  0  0  0  0  0  0  0  0  0  0  0
   -1.3609    0.2702    0.0000 N   0  0  0  0  0  0  0  0  0  0  0  0
   -2.0724   -0.9623    0.0000 O   0  0  0  0  0  0  0  0  0  0  0  0
   -0.6493   -0.1406    0.0000 C   0  0  0  0  0  0  0  0  0  0  0  0
    0.0622    0.2702    0.0000 C   0  0  0  0  0  0  0  0  0  0  0  0
   -0.6493   -0.9623    0.0000 C   0  0  0  0  0  0  0  0  0  0  0  0
    0.0622   -1.3731    0.0000 C   0  0  0  0  0  0  0  0  0  0  0  0
   -3.4955   -0.1406    0.0000 C   0  0  0  0  0  0  0  0  0  0  0  0
   -4.2070    0.2702    0.0000 C   0  0  0  0  0  0  0  0  0  0  0  0
   -4.9186   -0.1406    0.0000 C   0  0  0  0  0  0  0  0  0  0  0  0
   -5.6301    0.2702    0.0000 C   0  0  0  0  0  0  0  0  0  0  0  0
   -5.6301    1.0918    0.0000 C   0  0  0  0  0  0  0  0  0  0  0  0
   -4.9186    1.5026    0.0000 C   0  0  0  0  0  0  0  0  0  0  0  0
   -4.2070    1.0918    0.0000 C   0  0  0  0  0  0  0  0  0  0  0  0
   -1.3609   -1.3731    0.0000 C   0  0  0  0  0  0  0  0  0  0  0  0
    0.7738   -0.1406    0.0000 N   0  0  0  0  0  0  0  0  0  0  0  0
    0.0622    1.0918    0.0000 O   0  0  0  0  0  0  0  0  0  0  0  0
    2.1969   -0.1406    0.0000 C   0  0  0  0  0  0  0  0  0  0  0  0
    2.9084    0.2702    0.0000 N   0  0  0  0  0  0  0  0  0  0  0  0
    2.1969   -0.9623    0.0000 O   0  0  0  0  0  0  0  0  0  0  0  0
    3.6200   -0.1406    0.0000 C   0  0  0  0  0  0  0  0  0  0  0  0
    4.3315    0.2702    0.0000 C   0  0  0  0  0  0  0  0  0  0  0  0
    3.6200   -0.9623    0.0000 C   0  0  0  0  0  0  0  0  0  0  0  0
    4.3315   -1.3731    0.0000 C   0  0  0  0  0  0  0  0  0  0  0  0
    5.0841   -1.0436    0.0000 C   0  0  0  0  0  0  0  0  0  0  0  0
    5.6301   -1.6575    0.0000 C   0  0  0  0  0  0  0  0  0  0  0  0
    5.2313   -2.3647    0.0000 N   0  0  0  0  0  0  0  0  0  0  0  0
    4.4224   -2.1896    0.0000 C   0  0  0  0  0  0  0  0  0  0  0  0
    3.8125   -2.7401    0.0000 O   0  0  0  0  0  0  0  0  0  0  0  0
    4.3315    1.0918    0.0000 O   0  0  0  0  0  0  0  0  0  0  0  0
    1.4853    0.2702    0.0000 C   0  0  0  0  0  0  0  0  0  0  0  0
    1.4853    1.0918    0.0000 C   0  0  0  0  0  0  0  0  0  0  0  0
    2.1969    1.5026    0.0000 C   0  0  0  0  0  0  0  0  0  0  0  0
    2.9113    1.0901    0.0000 C   0  0  0  0  0  0  0  0  0  0  0  0
    3.6258    1.5026    0.0000 C   0  0  0  0  0  0  0  0  0  0  0  0
    3.6258    2.3276    0.0000 C   0  0  0  0  0  0  0  0  0  0  0  0
    2.9113    2.7401    0.0000 C   0  0  0  0  0  0  0  0  0  0  0  0
    2.1969    2.3276    0.0000 C   0  0  0  0  0  0  0  0  0  0  0  0
    0.0622   -2.1981    0.0000 O   0  0  0  0  0  0  0  0  0  0  0  0
    0.7767   -2.6106    0.0000 C   0  0  0  0  0  0  0  0  0  0  0  0
   -0.6522   -2.6106    0.0000 C   0  0  0  0  0  0  0  0  0  0  0  0
    0.7767   -1.7856    0.0000 C   0  0  0  0  0  0  0  0  0  0  0  0
  1  2  1  0      
  2  3  1  0      
  2  4  2  0      
  3  5  1  0      
  5  6  1  0      
  5  7  1  1      
  7  8  1  0      
  1  9  1  0      
  9 10  1  0      
 10 11  2  0      
 11 12  1  0      
 12 13  2  0      
 13 14  1  0      
 14 15  2  0      
 15 10  1  0      
  7 16  1  0      
  6 17  1  0      
  6 18  2  0      
 19 20  1  0      
 19 21  2  0      
 20 22  1  0      
 22 23  1  0      
 22 24  1  1      
 24 25  1  0      
 25 26  1  1      
 26 27  1  0      
 27 28  1  0      
 28 29  1  0      
 29 25  1  0      
 29 30  2  0      
 23 31  2  0      
 17 32  1  0      
 32 19  1  0      
 32 33  1  6      
 33 34  1  0      
 34 35  1  0      
 35 36  1  0      
 36 37  1  0      
 37 38  1  0      
 38 39  1  0      
 39 34  1  0      
  8 40  1  0      
 40 41  1  0      
 40 42  1  0      
 40 43  1  0      
M  END
