JBB47_0002.mol
  ChemDraw06102409132D

 25 29  0  0  0  0  0  0  0  0999 V2000
   -2.7800    1.2542    0.0000 C   0  0  0  0  0  0  0  0  0  0  0  0
   -2.7800    0.5538    0.0000 C   0  0  0  0  0  0  0  0  0  0  0  0
   -2.1735    0.2036    0.0000 O   0  0  0  0  0  0  0  0  0  0  0  0
   -1.5669    0.5538    0.0000 C   0  0  0  0  0  0  0  0  0  0  0  0
   -1.5669    1.2542    0.0000 C   0  0  0  0  0  0  0  0  0  0  0  0
   -2.1735    1.6044    0.0000 O   0  0  0  0  0  0  0  0  0  0  0  0
   -0.9604    0.2036    0.0000 C   0  0  0  0  0  0  0  0  0  0  0  0
   -0.3538    0.5538    0.0000 C   0  0  0  0  0  0  0  0  0  0  0  0
   -0.3538    1.2542    0.0000 C   0  0  0  0  0  0  0  0  0  0  0  0
   -0.9604    1.6044    0.0000 C   0  0  0  0  0  0  0  0  0  0  0  0
    0.2527    0.2036    0.0000 C   0  0  0  0  0  0  0  0  0  0  0  0
    0.8593    0.5538    0.0000 N   0  0  0  0  0  0  0  0  0  0  0  0
    0.8593    1.2542    0.0000 C   0  0  0  0  0  0  0  0  0  0  0  0
    0.2527    1.6044    0.0000 C   0  0  0  0  0  0  0  0  0  0  0  0
   -0.3139   -0.2081    0.0000 C   0  0  0  0  0  0  0  0  0  0  0  0
   -0.0975   -0.8742    0.0000 N   0  0  0  0  0  0  0  0  0  0  0  0
    0.6029   -0.8742    0.0000 C   0  0  0  0  0  0  0  0  0  0  0  0
    0.8193   -0.2081    0.0000 C   0  0  0  0  0  0  0  0  0  0  0  0
    1.0715   -1.3947    0.0000 C   0  0  0  0  0  0  0  0  0  0  0  0
    1.7566   -1.2490    0.0000 C   0  0  0  0  0  0  0  0  0  0  0  0
    1.9730   -0.5829    0.0000 C   0  0  0  0  0  0  0  0  0  0  0  0
    1.5044   -0.0625    0.0000 C   0  0  0  0  0  0  0  0  0  0  0  0
   -0.9800    0.0084    0.0000 O   0  0  0  0  0  0  0  0  0  0  0  0
   -0.6280   -1.6044    0.0000 C   0  0  0  0  0  0  0  0  0  0  0  0
    2.7800   -0.4114    0.0000 Cl  0  0  0  0  0  0  0  0  0  0  0  0
  1  2  1  0      
  2  3  1  0      
  3  4  1  0      
  4  5  2  0      
  5  6  1  0      
  6  1  1  0      
  4  7  1  0      
  7  8  2  0      
  8  9  1  0      
  9 10  2  0      
 10  5  1  0      
  8 11  1  0      
 11 12  1  0      
 12 13  1  0      
 13 14  1  0      
 14  9  1  0      
 11 15  1  0      
 15 16  1  0      
 16 17  1  0      
 17 18  2  0      
 18 11  1  0      
 17 19  1  0      
 19 20  2  0      
 20 21  1  0      
 21 22  2  0      
 22 18  1  0      
 15 23  2  0      
 16 24  1  0      
 21 25  1  0      
M  END
