JBB5_0001.mol
  ChemDraw03062411212D

 18 19  0  0  0  0  0  0  0  0999 V2000
   -2.7331   -0.0860    0.0000 C   0  0  0  0  0  0  0  0  0  0  0  0
   -2.7331   -0.9077    0.0000 C   0  0  0  0  0  0  0  0  0  0  0  0
   -2.0215   -1.3185    0.0000 C   0  0  0  0  0  0  0  0  0  0  0  0
   -1.3099   -0.9077    0.0000 C   0  0  0  0  0  0  0  0  0  0  0  0
   -1.3099   -0.0860    0.0000 C   0  0  0  0  0  0  0  0  0  0  0  0
   -2.0215    0.3248    0.0000 C   0  0  0  0  0  0  0  0  0  0  0  0
   -3.4446   -1.3185    0.0000 C   0  0  0  0  0  0  0  0  0  0  0  0
   -0.5954    0.3265    0.0000 C   0  0  0  0  0  0  0  0  0  0  0  0
    0.1191   -0.0860    0.0000 N   0  0  0  0  0  0  0  0  0  0  0  0
   -0.5954    1.1515    0.0000 O   0  0  0  0  0  0  0  0  0  0  0  0
    0.8335    0.3265    0.0000 C   0  0  0  0  0  0  0  0  0  0  0  0
    1.5872   -0.0091    0.0000 S   0  0  0  0  0  0  0  0  0  0  0  0
    2.1392    0.6040    0.0000 C   0  0  0  0  0  0  0  0  0  0  0  0
    1.7267    1.3185    0.0000 C   0  0  0  0  0  0  0  0  0  0  0  0
    0.9198    1.1470    0.0000 N   0  0  0  0  0  0  0  0  0  0  0  0
    2.9597    0.5178    0.0000 N   0  3  0  0  0  0  0  0  0  0  0  0
    3.4446    1.1852    0.0000 O   0  5  0  0  0  0  0  0  0  0  0  0
    3.2953   -0.2359    0.0000 O   0  0  0  0  0  0  0  0  0  0  0  0
  1  2  2  0      
  2  3  1  0      
  3  4  2  0      
  4  5  1  0      
  5  6  2  0      
  6  1  1  0      
  2  7  1  0      
  5  8  1  0      
  8  9  1  0      
  8 10  2  0      
  9 11  1  0      
 12 13  1  0      
 13 14  2  0      
 14 15  1  0      
 15 11  2  0      
 11 12  1  0      
 13 16  1  0      
 16 17  1  0      
 16 18  2  0      
M  CHG  2  16   1  17  -1
M  END
