JBB6_0001.mol
  ChemDraw03062412002D

 21 23  0  0  1  0  0  0  0  0999 V2000
   -2.3467   -1.1305    0.0000 C   0  0  0  0  0  0  0  0  0  0  0  0
   -3.0628   -0.7208    0.0000 C   0  0  0  0  0  0  0  0  0  0  0  0
   -3.7757   -1.1362    0.0000 O   0  0  0  0  0  0  0  0  0  0  0  0
   -3.0661    0.1042    0.0000 C   0  0  0  0  0  0  0  0  0  0  0  0
   -3.7822    0.5138    0.0000 O   0  0  0  0  0  0  0  0  0  0  0  0
   -2.3533    0.5195    0.0000 C   0  0  0  0  0  0  0  0  0  0  0  0
   -2.3566    1.3445    0.0000 O   0  0  0  0  0  0  0  0  0  0  0  0
   -1.6372    0.1098    0.0000 C   0  0  0  0  0  0  0  0  0  0  0  0
   -1.6339   -0.7151    0.0000 N   0  3  0  0  0  0  0  0  0  0  0  0
   -0.9244    0.5252    0.0000 C   0  0  0  0  0  0  0  0  0  0  0  0
   -0.9277    1.3502    0.0000 O   0  0  0  0  0  0  0  0  0  0  0  0
   -0.9178   -1.1248    0.0000 C   0  0  0  0  0  0  0  0  0  0  0  0
   -0.2050   -0.7094    0.0000 C   0  0  0  0  0  0  0  0  0  0  0  0
    0.5095   -1.1219    0.0000 C   0  0  0  0  0  0  0  0  0  0  0  0
    1.2240   -0.7094    0.0000 C   0  0  0  0  0  0  0  0  0  0  0  0
    1.9384   -1.1219    0.0000 C   0  0  0  0  0  0  0  0  0  0  0  0
    2.6529   -0.7094    0.0000 C   0  0  0  0  0  0  0  0  0  0  0  0
    3.2152   -1.3502    0.0000 C   0  0  0  0  0  0  0  0  0  0  0  0
    2.6529    0.1156    0.0000 C   0  0  0  0  0  0  0  0  0  0  0  0
    3.7822   -0.7094    0.0000 C   0  0  0  0  0  0  0  0  0  0  0  0
    3.2644    0.0874    0.0000 C   0  0  0  0  0  0  0  0  0  0  0  0
  1  2  1  0      
  2  3  1  6      
  2  4  1  0      
  4  5  1  1      
  4  6  1  0      
  6  7  1  6      
  6  8  1  0      
  8  9  1  0      
  8 10  1  1      
 10 11  1  0      
  1  9  1  0      
  9 12  1  0      
 12 13  1  0      
 13 14  1  0      
 14 15  1  0      
 15 16  1  0      
 16 17  1  0      
 17 18  1  0      
 17 19  1  0      
 17 20  1  0      
 20 21  1  0      
 18 21  1  0      
 21 19  1  0      
M  CHG  1   9   1
M  END
