JBB7_0010.mol
  ChemDraw03062414322D

 32 32  0  0  1  0  0  0  0  0999 V2000
    2.5414   -0.0670    0.0000 C   0  0  0  0  0  0  0  0  0  0  0  0
    1.8328    0.3422    0.0000 O   0  0  0  0  0  0  0  0  0  0  0  0
    1.1241   -0.0670    0.0000 C   0  0  0  0  0  0  0  0  0  0  0  0
    0.4154    0.3422    0.0000 C   0  0  0  0  0  0  0  0  0  0  0  0
    1.1241   -0.8852    0.0000 O   0  0  0  0  0  0  0  0  0  0  0  0
   -0.2932   -0.0670    0.0000 N   0  0  0  0  0  0  0  0  0  0  0  0
   -1.0019    0.3422    0.0000 C   0  0  0  0  0  0  0  0  0  0  0  0
   -1.0019    1.1605    0.0000 O   0  0  0  0  0  0  0  0  0  0  0  0
    3.2501    0.3422    0.0000 C   0  0  0  0  0  0  0  0  0  0  0  0
   -1.7105   -0.0670    0.0000 C   0  0  0  0  0  0  0  0  0  0  0  0
   -2.4192    0.3422    0.0000 N   0  0  0  0  0  0  0  0  0  0  0  0
   -3.1279   -0.0670    0.0000 C   0  0  0  0  0  0  0  0  0  0  0  0
   -3.8365    0.3422    0.0000 C   0  0  0  0  0  0  0  0  0  0  0  0
   -3.1279   -0.8852    0.0000 O   0  0  0  0  0  0  0  0  0  0  0  0
   -4.5452   -0.0670    0.0000 N   0  0  0  0  0  0  0  0  0  0  0  0
   -5.2538    0.3422    0.0000 C   0  0  0  0  0  0  0  0  0  0  0  0
   -5.9625   -0.0670    0.0000 C   0  0  0  0  0  0  0  0  0  0  0  0
   -5.2538    1.1605    0.0000 O   0  0  0  0  0  0  0  0  0  0  0  0
   -3.8365    1.1605    0.0000 C   0  0  0  0  0  0  0  0  0  0  0  0
   -3.1279    1.5696    0.0000 C   0  0  0  0  0  0  0  0  0  0  0  0
   -1.7105   -0.8852    0.0000 C   0  0  0  0  0  0  0  0  0  0  0  0
   -1.0019   -1.2944    0.0000 C   0  0  0  0  0  0  0  0  0  0  0  0
    3.9587   -0.0670    0.0000 C   0  0  0  0  0  0  0  0  0  0  0  0
   -2.4192   -1.2944    0.0000 C   0  0  0  0  0  0  0  0  0  0  0  0
   -1.7105   -1.7035    0.0000 C   0  0  0  0  0  0  0  0  0  0  0  0
    4.6674    0.3422    0.0000 N   0  0  0  0  0  0  0  0  0  0  0  0
    4.7529    1.1560    0.0000 C   0  0  0  0  0  0  0  0  0  0  0  0
    5.5533    1.3261    0.0000 C   0  0  0  0  0  0  0  0  0  0  0  0
    5.9625    0.6175    0.0000 C   0  0  0  0  0  0  0  0  0  0  0  0
    5.4150    0.0094    0.0000 C   0  0  0  0  0  0  0  0  0  0  0  0
    5.5851   -0.7910    0.0000 O   0  0  0  0  0  0  0  0  0  0  0  0
    4.1448    1.7035    0.0000 O   0  0  0  0  0  0  0  0  0  0  0  0
  1  2  1  0      
  2  3  1  0      
  3  4  1  0      
  3  5  2  0      
  4  6  1  0      
  6  7  1  0      
  7  8  2  0      
  7 10  1  0      
 10 11  1  0      
 11 12  1  0      
 12 13  1  0      
 12 14  2  0      
 13 15  1  0      
 15 16  1  0      
 16 17  1  0      
 16 18  2  0      
 13 19  1  1      
 19 20  1  0      
 10 21  1  6      
 21 22  1  0      
  9 23  1  0      
  1  9  1  0      
 21 24  1  0      
 21 25  1  0      
 27 28  1  0      
 28 29  2  0      
 29 30  1  0      
 30 26  1  0      
 27 26  1  0      
 30 31  2  0      
 27 32  2  0      
 23 26  1  0      
M  END
