JBB7_0008.mol
  ChemDraw03062414232D

 41 40  0  0  1  0  0  0  0  0999 V2000
    3.2501    1.8758    0.0000 C   0  0  0  0  0  0  0  0  0  0  0  0
    2.5414    1.4666    0.0000 C   0  0  0  0  0  0  0  0  0  0  0  0
    1.8328    1.8758    0.0000 O   0  0  0  0  0  0  0  0  0  0  0  0
    1.1241    1.4666    0.0000 C   0  0  0  0  0  0  0  0  0  0  0  0
    0.4154    1.8758    0.0000 C   0  0  0  0  0  0  0  0  0  0  0  0
    1.1241    0.6483    0.0000 O   0  0  0  0  0  0  0  0  0  0  0  0
   -0.2932    1.4666    0.0000 N   0  0  0  0  0  0  0  0  0  0  0  0
   -1.0019    1.8758    0.0000 C   0  0  0  0  0  0  0  0  0  0  0  0
   -1.0019    2.6940    0.0000 O   0  0  0  0  0  0  0  0  0  0  0  0
    3.9587    1.4666    0.0000 C   0  0  0  0  0  0  0  0  0  0  0  0
   -1.7105    1.4666    0.0000 C   0  0  0  0  0  0  0  0  0  0  0  0
   -2.4192    1.8758    0.0000 N   0  0  0  0  0  0  0  0  0  0  0  0
   -3.1279    1.4666    0.0000 C   0  0  0  0  0  0  0  0  0  0  0  0
   -3.8365    1.8758    0.0000 C   0  0  0  0  0  0  0  0  0  0  0  0
   -3.1279    0.6483    0.0000 O   0  0  0  0  0  0  0  0  0  0  0  0
   -4.5452    1.4666    0.0000 N   0  0  0  0  0  0  0  0  0  0  0  0
   -5.2538    1.8758    0.0000 C   0  0  0  0  0  0  0  0  0  0  0  0
   -5.9625    1.4666    0.0000 C   0  0  0  0  0  0  0  0  0  0  0  0
   -5.2538    2.6940    0.0000 O   0  0  0  0  0  0  0  0  0  0  0  0
   -3.8365    2.6940    0.0000 C   0  0  0  0  0  0  0  0  0  0  0  0
   -3.1279    3.1032    0.0000 C   0  0  0  0  0  0  0  0  0  0  0  0
   -4.5452    3.1032    0.0000 C   0  0  0  0  0  0  0  0  0  0  0  0
   -1.7105    0.6483    0.0000 C   0  0  0  0  0  0  0  0  0  0  0  0
   -1.0019    0.2392    0.0000 C   0  0  0  0  0  0  0  0  0  0  0  0
   -1.0019   -0.5791    0.0000 C   0  0  0  0  0  0  0  0  0  0  0  0
   -0.2932   -0.9883    0.0000 C   0  0  0  0  0  0  0  0  0  0  0  0
    4.6674    1.8758    0.0000 N   0  0  0  0  0  0  0  0  0  0  0  0
    4.7529    2.6896    0.0000 C   0  0  0  0  0  0  0  0  0  0  0  0
    5.5533    2.8597    0.0000 C   0  0  0  0  0  0  0  0  0  0  0  0
    5.9625    2.1510    0.0000 C   0  0  0  0  0  0  0  0  0  0  0  0
    5.4150    1.5429    0.0000 C   0  0  0  0  0  0  0  0  0  0  0  0
    5.5851    0.7425    0.0000 O   0  0  0  0  0  0  0  0  0  0  0  0
    4.1448    3.2371    0.0000 O   0  0  0  0  0  0  0  0  0  0  0  0
   -0.2932   -1.8066    0.0000 N   0  0  0  0  0  0  0  0  0  0  0  0
    0.4184   -2.2174    0.0000 C   0  0  0  0  0  0  0  0  0  0  0  0
    1.1300   -2.6282    0.0000 F   0  0  0  0  0  0  0  0  0  0  0  0
    1.1300   -1.8066    0.0000 F   0  0  0  0  0  0  0  0  0  0  0  0
    0.4184   -3.0391    0.0000 F   0  0  0  0  0  0  0  0  0  0  0  0
   -0.8269   -2.5255    0.0000 C   0  0  0  0  0  0  0  0  0  0  0  0
   -0.4161   -3.2371    0.0000 O   0  0  0  0  0  0  0  0  0  0  0  0
   -1.2377   -1.8139    0.0000 O   0  0  0  0  0  0  0  0  0  0  0  0
 39 40  2  0      
 39 41  2  0      
 35 36  1  0      
 35 37  1  0      
 35 38  1  0      
 34 35  1  0      
 26 34  1  0      
  2  3  1  0      
  3  4  1  0      
  4  5  1  0      
  4  6  2  0      
  5  7  1  0      
  7  8  1  0      
  8  9  2  0      
  1 10  1  0      
  2  1  1  0      
  8 11  1  0      
 11 12  1  0      
 12 13  1  0      
 13 14  1  0      
 13 15  2  0      
 14 16  1  0      
 16 17  1  0      
 17 18  1  0      
 17 19  2  0      
 14 20  1  6      
 20 21  1  0      
 20 22  1  0      
 11 23  1  1      
 23 24  1  0      
 24 25  1  0      
 25 26  1  0      
 28 29  1  0      
 29 30  2  0      
 30 31  1  0      
 31 27  1  0      
 28 27  1  0      
 31 32  2  0      
 28 33  2  0      
 10 27  1  0      
M  STY  1   1 SUP
M  SLB  1   1   1
M  SAL   1  8  34  35  36  37  38  39  40  41
M  SBL   1  1   7
M  SMT   1 NHCF3COO
M  SBV   1   7    0.0000    0.8183
M  END
