JBB7_0015.mol
  ChemDraw03062415042D

 40 40  0  0  1  0  0  0  0  0999 V2000
    3.8604    0.0034    0.0000 C   0  0  0  0  0  0  0  0  0  0  0  0
    3.1518   -0.4058    0.0000 O   0  0  0  0  0  0  0  0  0  0  0  0
    2.4431    0.0034    0.0000 C   0  0  0  0  0  0  0  0  0  0  0  0
    1.7344   -0.4058    0.0000 C   0  0  0  0  0  0  0  0  0  0  0  0
    2.4431    0.8216    0.0000 O   0  0  0  0  0  0  0  0  0  0  0  0
    1.0258    0.0034    0.0000 N   0  0  0  0  0  0  0  0  0  0  0  0
    0.3171   -0.4058    0.0000 C   0  0  0  0  0  0  0  0  0  0  0  0
    0.3171   -1.2241    0.0000 O   0  0  0  0  0  0  0  0  0  0  0  0
    4.5691   -0.4058    0.0000 C   0  0  0  0  0  0  0  0  0  0  0  0
   -0.3915    0.0034    0.0000 C   0  0  0  0  0  0  0  0  0  0  0  0
   -1.1002   -0.4058    0.0000 N   0  0  0  0  0  0  0  0  0  0  0  0
   -1.8089    0.0034    0.0000 C   0  0  0  0  0  0  0  0  0  0  0  0
   -2.5175   -0.4058    0.0000 C   0  0  0  0  0  0  0  0  0  0  0  0
   -1.8089    0.8216    0.0000 O   0  0  0  0  0  0  0  0  0  0  0  0
   -0.3915    0.8216    0.0000 C   0  0  0  0  0  0  0  0  0  0  0  0
    0.3171    1.2308    0.0000 C   0  0  0  0  0  0  0  0  0  0  0  0
   -3.2262    0.0034    0.0000 N   0  0  0  0  0  0  0  0  0  0  0  0
   -3.9285   -0.4165    0.0000 C   0  0  0  0  0  0  0  0  0  0  0  0
   -4.6406   -0.0133    0.0000 C   0  0  0  0  0  0  0  0  0  0  0  0
   -3.9217   -1.2348    0.0000 O   0  0  0  0  0  0  0  0  0  0  0  0
    0.3171    2.0491    0.0000 C   0  0  0  0  0  0  0  0  0  0  0  0
    1.0258    0.8216    0.0000 C   0  0  0  0  0  0  0  0  0  0  0  0
   -2.5175   -1.2241    0.0000 C   0  0  0  0  0  0  0  0  0  0  0  0
   -1.8089   -1.6332    0.0000 C   0  0  0  0  0  0  0  0  0  0  0  0
   -5.3516   -0.4318    0.0000 N   0  0  0  0  0  0  0  0  0  0  0  0
   -4.6475    0.8117    0.0000 C   0  0  0  0  0  0  0  0  0  0  0  0
   -3.9365    1.2301    0.0000 C   0  0  0  0  0  0  0  0  0  0  0  0
   -5.3654    1.2182    0.0000 C   0  0  0  0  0  0  0  0  0  0  0  0
   -6.0695   -0.0253    0.0000 C   0  0  0  0  0  0  0  0  0  0  0  0
   -6.7805   -0.4437    0.0000 C   0  0  0  0  0  0  0  0  0  0  0  0
   -6.0764    0.7997    0.0000 O   0  0  0  0  0  0  0  0  0  0  0  0
   -3.2320   -1.6366    0.0000 C   0  0  0  0  0  0  0  0  0  0  0  0
   -2.5175   -2.0491    0.0000 C   0  0  0  0  0  0  0  0  0  0  0  0
    5.4671    0.1784    0.0000 N   0  0  0  0  0  0  0  0  0  0  0  0
    6.1845   -0.2151    0.0000 C   0  0  0  0  0  0  0  0  0  0  0  0
    6.7805    0.3457    0.0000 C   0  0  0  0  0  0  0  0  0  0  0  0
    6.4313    1.0858    0.0000 C   0  0  0  0  0  0  0  0  0  0  0  0
    5.6196    0.9824    0.0000 C   0  0  0  0  0  0  0  0  0  0  0  0
    5.0589    1.5783    0.0000 O   0  0  0  0  0  0  0  0  0  0  0  0
    6.2879   -1.0268    0.0000 O   0  0  0  0  0  0  0  0  0  0  0  0
  1  2  1  0      
  2  3  1  0      
  3  4  1  0      
  3  5  2  0      
  4  6  1  0      
  6  7  1  0      
  7  8  2  0      
  7 10  1  0      
 10 11  1  0      
 11 12  1  0      
 12 13  1  0      
 12 14  2  0      
 10 15  1  1      
 15 16  1  0      
  1  9  1  0      
 17 13  1  0      
 17 18  1  0      
 18 19  1  0      
 18 20  2  0      
 16 21  1  0      
 16 22  1  0      
 13 23  1  6      
 23 24  1  0      
 19 25  1  0      
 19 26  1  1      
 26 27  1  0      
 26 28  1  0      
 25 29  1  0      
 29 30  1  0      
 29 31  2  0      
 23 32  1  0      
 23 33  1  0      
 35 36  1  0      
 36 37  2  0      
 37 38  1  0      
 38 34  1  0      
 35 34  1  0      
 38 39  2  0      
 35 40  2  0      
  9 34  1  0      
M  END
