JBB7_0001.mol
  ChemDraw03062413582D

 24 24  0  0  1  0  0  0  0  0999 V2000
    3.2726    0.0260    0.0000 N   0  0  0  0  0  0  0  0  0  0  0  0
    4.0372   -0.2839    0.0000 C   0  0  0  0  0  0  0  0  0  0  0  0
    4.5682    0.3475    0.0000 C   0  0  0  0  0  0  0  0  0  0  0  0
    4.1317    1.0476    0.0000 C   0  0  0  0  0  0  0  0  0  0  0  0
    3.3310    0.8489    0.0000 C   0  0  0  0  0  0  0  0  0  0  0  0
    2.6996    1.3799    0.0000 O   0  0  0  0  0  0  0  0  0  0  0  0
    4.2359   -1.0846    0.0000 O   0  0  0  0  0  0  0  0  0  0  0  0
    2.5725   -0.4104    0.0000 C   0  0  0  0  0  0  0  0  0  0  0  0
    1.8445   -0.0223    0.0000 C   0  0  0  0  0  0  0  0  0  0  0  0
    1.1443   -0.4587    0.0000 O   0  0  0  0  0  0  0  0  0  0  0  0
    0.4163   -0.0706    0.0000 C   0  0  0  0  0  0  0  0  0  0  0  0
   -0.2838   -0.5071    0.0000 C   0  0  0  0  0  0  0  0  0  0  0  0
    0.3884    0.7539    0.0000 O   0  0  0  0  0  0  0  0  0  0  0  0
   -1.0118   -0.1190    0.0000 N   0  0  0  0  0  0  0  0  0  0  0  0
   -1.7119   -0.5554    0.0000 C   0  0  0  0  0  0  0  0  0  0  0  0
   -2.4399   -0.1673    0.0000 C   0  0  0  0  0  0  0  0  0  0  0  0
   -1.6840   -1.3799    0.0000 O   0  0  0  0  0  0  0  0  0  0  0  0
   -3.1400   -0.6037    0.0000 N   0  0  0  0  0  0  0  0  0  0  0  0
   -3.8680   -0.2156    0.0000 C   0  0  0  0  0  0  0  0  0  0  0  0
   -4.5682   -0.6520    0.0000 C   0  0  0  0  0  0  0  0  0  0  0  0
   -3.8959    0.6089    0.0000 O   0  0  0  0  0  0  0  0  0  0  0  0
   -2.4678    0.6573    0.0000 C   0  0  0  0  0  0  0  0  0  0  0  0
   -1.7677    1.0937    0.0000 C   0  0  0  0  0  0  0  0  0  0  0  0
   -3.1958    1.0454    0.0000 C   0  0  0  0  0  0  0  0  0  0  0  0
  2  3  1  0      
  3  4  2  0      
  4  5  1  0      
  5  1  1  0      
  2  1  1  0      
  5  6  2  0      
  2  7  2  0      
  1  8  1  0      
  8  9  1  0      
  9 10  1  0      
 10 11  1  0      
 11 12  1  0      
 11 13  2  0      
 12 14  1  0      
 14 15  1  0      
 15 16  1  0      
 15 17  2  0      
 16 18  1  0      
 18 19  1  0      
 19 20  1  0      
 19 21  2  0      
 16 22  1  1      
 22 23  1  0      
 22 24  1  0      
M  END
