JBB7_0011.mol
  ChemDraw03062414462D

 32 33  0  0  1  0  0  0  0  0999 V2000
    2.6610    0.1177    0.0000 C   0  0  0  0  0  0  0  0  0  0  0  0
    1.9524    0.5269    0.0000 O   0  0  0  0  0  0  0  0  0  0  0  0
    1.2437    0.1177    0.0000 C   0  0  0  0  0  0  0  0  0  0  0  0
    0.5350    0.5269    0.0000 C   0  0  0  0  0  0  0  0  0  0  0  0
    1.2437   -0.7006    0.0000 O   0  0  0  0  0  0  0  0  0  0  0  0
   -0.1736    0.1177    0.0000 N   0  0  0  0  0  0  0  0  0  0  0  0
   -0.8823    0.5269    0.0000 C   0  0  0  0  0  0  0  0  0  0  0  0
   -0.8823    1.3451    0.0000 O   0  0  0  0  0  0  0  0  0  0  0  0
    3.3697    0.5269    0.0000 C   0  0  0  0  0  0  0  0  0  0  0  0
   -1.5909    0.1177    0.0000 C   0  0  0  0  0  0  0  0  0  0  0  0
   -2.2996    0.5269    0.0000 N   0  0  0  0  0  0  0  0  0  0  0  0
   -3.0083    0.1177    0.0000 C   0  0  0  0  0  0  0  0  0  0  0  0
   -3.7169    0.5269    0.0000 C   0  0  0  0  0  0  0  0  0  0  0  0
   -3.0083   -0.7006    0.0000 O   0  0  0  0  0  0  0  0  0  0  0  0
   -1.5909   -0.7006    0.0000 C   0  0  0  0  0  0  0  0  0  0  0  0
   -0.8823   -1.1097    0.0000 C   0  0  0  0  0  0  0  0  0  0  0  0
   -2.2996   -1.1097    0.0000 C   0  0  0  0  0  0  0  0  0  0  0  0
   -1.5909   -1.5189    0.0000 C   0  0  0  0  0  0  0  0  0  0  0  0
    4.1635    0.1419    0.0000 N   0  0  0  0  0  0  0  0  0  0  0  0
    4.9392    0.4025    0.0000 C   0  0  0  0  0  0  0  0  0  0  0  0
    5.4267   -0.2546    0.0000 C   0  0  0  0  0  0  0  0  0  0  0  0
    4.9524   -0.9214    0.0000 C   0  0  0  0  0  0  0  0  0  0  0  0
    4.1717   -0.6763    0.0000 C   0  0  0  0  0  0  0  0  0  0  0  0
    3.5145   -1.1639    0.0000 O   0  0  0  0  0  0  0  0  0  0  0  0
    5.1843    1.1833    0.0000 O   0  0  0  0  0  0  0  0  0  0  0  0
   -3.8032    1.3473    0.0000 C   0  0  0  0  0  0  0  0  0  0  0  0
   -4.6101    1.5189    0.0000 S   0  0  0  0  0  0  0  0  0  0  0  0
   -5.0226    0.8044    0.0000 C   0  0  0  0  0  0  0  0  0  0  0  0
   -4.4706    0.1913    0.0000 N   0  0  0  0  0  0  0  0  0  0  0  0
   -4.6421   -0.6157    0.0000 C   0  0  0  0  0  0  0  0  0  0  0  0
   -4.0290   -1.1677    0.0000 C   0  0  0  0  0  0  0  0  0  0  0  0
   -5.4267   -0.8706    0.0000 O   0  0  0  0  0  0  0  0  0  0  0  0
  1  2  1  0      
  2  3  1  0      
  3  4  1  0      
  3  5  2  0      
  4  6  1  0      
  6  7  1  0      
  7  8  2  0      
  7 10  1  0      
 10 11  1  0      
 11 12  1  0      
 12 13  1  0      
 12 14  2  0      
 10 15  1  6      
 15 16  1  0      
  1  9  1  0      
 15 17  1  0      
 15 18  1  0      
 20 21  1  0      
 21 22  2  0      
 22 23  1  0      
 23 19  1  0      
 20 19  1  0      
 23 24  2  0      
 20 25  2  0      
  9 19  1  0      
 13 26  1  1      
 26 27  1  0      
 27 28  1  0      
 28 29  1  0      
 29 13  1  0      
 29 30  1  0      
 30 31  1  0      
 30 32  2  0      
M  END
