MCSJ25_0034.mol
  ChemDraw04192413072D

 26 29  0  0  0  0  0  0  0  0999 V2000
   -0.6900    1.5731    0.0000 C   0  0  0  0  0  0  0  0  0  0  0  0
   -0.6900    0.7481    0.0000 C   0  0  0  0  0  0  0  0  0  0  0  0
    0.0244    0.3356    0.0000 C   0  0  0  0  0  0  0  0  0  0  0  0
    0.7389    0.7481    0.0000 C   0  0  0  0  0  0  0  0  0  0  0  0
    0.7389    1.5731    0.0000 C   0  0  0  0  0  0  0  0  0  0  0  0
    0.0244    1.9856    0.0000 C   0  0  0  0  0  0  0  0  0  0  0  0
    1.5235    0.4932    0.0000 N   0  0  0  0  0  0  0  0  0  0  0  0
    2.0084    1.1606    0.0000 C   0  0  0  0  0  0  0  0  0  0  0  0
    1.5235    1.8280    0.0000 C   0  0  0  0  0  0  0  0  0  0  0  0
    1.7371    2.6249    0.0000 O   0  0  0  0  0  0  0  0  0  0  0  0
    2.8334    1.1606    0.0000 O   0  0  0  0  0  0  0  0  0  0  0  0
   -1.4045    1.9856    0.0000 C   0  0  0  0  0  0  0  0  0  0  0  0
   -2.1190    1.5731    0.0000 C   0  0  0  0  0  0  0  0  0  0  0  0
    1.7785   -0.2915    0.0000 C   0  0  0  0  0  0  0  0  0  0  0  0
    1.1951   -0.8748    0.0000 C   0  0  0  0  0  0  0  0  0  0  0  0
    0.3982   -0.6613    0.0000 C   0  0  0  0  0  0  0  0  0  0  0  0
   -0.1851   -1.2447    0.0000 C   0  0  0  0  0  0  0  0  0  0  0  0
    0.0284   -2.0416    0.0000 C   0  0  0  0  0  0  0  0  0  0  0  0
    0.8253   -2.2551    0.0000 C   0  0  0  0  0  0  0  0  0  0  0  0
    1.4086   -1.6717    0.0000 C   0  0  0  0  0  0  0  0  0  0  0  0
   -0.9820   -1.0311    0.0000 C   0  0  0  0  0  0  0  0  0  0  0  0
   -1.5654   -1.6145    0.0000 C   0  0  0  0  0  0  0  0  0  0  0  0
   -1.3519   -2.4114    0.0000 C   0  0  0  0  0  0  0  0  0  0  0  0
   -0.5550   -2.6249    0.0000 C   0  0  0  0  0  0  0  0  0  0  0  0
   -2.8334    1.9856    0.0000 N   0  0  0  0  0  0  0  0  0  0  0  0
   -2.1190    0.7481    0.0000 O   0  0  0  0  0  0  0  0  0  0  0  0
  1  2  2  0      
  2  3  1  0      
  3  4  2  0      
  4  5  1  0      
  5  6  2  0      
  6  1  1  0      
  4  7  1  0      
  7  8  1  0      
  8  9  1  0      
  9  5  1  0      
  9 10  2  0      
  8 11  2  0      
  1 12  1  0      
 12 13  1  0      
  7 14  1  0      
 14 15  1  0      
 15 16  2  0      
 16 17  1  0      
 17 18  2  0      
 18 19  1  0      
 19 20  2  0      
 20 15  1  0      
 17 21  1  0      
 21 22  2  0      
 22 23  1  0      
 23 24  2  0      
 24 18  1  0      
 13 25  1  0      
 13 26  2  0      
M  END
