MCSJ25_0055.mol
  ChemDraw04192413452D

 29 32  0  0  0  0  0  0  0  0999 V2000
   -3.3087    0.6901    0.0000 C   0  0  0  0  0  0  0  0  0  0  0  0
   -2.9991   -0.0710    0.0000 C   0  0  0  0  0  0  0  0  0  0  0  0
   -2.1852   -0.1834    0.0000 C   0  0  0  0  0  0  0  0  0  0  0  0
   -1.6808    0.4653    0.0000 C   0  0  0  0  0  0  0  0  0  0  0  0
   -1.9904    1.2264    0.0000 C   0  0  0  0  0  0  0  0  0  0  0  0
   -2.8044    1.3388    0.0000 C   0  0  0  0  0  0  0  0  0  0  0  0
   -1.7241   -0.8635    0.0000 N   0  0  0  0  0  0  0  0  0  0  0  0
   -0.9348   -0.6352    0.0000 C   0  0  0  0  0  0  0  0  0  0  0  0
   -0.9080    0.1861    0.0000 C   0  0  0  0  0  0  0  0  0  0  0  0
   -0.2279    0.6471    0.0000 S   0  0  0  0  0  0  0  0  0  0  0  0
    0.5114    0.2887    0.0000 C   0  0  0  0  0  0  0  0  0  0  0  0
    1.1915    0.7498    0.0000 C   0  0  0  0  0  0  0  0  0  0  0  0
    1.9309    0.3913    0.0000 N   0  0  0  0  0  0  0  0  0  0  0  0
    1.1323    1.5693    0.0000 O   0  0  0  0  0  0  0  0  0  0  0  0
    2.6110    0.8524    0.0000 C   0  0  0  0  0  0  0  0  0  0  0  0
    3.3504    0.4940    0.0000 C   0  0  0  0  0  0  0  0  0  0  0  0
    3.4096   -0.3255    0.0000 C   0  0  0  0  0  0  0  0  0  0  0  0
    4.1490   -0.6840    0.0000 C   0  0  0  0  0  0  0  0  0  0  0  0
    4.8291   -0.2229    0.0000 C   0  0  0  0  0  0  0  0  0  0  0  0
    4.7698    0.5966    0.0000 C   0  0  0  0  0  0  0  0  0  0  0  0
    4.0305    0.9551    0.0000 C   0  0  0  0  0  0  0  0  0  0  0  0
   -3.5055   -0.7223    0.0000 C   0  0  0  0  0  0  0  0  0  0  0  0
    3.9710    1.7779    0.0000 O   0  0  0  0  0  0  0  0  0  0  0  0
    3.2286    2.1378    0.0000 C   0  0  0  0  0  0  0  0  0  0  0  0
   -4.3227   -0.6094    0.0000 C   0  0  0  0  0  0  0  0  0  0  0  0
   -4.8291   -1.2607    0.0000 C   0  0  0  0  0  0  0  0  0  0  0  0
   -4.5182   -2.0249    0.0000 C   0  0  0  0  0  0  0  0  0  0  0  0
   -3.7010   -2.1378    0.0000 C   0  0  0  0  0  0  0  0  0  0  0  0
   -3.1946   -1.4865    0.0000 C   0  0  0  0  0  0  0  0  0  0  0  0
  1  2  2  0      
  2  3  1  0      
  3  4  2  0      
  4  5  1  0      
  5  6  2  0      
  6  1  1  0      
  3  7  1  0      
  7  8  1  0      
  8  9  2  0      
  9  4  1  0      
  9 10  1  0      
 10 11  1  0      
 11 12  1  0      
 12 13  1  0      
 12 14  2  0      
 13 15  1  0      
 15 16  1  0      
 16 17  2  0      
 17 18  1  0      
 18 19  2  0      
 19 20  1  0      
 20 21  2  0      
 21 16  1  0      
  2 22  1  0      
 21 23  1  0      
 23 24  1  0      
 22 25  2  0      
 25 26  1  0      
 26 27  2  0      
 27 28  1  0      
 28 29  2  0      
 29 22  1  0      
M  END
