MCSJ25_0025.mol
  ChemDraw04192412502D

 18 19  0  0  0  0  0  0  0  0999 V2000
   -1.0402    1.3152    0.0000 C   0  0  0  0  0  0  0  0  0  0  0  0
   -1.0402    0.4935    0.0000 C   0  0  0  0  0  0  0  0  0  0  0  0
   -0.3286    0.0827    0.0000 C   0  0  0  0  0  0  0  0  0  0  0  0
    0.3830    0.4935    0.0000 C   0  0  0  0  0  0  0  0  0  0  0  0
    0.3830    1.3152    0.0000 C   0  0  0  0  0  0  0  0  0  0  0  0
   -0.3286    1.7260    0.0000 C   0  0  0  0  0  0  0  0  0  0  0  0
    1.1645    0.2396    0.0000 N   0  0  0  0  0  0  0  0  0  0  0  0
    1.6474    0.9043    0.0000 C   0  0  0  0  0  0  0  0  0  0  0  0
    1.1645    1.5691    0.0000 C   0  0  0  0  0  0  0  0  0  0  0  0
    1.4184   -0.5419    0.0000 C   0  0  0  0  0  0  0  0  0  0  0  0
    2.4691    0.9043    0.0000 O   0  0  0  0  0  0  0  0  0  0  0  0
    1.4184    2.3505    0.0000 O   0  0  0  0  0  0  0  0  0  0  0  0
   -1.7546    1.7277    0.0000 C   0  0  0  0  0  0  0  0  0  0  0  0
   -2.4691    1.3152    0.0000 O   0  0  0  0  0  0  0  0  0  0  0  0
   -1.7546    2.5527    0.0000 O   0  0  0  0  0  0  0  0  0  0  0  0
    0.8663   -1.1550    0.0000 C   0  0  0  0  0  0  0  0  0  0  0  0
    1.1213   -1.9396    0.0000 C   0  0  0  0  0  0  0  0  0  0  0  0
    0.5693   -2.5527    0.0000 C   0  0  0  0  0  0  0  0  0  0  0  0
  1  2  2  0      
  2  3  1  0      
  3  4  2  0      
  4  5  1  0      
  5  6  2  0      
  6  1  1  0      
  4  7  1  0      
  7  8  1  0      
  8  9  1  0      
  9  5  1  0      
  7 10  1  0      
  8 11  2  0      
  9 12  2  0      
  1 13  1  0      
 13 14  1  0      
 13 15  2  0      
 10 16  1  0      
 16 17  1  0      
 17 18  1  0      
M  END
