MCSJ33_0002.mol
  ChemDraw04202411262D

 47 50  0  0  0  0  0  0  0  0999 V2000
   -7.7225   -0.7565    0.0000 C   0  0  0  0  0  0  0  0  0  0  0  0
   -7.7225   -1.5815    0.0000 C   0  0  0  0  0  0  0  0  0  0  0  0
   -7.0080   -1.9940    0.0000 C   0  0  0  0  0  0  0  0  0  0  0  0
   -6.2936   -1.5815    0.0000 C   0  0  0  0  0  0  0  0  0  0  0  0
   -6.2936   -0.7565    0.0000 C   0  0  0  0  0  0  0  0  0  0  0  0
   -7.0080   -0.3440    0.0000 C   0  0  0  0  0  0  0  0  0  0  0  0
   -5.5090   -1.8365    0.0000 N   0  0  0  0  0  0  0  0  0  0  0  0
   -5.0240   -1.1690    0.0000 C   0  0  0  0  0  0  0  0  0  0  0  0
   -5.5090   -0.5016    0.0000 C   0  0  0  0  0  0  0  0  0  0  0  0
   -5.2540    0.2830    0.0000 C   0  0  0  0  0  0  0  0  0  0  0  0
   -4.4470    0.4546    0.0000 N   0  0  0  0  0  0  0  0  0  0  0  0
   -4.1921    1.2392    0.0000 N   0  0  0  0  0  0  0  0  0  0  0  0
   -3.4075    1.4941    0.0000 C   0  0  0  0  0  0  0  0  0  0  0  0
   -3.4075    2.3191    0.0000 N   0  0  0  0  0  0  0  0  0  0  0  0
   -4.1921    2.5741    0.0000 N   0  0  0  0  0  0  0  0  0  0  0  0
   -4.6770    1.9066    0.0000 C   0  0  0  0  0  0  0  0  0  0  0  0
   -5.2540   -2.6211    0.0000 C   0  0  0  0  0  0  0  0  0  0  0  0
   -2.7400    1.0092    0.0000 C   0  0  0  0  0  0  0  0  0  0  0  0
   -2.7400    0.1842    0.0000 C   0  0  0  0  0  0  0  0  0  0  0  0
   -5.5020    1.9066    0.0000 S   0  0  0  0  0  0  0  0  0  0  0  0
   -5.9145    2.6211    0.0000 C   0  0  0  0  0  0  0  0  0  0  0  0
   -6.7395    2.6211    0.0000 C   0  0  0  0  0  0  0  0  0  0  0  0
   -7.1520    1.9066    0.0000 O   0  0  0  0  0  0  0  0  0  0  0  0
   -7.1520    3.3356    0.0000 C   0  0  0  0  0  0  0  0  0  0  0  0
   -7.9770    3.3356    0.0000 O   0  0  0  0  0  0  0  0  0  0  0  0
   -2.0256   -0.2283    0.0000 C   0  0  0  0  0  0  0  0  0  0  0  0
   -1.3111    0.1842    0.0000 C   0  0  0  0  0  0  0  0  0  0  0  0
   -0.5966   -0.2283    0.0000 C   0  0  0  0  0  0  0  0  0  0  0  0
    0.1178    0.1842    0.0000 C   0  0  0  0  0  0  0  0  0  0  0  0
    0.8323   -0.2283    0.0000 C   0  0  0  0  0  0  0  0  0  0  0  0
    1.5468    0.1842    0.0000 C   0  0  0  0  0  0  0  0  0  0  0  0
    2.2613   -0.2283    0.0000 C   0  0  0  0  0  0  0  0  0  0  0  0
    2.9757    0.1842    0.0000 C   0  0  0  0  0  0  0  0  0  0  0  0
    3.6902   -0.2283    0.0000 C   0  0  0  0  0  0  0  0  0  0  0  0
    4.4047    0.1842    0.0000 C   0  0  0  0  0  0  0  0  0  0  0  0
    5.1191   -0.2283    0.0000 C   0  0  0  0  0  0  0  0  0  0  0  0
    5.8336    0.1842    0.0000 C   0  0  0  0  0  0  0  0  0  0  0  0
    6.5481   -0.2283    0.0000 C   0  0  0  0  0  0  0  0  0  0  0  0
    7.2626    0.1842    0.0000 C   0  0  0  0  0  0  0  0  0  0  0  0
    7.9770   -0.2283    0.0000 C   0  0  0  0  0  0  0  0  0  0  0  0
   -3.4545   -0.2283    0.0000 C   0  0  0  0  0  0  0  0  0  0  0  0
   -4.4290   -2.6211    0.0000 C   0  0  0  0  0  0  0  0  0  0  0  0
   -4.0165   -3.3356    0.0000 C   0  0  0  0  0  0  0  0  0  0  0  0
   -3.1915   -3.3356    0.0000 C   0  0  0  0  0  0  0  0  0  0  0  0
   -2.7790   -2.6211    0.0000 C   0  0  0  0  0  0  0  0  0  0  0  0
   -3.1915   -1.9066    0.0000 C   0  0  0  0  0  0  0  0  0  0  0  0
   -4.0165   -1.9066    0.0000 C   0  0  0  0  0  0  0  0  0  0  0  0
  1  2  2  0      
  2  3  1  0      
  3  4  2  0      
  4  5  1  0      
  5  6  2  0      
  6  1  1  0      
  4  7  1  0      
  7  8  1  0      
  8  9  2  0      
  9  5  1  0      
  9 10  1  0      
 10 11  2  0      
 11 12  1  0      
 12 13  1  0      
 13 14  2  0      
 14 15  1  0      
 15 16  2  0      
 16 12  1  0      
  7 17  1  0      
 13 18  1  0      
 18 19  1  0      
 16 20  1  0      
 20 21  1  0      
 21 22  1  0      
 22 23  1  0      
 22 24  1  0      
 24 25  1  0      
 19 26  1  0      
 26 27  1  0      
 27 28  1  0      
 28 29  1  0      
 29 30  1  0      
 30 31  1  0      
 31 32  1  0      
 32 33  1  0      
 33 34  1  0      
 34 35  1  0      
 35 36  1  0      
 36 37  1  0      
 37 38  1  0      
 38 39  1  0      
 39 40  1  0      
 19 41  1  0      
 17 42  1  0      
 42 43  2  0      
 43 44  1  0      
 44 45  2  0      
 45 46  1  0      
 46 47  2  0      
 47 42  1  0      
M  END
