MCSJ58_0003.mol
  ChemDraw04192417432D

 48 50  0  0  1  0  0  0  0  0999 V2000
   -1.4432    3.4413    0.0000 C   0  0  0  0  0  0  0  0  0  0  0  0
   -1.8557    2.7268    0.0000 C   0  0  0  0  0  0  0  0  0  0  0  0
   -1.4432    2.0124    0.0000 O   0  0  0  0  0  0  0  0  0  0  0  0
   -0.6182    2.0124    0.0000 C   0  0  0  0  0  0  0  0  0  0  0  0
   -0.2057    2.7268    0.0000 C   0  0  0  0  0  0  0  0  0  0  0  0
   -0.6182    3.4413    0.0000 C   0  0  0  0  0  0  0  0  0  0  0  0
   -0.2057    1.2979    0.0000 O   0  0  0  0  0  0  0  0  0  0  0  0
   -0.4192    0.5010    0.0000 C   0  0  0  0  0  0  0  0  0  0  0  0
   -1.1812    0.1846    0.0000 C   0  0  0  0  0  0  0  0  0  0  0  0
   -1.1157   -0.6378    0.0000 C   0  0  0  0  0  0  0  0  0  0  0  0
   -0.3133   -0.8297    0.0000 O   0  0  0  0  0  0  0  0  0  0  0  0
    0.1171   -0.1259    0.0000 C   0  0  0  0  0  0  0  0  0  0  0  0
    0.9395   -0.0604    0.0000 O   0  0  0  0  0  0  0  0  0  0  0  0
    1.3520   -0.7749    0.0000 C   0  0  0  0  0  0  0  0  0  0  0  0
    0.9395   -1.4893    0.0000 C   0  0  0  0  0  0  0  0  0  0  0  0
    1.3520   -2.2038    0.0000 C   0  0  0  0  0  0  0  0  0  0  0  0
    2.1770   -2.2038    0.0000 C   0  0  0  0  0  0  0  0  0  0  0  0
    2.5895   -1.4893    0.0000 C   0  0  0  0  0  0  0  0  0  0  0  0
    2.1770   -0.7749    0.0000 C   0  0  0  0  0  0  0  0  0  0  0  0
   -2.0062    0.1846    0.0000 C   0  0  0  0  0  0  0  0  0  0  0  0
    0.9395   -2.9183    0.0000 C   0  0  0  0  0  0  0  0  0  0  0  0
    3.4145   -1.4893    0.0000 O   0  0  0  0  0  0  0  0  0  0  0  0
   -1.8557    4.1558    0.0000 O   0  0  0  0  0  0  0  0  0  0  0  0
    0.6193    2.7268    0.0000 N   0  0  0  0  0  0  0  0  0  0  0  0
   -2.6807    2.7268    0.0000 C   0  0  0  0  0  0  0  0  0  0  0  0
   -0.2057    4.1558    0.0000 O   0  0  0  0  0  0  0  0  0  0  0  0
   -1.5937    0.8991    0.0000 O   0  0  0  0  0  0  0  0  0  0  0  0
   -1.5282   -1.3523    0.0000 O   0  0  0  0  0  0  0  0  0  0  0  0
    0.1426   -1.7029    0.0000 O   0  0  0  0  0  0  0  0  0  0  0  0
    2.5895   -2.9183    0.0000 N   0  0  0  0  0  0  0  0  0  0  0  0
    2.5895   -0.0604    0.0000 N   0  0  0  0  0  0  0  0  0  0  0  0
    1.2027    3.3102    0.0000 C   0  0  0  0  0  0  0  0  0  0  0  0
   -3.0932    2.0124    0.0000 O   0  0  0  0  0  0  0  0  0  0  0  0
   -2.5895   -0.3988    0.0000 C   0  0  0  0  0  0  0  0  0  0  0  0
    0.9395   -3.7433    0.0000 P   0  0  0  0  0  0  0  0  0  0  0  0
    3.4145   -2.9183    0.0000 C   0  0  0  0  0  0  0  0  0  0  0  0
    3.8270   -3.6327    0.0000 N   0  0  0  0  0  0  0  0  0  0  0  0
    3.8270   -2.2038    0.0000 N   0  0  0  0  0  0  0  0  0  0  0  0
    0.2250   -4.1558    0.0000 O   0  0  0  0  0  0  0  0  0  0  0  0
    1.6540   -4.1558    0.0000 O   0  0  0  0  0  0  0  0  0  0  0  0
    1.6540   -3.3308    0.0000 O   0  0  0  0  0  0  0  0  0  0  0  0
   -3.4145   -0.3988    0.0000 P   0  0  0  0  0  0  0  0  0  0  0  0
   -3.8270   -1.1132    0.0000 O   0  0  0  0  0  0  0  0  0  0  0  0
   -3.8270    0.3157    0.0000 O   0  0  0  0  0  0  0  0  0  0  0  0
   -3.0020    0.3157    0.0000 O   0  0  0  0  0  0  0  0  0  0  0  0
    3.4145   -0.0604    0.0000 C   0  0  0  0  0  0  0  0  0  0  0  0
    3.8270    0.6541    0.0000 N   0  0  0  0  0  0  0  0  0  0  0  0
    3.8270   -0.7749    0.0000 N   0  0  0  0  0  0  0  0  0  0  0  0
  1  2  1  0      
  2  3  1  0      
  3  4  1  0      
  4  5  1  0      
  5  6  1  0      
  6  1  1  0      
  4  7  1  6      
  8  7  1  6      
  8  9  1  0      
  9 10  1  0      
 10 11  1  0      
 11 12  1  0      
 12  8  1  0      
 12 13  1  6      
 14 13  1  6      
 14 15  1  0      
 15 16  1  0      
 16 17  1  0      
 17 18  1  0      
 18 19  1  0      
 19 14  1  0      
  9 20  1  6      
 16 21  1  6      
 18 22  1  6      
  1 23  1  6      
  5 24  1  6      
  2 25  1  1      
  6 26  1  1      
  9 27  1  1      
 10 28  1  1      
 15 29  1  1      
 17 30  1  1      
 19 31  1  1      
 24 32  1  0      
 25 33  1  0      
 20 34  1  0      
 21 35  1  0      
 30 36  2  0      
 36 37  1  0      
 36 38  1  0      
 35 39  1  0      
 35 40  1  0      
 35 41  2  0      
 34 42  1  0      
 42 43  1  0      
 42 44  2  0      
 42 45  1  0      
 31 46  2  0      
 46 47  1  0      
 46 48  1  0      
M  END
