MCSJ25_0061.mol
  ChemDraw04192413592D

 35 38  0  0  0  0  0  0  0  0999 V2000
   -4.0213    1.1043    0.0000 C   0  0  0  0  0  0  0  0  0  0  0  0
   -3.8078    0.3074    0.0000 C   0  0  0  0  0  0  0  0  0  0  0  0
   -3.0109    0.0938    0.0000 C   0  0  0  0  0  0  0  0  0  0  0  0
   -2.4276    0.6772    0.0000 C   0  0  0  0  0  0  0  0  0  0  0  0
   -2.6411    1.4741    0.0000 C   0  0  0  0  0  0  0  0  0  0  0  0
   -3.4380    1.6876    0.0000 C   0  0  0  0  0  0  0  0  0  0  0  0
   -2.6364   -0.6412    0.0000 N   0  0  0  0  0  0  0  0  0  0  0  0
   -1.8215   -0.5122    0.0000 C   0  0  0  0  0  0  0  0  0  0  0  0
   -1.6925    0.3027    0.0000 C   0  0  0  0  0  0  0  0  0  0  0  0
   -1.2382   -1.0955    0.0000 S   0  0  0  0  0  0  0  0  0  0  0  0
   -0.9574    0.6772    0.0000 S   0  0  0  0  0  0  0  0  0  0  0  0
   -0.2655    0.2279    0.0000 C   0  0  0  0  0  0  0  0  0  0  0  0
   -0.4413   -0.8820    0.0000 C   0  0  0  0  0  0  0  0  0  0  0  0
    0.1421   -1.4654    0.0000 C   0  0  0  0  0  0  0  0  0  0  0  0
    0.4490    0.6404    0.0000 C   0  0  0  0  0  0  0  0  0  0  0  0
    1.1635    0.2279    0.0000 N   0  0  0  0  0  0  0  0  0  0  0  0
    0.8566   -1.0529    0.0000 N   0  0  0  0  0  0  0  0  0  0  0  0
    1.5710   -1.4654    0.0000 C   0  0  0  0  0  0  0  0  0  0  0  0
    1.8779    0.6404    0.0000 C   0  0  0  0  0  0  0  0  0  0  0  0
    2.5924    0.2279    0.0000 C   0  0  0  0  0  0  0  0  0  0  0  0
    3.3069    0.6404    0.0000 C   0  0  0  0  0  0  0  0  0  0  0  0
    3.3069    1.4654    0.0000 C   0  0  0  0  0  0  0  0  0  0  0  0
    2.5924    1.8779    0.0000 C   0  0  0  0  0  0  0  0  0  0  0  0
    1.8779    1.4654    0.0000 C   0  0  0  0  0  0  0  0  0  0  0  0
    1.5710   -2.2904    0.0000 C   0  0  0  0  0  0  0  0  0  0  0  0
    2.2855   -2.7029    0.0000 C   0  0  0  0  0  0  0  0  0  0  0  0
    3.0000   -2.2904    0.0000 C   0  0  0  0  0  0  0  0  0  0  0  0
    3.0000   -1.4654    0.0000 C   0  0  0  0  0  0  0  0  0  0  0  0
    2.2855   -1.0529    0.0000 C   0  0  0  0  0  0  0  0  0  0  0  0
    0.4490    1.4654    0.0000 O   0  0  0  0  0  0  0  0  0  0  0  0
    0.0344   -2.2833    0.0000 O   0  0  0  0  0  0  0  0  0  0  0  0
    2.5924    2.7029    0.0000 Cl  0  0  0  0  0  0  0  0  0  0  0  0
    4.0213    1.8779    0.0000 Cl  0  0  0  0  0  0  0  0  0  0  0  0
    3.7144   -1.0529    0.0000 Cl  0  0  0  0  0  0  0  0  0  0  0  0
    3.7144   -2.7029    0.0000 Cl  0  0  0  0  0  0  0  0  0  0  0  0
  1  2  2  0      
  2  3  1  0      
  3  4  2  0      
  4  5  1  0      
  5  6  2  0      
  6  1  1  0      
  3  7  1  0      
  7  8  1  0      
  8  9  2  0      
  9  4  1  0      
  8 10  1  0      
  9 11  1  0      
 11 12  1  0      
 10 13  1  0      
 13 14  1  0      
 12 15  1  0      
 15 16  1  0      
 14 17  1  0      
 17 18  1  0      
 16 19  1  0      
 19 20  2  0      
 20 21  1  0      
 21 22  2  0      
 22 23  1  0      
 23 24  2  0      
 24 19  1  0      
 18 25  2  0      
 25 26  1  0      
 26 27  2  0      
 27 28  1  0      
 28 29  2  0      
 29 18  1  0      
 15 30  2  0      
 14 31  2  0      
 23 32  1  0      
 22 33  1  0      
 28 34  1  0      
 27 35  1  0      
M  END
