MCSJ25_0033.mol
  ChemDraw04192413052D

 31 35  0  0  0  0  0  0  0  0999 V2000
   -0.4490    2.3553    0.0000 C   0  0  0  0  0  0  0  0  0  0  0  0
   -0.4490    1.5303    0.0000 C   0  0  0  0  0  0  0  0  0  0  0  0
    0.2655    1.1178    0.0000 C   0  0  0  0  0  0  0  0  0  0  0  0
    0.9799    1.5303    0.0000 C   0  0  0  0  0  0  0  0  0  0  0  0
    0.9799    2.3553    0.0000 C   0  0  0  0  0  0  0  0  0  0  0  0
    0.2655    2.7678    0.0000 C   0  0  0  0  0  0  0  0  0  0  0  0
    1.7645    1.2754    0.0000 N   0  0  0  0  0  0  0  0  0  0  0  0
    2.2495    1.9428    0.0000 C   0  0  0  0  0  0  0  0  0  0  0  0
    1.7645    2.6102    0.0000 C   0  0  0  0  0  0  0  0  0  0  0  0
    1.9781    3.4071    0.0000 O   0  0  0  0  0  0  0  0  0  0  0  0
    3.0745    1.9428    0.0000 O   0  0  0  0  0  0  0  0  0  0  0  0
   -1.1635    2.7678    0.0000 C   0  0  0  0  0  0  0  0  0  0  0  0
   -1.8780    2.3553    0.0000 N   0  0  0  0  0  0  0  0  0  0  0  0
   -1.1635    3.5928    0.0000 O   0  0  0  0  0  0  0  0  0  0  0  0
    2.0195    0.4907    0.0000 C   0  0  0  0  0  0  0  0  0  0  0  0
    1.4361   -0.0926    0.0000 C   0  0  0  0  0  0  0  0  0  0  0  0
    0.6392    0.1209    0.0000 C   0  0  0  0  0  0  0  0  0  0  0  0
    0.0559   -0.4625    0.0000 C   0  0  0  0  0  0  0  0  0  0  0  0
    0.2694   -1.2593    0.0000 C   0  0  0  0  0  0  0  0  0  0  0  0
    1.0663   -1.4729    0.0000 C   0  0  0  0  0  0  0  0  0  0  0  0
    1.6496   -0.8895    0.0000 C   0  0  0  0  0  0  0  0  0  0  0  0
   -0.7410   -0.2489    0.0000 C   0  0  0  0  0  0  0  0  0  0  0  0
   -1.3244   -0.8323    0.0000 C   0  0  0  0  0  0  0  0  0  0  0  0
   -1.1109   -1.6292    0.0000 C   0  0  0  0  0  0  0  0  0  0  0  0
   -0.3140   -1.8427    0.0000 C   0  0  0  0  0  0  0  0  0  0  0  0
   -1.6942   -2.2125    0.0000 C   0  0  0  0  0  0  0  0  0  0  0  0
   -2.4911   -1.9990    0.0000 C   0  0  0  0  0  0  0  0  0  0  0  0
   -3.0745   -2.5824    0.0000 C   0  0  0  0  0  0  0  0  0  0  0  0
   -2.8609   -3.3793    0.0000 C   0  0  0  0  0  0  0  0  0  0  0  0
   -2.0641   -3.5928    0.0000 C   0  0  0  0  0  0  0  0  0  0  0  0
   -1.4807   -3.0094    0.0000 C   0  0  0  0  0  0  0  0  0  0  0  0
  1  2  2  0      
  2  3  1  0      
  3  4  2  0      
  4  5  1  0      
  5  6  2  0      
  6  1  1  0      
  4  7  1  0      
  7  8  1  0      
  8  9  1  0      
  9  5  1  0      
  9 10  2  0      
  8 11  2  0      
  1 12  1  0      
 12 13  1  0      
 12 14  2  0      
  7 15  1  0      
 15 16  1  0      
 16 17  2  0      
 17 18  1  0      
 18 19  2  0      
 19 20  1  0      
 20 21  2  0      
 21 16  1  0      
 18 22  1  0      
 22 23  2  0      
 23 24  1  0      
 24 25  2  0      
 25 19  1  0      
 24 26  1  0      
 26 27  2  0      
 27 28  1  0      
 28 29  2  0      
 29 30  1  0      
 30 31  2  0      
 31 26  1  0      
M  END
