MCSJ16_0004.mol
  ChemDraw02132412142D

 36 39  0  0  0  0  0  0  0  0999 V2000
   -4.4735    0.9099    0.0000 C   0  0  0  0  0  0  0  0  0  0  0  0
   -4.4735    0.0882    0.0000 C   0  0  0  0  0  0  0  0  0  0  0  0
   -3.7619   -0.3226    0.0000 C   0  0  0  0  0  0  0  0  0  0  0  0
   -3.0503    0.0882    0.0000 C   0  0  0  0  0  0  0  0  0  0  0  0
   -3.0503    0.9099    0.0000 C   0  0  0  0  0  0  0  0  0  0  0  0
   -3.7619    1.3207    0.0000 C   0  0  0  0  0  0  0  0  0  0  0  0
   -2.2688   -0.1657    0.0000 N   0  0  0  0  0  0  0  0  0  0  0  0
   -1.7859    0.4990    0.0000 C   0  0  0  0  0  0  0  0  0  0  0  0
   -2.2577    1.1222    0.0000 C   0  0  0  0  0  0  0  0  0  0  0  0
   -1.9911    1.8995    0.0000 O   0  0  0  0  0  0  0  0  0  0  0  0
   -0.9642    0.4990    0.0000 O   0  0  0  0  0  0  0  0  0  0  0  0
   -2.0149   -0.9472    0.0000 C   0  0  0  0  0  0  0  0  0  0  0  0
   -1.2112   -1.1180    0.0000 C   0  0  0  0  0  0  0  0  0  0  0  0
   -0.9573   -1.8995    0.0000 N   0  0  0  0  0  0  0  0  0  0  0  0
   -0.6614   -0.5074    0.0000 C   0  0  0  0  0  0  0  0  0  0  0  0
    0.1423   -0.6782    0.0000 N   0  0  0  0  0  0  0  0  0  0  0  0
    0.3962   -1.4597    0.0000 N   0  0  0  0  0  0  0  0  0  0  0  0
    0.6921   -0.0676    0.0000 C   0  0  0  0  0  0  0  0  0  0  0  0
    1.4958   -0.2384    0.0000 C   0  0  0  0  0  0  0  0  0  0  0  0
    1.7497   -1.0199    0.0000 O   0  0  0  0  0  0  0  0  0  0  0  0
    2.0456    0.3722    0.0000 N   0  0  0  0  0  0  0  0  0  0  0  0
    2.8493    0.2014    0.0000 C   0  0  0  0  0  0  0  0  0  0  0  0
    3.1033   -0.5801    0.0000 C   0  0  0  0  0  0  0  0  0  0  0  0
    3.9070   -0.7509    0.0000 C   0  0  0  0  0  0  0  0  0  0  0  0
    4.4568   -0.1403    0.0000 C   0  0  0  0  0  0  0  0  0  0  0  0
    4.2029    0.6411    0.0000 C   0  0  0  0  0  0  0  0  0  0  0  0
    3.3991    0.8120    0.0000 C   0  0  0  0  0  0  0  0  0  0  0  0
    5.2605   -0.3111    0.0000 S   0  0  0  0  0  0  0  0  0  0  0  0
    5.5144   -1.0926    0.0000 O   0  0  0  0  0  0  0  0  0  0  0  0
    5.8103    0.2995    0.0000 O   0  0  0  0  0  0  0  0  0  0  0  0
    6.6140    0.1286    0.0000 N   0  0  0  0  0  0  0  0  0  0  0  0
   -5.1851    1.3207    0.0000 O   0  0  0  0  0  0  0  0  0  0  0  0
   -5.8995    0.9082    0.0000 C   0  0  0  0  0  0  0  0  0  0  0  0
   -6.6140    1.3207    0.0000 F   0  0  0  0  0  0  0  0  0  0  0  0
   -5.8995    0.0832    0.0000 F   0  0  0  0  0  0  0  0  0  0  0  0
   -5.8995    1.7332    0.0000 F   0  0  0  0  0  0  0  0  0  0  0  0
  1  2  2  0      
  2  3  1  0      
  3  4  2  0      
  4  5  1  0      
  5  6  2  0      
  6  1  1  0      
  4  7  1  0      
  7  8  1  0      
  8  9  1  0      
  9  5  1  0      
  9 10  2  0      
  8 11  2  0      
  7 12  1  0      
 12 13  1  0      
 13 14  1  0      
 13 15  2  0      
 15 16  1  0      
 16 17  1  0      
 14 17  2  0      
 16 18  1  0      
 18 19  1  0      
 19 20  2  0      
 19 21  1  0      
 21 22  1  0      
 22 23  2  0      
 23 24  1  0      
 24 25  2  0      
 25 26  1  0      
 26 27  2  0      
 27 22  1  0      
 25 28  1  0      
 28 29  2  0      
 28 30  1  0      
 30 31  1  0      
  1 32  1  0      
 32 33  1  0      
 33 34  1  0      
 33 35  1  0      
 33 36  1  0      
M  END
