MCSJ25_0016.mol
  ChemDraw04192412422D

 18 19  0  0  0  0  0  0  0  0999 V2000
   -0.6844    1.0251    0.0000 C   0  0  0  0  0  0  0  0  0  0  0  0
   -0.6844    0.2034    0.0000 C   0  0  0  0  0  0  0  0  0  0  0  0
    0.0272   -0.2074    0.0000 C   0  0  0  0  0  0  0  0  0  0  0  0
    0.7388    0.2034    0.0000 C   0  0  0  0  0  0  0  0  0  0  0  0
    0.7388    1.0251    0.0000 C   0  0  0  0  0  0  0  0  0  0  0  0
    0.0272    1.4359    0.0000 C   0  0  0  0  0  0  0  0  0  0  0  0
    1.5203   -0.0505    0.0000 N   0  0  0  0  0  0  0  0  0  0  0  0
    2.0032    0.6142    0.0000 C   0  0  0  0  0  0  0  0  0  0  0  0
    1.5203    1.2790    0.0000 C   0  0  0  0  0  0  0  0  0  0  0  0
    1.7742   -0.8320    0.0000 C   0  0  0  0  0  0  0  0  0  0  0  0
    2.8249    0.6142    0.0000 O   0  0  0  0  0  0  0  0  0  0  0  0
    1.7742    2.0604    0.0000 O   0  0  0  0  0  0  0  0  0  0  0  0
   -1.3960    1.4359    0.0000 C   0  0  0  0  0  0  0  0  0  0  0  0
   -2.1104    1.0234    0.0000 O   0  0  0  0  0  0  0  0  0  0  0  0
   -1.3960    2.2609    0.0000 O   0  0  0  0  0  0  0  0  0  0  0  0
   -2.8249    1.4359    0.0000 C   0  0  0  0  0  0  0  0  0  0  0  0
    1.3617   -1.5464    0.0000 C   0  0  0  0  0  0  0  0  0  0  0  0
    1.7742   -2.2609    0.0000 C   0  0  0  0  0  0  0  0  0  0  0  0
  1  2  2  0      
  2  3  1  0      
  3  4  2  0      
  4  5  1  0      
  5  6  2  0      
  6  1  1  0      
  4  7  1  0      
  7  8  1  0      
  8  9  1  0      
  9  5  1  0      
  7 10  1  0      
  8 11  2  0      
  9 12  2  0      
  1 13  1  0      
 13 14  1  0      
 13 15  2  0      
 14 16  1  0      
 10 17  1  0      
 18 17  1  0      
M  END
