MCSJ58_0002.mol
  ChemDraw04192417382D

 67 72  0  0  1  0  0  0  0  0999 V2000
   -2.0853    3.0443    0.0000 C   0  0  0  0  0  0  0  0  0  0  0  0
   -2.0853    2.2193    0.0000 C   0  0  0  0  0  0  0  0  0  0  0  0
   -1.3709    1.8068    0.0000 C   0  0  0  0  0  0  0  0  0  0  0  0
   -0.6564    2.2193    0.0000 C   0  0  0  0  0  0  0  0  0  0  0  0
   -0.6564    3.0443    0.0000 O   0  0  0  0  0  0  0  0  0  0  0  0
   -1.3709    3.4568    0.0000 C   0  0  0  0  0  0  0  0  0  0  0  0
   -1.3709    4.2818    0.0000 C   0  0  0  0  0  0  0  0  0  0  0  0
   -2.7998    1.8068    0.0000 O   0  0  0  0  0  0  0  0  0  0  0  0
   -2.7998    3.4568    0.0000 O   0  0  0  0  0  0  0  0  0  0  0  0
    0.0581    1.8068    0.0000 O   0  0  0  0  0  0  0  0  0  0  0  0
   -1.3709    0.9818    0.0000 O   0  0  0  0  0  0  0  0  0  0  0  0
   -1.9542    0.3984    0.0000 C   0  0  0  0  0  0  0  0  0  0  0  0
    0.7725    2.2193    0.0000 C   0  0  0  0  0  0  0  0  0  0  0  0
    1.4870    1.8068    0.0000 C   0  0  0  0  0  0  0  0  0  0  0  0
    2.2015    2.2193    0.0000 O   0  0  0  0  0  0  0  0  0  0  0  0
    2.2015    3.0443    0.0000 C   0  0  0  0  0  0  0  0  0  0  0  0
    1.4870    3.4568    0.0000 C   0  0  0  0  0  0  0  0  0  0  0  0
    0.7725    3.0443    0.0000 C   0  0  0  0  0  0  0  0  0  0  0  0
   -2.7511    0.6120    0.0000 O   0  0  0  0  0  0  0  0  0  0  0  0
   -3.3345    0.0286    0.0000 C   0  0  0  0  0  0  0  0  0  0  0  0
   -3.1210   -0.7683    0.0000 C   0  0  0  0  0  0  0  0  0  0  0  0
   -2.3241   -0.9818    0.0000 C   0  0  0  0  0  0  0  0  0  0  0  0
   -1.7407   -0.3984    0.0000 C   0  0  0  0  0  0  0  0  0  0  0  0
    1.4870    4.2818    0.0000 O   0  0  0  0  0  0  0  0  0  0  0  0
    1.4870    0.9818    0.0000 O   0  0  0  0  0  0  0  0  0  0  0  0
    2.2015    0.5693    0.0000 C   0  0  0  0  0  0  0  0  0  0  0  0
   -1.1573   -0.9818    0.0000 O   0  0  0  0  0  0  0  0  0  0  0  0
   -1.1573   -1.8068    0.0000 C   0  0  0  0  0  0  0  0  0  0  0  0
   -3.7043   -1.3516    0.0000 O   0  0  0  0  0  0  0  0  0  0  0  0
   -1.8718   -2.2193    0.0000 O   0  0  0  0  0  0  0  0  0  0  0  0
   -1.8718   -3.0443    0.0000 C   0  0  0  0  0  0  0  0  0  0  0  0
   -1.1573   -3.4568    0.0000 C   0  0  0  0  0  0  0  0  0  0  0  0
   -0.4429   -3.0443    0.0000 C   0  0  0  0  0  0  0  0  0  0  0  0
   -0.4429   -2.2193    0.0000 C   0  0  0  0  0  0  0  0  0  0  0  0
    2.2015   -0.2557    0.0000 O   0  0  0  0  0  0  0  0  0  0  0  0
    2.9160   -0.6682    0.0000 C   0  0  0  0  0  0  0  0  0  0  0  0
    3.6304   -0.2557    0.0000 C   0  0  0  0  0  0  0  0  0  0  0  0
    3.6304    0.5693    0.0000 C   0  0  0  0  0  0  0  0  0  0  0  0
    2.9160    0.9818    0.0000 C   0  0  0  0  0  0  0  0  0  0  0  0
    0.2716   -1.8068    0.0000 O   0  0  0  0  0  0  0  0  0  0  0  0
    0.9861   -2.2193    0.0000 C   0  0  0  0  0  0  0  0  0  0  0  0
   -1.1573   -4.2818    0.0000 O   0  0  0  0  0  0  0  0  0  0  0  0
    2.9160    1.8068    0.0000 O   0  0  0  0  0  0  0  0  0  0  0  0
    4.3449   -0.6682    0.0000 O   0  0  0  0  0  0  0  0  0  0  0  0
    0.9861   -3.0443    0.0000 O   0  0  0  0  0  0  0  0  0  0  0  0
    1.7005   -3.4568    0.0000 C   0  0  0  0  0  0  0  0  0  0  0  0
    2.4150   -3.0443    0.0000 C   0  0  0  0  0  0  0  0  0  0  0  0
    2.4150   -2.2193    0.0000 C   0  0  0  0  0  0  0  0  0  0  0  0
    1.7005   -1.8068    0.0000 C   0  0  0  0  0  0  0  0  0  0  0  0
    1.7005   -0.9818    0.0000 O   0  0  0  0  0  0  0  0  0  0  0  0
    3.1295   -3.4568    0.0000 O   0  0  0  0  0  0  0  0  0  0  0  0
   -2.5863   -3.4568    0.0000 C   0  0  0  0  0  0  0  0  0  0  0  0
    0.2716   -3.4568    0.0000 O   0  0  0  0  0  0  0  0  0  0  0  0
    3.1295   -1.8068    0.0000 O   0  0  0  0  0  0  0  0  0  0  0  0
    1.7005   -4.2818    0.0000 C   0  0  0  0  0  0  0  0  0  0  0  0
    4.3449    0.9818    0.0000 O   0  0  0  0  0  0  0  0  0  0  0  0
    3.3285   -1.3827    0.0000 C   0  0  0  0  0  0  0  0  0  0  0  0
    2.9160    3.4568    0.0000 C   0  0  0  0  0  0  0  0  0  0  0  0
    0.0581    3.4568    0.0000 O   0  0  0  0  0  0  0  0  0  0  0  0
   -4.1314    0.2421    0.0000 C   0  0  0  0  0  0  0  0  0  0  0  0
   -2.1105   -1.7787    0.0000 O   0  0  0  0  0  0  0  0  0  0  0  0
   -0.6564    4.6943    0.0000 O   0  0  0  0  0  0  0  0  0  0  0  0
   -4.3449    1.0390    0.0000 O   0  0  0  0  0  0  0  0  0  0  0  0
   -2.5863   -4.2818    0.0000 O   0  0  0  0  0  0  0  0  0  0  0  0
    0.9861   -4.6943    0.0000 O   0  0  0  0  0  0  0  0  0  0  0  0
    4.1535   -1.3827    0.0000 O   0  0  0  0  0  0  0  0  0  0  0  0
    2.9160    4.2818    0.0000 O   0  0  0  0  0  0  0  0  0  0  0  0
  1  2  1  0      
  2  3  1  0      
  3  4  1  0      
  4  5  1  0      
  5  6  1  0      
  6  1  1  0      
  6  7  1  1      
  2  8  1  1      
  1  9  1  6      
  4 10  1  6      
  3 11  1  6      
 12 11  1  6      
 13 10  1  6      
 13 14  1  0      
 14 15  1  0      
 15 16  1  0      
 16 17  1  0      
 17 18  1  0      
 18 13  1  0      
 12 19  1  0      
 19 20  1  0      
 20 21  1  0      
 21 22  1  0      
 22 23  1  0      
 23 12  1  0      
 17 24  1  6      
 14 25  1  6      
 26 25  1  6      
 23 27  1  6      
 28 27  1  6      
 21 29  1  6      
 28 30  1  0      
 30 31  1  0      
 31 32  1  0      
 32 33  1  0      
 33 34  1  0      
 34 28  1  0      
 26 35  1  0      
 35 36  1  0      
 36 37  1  0      
 37 38  1  0      
 38 39  1  0      
 39 26  1  0      
 34 40  1  6      
 41 40  1  6      
 32 42  1  6      
 39 43  1  6      
 37 44  1  6      
 41 45  1  0      
 45 46  1  0      
 46 47  1  0      
 47 48  1  0      
 48 49  1  0      
 49 41  1  0      
 49 50  1  6      
 47 51  1  6      
 31 52  1  1      
 33 53  1  1      
 48 54  1  1      
 46 55  1  1      
 38 56  1  1      
 36 57  1  1      
 16 58  1  1      
 18 59  1  1      
 20 60  1  1      
 22 61  1  1      
  7 62  1  0      
 60 63  1  0      
 52 64  1  0      
 55 65  1  0      
 57 66  1  0      
 58 67  1  0      
M  END
