MCSJ25_0003.mol
  ChemDraw04192412032D

 35 37  0  0  1  0  0  0  0  0999 V2000
   -3.8328    1.9749    0.0000 C   0  0  0  0  0  0  0  0  0  0  0  0
   -3.6193    1.1781    0.0000 C   0  0  0  0  0  0  0  0  0  0  0  0
   -2.8224    0.9645    0.0000 C   0  0  0  0  0  0  0  0  0  0  0  0
   -2.2390    1.5479    0.0000 C   0  0  0  0  0  0  0  0  0  0  0  0
   -2.4526    2.3448    0.0000 C   0  0  0  0  0  0  0  0  0  0  0  0
   -3.2495    2.5583    0.0000 C   0  0  0  0  0  0  0  0  0  0  0  0
   -2.4479    0.2294    0.0000 N   0  0  0  0  0  0  0  0  0  0  0  0
   -1.6330    0.3585    0.0000 C   0  0  0  0  0  0  0  0  0  0  0  0
   -1.5040    1.1734    0.0000 C   0  0  0  0  0  0  0  0  0  0  0  0
   -1.0497   -0.2249    0.0000 C   0  0  0  0  0  0  0  0  0  0  0  0
   -1.8692    2.9281    0.0000 O   0  0  0  0  0  0  0  0  0  0  0  0
   -2.0827    3.7250    0.0000 C   0  0  0  0  0  0  0  0  0  0  0  0
   -1.2632   -1.0217    0.0000 N   0  0  0  0  0  0  0  0  0  0  0  0
   -0.2528   -0.0113    0.0000 O   0  0  0  0  0  0  0  0  0  0  0  0
   -0.6798   -1.6051    0.0000 C   0  0  0  0  0  0  0  0  0  0  0  0
   -0.8933   -2.4020    0.0000 C   0  0  0  0  0  0  0  0  0  0  0  0
    0.1171   -1.3916    0.0000 C   0  0  0  0  0  0  0  0  0  0  0  0
    0.7004   -1.9749    0.0000 N   0  0  0  0  0  0  0  0  0  0  0  0
    0.3306   -0.5947    0.0000 O   0  0  0  0  0  0  0  0  0  0  0  0
   -1.6902   -2.6155    0.0000 C   0  0  0  0  0  0  0  0  0  0  0  0
   -2.2736   -2.0322    0.0000 C   0  0  0  0  0  0  0  0  0  0  0  0
   -1.9038   -3.4124    0.0000 C   0  0  0  0  0  0  0  0  0  0  0  0
    1.4973   -1.7614    0.0000 C   0  0  0  0  0  0  0  0  0  0  0  0
    2.0807   -2.3448    0.0000 C   0  0  0  0  0  0  0  0  0  0  0  0
    1.7109   -0.9645    0.0000 C   0  0  0  0  0  0  0  0  0  0  0  0
    1.8672   -3.1417    0.0000 C   0  0  0  0  0  0  0  0  0  0  0  0
    2.8776   -2.1313    0.0000 O   0  0  0  0  0  0  0  0  0  0  0  0
    2.4505   -3.7250    0.0000 O   0  0  0  0  0  0  0  0  0  0  0  0
    2.5077   -0.7510    0.0000 C   0  0  0  0  0  0  0  0  0  0  0  0
    3.1116   -1.3131    0.0000 C   0  0  0  0  0  0  0  0  0  0  0  0
    3.8328   -0.9125    0.0000 C   0  0  0  0  0  0  0  0  0  0  0  0
    3.6747   -0.1028    0.0000 N   0  0  0  0  0  0  0  0  0  0  0  0
    2.8557   -0.0030    0.0000 C   0  0  0  0  0  0  0  0  0  0  0  0
    2.4551    0.7182    0.0000 O   0  0  0  0  0  0  0  0  0  0  0  0
    1.9244   -0.1676    0.0000 H   0  0  0  0  0  0  0  0  0  0  0  0
  1  2  2  0      
  2  3  1  0      
  3  4  2  0      
  4  5  1  0      
  5  6  2  0      
  6  1  1  0      
  3  7  1  0      
  7  8  1  0      
  8  9  2  0      
  9  4  1  0      
  8 10  1  0      
  5 11  1  0      
 11 12  1  0      
 10 13  1  0      
 10 14  2  0      
 13 15  1  0      
 15 16  1  6      
 15 17  1  0      
 17 18  1  0      
 17 19  2  0      
 16 20  1  0      
 20 21  1  0      
 20 22  1  0      
 18 23  1  0      
 23 24  1  0      
 23 25  1  1      
 24 26  1  0      
 24 27  2  0      
 26 28  1  0      
 25 29  1  0      
 29 30  1  0      
 30 31  1  0      
 31 32  1  0      
 32 33  1  0      
 33 29  1  0      
 33 34  2  0      
 29 35  1  6      
M  END
