MCSJ25_0093.mol
  ChemDraw04192415252D

 42 47  0  0  1  0  0  0  0  0999 V2000
   -0.4560    0.2528    0.0000 C   0  0  0  0  0  0  0  0  0  0  0  0
   -0.4560   -0.5722    0.0000 C   0  0  0  0  0  0  0  0  0  0  0  0
    0.2585   -0.9847    0.0000 N   0  0  0  0  0  0  0  0  0  0  0  0
    0.9729   -0.5722    0.0000 C   0  0  0  0  0  0  0  0  0  0  0  0
    0.9729    0.2528    0.0000 C   0  0  0  0  0  0  0  0  0  0  0  0
    0.2585    0.6653    0.0000 C   0  0  0  0  0  0  0  0  0  0  0  0
    0.2585    1.4903    0.0000 O   0  0  0  0  0  0  0  0  0  0  0  0
   -1.1705    0.6653    0.0000 C   0  0  0  0  0  0  0  0  0  0  0  0
   -1.8849    0.2528    0.0000 C   0  0  0  0  0  0  0  0  0  0  0  0
    1.7324   -0.0695    0.0000 C   0  0  0  0  0  0  0  0  0  0  0  0
    2.2736    0.5532    0.0000 N   0  0  0  0  0  0  0  0  0  0  0  0
    1.8486    1.2603    0.0000 C   0  0  0  0  0  0  0  0  0  0  0  0
    1.0448    1.0747    0.0000 C   0  0  0  0  0  0  0  0  0  0  0  0
    0.6323    1.7891    0.0000 H   0  0  0  0  0  0  0  0  0  0  0  0
    1.4573    1.7891    0.0000 C   0  0  0  0  0  0  0  0  0  0  0  0
    1.7324   -0.8945    0.0000 C   0  0  0  0  0  0  0  0  0  0  0  0
    2.5170   -1.1494    0.0000 C   0  0  0  0  0  0  0  0  0  0  0  0
    3.0019   -0.4820    0.0000 N   0  0  0  0  0  0  0  0  0  0  0  0
    2.5170    0.1854    0.0000 C   0  0  0  0  0  0  0  0  0  0  0  0
    1.1193   -1.4465    0.0000 C   0  0  0  0  0  0  0  0  0  0  0  0
    1.2908   -2.2535    0.0000 C   0  0  0  0  0  0  0  0  0  0  0  0
    2.0754   -2.5084    0.0000 C   0  0  0  0  0  0  0  0  0  0  0  0
    2.6885   -1.9564    0.0000 C   0  0  0  0  0  0  0  0  0  0  0  0
    3.3139    0.3990    0.0000 O   0  0  0  0  0  0  0  0  0  0  0  0
   -2.5994    0.6653    0.0000 C   0  0  0  0  0  0  0  0  0  0  0  0
   -3.3139    0.2528    0.0000 C   0  0  0  0  0  0  0  0  0  0  0  0
   -3.3139   -0.5722    0.0000 C   0  0  0  0  0  0  0  0  0  0  0  0
   -2.5994   -0.9847    0.0000 C   0  0  0  0  0  0  0  0  0  0  0  0
   -1.8849   -0.5722    0.0000 C   0  0  0  0  0  0  0  0  0  0  0  0
    2.2823    1.7891    0.0000 C   0  0  0  0  0  0  0  0  0  0  0  0
    2.6948    2.5036    0.0000 C   0  0  0  0  0  0  0  0  0  0  0  0
    2.2823    3.2181    0.0000 C   0  0  0  0  0  0  0  0  0  0  0  0
    1.4573    3.2181    0.0000 C   0  0  0  0  0  0  0  0  0  0  0  0
    1.0448    2.5036    0.0000 C   0  0  0  0  0  0  0  0  0  0  0  0
    0.2585   -1.8097    0.0000 P   0  0  0  0  0  0  0  0  0  0  0  0
   -0.5665   -1.8097    0.0000 O   0  0  0  0  0  0  0  0  0  0  0  0
    2.9880    0.9657    0.0000 C   0  0  0  0  0  0  0  0  0  0  0  0
    0.2585   -2.6347    0.0000 O   0  0  0  0  0  0  0  0  0  0  0  0
    0.9729   -2.2222    0.0000 O   0  0  0  0  0  0  0  0  0  0  0  0
    1.2908   -3.0785    0.0000 Cl  0  0  0  0  0  0  0  0  0  0  0  0
   -0.9790   -1.0952    0.0000 C   0  0  0  0  0  0  0  0  0  0  0  0
   -0.3249   -3.2181    0.0000 C   0  0  0  0  0  0  0  0  0  0  0  0
  1  2  1  0      
  2  3  1  0      
  3  4  1  0      
  5  4  1  6      
  5  6  1  1      
  6  1  1  0      
  6  7  2  0      
  1  8  2  0      
  8  9  1  0      
  5 10  1  0      
 10 11  1  0      
 11 12  1  0      
 12 13  1  0      
 13  5  1  0      
 13 14  1  1      
 13 15  1  6      
 10 16  1  1      
 16 17  2  0      
 17 18  1  0      
 18 19  1  0      
 10 19  1  6      
 16 20  1  0      
 20 21  2  0      
 21 22  1  0      
 22 23  2  0      
 23 17  1  0      
 19 24  2  0      
  9 25  2  0      
 25 26  1  0      
 26 27  2  0      
 27 28  1  0      
 28 29  2  0      
 29  9  1  0      
 15 30  2  0      
 30 31  1  0      
 31 32  2  0      
 32 33  1  0      
 33 34  2  0      
 34 15  1  0      
  3 35  1  0      
 35 36  1  0      
 11 37  1  0      
 35 38  1  0      
 35 39  2  0      
 21 40  1  0      
 36 41  1  0      
 38 42  1  0      
M  END
