MCSJ25_0018.mol
  ChemDraw04192412342D

 22 24  0  0  0  0  0  0  0  0999 V2000
   -0.6844    1.2912    0.0000 C   0  0  0  0  0  0  0  0  0  0  0  0
   -0.6844    0.4696    0.0000 C   0  0  0  0  0  0  0  0  0  0  0  0
    0.0272    0.0587    0.0000 C   0  0  0  0  0  0  0  0  0  0  0  0
    0.7388    0.4696    0.0000 C   0  0  0  0  0  0  0  0  0  0  0  0
    0.7388    1.2912    0.0000 C   0  0  0  0  0  0  0  0  0  0  0  0
    0.0272    1.7021    0.0000 C   0  0  0  0  0  0  0  0  0  0  0  0
    1.5203    0.2156    0.0000 N   0  0  0  0  0  0  0  0  0  0  0  0
    2.0032    0.8804    0.0000 C   0  0  0  0  0  0  0  0  0  0  0  0
    1.5203    1.5451    0.0000 C   0  0  0  0  0  0  0  0  0  0  0  0
    1.7742   -0.5658    0.0000 C   0  0  0  0  0  0  0  0  0  0  0  0
    1.1932   -1.1468    0.0000 N   0  0  0  0  0  0  0  0  0  0  0  0
    2.8249    0.8804    0.0000 O   0  0  0  0  0  0  0  0  0  0  0  0
    1.7742    2.3266    0.0000 O   0  0  0  0  0  0  0  0  0  0  0  0
   -1.3960    1.7021    0.0000 C   0  0  0  0  0  0  0  0  0  0  0  0
    0.3963   -0.9333    0.0000 C   0  0  0  0  0  0  0  0  0  0  0  0
   -0.1871   -1.5167    0.0000 C   0  0  0  0  0  0  0  0  0  0  0  0
    0.0264   -2.3135    0.0000 O   0  0  0  0  0  0  0  0  0  0  0  0
    0.8233   -2.5271    0.0000 C   0  0  0  0  0  0  0  0  0  0  0  0
    1.4067   -1.9437    0.0000 C   0  0  0  0  0  0  0  0  0  0  0  0
   -2.1104    1.2896    0.0000 O   0  0  0  0  0  0  0  0  0  0  0  0
   -1.3960    2.5271    0.0000 O   0  0  0  0  0  0  0  0  0  0  0  0
   -2.8249    1.7021    0.0000 C   0  0  0  0  0  0  0  0  0  0  0  0
  1  2  2  0      
  2  3  1  0      
  3  4  2  0      
  4  5  1  0      
  5  6  2  0      
  6  1  1  0      
  4  7  1  0      
  7  8  1  0      
  8  9  1  0      
  9  5  1  0      
  7 10  1  0      
 10 11  1  0      
  8 12  2  0      
  9 13  2  0      
  1 14  1  0      
 11 15  1  0      
 15 16  1  0      
 16 17  1  0      
 17 18  1  0      
 18 19  1  0      
 19 11  1  0      
 14 20  1  0      
 14 21  2  0      
 20 22  1  0      
M  END
