MCSJ16_0003.mol
  ChemDraw02132412132D

 33 36  0  0  0  0  0  0  0  0999 V2000
   -4.8307    0.9099    0.0000 C   0  0  0  0  0  0  0  0  0  0  0  0
   -4.8307    0.0882    0.0000 C   0  0  0  0  0  0  0  0  0  0  0  0
   -4.1191   -0.3226    0.0000 C   0  0  0  0  0  0  0  0  0  0  0  0
   -3.4075    0.0882    0.0000 C   0  0  0  0  0  0  0  0  0  0  0  0
   -3.4075    0.9099    0.0000 C   0  0  0  0  0  0  0  0  0  0  0  0
   -4.1191    1.3207    0.0000 C   0  0  0  0  0  0  0  0  0  0  0  0
   -2.6261   -0.1657    0.0000 N   0  0  0  0  0  0  0  0  0  0  0  0
   -2.1431    0.4990    0.0000 C   0  0  0  0  0  0  0  0  0  0  0  0
   -2.6150    1.1222    0.0000 C   0  0  0  0  0  0  0  0  0  0  0  0
   -2.3483    1.8995    0.0000 O   0  0  0  0  0  0  0  0  0  0  0  0
   -1.3214    0.4990    0.0000 O   0  0  0  0  0  0  0  0  0  0  0  0
   -2.3722   -0.9472    0.0000 C   0  0  0  0  0  0  0  0  0  0  0  0
   -1.5685   -1.1180    0.0000 C   0  0  0  0  0  0  0  0  0  0  0  0
   -1.3145   -1.8995    0.0000 N   0  0  0  0  0  0  0  0  0  0  0  0
   -1.0187   -0.5074    0.0000 C   0  0  0  0  0  0  0  0  0  0  0  0
   -0.2149   -0.6782    0.0000 N   0  0  0  0  0  0  0  0  0  0  0  0
    0.0390   -1.4597    0.0000 N   0  0  0  0  0  0  0  0  0  0  0  0
    0.3349   -0.0676    0.0000 C   0  0  0  0  0  0  0  0  0  0  0  0
    1.1386   -0.2384    0.0000 C   0  0  0  0  0  0  0  0  0  0  0  0
    1.3925   -1.0199    0.0000 O   0  0  0  0  0  0  0  0  0  0  0  0
    1.6884    0.3722    0.0000 N   0  0  0  0  0  0  0  0  0  0  0  0
    2.4921    0.2014    0.0000 C   0  0  0  0  0  0  0  0  0  0  0  0
    2.7460   -0.5801    0.0000 C   0  0  0  0  0  0  0  0  0  0  0  0
    3.5497   -0.7509    0.0000 C   0  0  0  0  0  0  0  0  0  0  0  0
    4.0995   -0.1403    0.0000 C   0  0  0  0  0  0  0  0  0  0  0  0
    3.8456    0.6411    0.0000 C   0  0  0  0  0  0  0  0  0  0  0  0
    3.0419    0.8120    0.0000 C   0  0  0  0  0  0  0  0  0  0  0  0
    4.9033   -0.3111    0.0000 S   0  0  0  0  0  0  0  0  0  0  0  0
    5.1572   -1.0926    0.0000 O   0  0  0  0  0  0  0  0  0  0  0  0
    5.4531    0.2995    0.0000 O   0  0  0  0  0  0  0  0  0  0  0  0
    6.2568    0.1286    0.0000 N   0  0  0  0  0  0  0  0  0  0  0  0
   -5.5423    1.3207    0.0000 O   0  0  0  0  0  0  0  0  0  0  0  0
   -6.2568    0.9082    0.0000 C   0  0  0  0  0  0  0  0  0  0  0  0
  1  2  2  0      
  2  3  1  0      
  3  4  2  0      
  4  5  1  0      
  5  6  2  0      
  6  1  1  0      
  4  7  1  0      
  7  8  1  0      
  8  9  1  0      
  9  5  1  0      
  9 10  2  0      
  8 11  2  0      
  7 12  1  0      
 12 13  1  0      
 13 14  1  0      
 13 15  2  0      
 15 16  1  0      
 16 17  1  0      
 14 17  2  0      
 16 18  1  0      
 18 19  1  0      
 19 20  2  0      
 19 21  1  0      
 21 22  1  0      
 22 23  2  0      
 23 24  1  0      
 24 25  2  0      
 25 26  1  0      
 26 27  2  0      
 27 22  1  0      
 25 28  1  0      
 28 29  2  0      
 28 30  1  0      
 30 31  1  0      
  1 32  1  0      
 32 33  1  0      
M  END
