MCSJ25_0095.mol
  ChemDraw04192415272D

 44 49  0  0  1  0  0  0  0  0999 V2000
   -0.0988   -0.1044    0.0000 C   0  0  0  0  0  0  0  0  0  0  0  0
   -0.0988   -0.9294    0.0000 C   0  0  0  0  0  0  0  0  0  0  0  0
    0.6157   -1.3419    0.0000 N   0  0  0  0  0  0  0  0  0  0  0  0
    1.3302   -0.9294    0.0000 C   0  0  0  0  0  0  0  0  0  0  0  0
    1.3302   -0.1044    0.0000 C   0  0  0  0  0  0  0  0  0  0  0  0
    0.6157    0.3081    0.0000 C   0  0  0  0  0  0  0  0  0  0  0  0
    0.6157    1.1331    0.0000 O   0  0  0  0  0  0  0  0  0  0  0  0
   -0.8132    0.3081    0.0000 C   0  0  0  0  0  0  0  0  0  0  0  0
   -1.5277   -0.1044    0.0000 C   0  0  0  0  0  0  0  0  0  0  0  0
    2.0896   -0.4267    0.0000 C   0  0  0  0  0  0  0  0  0  0  0  0
    2.6308    0.1960    0.0000 N   0  0  0  0  0  0  0  0  0  0  0  0
    2.2058    0.9031    0.0000 C   0  0  0  0  0  0  0  0  0  0  0  0
    1.4020    0.7174    0.0000 C   0  0  0  0  0  0  0  0  0  0  0  0
    0.9895    1.4319    0.0000 H   0  0  0  0  0  0  0  0  0  0  0  0
    1.8145    1.4319    0.0000 C   0  0  0  0  0  0  0  0  0  0  0  0
    2.0896   -1.2517    0.0000 C   0  0  0  0  0  0  0  0  0  0  0  0
    2.8742   -1.5067    0.0000 C   0  0  0  0  0  0  0  0  0  0  0  0
    3.3592   -0.8392    0.0000 N   0  0  0  0  0  0  0  0  0  0  0  0
    2.8742   -0.1718    0.0000 C   0  0  0  0  0  0  0  0  0  0  0  0
    1.4765   -1.8038    0.0000 C   0  0  0  0  0  0  0  0  0  0  0  0
    1.6480   -2.6107    0.0000 C   0  0  0  0  0  0  0  0  0  0  0  0
    2.4327   -2.8657    0.0000 C   0  0  0  0  0  0  0  0  0  0  0  0
    3.0458   -2.3136    0.0000 C   0  0  0  0  0  0  0  0  0  0  0  0
    3.6711    0.0417    0.0000 O   0  0  0  0  0  0  0  0  0  0  0  0
   -2.2422    0.3081    0.0000 C   0  0  0  0  0  0  0  0  0  0  0  0
   -2.9567   -0.1044    0.0000 C   0  0  0  0  0  0  0  0  0  0  0  0
   -2.9567   -0.9294    0.0000 C   0  0  0  0  0  0  0  0  0  0  0  0
   -2.2422   -1.3419    0.0000 C   0  0  0  0  0  0  0  0  0  0  0  0
   -1.5277   -0.9294    0.0000 C   0  0  0  0  0  0  0  0  0  0  0  0
    2.6395    1.4319    0.0000 C   0  0  0  0  0  0  0  0  0  0  0  0
    3.0520    2.1464    0.0000 C   0  0  0  0  0  0  0  0  0  0  0  0
    2.6395    2.8608    0.0000 C   0  0  0  0  0  0  0  0  0  0  0  0
    1.8145    2.8608    0.0000 C   0  0  0  0  0  0  0  0  0  0  0  0
    1.4020    2.1464    0.0000 C   0  0  0  0  0  0  0  0  0  0  0  0
    0.6157   -2.1669    0.0000 P   0  0  0  0  0  0  0  0  0  0  0  0
   -0.2093   -2.1669    0.0000 O   0  0  0  0  0  0  0  0  0  0  0  0
    3.3453    0.6085    0.0000 C   0  0  0  0  0  0  0  0  0  0  0  0
    0.6157   -2.9919    0.0000 O   0  0  0  0  0  0  0  0  0  0  0  0
    1.3302   -2.5794    0.0000 O   0  0  0  0  0  0  0  0  0  0  0  0
    1.6480   -3.4357    0.0000 Cl  0  0  0  0  0  0  0  0  0  0  0  0
   -0.6218   -1.4525    0.0000 C   0  0  0  0  0  0  0  0  0  0  0  0
    0.0323   -3.5753    0.0000 C   0  0  0  0  0  0  0  0  0  0  0  0
    3.0520    3.5753    0.0000 Br  0  0  0  0  0  0  0  0  0  0  0  0
   -3.6711   -1.3419    0.0000 Br  0  0  0  0  0  0  0  0  0  0  0  0
  1  2  1  0      
  2  3  1  0      
  3  4  1  0      
  5  4  1  6      
  5  6  1  1      
  6  1  1  0      
  6  7  2  0      
  1  8  2  0      
  8  9  1  0      
  5 10  1  0      
 10 11  1  0      
 11 12  1  0      
 12 13  1  0      
 13  5  1  0      
 13 14  1  1      
 13 15  1  6      
 10 16  1  1      
 16 17  2  0      
 17 18  1  0      
 18 19  1  0      
 10 19  1  6      
 16 20  1  0      
 20 21  2  0      
 21 22  1  0      
 22 23  2  0      
 23 17  1  0      
 19 24  2  0      
  9 25  2  0      
 25 26  1  0      
 26 27  2  0      
 27 28  1  0      
 28 29  2  0      
 29  9  1  0      
 15 30  2  0      
 30 31  1  0      
 31 32  2  0      
 32 33  1  0      
 33 34  2  0      
 34 15  1  0      
  3 35  1  0      
 35 36  1  0      
 11 37  1  0      
 35 38  1  0      
 35 39  2  0      
 21 40  1  0      
 36 41  1  0      
 38 42  1  0      
 32 43  1  0      
 27 44  1  0      
M  END
