MCSJ25_0070.mol
  ChemDraw04192414202D

 21 23  0  0  0  0  0  0  0  0999 V2000
   -3.1643    0.1952    0.0000 C   0  0  0  0  0  0  0  0  0  0  0  0
   -3.1643   -0.6298    0.0000 C   0  0  0  0  0  0  0  0  0  0  0  0
   -2.4498   -1.0423    0.0000 C   0  0  0  0  0  0  0  0  0  0  0  0
   -1.7353   -0.6298    0.0000 C   0  0  0  0  0  0  0  0  0  0  0  0
   -1.7353    0.1952    0.0000 C   0  0  0  0  0  0  0  0  0  0  0  0
   -2.4498    0.6077    0.0000 C   0  0  0  0  0  0  0  0  0  0  0  0
   -0.9507   -0.8847    0.0000 N   0  0  0  0  0  0  0  0  0  0  0  0
   -0.4658   -0.2173    0.0000 C   0  0  0  0  0  0  0  0  0  0  0  0
   -0.9507    0.4501    0.0000 C   0  0  0  0  0  0  0  0  0  0  0  0
    0.3592   -0.2173    0.0000 C   0  0  0  0  0  0  0  0  0  0  0  0
    0.7717    0.4972    0.0000 O   0  0  0  0  0  0  0  0  0  0  0  0
    0.7717   -0.9318    0.0000 O   0  0  0  0  0  0  0  0  0  0  0  0
    1.5967   -0.9318    0.0000 C   0  0  0  0  0  0  0  0  0  0  0  0
   -2.4498    1.4327    0.0000 O   0  0  0  0  0  0  0  0  0  0  0  0
   -3.2467    1.6462    0.0000 C   0  0  0  0  0  0  0  0  0  0  0  0
    2.0092   -1.6462    0.0000 C   0  0  0  0  0  0  0  0  0  0  0  0
    2.8342   -1.6462    0.0000 N   0  0  0  0  0  0  0  0  0  0  0  0
    3.2467   -0.9318    0.0000 C   0  0  0  0  0  0  0  0  0  0  0  0
    2.8342   -0.2173    0.0000 C   0  0  0  0  0  0  0  0  0  0  0  0
    2.0092   -0.2173    0.0000 C   0  0  0  0  0  0  0  0  0  0  0  0
    3.2467    0.4972    0.0000 Cl  0  0  0  0  0  0  0  0  0  0  0  0
  1  2  2  0      
  2  3  1  0      
  3  4  2  0      
  4  5  1  0      
  5  6  2  0      
  6  1  1  0      
  4  7  1  0      
  7  8  1  0      
  8  9  2  0      
  9  5  1  0      
  8 10  1  0      
 10 11  2  0      
 10 12  1  0      
 12 13  1  0      
  6 14  1  0      
 14 15  1  0      
 13 16  2  0      
 16 17  1  0      
 17 18  2  0      
 18 19  1  0      
 19 20  2  0      
 20 13  1  0      
 19 21  1  0      
M  END
