MCSJ25_0021.mol
  ChemDraw04192412382D

 25 27  0  0  0  0  0  0  0  0999 V2000
   -0.0315    1.0175    0.0000 C   0  0  0  0  0  0  0  0  0  0  0  0
   -0.0315    0.1958    0.0000 C   0  0  0  0  0  0  0  0  0  0  0  0
    0.6801   -0.2150    0.0000 C   0  0  0  0  0  0  0  0  0  0  0  0
    1.3917    0.1958    0.0000 C   0  0  0  0  0  0  0  0  0  0  0  0
    1.3917    1.0175    0.0000 C   0  0  0  0  0  0  0  0  0  0  0  0
    0.6801    1.4283    0.0000 C   0  0  0  0  0  0  0  0  0  0  0  0
    2.1731   -0.0581    0.0000 N   0  0  0  0  0  0  0  0  0  0  0  0
    2.6561    0.6066    0.0000 C   0  0  0  0  0  0  0  0  0  0  0  0
    2.1731    1.2714    0.0000 C   0  0  0  0  0  0  0  0  0  0  0  0
    2.4270   -0.8396    0.0000 C   0  0  0  0  0  0  0  0  0  0  0  0
    1.8460   -1.4206    0.0000 C   0  0  0  0  0  0  0  0  0  0  0  0
    3.4778    0.6066    0.0000 O   0  0  0  0  0  0  0  0  0  0  0  0
    2.4270    2.0528    0.0000 O   0  0  0  0  0  0  0  0  0  0  0  0
   -0.7431    1.4283    0.0000 C   0  0  0  0  0  0  0  0  0  0  0  0
   -1.4576    1.0158    0.0000 O   0  0  0  0  0  0  0  0  0  0  0  0
   -0.7431    2.2533    0.0000 O   0  0  0  0  0  0  0  0  0  0  0  0
   -2.1720    1.4283    0.0000 N   0  0  0  0  0  0  0  0  0  0  0  0
    1.4762   -2.8008    0.0000 C   0  0  0  0  0  0  0  0  0  0  0  0
    2.0595   -2.2175    0.0000 C   0  0  0  0  0  0  0  0  0  0  0  0
   -2.2583    2.2488    0.0000 C   0  0  0  0  0  0  0  0  0  0  0  0
   -3.0653    2.4203    0.0000 C   0  0  0  0  0  0  0  0  0  0  0  0
   -3.4778    1.7058    0.0000 C   0  0  0  0  0  0  0  0  0  0  0  0
   -2.9257    1.0928    0.0000 C   0  0  0  0  0  0  0  0  0  0  0  0
   -1.6452    2.8008    0.0000 O   0  0  0  0  0  0  0  0  0  0  0  0
   -3.0972    0.2858    0.0000 O   0  0  0  0  0  0  0  0  0  0  0  0
  1  2  2  0      
  2  3  1  0      
  3  4  2  0      
  4  5  1  0      
  5  6  2  0      
  6  1  1  0      
  4  7  1  0      
  7  8  1  0      
  8  9  1  0      
  9  5  1  0      
  7 10  1  0      
 10 11  1  0      
  8 12  2  0      
  9 13  2  0      
  1 14  1  0      
 14 15  1  0      
 14 16  2  0      
 15 17  1  0      
 18 19  1  0      
 19 11  1  0      
 17 20  1  0      
 20 21  1  0      
 21 22  1  0      
 22 23  1  0      
 23 17  1  0      
 20 24  2  0      
 23 25  2  0      
M  END
