Remdesivir
  -OEChem-12162004593D

 77 80  0     1  0  0  0  0  0999 V2000
    0.7186    0.1097   -0.7666 P   0  0  1  0  0  0  0  0  0  0  0  0
   -2.8379    2.0149   -0.7980 O   0  0  0  0  0  0  0  0  0  0  0  0
   -4.6028    3.1073    2.1472 O   0  0  0  0  0  0  0  0  0  0  0  0
   -3.3301    4.7557    0.3676 O   0  0  0  0  0  0  0  0  0  0  0  0
   -0.0764    1.5219   -0.9343 O   0  0  0  0  0  0  0  0  0  0  0  0
   -0.3889   -0.7774    0.0186 O   0  0  0  0  0  0  0  0  0  0  0  0
    1.0570   -0.4658   -2.1188 O   0  0  0  0  0  0  0  0  0  0  0  0
    5.5671    0.7854    0.0445 O   0  0  0  0  0  0  0  0  0  0  0  0
    4.2564   -0.3904    1.5313 O   0  0  0  0  0  0  0  0  0  0  0  0
   -3.9014   -0.5985   -0.5828 N   0  0  0  0  0  0  0  0  0  0  0  0
   -3.3401   -0.3913   -1.7985 N   0  0  0  0  0  0  0  0  0  0  0  0
    1.9784    0.3737    0.2767 N   0  0  0  0  0  0  0  0  0  0  0  0
   -6.0695    2.9373   -1.0400 N   0  0  0  0  0  0  0  0  0  0  0  0
   -3.4518   -2.7805   -2.0953 N   0  0  0  0  0  0  0  0  0  0  0  0
   -4.3078   -4.2694   -0.5126 N   0  0  0  0  0  0  0  0  0  0  0  0
   -3.9598    1.8429    0.1059 C   0  0  2  0  0  0  0  0  0  0  0  0
   -3.5295    2.5821    1.3896 C   0  0  1  0  0  0  0  0  0  0  0  0
   -2.5850    3.6571    0.8879 C   0  0  1  0  0  0  0  0  0  0  0  0
   -1.8790    2.9446   -0.2531 C   0  0  1  0  0  0  0  0  0  0  0  0
   -4.2179    0.3575    0.3466 C   0  0  0  0  0  0  0  0  0  0  0  0
   -0.6555    2.1555    0.1944 C   0  0  0  0  0  0  0  0  0  0  0  0
   -5.1418    2.4560   -0.5361 C   0  0  0  0  0  0  0  0  0  0  0  0
   -4.7681   -0.2807    1.4377 C   0  0  0  0  0  0  0  0  0  0  0  0
   -4.2422   -1.8355   -0.0999 C   0  0  0  0  0  0  0  0  0  0  0  0
   -4.7842   -1.6702    1.1562 C   0  0  0  0  0  0  0  0  0  0  0  0
   -3.9947   -2.9954   -0.9227 C   0  0  0  0  0  0  0  0  0  0  0  0
    3.2285    0.9063   -0.2619 C   0  0  2  0  0  0  0  0  0  0  0  0
   -3.1498   -1.4865   -2.4787 C   0  0  0  0  0  0  0  0  0  0  0  0
    7.9923    0.9026    0.0299 C   0  0  0  0  0  0  0  0  0  0  0  0
    6.7374    0.3342    0.7124 C   0  0  0  0  0  0  0  0  0  0  0  0
    8.0198    0.6129   -1.4875 C   0  0  0  0  0  0  0  0  0  0  0  0
    9.2469    0.4225    0.7855 C   0  0  0  0  0  0  0  0  0  0  0  0
    4.3740    0.3454    0.5599 C   0  0  0  0  0  0  0  0  0  0  0  0
    3.2118    2.4272   -0.1933 C   0  0  0  0  0  0  0  0  0  0  0  0
   -0.1809   -2.0233    0.5458 C   0  0  0  0  0  0  0  0  0  0  0  0
    8.0925   -0.8605   -1.8640 C   0  0  0  0  0  0  0  0  0  0  0  0
   10.5473    1.0069    0.2529 C   0  0  0  0  0  0  0  0  0  0  0  0
    0.7452   -2.8841   -0.0430 C   0  0  0  0  0  0  0  0  0  0  0  0
   -0.8951   -2.4321    1.6719 C   0  0  0  0  0  0  0  0  0  0  0  0
    0.9573   -4.1539    0.4943 C   0  0  0  0  0  0  0  0  0  0  0  0
   -0.6833   -3.7016    2.2094 C   0  0  0  0  0  0  0  0  0  0  0  0
    0.2429   -4.5626    1.6206 C   0  0  0  0  0  0  0  0  0  0  0  0
   -2.9642    1.9036    2.0422 H   0  0  0  0  0  0  0  0  0  0  0  0
   -1.9191    4.0437    1.6648 H   0  0  0  0  0  0  0  0  0  0  0  0
   -1.6048    3.6259   -1.0662 H   0  0  0  0  0  0  0  0  0  0  0  0
   -0.9271    1.4059    0.9431 H   0  0  0  0  0  0  0  0  0  0  0  0
    0.0909    2.8247    0.6336 H   0  0  0  0  0  0  0  0  0  0  0  0
   -4.2202    3.6255    2.8757 H   0  0  0  0  0  0  0  0  0  0  0  0
   -5.1236    0.1960    2.3406 H   0  0  0  0  0  0  0  0  0  0  0  0
   -2.6918    5.3952    0.0082 H   0  0  0  0  0  0  0  0  0  0  0  0
   -5.1510   -2.4561    1.8015 H   0  0  0  0  0  0  0  0  0  0  0  0
    1.7708    0.7949    1.1813 H   0  0  0  0  0  0  0  0  0  0  0  0
    3.3723    0.5621   -1.2919 H   0  0  0  0  0  0  0  0  0  0  0  0
    7.9399    1.9966    0.1238 H   0  0  0  0  0  0  0  0  0  0  0  0
   -2.6946   -1.3865   -3.4777 H   0  0  0  0  0  0  0  0  0  0  0  0
    6.7045    0.6747    1.7549 H   0  0  0  0  0  0  0  0  0  0  0  0
    6.7610   -0.7620    0.7101 H   0  0  0  0  0  0  0  0  0  0  0  0
    8.8686    1.1346   -1.9447 H   0  0  0  0  0  0  0  0  0  0  0  0
    7.1273    1.0459   -1.9560 H   0  0  0  0  0  0  0  0  0  0  0  0
    9.1542    0.7095    1.8408 H   0  0  0  0  0  0  0  0  0  0  0  0
    9.3103   -0.6717    0.7694 H   0  0  0  0  0  0  0  0  0  0  0  0
   -4.7270   -4.4563    0.3921 H   0  0  0  0  0  0  0  0  0  0  0  0
   -4.1231   -5.0683   -1.1097 H   0  0  0  0  0  0  0  0  0  0  0  0
    2.3796    2.8423   -0.7710 H   0  0  0  0  0  0  0  0  0  0  0  0
    4.1351    2.8501   -0.6042 H   0  0  0  0  0  0  0  0  0  0  0  0
    3.1247    2.7840    0.8396 H   0  0  0  0  0  0  0  0  0  0  0  0
    7.2246   -1.4136   -1.4938 H   0  0  0  0  0  0  0  0  0  0  0  0
    8.9988   -1.3317   -1.4733 H   0  0  0  0  0  0  0  0  0  0  0  0
    8.1096   -0.9648   -2.9539 H   0  0  0  0  0  0  0  0  0  0  0  0
   10.7761    0.6329   -0.7491 H   0  0  0  0  0  0  0  0  0  0  0  0
   11.3795    0.7252    0.9063 H   0  0  0  0  0  0  0  0  0  0  0  0
   10.5016    2.0998    0.2157 H   0  0  0  0  0  0  0  0  0  0  0  0
    1.3138   -2.6045   -0.9221 H   0  0  0  0  0  0  0  0  0  0  0  0
   -1.6149   -1.7641    2.1367 H   0  0  0  0  0  0  0  0  0  0  0  0
    1.6773   -4.8251    0.0353 H   0  0  0  0  0  0  0  0  0  0  0  0
   -1.2394   -4.0195    3.0864 H   0  0  0  0  0  0  0  0  0  0  0  0
    0.4075   -5.5513    2.0388 H   0  0  0  0  0  0  0  0  0  0  0  0
  1  5  1  0  0  0  0
  1  6  1  0  0  0  0
  1  7  2  0  0  0  0
  1 12  1  0  0  0  0
  2 16  1  0  0  0  0
  2 19  1  0  0  0  0
  3 17  1  0  0  0  0
  3 48  1  0  0  0  0
  4 18  1  0  0  0  0
  4 50  1  0  0  0  0
  5 21  1  0  0  0  0
  6 35  1  0  0  0  0
  8 30  1  0  0  0  0
  8 33  1  0  0  0  0
  9 33  2  0  0  0  0
 10 11  1  0  0  0  0
 10 20  1  0  0  0  0
 10 24  1  0  0  0  0
 11 28  2  0  0  0  0
 12 27  1  0  0  0  0
 12 52  1  0  0  0  0
 13 22  3  0  0  0  0
 14 26  2  0  0  0  0
 14 28  1  0  0  0  0
 15 26  1  0  0  0  0
 15 62  1  0  0  0  0
 15 63  1  0  0  0  0
 16 17  1  0  0  0  0
 16 20  1  0  0  0  0
 16 22  1  0  0  0  0
 17 18  1  0  0  0  0
 17 43  1  0  0  0  0
 18 19  1  0  0  0  0
 18 44  1  0  0  0  0
 19 21  1  0  0  0  0
 19 45  1  0  0  0  0
 20 23  2  0  0  0  0
 21 46  1  0  0  0  0
 21 47  1  0  0  0  0
 23 25  1  0  0  0  0
 23 49  1  0  0  0  0
 24 25  2  0  0  0  0
 24 26  1  0  0  0  0
 25 51  1  0  0  0  0
 27 33  1  0  0  0  0
 27 34  1  0  0  0  0
 27 53  1  0  0  0  0
 28 55  1  0  0  0  0
 29 30  1  0  0  0  0
 29 31  1  0  0  0  0
 29 32  1  0  0  0  0
 29 54  1  0  0  0  0
 30 56  1  0  0  0  0
 30 57  1  0  0  0  0
 31 36  1  0  0  0  0
 31 58  1  0  0  0  0
 31 59  1  0  0  0  0
 32 37  1  0  0  0  0
 32 60  1  0  0  0  0
 32 61  1  0  0  0  0
 34 64  1  0  0  0  0
 34 65  1  0  0  0  0
 34 66  1  0  0  0  0
 35 38  2  0  0  0  0
 35 39  1  0  0  0  0
 36 67  1  0  0  0  0
 36 68  1  0  0  0  0
 36 69  1  0  0  0  0
 37 70  1  0  0  0  0
 37 71  1  0  0  0  0
 37 72  1  0  0  0  0
 38 40  1  0  0  0  0
 38 73  1  0  0  0  0
 39 41  2  0  0  0  0
 39 74  1  0  0  0  0
 40 42  2  0  0  0  0
 40 75  1  0  0  0  0
 41 42  1  0  0  0  0
 41 76  1  0  0  0  0
 42 77  1  0  0  0  0
M  END
> <PUBCHEM_COMPOUND_CID>
121304016

> <PUBCHEM_CONFORMER_RMSD>
1.4

> <PUBCHEM_CONFORMER_DIVERSEORDER>
1
131
148
102
68
105
12
61
57
10
134
65
42
46
40
82
121
79
3
140
157
104
28
152
23
108
20
98
86
94
153
156
35
69
167
135
129
85
95
151
55
62
113
13
141
143
59
34
114
163
91
87
99
66
142
33
15
7
159
126
75
111
92
64
4
70
76
112
83
96
37
127
80
109
133
161
78
5
93
30
164
101
158
88
138
155
24
51
132
63
77
146
53
14
136
29
103
2
45
115
166
39
147
128
49
125
116
38
58
60
122
119
74
160
123
31
107
84
90
162
27
118
165
18
54
124
8
72
17
11
120
6
106
73
97
137
48
21
130
9
36
56
89
67
47
43
50
44
139
32
150
52
16
22
144
26
100
117
154
41
110
145
71
25
81
149
19

> <PUBCHEM_MMFF94_PARTIAL_CHARGES>
49
1 1.51
10 0.51
11 -0.65
12 -0.9
13 -0.56
14 -0.66
15 -0.85
16 0.66
17 0.28
18 0.28
19 0.28
2 -0.56
20 -0.33
21 0.28
22 0.36
23 -0.15
24 -0.24
25 -0.15
26 0.58
27 0.33
28 0.6
3 -0.68
30 0.28
33 0.66
35 0.08
38 -0.15
39 -0.15
4 -0.68
40 -0.15
41 -0.15
42 -0.15
48 0.4
49 0.15
5 -0.55
50 0.4
51 0.15
52 0.36
55 0.06
6 -0.35
62 0.4
63 0.4
7 -0.7
73 0.15
74 0.15
75 0.15
76 0.15
77 0.15
8 -0.43
9 -0.57

> <PUBCHEM_EFFECTIVE_ROTOR_COUNT>
15

> <PUBCHEM_PHARMACOPHORE_FEATURES>
17
1 13 acceptor
1 15 donor
1 2 acceptor
1 3 acceptor
1 3 donor
1 36 hydrophobe
1 37 hydrophobe
1 4 acceptor
1 4 donor
1 7 acceptor
1 9 acceptor
3 11 14 28 cation
3 14 15 26 cation
5 10 20 23 24 25 rings
5 2 16 17 18 19 rings
6 10 11 14 24 26 28 rings
6 35 38 39 40 41 42 rings

> <PUBCHEM_HEAVY_ATOM_COUNT>
42

> <PUBCHEM_ATOM_DEF_STEREO_COUNT>
6

> <PUBCHEM_ATOM_UDEF_STEREO_COUNT>
0

> <PUBCHEM_BOND_DEF_STEREO_COUNT>
0

> <PUBCHEM_BOND_UDEF_STEREO_COUNT>
0

> <PUBCHEM_ISOTOPIC_ATOM_COUNT>
0

> <PUBCHEM_COMPONENT_COUNT>
1

> <PUBCHEM_CACTVS_TAUTO_COUNT>
6

> <PUBCHEM_CONFORMER_ID>
073AF3D000000001

> <PUBCHEM_MMFF94_ENERGY>
79.8902

> <PUBCHEM_FEATURE_SELFOVERLAP>
86.519

> <PUBCHEM_SHAPE_FINGERPRINT>
10462385 53 18130797772172989646
11007060 377 18412270515157351184
11136131 41 18041837291239182498
12104220 1 18336543919146523426
14279260 333 18411414017021590766
14340393 34 17560815298998090150
14725015 67 18192713565244690411
14856354 85 18340771562630212415
15021287 119 16732704978280635668
15183329 4 17968365854101714058
15361156 5 18197782305437820108
16112460 7 18259698978925978506
19304152 47 18116165388998083889
19311894 1 18126840732096951383
20775438 99 16324815043663056839
3383291 50 18335982077690784482
469060 322 18190202194819114153
9896288 288 18341625785044793457

> <PUBCHEM_SHAPE_MULTIPOLES>
791.35
21.13
5.68
1.86
70.33
2.12
0.38
-9.39
1.8
-9.67
-1.84
-0.97
1
-1.21

> <PUBCHEM_SHAPE_SELFOVERLAP>
1654.563

> <PUBCHEM_SHAPE_VOLUME>
449.9

> <PUBCHEM_COORDINATE_TYPE>
2
5
10

$$$$
121304016
  -OEChem-12162004593D

 77 80  0     1  0  0  0  0  0999 V2000
    2.6353    1.1958    0.4541 P   0  0  1  0  0  0  0  0  0  0  0  0
   -1.1366   -0.5159   -0.8148 O   0  0  0  0  0  0  0  0  0  0  0  0
   -3.4637    1.1600   -2.9964 O   0  0  0  0  0  0  0  0  0  0  0  0
   -1.6079   -0.6915   -3.7914 O   0  0  0  0  0  0  0  0  0  0  0  0
    1.4978    0.3209   -0.3174 O   0  0  0  0  0  0  0  0  0  0  0  0
    3.7142    1.4185   -0.7361 O   0  0  0  0  0  0  0  0  0  0  0  0
    2.0523    2.4963    0.9470 O   0  0  0  0  0  0  0  0  0  0  0  0
    2.3501   -3.2661    1.3256 O   0  0  0  0  0  0  0  0  0  0  0  0
    1.2691   -1.4322    2.2084 O   0  0  0  0  0  0  0  0  0  0  0  0
   -4.1745    1.3277    0.3377 N   0  0  0  0  0  0  0  0  0  0  0  0
   -5.1292    1.3538   -0.6233 N   0  0  0  0  0  0  0  0  0  0  0  0
    3.3354    0.2073    1.5845 N   0  0  0  0  0  0  0  0  0  0  0  0
   -4.0796   -1.9819   -1.5514 N   0  0  0  0  0  0  0  0  0  0  0  0
   -6.4772    2.5800    0.9541 N   0  0  0  0  0  0  0  0  0  0  0  0
   -5.7906    3.1562    3.1108 N   0  0  0  0  0  0  0  0  0  0  0  0
   -2.4636    0.0346   -1.0183 C   0  0  2  0  0  0  0  0  0  0  0  0
   -2.2966    0.9952   -2.2136 C   0  0  1  0  0  0  0  0  0  0  0  0
   -1.1442    0.3986   -2.9981 C   0  0  1  0  0  0  0  0  0  0  0  0
   -0.2528   -0.1321   -1.8883 C   0  0  1  0  0  0  0  0  0  0  0  0
   -2.9347    0.7512    0.2448 C   0  0  0  0  0  0  0  0  0  0  0  0
    0.7228    0.9065   -1.3503 C   0  0  0  0  0  0  0  0  0  0  0  0
   -3.3690   -1.0952   -1.3169 C   0  0  0  0  0  0  0  0  0  0  0  0
   -2.2842    0.9542    1.4432 C   0  0  0  0  0  0  0  0  0  0  0  0
   -4.3228    1.8947    1.5771 C   0  0  0  0  0  0  0  0  0  0  0  0
   -3.1625    1.6786    2.2882 C   0  0  0  0  0  0  0  0  0  0  0  0
   -5.5631    2.5622    1.8923 C   0  0  0  0  0  0  0  0  0  0  0  0
    3.5065   -1.2079    1.2615 C   0  0  2  0  0  0  0  0  0  0  0  0
   -6.2167    1.9740   -0.2615 C   0  0  0  0  0  0  0  0  0  0  0  0
    0.2397   -4.1040    0.4658 C   0  0  0  0  0  0  0  0  0  0  0  0
    1.2309   -4.0831    1.6406 C   0  0  0  0  0  0  0  0  0  0  0  0
   -1.0730   -4.8401    0.8156 C   0  0  0  0  0  0  0  0  0  0  0  0
    0.9485   -4.6440   -0.7916 C   0  0  0  0  0  0  0  0  0  0  0  0
    2.2414   -1.9413    1.6659 C   0  0  0  0  0  0  0  0  0  0  0  0
    4.7119   -1.7638    2.0072 C   0  0  0  0  0  0  0  0  0  0  0  0
    4.9554    1.9765   -0.5894 C   0  0  0  0  0  0  0  0  0  0  0  0
   -0.9201   -6.3220    1.1294 C   0  0  0  0  0  0  0  0  0  0  0  0
    0.0851   -4.6165   -2.0446 C   0  0  0  0  0  0  0  0  0  0  0  0
    5.1767    2.9352    0.3993 C   0  0  0  0  0  0  0  0  0  0  0  0
    5.9989    1.5866   -1.4287 C   0  0  0  0  0  0  0  0  0  0  0  0
    6.4417    3.5039    0.5489 C   0  0  0  0  0  0  0  0  0  0  0  0
    7.2637    2.1551   -1.2793 C   0  0  0  0  0  0  0  0  0  0  0  0
    7.4852    3.1138   -0.2906 C   0  0  0  0  0  0  0  0  0  0  0  0
   -1.9992    1.9882   -1.8513 H   0  0  0  0  0  0  0  0  0  0  0  0
   -0.6603    1.1161   -3.6671 H   0  0  0  0  0  0  0  0  0  0  0  0
    0.2929   -1.0348   -2.1844 H   0  0  0  0  0  0  0  0  0  0  0  0
    0.1945    1.7665   -0.9271 H   0  0  0  0  0  0  0  0  0  0  0  0
    1.3898    1.2548   -2.1450 H   0  0  0  0  0  0  0  0  0  0  0  0
   -3.2257    1.7071   -3.7641 H   0  0  0  0  0  0  0  0  0  0  0  0
   -1.2851    0.6209    1.6885 H   0  0  0  0  0  0  0  0  0  0  0  0
   -0.8326   -1.0827   -4.2290 H   0  0  0  0  0  0  0  0  0  0  0  0
   -2.9641    2.0031    3.3002 H   0  0  0  0  0  0  0  0  0  0  0  0
    4.1706    0.5728    2.0399 H   0  0  0  0  0  0  0  0  0  0  0  0
    3.6598   -1.3298    0.1834 H   0  0  0  0  0  0  0  0  0  0  0  0
   -0.0329   -3.0622    0.2469 H   0  0  0  0  0  0  0  0  0  0  0  0
   -7.0338    2.0309   -0.9994 H   0  0  0  0  0  0  0  0  0  0  0  0
    1.6194   -5.0891    1.8333 H   0  0  0  0  0  0  0  0  0  0  0  0
    0.7446   -3.7555    2.5675 H   0  0  0  0  0  0  0  0  0  0  0  0
   -1.7936   -4.7212   -0.0016 H   0  0  0  0  0  0  0  0  0  0  0  0
   -1.5263   -4.3488    1.6860 H   0  0  0  0  0  0  0  0  0  0  0  0
    1.8397   -4.0384   -0.9976 H   0  0  0  0  0  0  0  0  0  0  0  0
    1.3048   -5.6668   -0.6223 H   0  0  0  0  0  0  0  0  0  0  0  0
   -5.0955    3.1535    3.8496 H   0  0  0  0  0  0  0  0  0  0  0  0
   -6.6712    3.6197    3.3074 H   0  0  0  0  0  0  0  0  0  0  0  0
    5.6244   -1.2143    1.7500 H   0  0  0  0  0  0  0  0  0  0  0  0
    4.8816   -2.8160    1.7536 H   0  0  0  0  0  0  0  0  0  0  0  0
    4.5734   -1.7099    3.0934 H   0  0  0  0  0  0  0  0  0  0  0  0
   -0.2644   -6.4857    1.9893 H   0  0  0  0  0  0  0  0  0  0  0  0
   -0.5188   -6.8744    0.2750 H   0  0  0  0  0  0  0  0  0  0  0  0
   -1.8970   -6.7529    1.3724 H   0  0  0  0  0  0  0  0  0  0  0  0
   -0.7456   -5.3247   -1.9761 H   0  0  0  0  0  0  0  0  0  0  0  0
    0.6832   -4.8954   -2.9183 H   0  0  0  0  0  0  0  0  0  0  0  0
   -0.3235   -3.6164   -2.2199 H   0  0  0  0  0  0  0  0  0  0  0  0
    4.3896    3.2681    1.0655 H   0  0  0  0  0  0  0  0  0  0  0  0
    5.8320    0.8398   -2.2001 H   0  0  0  0  0  0  0  0  0  0  0  0
    6.6142    4.2514    1.3177 H   0  0  0  0  0  0  0  0  0  0  0  0
    8.0763    1.8513   -1.9328 H   0  0  0  0  0  0  0  0  0  0  0  0
    8.4700    3.5566   -0.1745 H   0  0  0  0  0  0  0  0  0  0  0  0
  1  5  1  0  0  0  0
  1  6  1  0  0  0  0
  1  7  2  0  0  0  0
  1 12  1  0  0  0  0
  2 16  1  0  0  0  0
  2 19  1  0  0  0  0
  3 17  1  0  0  0  0
  3 48  1  0  0  0  0
  4 18  1  0  0  0  0
  4 50  1  0  0  0  0
  5 21  1  0  0  0  0
  6 35  1  0  0  0  0
  8 30  1  0  0  0  0
  8 33  1  0  0  0  0
  9 33  2  0  0  0  0
 10 11  1  0  0  0  0
 10 20  1  0  0  0  0
 10 24  1  0  0  0  0
 11 28  2  0  0  0  0
 12 27  1  0  0  0  0
 12 52  1  0  0  0  0
 13 22  3  0  0  0  0
 14 26  2  0  0  0  0
 14 28  1  0  0  0  0
 15 26  1  0  0  0  0
 15 62  1  0  0  0  0
 15 63  1  0  0  0  0
 16 17  1  0  0  0  0
 16 20  1  0  0  0  0
 16 22  1  0  0  0  0
 17 18  1  0  0  0  0
 17 43  1  0  0  0  0
 18 19  1  0  0  0  0
 18 44  1  0  0  0  0
 19 21  1  0  0  0  0
 19 45  1  0  0  0  0
 20 23  2  0  0  0  0
 21 46  1  0  0  0  0
 21 47  1  0  0  0  0
 23 25  1  0  0  0  0
 23 49  1  0  0  0  0
 24 25  2  0  0  0  0
 24 26  1  0  0  0  0
 25 51  1  0  0  0  0
 27 33  1  0  0  0  0
 27 34  1  0  0  0  0
 27 53  1  0  0  0  0
 28 55  1  0  0  0  0
 29 30  1  0  0  0  0
 29 31  1  0  0  0  0
 29 32  1  0  0  0  0
 29 54  1  0  0  0  0
 30 56  1  0  0  0  0
 30 57  1  0  0  0  0
 31 36  1  0  0  0  0
 31 58  1  0  0  0  0
 31 59  1  0  0  0  0
 32 37  1  0  0  0  0
 32 60  1  0  0  0  0
 32 61  1  0  0  0  0
 34 64  1  0  0  0  0
 34 65  1  0  0  0  0
 34 66  1  0  0  0  0
 35 38  2  0  0  0  0
 35 39  1  0  0  0  0
 36 67  1  0  0  0  0
 36 68  1  0  0  0  0
 36 69  1  0  0  0  0
 37 70  1  0  0  0  0
 37 71  1  0  0  0  0
 37 72  1  0  0  0  0
 38 40  1  0  0  0  0
 38 73  1  0  0  0  0
 39 41  2  0  0  0  0
 39 74  1  0  0  0  0
 40 42  2  0  0  0  0
 40 75  1  0  0  0  0
 41 42  1  0  0  0  0
 41 76  1  0  0  0  0
 42 77  1  0  0  0  0
M  END
> <PUBCHEM_COMPOUND_CID>
121304016

> <PUBCHEM_CONFORMER_RMSD>
1.4

> <PUBCHEM_CONFORMER_DIVERSEORDER>
1
131
148
102
68
105
12
61
57
10
134
65
42
46
40
82
121
79
3
140
157
104
28
152
23
108
20
98
86
94
153
156
35
69
167
135
129
85
95
151
55
62
113
13
141
143
59
34
114
163
91
87
99
66
142
33
15
7
159
126
75
111
92
64
4
70
76
112
83
96
37
127
80
109
133
161
78
5
93
30
164
101
158
88
138
155
24
51
132
63
77
146
53
14
136
29
103
2
45
115
166
39
147
128
49
125
116
38
58
60
122
119
74
160
123
31
107
84
90
162
27
118
165
18
54
124
8
72
17
11
120
6
106
73
97
137
48
21
130
9
36
56
89
67
47
43
50
44
139
32
150
52
16
22
144
26
100
117
154
41
110
145
71
25
81
149
19

> <PUBCHEM_MMFF94_PARTIAL_CHARGES>
49
1 1.51
10 0.51
11 -0.65
12 -0.9
13 -0.56
14 -0.66
15 -0.85
16 0.66
17 0.28
18 0.28
19 0.28
2 -0.56
20 -0.33
21 0.28
22 0.36
23 -0.15
24 -0.24
25 -0.15
26 0.58
27 0.33
28 0.6
3 -0.68
30 0.28
33 0.66
35 0.08
38 -0.15
39 -0.15
4 -0.68
40 -0.15
41 -0.15
42 -0.15
48 0.4
49 0.15
5 -0.55
50 0.4
51 0.15
52 0.36
55 0.06
6 -0.35
62 0.4
63 0.4
7 -0.7
73 0.15
74 0.15
75 0.15
76 0.15
77 0.15
8 -0.43
9 -0.57

> <PUBCHEM_EFFECTIVE_ROTOR_COUNT>
15

> <PUBCHEM_PHARMACOPHORE_FEATURES>
17
1 13 acceptor
1 15 donor
1 2 acceptor
1 3 acceptor
1 3 donor
1 36 hydrophobe
1 37 hydrophobe
1 4 acceptor
1 4 donor
1 7 acceptor
1 9 acceptor
3 11 14 28 cation
3 14 15 26 cation
5 10 20 23 24 25 rings
5 2 16 17 18 19 rings
6 10 11 14 24 26 28 rings
6 35 38 39 40 41 42 rings

> <PUBCHEM_HEAVY_ATOM_COUNT>
42

> <PUBCHEM_ATOM_DEF_STEREO_COUNT>
6

> <PUBCHEM_ATOM_UDEF_STEREO_COUNT>
0

> <PUBCHEM_BOND_DEF_STEREO_COUNT>
0

> <PUBCHEM_BOND_UDEF_STEREO_COUNT>
0

> <PUBCHEM_ISOTOPIC_ATOM_COUNT>
0

> <PUBCHEM_COMPONENT_COUNT>
1

> <PUBCHEM_CACTVS_TAUTO_COUNT>
6

> <PUBCHEM_CONFORMER_ID>
073AF3D00000000A

> <PUBCHEM_MMFF94_ENERGY>
82.2066

> <PUBCHEM_FEATURE_SELFOVERLAP>
86.519

> <PUBCHEM_SHAPE_FINGERPRINT>
1200032 147 17488485004200548313
12758862 11 15626226832315864328
12788726 201 18056466481945072759
13636023 51 17458354004801350864
14068700 675 17539976499344391814
14347329 18 16988849353896286345
15392192 104 18334022675176865129
15781502 589 18125161532954621073
16112460 7 18335414703720302170
17913733 40 18113334224287743952
19053607 189 17201928020554495601
19311894 1 18192428787364425140
19319366 153 18341614767884252968
21772528 278 18336554910136756140
21796203 349 17971745572356853002
23559900 14 15622854419684000805
27425 322 18343311391894161916
4058900 60 18412833468830590001
50150288 127 18059575857957851939
563151 74 18260842474839293617
59755656 520 18336551611892113804
9896288 288 18267593587681356947

> <PUBCHEM_SHAPE_MULTIPOLES>
791.35
15.38
7.03
3.02
12.54
13.53
1.23
-24.99
-2.52
0.33
-2.8
-2.83
-0.11
-4.11

> <PUBCHEM_SHAPE_SELFOVERLAP>
1655.815

> <PUBCHEM_SHAPE_VOLUME>
448.8

> <PUBCHEM_COORDINATE_TYPE>
2
5
10

$$$$
121304016
  -OEChem-12162004593D

 77 80  0     1  0  0  0  0  0999 V2000
    1.3738   -1.4314   -0.6599 P   0  0  1  0  0  0  0  0  0  0  0  0
   -1.9317    1.6185   -0.8712 O   0  0  0  0  0  0  0  0  0  0  0  0
   -2.3892    4.1433    1.6585 O   0  0  0  0  0  0  0  0  0  0  0  0
   -0.7991    4.3992   -0.5574 O   0  0  0  0  0  0  0  0  0  0  0  0
    0.5650   -0.0677   -1.0351 O   0  0  0  0  0  0  0  0  0  0  0  0
    0.4007   -2.0668    0.4713 O   0  0  0  0  0  0  0  0  0  0  0  0
    1.4960   -2.3196   -1.8724 O   0  0  0  0  0  0  0  0  0  0  0  0
    6.2907   -0.7732   -0.7746 O   0  0  0  0  0  0  0  0  0  0  0  0
    5.2259   -1.5172    1.1290 O   0  0  0  0  0  0  0  0  0  0  0  0
   -4.5633    0.4407    0.0285 N   0  0  0  0  0  0  0  0  0  0  0  0
   -4.7089    0.4102   -1.3182 N   0  0  0  0  0  0  0  0  0  0  0  0
    2.7814   -0.9798    0.0884 N   0  0  0  0  0  0  0  0  0  0  0  0
   -4.2748    4.0013   -1.3018 N   0  0  0  0  0  0  0  0  0  0  0  0
   -6.3318   -1.3346   -0.9570 N   0  0  0  0  0  0  0  0  0  0  0  0
   -6.9357   -2.1627    1.1416 N   0  0  0  0  0  0  0  0  0  0  0  0
   -2.8168    2.2811    0.0683 C   0  0  2  0  0  0  0  0  0  0  0  0
   -1.8637    2.9708    1.0660 C   0  0  1  0  0  0  0  0  0  0  0  0
   -0.6153    3.2368    0.2474 C   0  0  1  0  0  0  0  0  0  0  0  0
   -0.5615    2.0104   -0.6474 C   0  0  1  0  0  0  0  0  0  0  0  0
   -3.7274    1.2582    0.7434 C   0  0  0  0  0  0  0  0  0  0  0  0
    0.1703    0.8341   -0.0145 C   0  0  0  0  0  0  0  0  0  0  0  0
   -3.6337    3.2449   -0.6994 C   0  0  0  0  0  0  0  0  0  0  0  0
   -3.8911    0.9637    2.0802 C   0  0  0  0  0  0  0  0  0  0  0  0
   -5.2566   -0.3695    0.8901 C   0  0  0  0  0  0  0  0  0  0  0  0
   -4.8597   -0.0674    2.1746 C   0  0  0  0  0  0  0  0  0  0  0  0
   -6.2009   -1.3160    0.3462 C   0  0  0  0  0  0  0  0  0  0  0  0
    3.9332   -0.6367   -0.7437 C   0  0  2  0  0  0  0  0  0  0  0  0
   -5.5785   -0.4691   -1.7291 C   0  0  0  0  0  0  0  0  0  0  0  0
    8.1094    0.1000    0.5765 C   0  0  0  0  0  0  0  0  0  0  0  0
    7.5501   -1.1008   -0.2036 C   0  0  0  0  0  0  0  0  0  0  0  0
    8.1557    1.3871   -0.2771 C   0  0  0  0  0  0  0  0  0  0  0  0
    9.4611   -0.2856    1.2083 C   0  0  0  0  0  0  0  0  0  0  0  0
    5.1918   -1.0339    0.0047 C   0  0  0  0  0  0  0  0  0  0  0  0
    3.9302    0.8576   -1.0356 C   0  0  0  0  0  0  0  0  0  0  0  0
   -0.8577   -2.5585    0.2518 C   0  0  0  0  0  0  0  0  0  0  0  0
    9.0835    1.3310   -1.4829 C   0  0  0  0  0  0  0  0  0  0  0  0
   10.0613    0.8011    2.0888 C   0  0  0  0  0  0  0  0  0  0  0  0
   -1.4007   -2.5373   -1.0328 C   0  0  0  0  0  0  0  0  0  0  0  0
   -1.5971   -3.0809    1.3129 C   0  0  0  0  0  0  0  0  0  0  0  0
   -2.6831   -3.0385   -1.2565 C   0  0  0  0  0  0  0  0  0  0  0  0
   -2.8794   -3.5821    1.0893 C   0  0  0  0  0  0  0  0  0  0  0  0
   -3.4225   -3.5608   -0.1954 C   0  0  0  0  0  0  0  0  0  0  0  0
   -1.5764    2.2856    1.8727 H   0  0  0  0  0  0  0  0  0  0  0  0
    0.2764    3.3972    0.8604 H   0  0  0  0  0  0  0  0  0  0  0  0
   -0.1311    2.2408   -1.6287 H   0  0  0  0  0  0  0  0  0  0  0  0
   -0.4663    0.3148    0.7073 H   0  0  0  0  0  0  0  0  0  0  0  0
    1.0733    1.1849    0.4934 H   0  0  0  0  0  0  0  0  0  0  0  0
   -1.6793    4.5481    2.1854 H   0  0  0  0  0  0  0  0  0  0  0  0
   -3.3862    1.4325    2.9128 H   0  0  0  0  0  0  0  0  0  0  0  0
   -0.0004    4.5048   -1.1019 H   0  0  0  0  0  0  0  0  0  0  0  0
   -5.2232   -0.5316    3.0808 H   0  0  0  0  0  0  0  0  0  0  0  0
    2.7259   -0.3623    0.8969 H   0  0  0  0  0  0  0  0  0  0  0  0
    3.9131   -1.2170   -1.6725 H   0  0  0  0  0  0  0  0  0  0  0  0
    7.4090    0.3118    1.3965 H   0  0  0  0  0  0  0  0  0  0  0  0
   -5.7438   -0.5447   -2.8165 H   0  0  0  0  0  0  0  0  0  0  0  0
    7.4789   -1.9906    0.4345 H   0  0  0  0  0  0  0  0  0  0  0  0
    8.2195   -1.3745   -1.0263 H   0  0  0  0  0  0  0  0  0  0  0  0
    8.4514    2.2335    0.3536 H   0  0  0  0  0  0  0  0  0  0  0  0
    7.1452    1.6284   -0.6284 H   0  0  0  0  0  0  0  0  0  0  0  0
    9.3184   -1.1810    1.8267 H   0  0  0  0  0  0  0  0  0  0  0  0
   10.1841   -0.5608    0.4317 H   0  0  0  0  0  0  0  0  0  0  0  0
   -6.8471   -2.1648    2.1522 H   0  0  0  0  0  0  0  0  0  0  0  0
   -7.5922   -2.8200    0.7345 H   0  0  0  0  0  0  0  0  0  0  0  0
    3.0111    1.1622   -1.5468 H   0  0  0  0  0  0  0  0  0  0  0  0
    4.7685    1.1329   -1.6847 H   0  0  0  0  0  0  0  0  0  0  0  0
    4.0243    1.4486   -0.1171 H   0  0  0  0  0  0  0  0  0  0  0  0
    8.7811    0.5520   -2.1883 H   0  0  0  0  0  0  0  0  0  0  0  0
   10.1202    1.1496   -1.1858 H   0  0  0  0  0  0  0  0  0  0  0  0
    9.0558    2.2868   -2.0168 H   0  0  0  0  0  0  0  0  0  0  0  0
   10.3695    1.6707    1.5013 H   0  0  0  0  0  0  0  0  0  0  0  0
   10.9505    0.4191    2.6008 H   0  0  0  0  0  0  0  0  0  0  0  0
    9.3474    1.1295    2.8506 H   0  0  0  0  0  0  0  0  0  0  0  0
   -0.8848   -2.1210   -1.8887 H   0  0  0  0  0  0  0  0  0  0  0  0
   -1.1797   -3.0987    2.3159 H   0  0  0  0  0  0  0  0  0  0  0  0
   -3.1098   -3.0156   -2.2551 H   0  0  0  0  0  0  0  0  0  0  0  0
   -3.4562   -3.9871    1.9156 H   0  0  0  0  0  0  0  0  0  0  0  0
   -4.4209   -3.9510   -0.3694 H   0  0  0  0  0  0  0  0  0  0  0  0
  1  5  1  0  0  0  0
  1  6  1  0  0  0  0
  1  7  2  0  0  0  0
  1 12  1  0  0  0  0
  2 16  1  0  0  0  0
  2 19  1  0  0  0  0
  3 17  1  0  0  0  0
  3 48  1  0  0  0  0
  4 18  1  0  0  0  0
  4 50  1  0  0  0  0
  5 21  1  0  0  0  0
  6 35  1  0  0  0  0
  8 30  1  0  0  0  0
  8 33  1  0  0  0  0
  9 33  2  0  0  0  0
 10 11  1  0  0  0  0
 10 20  1  0  0  0  0
 10 24  1  0  0  0  0
 11 28  2  0  0  0  0
 12 27  1  0  0  0  0
 12 52  1  0  0  0  0
 13 22  3  0  0  0  0
 14 26  2  0  0  0  0
 14 28  1  0  0  0  0
 15 26  1  0  0  0  0
 15 62  1  0  0  0  0
 15 63  1  0  0  0  0
 16 17  1  0  0  0  0
 16 20  1  0  0  0  0
 16 22  1  0  0  0  0
 17 18  1  0  0  0  0
 17 43  1  0  0  0  0
 18 19  1  0  0  0  0
 18 44  1  0  0  0  0
 19 21  1  0  0  0  0
 19 45  1  0  0  0  0
 20 23  2  0  0  0  0
 21 46  1  0  0  0  0
 21 47  1  0  0  0  0
 23 25  1  0  0  0  0
 23 49  1  0  0  0  0
 24 25  2  0  0  0  0
 24 26  1  0  0  0  0
 25 51  1  0  0  0  0
 27 33  1  0  0  0  0
 27 34  1  0  0  0  0
 27 53  1  0  0  0  0
 28 55  1  0  0  0  0
 29 30  1  0  0  0  0
 29 31  1  0  0  0  0
 29 32  1  0  0  0  0
 29 54  1  0  0  0  0
 30 56  1  0  0  0  0
 30 57  1  0  0  0  0
 31 36  1  0  0  0  0
 31 58  1  0  0  0  0
 31 59  1  0  0  0  0
 32 37  1  0  0  0  0
 32 60  1  0  0  0  0
 32 61  1  0  0  0  0
 34 64  1  0  0  0  0
 34 65  1  0  0  0  0
 34 66  1  0  0  0  0
 35 38  2  0  0  0  0
 35 39  1  0  0  0  0
 36 67  1  0  0  0  0
 36 68  1  0  0  0  0
 36 69  1  0  0  0  0
 37 70  1  0  0  0  0
 37 71  1  0  0  0  0
 37 72  1  0  0  0  0
 38 40  1  0  0  0  0
 38 73  1  0  0  0  0
 39 41  2  0  0  0  0
 39 74  1  0  0  0  0
 40 42  2  0  0  0  0
 40 75  1  0  0  0  0
 41 42  1  0  0  0  0
 41 76  1  0  0  0  0
 42 77  1  0  0  0  0
M  END
> <PUBCHEM_COMPOUND_CID>
121304016

> <PUBCHEM_CONFORMER_RMSD>
1.4

> <PUBCHEM_CONFORMER_DIVERSEORDER>
1
131
148
102
68
105
12
61
57
10
134
65
42
46
40
82
121
79
3
140
157
104
28
152
23
108
20
98
86
94
153
156
35
69
167
135
129
85
95
151
55
62
113
13
141
143
59
34
114
163
91
87
99
66
142
33
15
7
159
126
75
111
92
64
4
70
76
112
83
96
37
127
80
109
133
161
78
5
93
30
164
101
158
88
138
155
24
51
132
63
77
146
53
14
136
29
103
2
45
115
166
39
147
128
49
125
116
38
58
60
122
119
74
160
123
31
107
84
90
162
27
118
165
18
54
124
8
72
17
11
120
6
106
73
97
137
48
21
130
9
36
56
89
67
47
43
50
44
139
32
150
52
16
22
144
26
100
117
154
41
110
145
71
25
81
149
19

> <PUBCHEM_MMFF94_PARTIAL_CHARGES>
49
1 1.51
10 0.51
11 -0.65
12 -0.9
13 -0.56
14 -0.66
15 -0.85
16 0.66
17 0.28
18 0.28
19 0.28
2 -0.56
20 -0.33
21 0.28
22 0.36
23 -0.15
24 -0.24
25 -0.15
26 0.58
27 0.33
28 0.6
3 -0.68
30 0.28
33 0.66
35 0.08
38 -0.15
39 -0.15
4 -0.68
40 -0.15
41 -0.15
42 -0.15
48 0.4
49 0.15
5 -0.55
50 0.4
51 0.15
52 0.36
55 0.06
6 -0.35
62 0.4
63 0.4
7 -0.7
73 0.15
74 0.15
75 0.15
76 0.15
77 0.15
8 -0.43
9 -0.57

> <PUBCHEM_EFFECTIVE_ROTOR_COUNT>
15

> <PUBCHEM_PHARMACOPHORE_FEATURES>
17
1 13 acceptor
1 15 donor
1 2 acceptor
1 3 acceptor
1 3 donor
1 36 hydrophobe
1 37 hydrophobe
1 4 acceptor
1 4 donor
1 7 acceptor
1 9 acceptor
3 11 14 28 cation
3 14 15 26 cation
5 10 20 23 24 25 rings
5 2 16 17 18 19 rings
6 10 11 14 24 26 28 rings
6 35 38 39 40 41 42 rings

> <PUBCHEM_HEAVY_ATOM_COUNT>
42

> <PUBCHEM_ATOM_DEF_STEREO_COUNT>
6

> <PUBCHEM_ATOM_UDEF_STEREO_COUNT>
0

> <PUBCHEM_BOND_DEF_STEREO_COUNT>
0

> <PUBCHEM_BOND_UDEF_STEREO_COUNT>
0

> <PUBCHEM_ISOTOPIC_ATOM_COUNT>
0

> <PUBCHEM_COMPONENT_COUNT>
1

> <PUBCHEM_CACTVS_TAUTO_COUNT>
6

> <PUBCHEM_CONFORMER_ID>
073AF3D00000000C

> <PUBCHEM_MMFF94_ENERGY>
81.6598

> <PUBCHEM_FEATURE_SELFOVERLAP>
86.519

> <PUBCHEM_SHAPE_FINGERPRINT>
100830 39 18409731755340302898
10369192 42 16487255461204383636
10454371 7 18342181059865211404
10580692 12 18410575051707262762
11007060 377 18335987484790320274
11135609 187 17976818680543174277
11756154 5 18334016133493501067
12104220 1 18413106160583336607
14028597 1 17894344467292145554
14068700 675 18130786802720422641
14394314 77 18338803321358693729
14659021 117 18410013230643814465
14725015 67 18335706070533995467
14856354 85 18341335577619465711
15021287 119 17386012784271464012
15264996 163 18411411818525440479
15276724 80 18411699902813306118
15328829 1 17676481740623325618
18336668 15 18186525427613876183
18603816 31 13695872570676395378
18608769 82 18342735235237409178
20766409 102 18193282017194227564
21026386 80 14562534025213457238
21796203 349 18048352017675944441
21927370 108 18266178525397590147
25019877 29 17560808731533918727
3383291 50 18408889559118915963
392239 28 18339373972024420217
4403749 210 18335977567452656764
6201320 215 18271518716165938050
7226269 152 18408039606708025791

> <PUBCHEM_SHAPE_MULTIPOLES>
791.35
24.15
4.92
1.72
73.22
2.5
0.39
-0.2
5.34
-7.7
-0.07
-0.27
0.08
0.1

> <PUBCHEM_SHAPE_SELFOVERLAP>
1656.16

> <PUBCHEM_SHAPE_VOLUME>
449.4

> <PUBCHEM_COORDINATE_TYPE>
2
5
10

$$$$
121304016
  -OEChem-12162004593D

 77 80  0     1  0  0  0  0  0999 V2000
    1.8600    1.0306   -0.0385 P   0  0  1  0  0  0  0  0  0  0  0  0
   -2.4393    1.3598   -0.5027 O   0  0  0  0  0  0  0  0  0  0  0  0
   -4.9071    1.4816    2.1200 O   0  0  0  0  0  0  0  0  0  0  0  0
   -3.2294    3.5358    1.4348 O   0  0  0  0  0  0  0  0  0  0  0  0
    0.2674    0.7030   -0.1420 O   0  0  0  0  0  0  0  0  0  0  0  0
    1.8366    2.6486    0.0690 O   0  0  0  0  0  0  0  0  0  0  0  0
    2.4498    0.3851    1.1902 O   0  0  0  0  0  0  0  0  0  0  0  0
    4.5156   -2.2059   -0.7452 O   0  0  0  0  0  0  0  0  0  0  0  0
    5.2244   -0.0673   -1.2301 O   0  0  0  0  0  0  0  0  0  0  0  0
   -5.2539   -1.0671   -0.1237 N   0  0  0  0  0  0  0  0  0  0  0  0
   -6.3026   -0.5077    0.5267 N   0  0  0  0  0  0  0  0  0  0  0  0
    2.5403    0.6366   -1.4969 N   0  0  0  0  0  0  0  0  0  0  0  0
   -5.5056    2.5933   -1.1580 N   0  0  0  0  0  0  0  0  0  0  0  0
   -7.4210   -2.6234    0.2402 N   0  0  0  0  0  0  0  0  0  0  0  0
   -6.4858   -4.4774   -0.8288 N   0  0  0  0  0  0  0  0  0  0  0  0
   -3.7547    0.9777   -0.0243 C   0  0  2  0  0  0  0  0  0  0  0  0
   -3.6724    1.1677    1.5044 C   0  0  1  0  0  0  0  0  0  0  0  0
   -2.6368    2.2620    1.6768 C   0  0  1  0  0  0  0  0  0  0  0  0
   -1.6575    1.9437    0.5598 C   0  0  1  0  0  0  0  0  0  0  0  0
   -4.0577   -0.4663   -0.4170 C   0  0  0  0  0  0  0  0  0  0  0  0
   -0.5856    0.9407    0.9655 C   0  0  0  0  0  0  0  0  0  0  0  0
   -4.7357    1.8828   -0.6595 C   0  0  0  0  0  0  0  0  0  0  0  0
   -3.2760   -1.3860   -1.0831 C   0  0  0  0  0  0  0  0  0  0  0  0
   -5.2452   -2.3552   -0.5929 C   0  0  0  0  0  0  0  0  0  0  0  0
   -4.0272   -2.5832   -1.1953 C   0  0  0  0  0  0  0  0  0  0  0  0
   -6.4147   -3.1768   -0.3901 C   0  0  0  0  0  0  0  0  0  0  0  0
    2.9359   -0.7514   -1.7284 C   0  0  2  0  0  0  0  0  0  0  0  0
   -7.3174   -1.3129    0.6697 C   0  0  0  0  0  0  0  0  0  0  0  0
    5.8357   -3.9751    0.2661 C   0  0  0  0  0  0  0  0  0  0  0  0
    5.8018   -2.5201   -0.2290 C   0  0  0  0  0  0  0  0  0  0  0  0
    4.6981   -4.2841    1.2649 C   0  0  0  0  0  0  0  0  0  0  0  0
    7.2454   -4.3018    0.7964 C   0  0  0  0  0  0  0  0  0  0  0  0
    4.3550   -0.9291   -1.2215 C   0  0  0  0  0  0  0  0  0  0  0  0
    2.8523   -1.0692   -3.2151 C   0  0  0  0  0  0  0  0  0  0  0  0
    2.9356    3.4636    0.0302 C   0  0  0  0  0  0  0  0  0  0  0  0
    4.7528   -3.5024    2.5702 C   0  0  0  0  0  0  0  0  0  0  0  0
    7.4214   -5.7517    1.2239 C   0  0  0  0  0  0  0  0  0  0  0  0
    4.1634    3.0021    0.5047 C   0  0  0  0  0  0  0  0  0  0  0  0
    2.8278    4.7557   -0.4838 C   0  0  0  0  0  0  0  0  0  0  0  0
    5.2834    3.8326    0.4652 C   0  0  0  0  0  0  0  0  0  0  0  0
    3.9475    5.5863   -0.5235 C   0  0  0  0  0  0  0  0  0  0  0  0
    5.1754    5.1248   -0.0490 C   0  0  0  0  0  0  0  0  0  0  0  0
   -3.2944    0.2487    1.9716 H   0  0  0  0  0  0  0  0  0  0  0  0
   -2.1951    2.2842    2.6773 H   0  0  0  0  0  0  0  0  0  0  0  0
   -1.1881    2.8436    0.1471 H   0  0  0  0  0  0  0  0  0  0  0  0
   -1.0204   -0.0245    1.2423 H   0  0  0  0  0  0  0  0  0  0  0  0
   -0.0113    1.3173    1.8184 H   0  0  0  0  0  0  0  0  0  0  0  0
   -4.7275    1.6665    3.0575 H   0  0  0  0  0  0  0  0  0  0  0  0
   -2.2725   -1.2201   -1.4501 H   0  0  0  0  0  0  0  0  0  0  0  0
   -2.5237    4.2016    1.5008 H   0  0  0  0  0  0  0  0  0  0  0  0
   -3.7089   -3.5042   -1.6636 H   0  0  0  0  0  0  0  0  0  0  0  0
    2.0684    1.0130   -2.3182 H   0  0  0  0  0  0  0  0  0  0  0  0
    2.2598   -1.4171   -1.1794 H   0  0  0  0  0  0  0  0  0  0  0  0
    5.6474   -4.6150   -0.6077 H   0  0  0  0  0  0  0  0  0  0  0  0
   -8.2044   -0.9180    1.1918 H   0  0  0  0  0  0  0  0  0  0  0  0
    6.5453   -2.3890   -1.0251 H   0  0  0  0  0  0  0  0  0  0  0  0
    6.0474   -1.8299    0.5868 H   0  0  0  0  0  0  0  0  0  0  0  0
    4.6953   -5.3555    1.4968 H   0  0  0  0  0  0  0  0  0  0  0  0
    3.7309   -4.0890    0.7853 H   0  0  0  0  0  0  0  0  0  0  0  0
    7.9771   -4.0909    0.0061 H   0  0  0  0  0  0  0  0  0  0  0  0
    7.5022   -3.6450    1.6357 H   0  0  0  0  0  0  0  0  0  0  0  0
   -5.7173   -4.9236   -1.3182 H   0  0  0  0  0  0  0  0  0  0  0  0
   -7.3193   -5.0342   -0.6734 H   0  0  0  0  0  0  0  0  0  0  0  0
    1.8301   -0.9501   -3.5905 H   0  0  0  0  0  0  0  0  0  0  0  0
    3.1609   -2.1033   -3.4044 H   0  0  0  0  0  0  0  0  0  0  0  0
    3.5129   -0.4221   -3.8039 H   0  0  0  0  0  0  0  0  0  0  0  0
    4.6808   -2.4249    2.3969 H   0  0  0  0  0  0  0  0  0  0  0  0
    5.6738   -3.7060    3.1234 H   0  0  0  0  0  0  0  0  0  0  0  0
    3.9123   -3.7900    3.2105 H   0  0  0  0  0  0  0  0  0  0  0  0
    6.8272   -5.9845    2.1122 H   0  0  0  0  0  0  0  0  0  0  0  0
    8.4705   -5.9442    1.4712 H   0  0  0  0  0  0  0  0  0  0  0  0
    7.1321   -6.4367    0.4208 H   0  0  0  0  0  0  0  0  0  0  0  0
    4.2844    2.0075    0.9177 H   0  0  0  0  0  0  0  0  0  0  0  0
    1.8738    5.1202   -0.8549 H   0  0  0  0  0  0  0  0  0  0  0  0
    6.2393    3.4740    0.8358 H   0  0  0  0  0  0  0  0  0  0  0  0
    3.8635    6.5924   -0.9238 H   0  0  0  0  0  0  0  0  0  0  0  0
    6.0473    5.7717   -0.0796 H   0  0  0  0  0  0  0  0  0  0  0  0
  1  5  1  0  0  0  0
  1  6  1  0  0  0  0
  1  7  2  0  0  0  0
  1 12  1  0  0  0  0
  2 16  1  0  0  0  0
  2 19  1  0  0  0  0
  3 17  1  0  0  0  0
  3 48  1  0  0  0  0
  4 18  1  0  0  0  0
  4 50  1  0  0  0  0
  5 21  1  0  0  0  0
  6 35  1  0  0  0  0
  8 30  1  0  0  0  0
  8 33  1  0  0  0  0
  9 33  2  0  0  0  0
 10 11  1  0  0  0  0
 10 20  1  0  0  0  0
 10 24  1  0  0  0  0
 11 28  2  0  0  0  0
 12 27  1  0  0  0  0
 12 52  1  0  0  0  0
 13 22  3  0  0  0  0
 14 26  2  0  0  0  0
 14 28  1  0  0  0  0
 15 26  1  0  0  0  0
 15 62  1  0  0  0  0
 15 63  1  0  0  0  0
 16 17  1  0  0  0  0
 16 20  1  0  0  0  0
 16 22  1  0  0  0  0
 17 18  1  0  0  0  0
 17 43  1  0  0  0  0
 18 19  1  0  0  0  0
 18 44  1  0  0  0  0
 19 21  1  0  0  0  0
 19 45  1  0  0  0  0
 20 23  2  0  0  0  0
 21 46  1  0  0  0  0
 21 47  1  0  0  0  0
 23 25  1  0  0  0  0
 23 49  1  0  0  0  0
 24 25  2  0  0  0  0
 24 26  1  0  0  0  0
 25 51  1  0  0  0  0
 27 33  1  0  0  0  0
 27 34  1  0  0  0  0
 27 53  1  0  0  0  0
 28 55  1  0  0  0  0
 29 30  1  0  0  0  0
 29 31  1  0  0  0  0
 29 32  1  0  0  0  0
 29 54  1  0  0  0  0
 30 56  1  0  0  0  0
 30 57  1  0  0  0  0
 31 36  1  0  0  0  0
 31 58  1  0  0  0  0
 31 59  1  0  0  0  0
 32 37  1  0  0  0  0
 32 60  1  0  0  0  0
 32 61  1  0  0  0  0
 34 64  1  0  0  0  0
 34 65  1  0  0  0  0
 34 66  1  0  0  0  0
 35 38  2  0  0  0  0
 35 39  1  0  0  0  0
 36 67  1  0  0  0  0
 36 68  1  0  0  0  0
 36 69  1  0  0  0  0
 37 70  1  0  0  0  0
 37 71  1  0  0  0  0
 37 72  1  0  0  0  0
 38 40  1  0  0  0  0
 38 73  1  0  0  0  0
 39 41  2  0  0  0  0
 39 74  1  0  0  0  0
 40 42  2  0  0  0  0
 40 75  1  0  0  0  0
 41 42  1  0  0  0  0
 41 76  1  0  0  0  0
 42 77  1  0  0  0  0
M  END
> <PUBCHEM_COMPOUND_CID>
121304016

> <PUBCHEM_CONFORMER_RMSD>
1.4

> <PUBCHEM_CONFORMER_DIVERSEORDER>
1
131
148
102
68
105
12
61
57
10
134
65
42
46
40
82
121
79
3
140
157
104
28
152
23
108
20
98
86
94
153
156
35
69
167
135
129
85
95
151
55
62
113
13
141
143
59
34
114
163
91
87
99
66
142
33
15
7
159
126
75
111
92
64
4
70
76
112
83
96
37
127
80
109
133
161
78
5
93
30
164
101
158
88
138
155
24
51
132
63
77
146
53
14
136
29
103
2
45
115
166
39
147
128
49
125
116
38
58
60
122
119
74
160
123
31
107
84
90
162
27
118
165
18
54
124
8
72
17
11
120
6
106
73
97
137
48
21
130
9
36
56
89
67
47
43
50
44
139
32
150
52
16
22
144
26
100
117
154
41
110
145
71
25
81
149
19

> <PUBCHEM_MMFF94_PARTIAL_CHARGES>
49
1 1.51
10 0.51
11 -0.65
12 -0.9
13 -0.56
14 -0.66
15 -0.85
16 0.66
17 0.28
18 0.28
19 0.28
2 -0.56
20 -0.33
21 0.28
22 0.36
23 -0.15
24 -0.24
25 -0.15
26 0.58
27 0.33
28 0.6
3 -0.68
30 0.28
33 0.66
35 0.08
38 -0.15
39 -0.15
4 -0.68
40 -0.15
41 -0.15
42 -0.15
48 0.4
49 0.15
5 -0.55
50 0.4
51 0.15
52 0.36
55 0.06
6 -0.35
62 0.4
63 0.4
7 -0.7
73 0.15
74 0.15
75 0.15
76 0.15
77 0.15
8 -0.43
9 -0.57

> <PUBCHEM_EFFECTIVE_ROTOR_COUNT>
15

> <PUBCHEM_PHARMACOPHORE_FEATURES>
17
1 13 acceptor
1 15 donor
1 2 acceptor
1 3 acceptor
1 3 donor
1 36 hydrophobe
1 37 hydrophobe
1 4 acceptor
1 4 donor
1 7 acceptor
1 9 acceptor
3 11 14 28 cation
3 14 15 26 cation
5 10 20 23 24 25 rings
5 2 16 17 18 19 rings
6 10 11 14 24 26 28 rings
6 35 38 39 40 41 42 rings

> <PUBCHEM_HEAVY_ATOM_COUNT>
42

> <PUBCHEM_ATOM_DEF_STEREO_COUNT>
6

> <PUBCHEM_ATOM_UDEF_STEREO_COUNT>
0

> <PUBCHEM_BOND_DEF_STEREO_COUNT>
0

> <PUBCHEM_BOND_UDEF_STEREO_COUNT>
0

> <PUBCHEM_ISOTOPIC_ATOM_COUNT>
0

> <PUBCHEM_COMPONENT_COUNT>
1

> <PUBCHEM_CACTVS_TAUTO_COUNT>
6

> <PUBCHEM_CONFORMER_ID>
073AF3D000000039

> <PUBCHEM_MMFF94_ENERGY>
83.976

> <PUBCHEM_FEATURE_SELFOVERLAP>
86.519

> <PUBCHEM_SHAPE_FINGERPRINT>
10050765 1 18412546522477585485
11135926 11 17985825063083722853
11136131 41 18339356474924580176
11963148 33 18055628675306134983
12977781 61 17969800755134989922
13560911 43 18341901796079687958
14118638 360 18271530917693758901
14150023 79 18263927821042742788
14394314 77 18193558861884248490
15001296 14 18336824311860651691
15347591 1 18410290320322298445
15911013 46 18334582381902670986
17492 89 18412260653458693429
22956985 138 18410285896991182748
23559900 14 18131067121533805305
32027 91 18338511933090802004
3504750 166 17759803638056540082
45266715 3 18114741667521217114
50009960 94 18339631266204067702
5104073 3 17846222150368532721
6058803 2 18270697418796964353

> <PUBCHEM_SHAPE_MULTIPOLES>
791.35
21.68
8.74
1.82
11.2
0.81
0.28
-24.55
-2.53
-18.51
-1.93
-1.07
-0.84
-4.63

> <PUBCHEM_SHAPE_SELFOVERLAP>
1653.918

> <PUBCHEM_SHAPE_VOLUME>
449.6

> <PUBCHEM_COORDINATE_TYPE>
2
5
10

$$$$
121304016
  -OEChem-12162004593D

 77 80  0     1  0  0  0  0  0999 V2000
   -0.5120    0.9333    2.0469 P   0  0  1  0  0  0  0  0  0  0  0  0
   -3.5764   -0.7590    0.1025 O   0  0  0  0  0  0  0  0  0  0  0  0
   -2.2664   -4.0962    0.4629 O   0  0  0  0  0  0  0  0  0  0  0  0
   -4.6819   -3.2361    1.4270 O   0  0  0  0  0  0  0  0  0  0  0  0
   -1.5985   -0.2785    1.9721 O   0  0  0  0  0  0  0  0  0  0  0  0
   -1.0321    1.8897    0.8449 O   0  0  0  0  0  0  0  0  0  0  0  0
   -0.5791    1.6162    3.3898 O   0  0  0  0  0  0  0  0  0  0  0  0
    3.5106   -0.6943    1.0401 O   0  0  0  0  0  0  0  0  0  0  0  0
    4.0382    0.4668    2.9597 O   0  0  0  0  0  0  0  0  0  0  0  0
   -1.5908   -0.0814   -1.7965 N   0  0  0  0  0  0  0  0  0  0  0  0
   -2.5960    0.8269   -1.7861 N   0  0  0  0  0  0  0  0  0  0  0  0
    0.9539    0.3101    1.5908 N   0  0  0  0  0  0  0  0  0  0  0  0
   -4.4199   -3.1295   -2.1384 N   0  0  0  0  0  0  0  0  0  0  0  0
   -1.1254    2.2521   -3.0569 N   0  0  0  0  0  0  0  0  0  0  0  0
    1.0410    1.6700   -3.7074 N   0  0  0  0  0  0  0  0  0  0  0  0
   -2.8212   -1.8589   -0.4677 C   0  0  2  0  0  0  0  0  0  0  0  0
   -2.4271   -2.7200    0.7498 C   0  0  1  0  0  0  0  0  0  0  0  0
   -3.5339   -2.4558    1.7522 C   0  0  1  0  0  0  0  0  0  0  0  0
   -3.8374   -0.9884    1.5025 C   0  0  1  0  0  0  0  0  0  0  0  0
   -1.6062   -1.3262   -1.2233 C   0  0  0  0  0  0  0  0  0  0  0  0
   -2.9557   -0.0447    2.3098 C   0  0  0  0  0  0  0  0  0  0  0  0
   -3.7169   -2.5708   -1.4038 C   0  0  0  0  0  0  0  0  0  0  0  0
   -0.3858   -1.9187   -1.4690 C   0  0  0  0  0  0  0  0  0  0  0  0
   -0.3793    0.1271   -2.4032 C   0  0  0  0  0  0  0  0  0  0  0  0
    0.3924   -0.9990   -2.2164 C   0  0  0  0  0  0  0  0  0  0  0  0
   -0.1452    1.3832   -3.0747 C   0  0  0  0  0  0  0  0  0  0  0  0
    1.7706   -0.3596    2.6014 C   0  0  2  0  0  0  0  0  0  0  0  0
   -2.3066    1.9324   -2.4125 C   0  0  0  0  0  0  0  0  0  0  0  0
    5.0182   -1.2390   -0.7837 C   0  0  0  0  0  0  0  0  0  0  0  0
    4.8507   -0.5617    0.5862 C   0  0  0  0  0  0  0  0  0  0  0  0
    4.5298   -2.7049   -0.7795 C   0  0  0  0  0  0  0  0  0  0  0  0
    6.4702   -1.0603   -1.2682 C   0  0  0  0  0  0  0  0  0  0  0  0
    3.2304   -0.1284    2.2583 C   0  0  0  0  0  0  0  0  0  0  0  0
    1.4511   -1.8481    2.6173 C   0  0  0  0  0  0  0  0  0  0  0  0
   -0.6194    3.1746    0.6164 C   0  0  0  0  0  0  0  0  0  0  0  0
    5.3046   -3.6427    0.1360 C   0  0  0  0  0  0  0  0  0  0  0  0
    6.7252   -1.6096   -2.6645 C   0  0  0  0  0  0  0  0  0  0  0  0
    0.6711    3.5664    0.9726 C   0  0  0  0  0  0  0  0  0  0  0  0
   -1.4892    4.0922    0.0275 C   0  0  0  0  0  0  0  0  0  0  0  0
    1.0917    4.8759    0.7397 C   0  0  0  0  0  0  0  0  0  0  0  0
   -1.0687    5.4015   -0.2054 C   0  0  0  0  0  0  0  0  0  0  0  0
    0.2218    5.7934    0.1508 C   0  0  0  0  0  0  0  0  0  0  0  0
   -1.4695   -2.3918    1.1633 H   0  0  0  0  0  0  0  0  0  0  0  0
   -3.2494   -2.6941    2.7813 H   0  0  0  0  0  0  0  0  0  0  0  0
   -4.8906   -0.7519    1.6882 H   0  0  0  0  0  0  0  0  0  0  0  0
   -3.0862   -0.2010    3.3847 H   0  0  0  0  0  0  0  0  0  0  0  0
   -3.2113    0.9929    2.0705 H   0  0  0  0  0  0  0  0  0  0  0  0
   -2.1154   -4.5555    1.3066 H   0  0  0  0  0  0  0  0  0  0  0  0
   -0.0818   -2.9055   -1.1484 H   0  0  0  0  0  0  0  0  0  0  0  0
   -5.3823   -2.9998    2.0589 H   0  0  0  0  0  0  0  0  0  0  0  0
    1.4023   -1.1477   -2.5729 H   0  0  0  0  0  0  0  0  0  0  0  0
    1.0058   -0.1866    0.7026 H   0  0  0  0  0  0  0  0  0  0  0  0
    1.6007    0.0715    3.5939 H   0  0  0  0  0  0  0  0  0  0  0  0
    4.3599   -0.7077   -1.4859 H   0  0  0  0  0  0  0  0  0  0  0  0
   -3.0863    2.7109   -2.4474 H   0  0  0  0  0  0  0  0  0  0  0  0
    5.0907    0.5051    0.4963 H   0  0  0  0  0  0  0  0  0  0  0  0
    5.5321   -1.0061    1.3213 H   0  0  0  0  0  0  0  0  0  0  0  0
    4.5613   -3.1043   -1.7999 H   0  0  0  0  0  0  0  0  0  0  0  0
    3.4719   -2.7342   -0.4900 H   0  0  0  0  0  0  0  0  0  0  0  0
    6.7095    0.0107   -1.2771 H   0  0  0  0  0  0  0  0  0  0  0  0
    7.1704   -1.5256   -0.5646 H   0  0  0  0  0  0  0  0  0  0  0  0
    1.8119    1.0111   -3.7312 H   0  0  0  0  0  0  0  0  0  0  0  0
    1.1807    2.5609   -4.1718 H   0  0  0  0  0  0  0  0  0  0  0  0
    0.4272   -2.0251    2.9632 H   0  0  0  0  0  0  0  0  0  0  0  0
    2.1295   -2.3796    3.2940 H   0  0  0  0  0  0  0  0  0  0  0  0
    1.5547   -2.3095    1.6283 H   0  0  0  0  0  0  0  0  0  0  0  0
    5.2393   -3.3284    1.1816 H   0  0  0  0  0  0  0  0  0  0  0  0
    6.3597   -3.7002   -0.1458 H   0  0  0  0  0  0  0  0  0  0  0  0
    4.8892   -4.6536    0.0692 H   0  0  0  0  0  0  0  0  0  0  0  0
    6.6518   -2.7007   -2.6874 H   0  0  0  0  0  0  0  0  0  0  0  0
    7.7344   -1.3415   -2.9936 H   0  0  0  0  0  0  0  0  0  0  0  0
    6.0132   -1.1965   -3.3859 H   0  0  0  0  0  0  0  0  0  0  0  0
    1.3753    2.8812    1.4300 H   0  0  0  0  0  0  0  0  0  0  0  0
   -2.5017    3.8002   -0.2348 H   0  0  0  0  0  0  0  0  0  0  0  0
    2.0966    5.1812    1.0165 H   0  0  0  0  0  0  0  0  0  0  0  0
   -1.7475    6.1170   -0.6602 H   0  0  0  0  0  0  0  0  0  0  0  0
    0.5489    6.8132   -0.0298 H   0  0  0  0  0  0  0  0  0  0  0  0
  1  5  1  0  0  0  0
  1  6  1  0  0  0  0
  1  7  2  0  0  0  0
  1 12  1  0  0  0  0
  2 16  1  0  0  0  0
  2 19  1  0  0  0  0
  3 17  1  0  0  0  0
  3 48  1  0  0  0  0
  4 18  1  0  0  0  0
  4 50  1  0  0  0  0
  5 21  1  0  0  0  0
  6 35  1  0  0  0  0
  8 30  1  0  0  0  0
  8 33  1  0  0  0  0
  9 33  2  0  0  0  0
 10 11  1  0  0  0  0
 10 20  1  0  0  0  0
 10 24  1  0  0  0  0
 11 28  2  0  0  0  0
 12 27  1  0  0  0  0
 12 52  1  0  0  0  0
 13 22  3  0  0  0  0
 14 26  2  0  0  0  0
 14 28  1  0  0  0  0
 15 26  1  0  0  0  0
 15 62  1  0  0  0  0
 15 63  1  0  0  0  0
 16 17  1  0  0  0  0
 16 20  1  0  0  0  0
 16 22  1  0  0  0  0
 17 18  1  0  0  0  0
 17 43  1  0  0  0  0
 18 19  1  0  0  0  0
 18 44  1  0  0  0  0
 19 21  1  0  0  0  0
 19 45  1  0  0  0  0
 20 23  2  0  0  0  0
 21 46  1  0  0  0  0
 21 47  1  0  0  0  0
 23 25  1  0  0  0  0
 23 49  1  0  0  0  0
 24 25  2  0  0  0  0
 24 26  1  0  0  0  0
 25 51  1  0  0  0  0
 27 33  1  0  0  0  0
 27 34  1  0  0  0  0
 27 53  1  0  0  0  0
 28 55  1  0  0  0  0
 29 30  1  0  0  0  0
 29 31  1  0  0  0  0
 29 32  1  0  0  0  0
 29 54  1  0  0  0  0
 30 56  1  0  0  0  0
 30 57  1  0  0  0  0
 31 36  1  0  0  0  0
 31 58  1  0  0  0  0
 31 59  1  0  0  0  0
 32 37  1  0  0  0  0
 32 60  1  0  0  0  0
 32 61  1  0  0  0  0
 34 64  1  0  0  0  0
 34 65  1  0  0  0  0
 34 66  1  0  0  0  0
 35 38  2  0  0  0  0
 35 39  1  0  0  0  0
 36 67  1  0  0  0  0
 36 68  1  0  0  0  0
 36 69  1  0  0  0  0
 37 70  1  0  0  0  0
 37 71  1  0  0  0  0
 37 72  1  0  0  0  0
 38 40  1  0  0  0  0
 38 73  1  0  0  0  0
 39 41  2  0  0  0  0
 39 74  1  0  0  0  0
 40 42  2  0  0  0  0
 40 75  1  0  0  0  0
 41 42  1  0  0  0  0
 41 76  1  0  0  0  0
 42 77  1  0  0  0  0
M  END
> <PUBCHEM_COMPOUND_CID>
121304016

> <PUBCHEM_CONFORMER_RMSD>
1.4

> <PUBCHEM_CONFORMER_DIVERSEORDER>
1
131
148
102
68
105
12
61
57
10
134
65
42
46
40
82
121
79
3
140
157
104
28
152
23
108
20
98
86
94
153
156
35
69
167
135
129
85
95
151
55
62
113
13
141
143
59
34
114
163
91
87
99
66
142
33
15
7
159
126
75
111
92
64
4
70
76
112
83
96
37
127
80
109
133
161
78
5
93
30
164
101
158
88
138
155
24
51
132
63
77
146
53
14
136
29
103
2
45
115
166
39
147
128
49
125
116
38
58
60
122
119
74
160
123
31
107
84
90
162
27
118
165
18
54
124
8
72
17
11
120
6
106
73
97
137
48
21
130
9
36
56
89
67
47
43
50
44
139
32
150
52
16
22
144
26
100
117
154
41
110
145
71
25
81
149
19

> <PUBCHEM_MMFF94_PARTIAL_CHARGES>
49
1 1.51
10 0.51
11 -0.65
12 -0.9
13 -0.56
14 -0.66
15 -0.85
16 0.66
17 0.28
18 0.28
19 0.28
2 -0.56
20 -0.33
21 0.28
22 0.36
23 -0.15
24 -0.24
25 -0.15
26 0.58
27 0.33
28 0.6
3 -0.68
30 0.28
33 0.66
35 0.08
38 -0.15
39 -0.15
4 -0.68
40 -0.15
41 -0.15
42 -0.15
48 0.4
49 0.15
5 -0.55
50 0.4
51 0.15
52 0.36
55 0.06
6 -0.35
62 0.4
63 0.4
7 -0.7
73 0.15
74 0.15
75 0.15
76 0.15
77 0.15
8 -0.43
9 -0.57

> <PUBCHEM_EFFECTIVE_ROTOR_COUNT>
15

> <PUBCHEM_PHARMACOPHORE_FEATURES>
17
1 13 acceptor
1 15 donor
1 2 acceptor
1 3 acceptor
1 3 donor
1 36 hydrophobe
1 37 hydrophobe
1 4 acceptor
1 4 donor
1 7 acceptor
1 9 acceptor
3 11 14 28 cation
3 14 15 26 cation
5 10 20 23 24 25 rings
5 2 16 17 18 19 rings
6 10 11 14 24 26 28 rings
6 35 38 39 40 41 42 rings

> <PUBCHEM_HEAVY_ATOM_COUNT>
42

> <PUBCHEM_ATOM_DEF_STEREO_COUNT>
6

> <PUBCHEM_ATOM_UDEF_STEREO_COUNT>
0

> <PUBCHEM_BOND_DEF_STEREO_COUNT>
0

> <PUBCHEM_BOND_UDEF_STEREO_COUNT>
0

> <PUBCHEM_ISOTOPIC_ATOM_COUNT>
0

> <PUBCHEM_COMPONENT_COUNT>
1

> <PUBCHEM_CACTVS_TAUTO_COUNT>
6

> <PUBCHEM_CONFORMER_ID>
073AF3D00000003D

> <PUBCHEM_MMFF94_ENERGY>
83.8111

> <PUBCHEM_FEATURE_SELFOVERLAP>
86.519

> <PUBCHEM_SHAPE_FINGERPRINT>
11477941 20 18265075603876536868
11607047 141 17831890171695489979
11607047 403 17326636699651253993
12156800 1 18050316711336357741
12788726 201 18119793734403636801
14932701 244 18333448760156138236
15200665 1 17829037724255640012
15351334 14 17828796983714882614
15444296 8 18343029856719246852
16991981 162 18118121368796711780
35225 105 17826505570393763329
50150288 127 17605279475814988556
5081480 168 17896590881474771219

> <PUBCHEM_SHAPE_MULTIPOLES>
791.35
9.81
6.61
3.88
20.14
8.89
-0.79
-11.68
-2.09
-5.11
0.21
0.36
0.33
1.19

> <PUBCHEM_SHAPE_SELFOVERLAP>
1657.579

> <PUBCHEM_SHAPE_VOLUME>
448.9

> <PUBCHEM_COORDINATE_TYPE>
2
5
10

$$$$
121304016
  -OEChem-12162004593D

 77 80  0     1  0  0  0  0  0999 V2000
    1.6844   -1.5813   -1.4518 P   0  0  1  0  0  0  0  0  0  0  0  0
   -3.1406   -0.1218   -1.6057 O   0  0  0  0  0  0  0  0  0  0  0  0
   -2.3143    3.3852   -1.6354 O   0  0  0  0  0  0  0  0  0  0  0  0
   -2.1881    1.7155   -3.8034 O   0  0  0  0  0  0  0  0  0  0  0  0
    0.3837   -0.8776   -2.1356 O   0  0  0  0  0  0  0  0  0  0  0  0
    1.0955   -3.0530   -1.1091 O   0  0  0  0  0  0  0  0  0  0  0  0
    2.8274   -1.6381   -2.4339 O   0  0  0  0  0  0  0  0  0  0  0  0
    4.2401    1.9962   -0.2605 O   0  0  0  0  0  0  0  0  0  0  0  0
    4.6156   -0.2769   -0.2042 O   0  0  0  0  0  0  0  0  0  0  0  0
   -4.7956    0.4332    0.8589 N   0  0  0  0  0  0  0  0  0  0  0  0
   -5.6419   -0.3477    0.1451 N   0  0  0  0  0  0  0  0  0  0  0  0
    1.9644   -0.8079   -0.0136 N   0  0  0  0  0  0  0  0  0  0  0  0
   -5.4854    2.1336   -2.4822 N   0  0  0  0  0  0  0  0  0  0  0  0
   -6.7053   -0.8634    2.2456 N   0  0  0  0  0  0  0  0  0  0  0  0
   -6.0316   -0.0083    4.3119 N   0  0  0  0  0  0  0  0  0  0  0  0
   -3.4181    1.2177   -1.1224 C   0  0  2  0  0  0  0  0  0  0  0  0
   -2.1213    2.0016   -1.4112 C   0  0  1  0  0  0  0  0  0  0  0  0
   -1.5297    1.2902   -2.6126 C   0  0  1  0  0  0  0  0  0  0  0  0
   -1.8926   -0.1573   -2.3283 C   0  0  1  0  0  0  0  0  0  0  0  0
   -3.7575    1.1795    0.3658 C   0  0  0  0  0  0  0  0  0  0  0  0
   -0.8655   -0.8776   -1.4646 C   0  0  0  0  0  0  0  0  0  0  0  0
   -4.5764    1.7308   -1.8842 C   0  0  0  0  0  0  0  0  0  0  0  0
   -3.1568    1.8206    1.4283 C   0  0  0  0  0  0  0  0  0  0  0  0
   -4.8648    0.5897    2.2192 C   0  0  0  0  0  0  0  0  0  0  0  0
   -3.8573    1.4478    2.6031 C   0  0  0  0  0  0  0  0  0  0  0  0
   -5.8941   -0.1122    2.9483 C   0  0  0  0  0  0  0  0  0  0  0  0
    2.3455    0.6030   -0.0443 C   0  0  2  0  0  0  0  0  0  0  0  0
   -6.5408   -0.9458    0.8749 C   0  0  0  0  0  0  0  0  0  0  0  0
    6.2852    2.3714    0.9933 C   0  0  0  0  0  0  0  0  0  0  0  0
    5.6360    2.2281   -0.3927 C   0  0  0  0  0  0  0  0  0  0  0  0
    5.5819    3.4348    1.8661 C   0  0  0  0  0  0  0  0  0  0  0  0
    7.8009    2.5956    0.8270 C   0  0  0  0  0  0  0  0  0  0  0  0
    3.8552    0.6820   -0.1748 C   0  0  0  0  0  0  0  0  0  0  0  0
    1.8795    1.2897    1.2321 C   0  0  0  0  0  0  0  0  0  0  0  0
    1.7390   -4.0165   -0.3803 C   0  0  0  0  0  0  0  0  0  0  0  0
    5.6519    4.8592    1.3331 C   0  0  0  0  0  0  0  0  0  0  0  0
    8.5627    2.6536    2.1433 C   0  0  0  0  0  0  0  0  0  0  0  0
    3.1322   -4.0838   -0.3893 C   0  0  0  0  0  0  0  0  0  0  0  0
    1.0015   -4.9310    0.3714 C   0  0  0  0  0  0  0  0  0  0  0  0
    3.7880   -5.0657    0.3534 C   0  0  0  0  0  0  0  0  0  0  0  0
    1.6570   -5.9129    1.1141 C   0  0  0  0  0  0  0  0  0  0  0  0
    3.0503   -5.9803    1.1051 C   0  0  0  0  0  0  0  0  0  0  0  0
   -1.4040    1.8936   -0.5888 H   0  0  0  0  0  0  0  0  0  0  0  0
   -0.4616    1.4872   -2.7409 H   0  0  0  0  0  0  0  0  0  0  0  0
   -2.0518   -0.7172   -3.2567 H   0  0  0  0  0  0  0  0  0  0  0  0
   -1.1938   -1.9076   -1.2878 H   0  0  0  0  0  0  0  0  0  0  0  0
   -0.7653   -0.4016   -0.4839 H   0  0  0  0  0  0  0  0  0  0  0  0
   -1.4581    3.7603   -1.9032 H   0  0  0  0  0  0  0  0  0  0  0  0
   -2.3122    2.4934    1.3846 H   0  0  0  0  0  0  0  0  0  0  0  0
   -1.8139    1.2040   -4.5409 H   0  0  0  0  0  0  0  0  0  0  0  0
   -3.6465    1.7740    3.6121 H   0  0  0  0  0  0  0  0  0  0  0  0
    1.2499   -0.9550    0.6986 H   0  0  0  0  0  0  0  0  0  0  0  0
    1.8890    1.0939   -0.9109 H   0  0  0  0  0  0  0  0  0  0  0  0
    6.1475    1.4163    1.5191 H   0  0  0  0  0  0  0  0  0  0  0  0
   -7.2616   -1.5971    0.3536 H   0  0  0  0  0  0  0  0  0  0  0  0
    6.1180    1.4341   -0.9769 H   0  0  0  0  0  0  0  0  0  0  0  0
    5.7597    3.1469   -0.9760 H   0  0  0  0  0  0  0  0  0  0  0  0
    6.0066    3.4174    2.8766 H   0  0  0  0  0  0  0  0  0  0  0  0
    4.5268    3.1635    1.9920 H   0  0  0  0  0  0  0  0  0  0  0  0
    8.2158    1.7715    0.2325 H   0  0  0  0  0  0  0  0  0  0  0  0
    7.9939    3.5123    0.2578 H   0  0  0  0  0  0  0  0  0  0  0  0
   -5.4139    0.5683    4.8733 H   0  0  0  0  0  0  0  0  0  0  0  0
   -6.7639   -0.5117    4.8009 H   0  0  0  0  0  0  0  0  0  0  0  0
    0.7944    1.2006    1.3568 H   0  0  0  0  0  0  0  0  0  0  0  0
    2.1178    2.3588    1.2134 H   0  0  0  0  0  0  0  0  0  0  0  0
    2.3638    0.8641    2.1187 H   0  0  0  0  0  0  0  0  0  0  0  0
    5.1661    4.9487    0.3575 H   0  0  0  0  0  0  0  0  0  0  0  0
    6.6853    5.2049    1.2416 H   0  0  0  0  0  0  0  0  0  0  0  0
    5.1365    5.5380    2.0207 H   0  0  0  0  0  0  0  0  0  0  0  0
    8.3027    3.5460    2.7198 H   0  0  0  0  0  0  0  0  0  0  0  0
    9.6399    2.6895    1.9509 H   0  0  0  0  0  0  0  0  0  0  0  0
    8.3579    1.7700    2.7559 H   0  0  0  0  0  0  0  0  0  0  0  0
    3.7386   -3.3950   -0.9657 H   0  0  0  0  0  0  0  0  0  0  0  0
   -0.0839   -4.8827    0.3823 H   0  0  0  0  0  0  0  0  0  0  0  0
    4.8727   -5.1192    0.3457 H   0  0  0  0  0  0  0  0  0  0  0  0
    1.0827   -6.6249    1.6995 H   0  0  0  0  0  0  0  0  0  0  0  0
    3.5607   -6.7450    1.6833 H   0  0  0  0  0  0  0  0  0  0  0  0
  1  5  1  0  0  0  0
  1  6  1  0  0  0  0
  1  7  2  0  0  0  0
  1 12  1  0  0  0  0
  2 16  1  0  0  0  0
  2 19  1  0  0  0  0
  3 17  1  0  0  0  0
  3 48  1  0  0  0  0
  4 18  1  0  0  0  0
  4 50  1  0  0  0  0
  5 21  1  0  0  0  0
  6 35  1  0  0  0  0
  8 30  1  0  0  0  0
  8 33  1  0  0  0  0
  9 33  2  0  0  0  0
 10 11  1  0  0  0  0
 10 20  1  0  0  0  0
 10 24  1  0  0  0  0
 11 28  2  0  0  0  0
 12 27  1  0  0  0  0
 12 52  1  0  0  0  0
 13 22  3  0  0  0  0
 14 26  2  0  0  0  0
 14 28  1  0  0  0  0
 15 26  1  0  0  0  0
 15 62  1  0  0  0  0
 15 63  1  0  0  0  0
 16 17  1  0  0  0  0
 16 20  1  0  0  0  0
 16 22  1  0  0  0  0
 17 18  1  0  0  0  0
 17 43  1  0  0  0  0
 18 19  1  0  0  0  0
 18 44  1  0  0  0  0
 19 21  1  0  0  0  0
 19 45  1  0  0  0  0
 20 23  2  0  0  0  0
 21 46  1  0  0  0  0
 21 47  1  0  0  0  0
 23 25  1  0  0  0  0
 23 49  1  0  0  0  0
 24 25  2  0  0  0  0
 24 26  1  0  0  0  0
 25 51  1  0  0  0  0
 27 33  1  0  0  0  0
 27 34  1  0  0  0  0
 27 53  1  0  0  0  0
 28 55  1  0  0  0  0
 29 30  1  0  0  0  0
 29 31  1  0  0  0  0
 29 32  1  0  0  0  0
 29 54  1  0  0  0  0
 30 56  1  0  0  0  0
 30 57  1  0  0  0  0
 31 36  1  0  0  0  0
 31 58  1  0  0  0  0
 31 59  1  0  0  0  0
 32 37  1  0  0  0  0
 32 60  1  0  0  0  0
 32 61  1  0  0  0  0
 34 64  1  0  0  0  0
 34 65  1  0  0  0  0
 34 66  1  0  0  0  0
 35 38  2  0  0  0  0
 35 39  1  0  0  0  0
 36 67  1  0  0  0  0
 36 68  1  0  0  0  0
 36 69  1  0  0  0  0
 37 70  1  0  0  0  0
 37 71  1  0  0  0  0
 37 72  1  0  0  0  0
 38 40  1  0  0  0  0
 38 73  1  0  0  0  0
 39 41  2  0  0  0  0
 39 74  1  0  0  0  0
 40 42  2  0  0  0  0
 40 75  1  0  0  0  0
 41 42  1  0  0  0  0
 41 76  1  0  0  0  0
 42 77  1  0  0  0  0
M  END
> <PUBCHEM_COMPOUND_CID>
121304016

> <PUBCHEM_CONFORMER_RMSD>
1.4

> <PUBCHEM_CONFORMER_DIVERSEORDER>
1
131
148
102
68
105
12
61
57
10
134
65
42
46
40
82
121
79
3
140
157
104
28
152
23
108
20
98
86
94
153
156
35
69
167
135
129
85
95
151
55
62
113
13
141
143
59
34
114
163
91
87
99
66
142
33
15
7
159
126
75
111
92
64
4
70
76
112
83
96
37
127
80
109
133
161
78
5
93
30
164
101
158
88
138
155
24
51
132
63
77
146
53
14
136
29
103
2
45
115
166
39
147
128
49
125
116
38
58
60
122
119
74
160
123
31
107
84
90
162
27
118
165
18
54
124
8
72
17
11
120
6
106
73
97
137
48
21
130
9
36
56
89
67
47
43
50
44
139
32
150
52
16
22
144
26
100
117
154
41
110
145
71
25
81
149
19

> <PUBCHEM_MMFF94_PARTIAL_CHARGES>
49
1 1.51
10 0.51
11 -0.65
12 -0.9
13 -0.56
14 -0.66
15 -0.85
16 0.66
17 0.28
18 0.28
19 0.28
2 -0.56
20 -0.33
21 0.28
22 0.36
23 -0.15
24 -0.24
25 -0.15
26 0.58
27 0.33
28 0.6
3 -0.68
30 0.28
33 0.66
35 0.08
38 -0.15
39 -0.15
4 -0.68
40 -0.15
41 -0.15
42 -0.15
48 0.4
49 0.15
5 -0.55
50 0.4
51 0.15
52 0.36
55 0.06
6 -0.35
62 0.4
63 0.4
7 -0.7
73 0.15
74 0.15
75 0.15
76 0.15
77 0.15
8 -0.43
9 -0.57

> <PUBCHEM_EFFECTIVE_ROTOR_COUNT>
15

> <PUBCHEM_PHARMACOPHORE_FEATURES>
17
1 13 acceptor
1 15 donor
1 2 acceptor
1 3 acceptor
1 3 donor
1 36 hydrophobe
1 37 hydrophobe
1 4 acceptor
1 4 donor
1 7 acceptor
1 9 acceptor
3 11 14 28 cation
3 14 15 26 cation
5 10 20 23 24 25 rings
5 2 16 17 18 19 rings
6 10 11 14 24 26 28 rings
6 35 38 39 40 41 42 rings

> <PUBCHEM_HEAVY_ATOM_COUNT>
42

> <PUBCHEM_ATOM_DEF_STEREO_COUNT>
6

> <PUBCHEM_ATOM_UDEF_STEREO_COUNT>
0

> <PUBCHEM_BOND_DEF_STEREO_COUNT>
0

> <PUBCHEM_BOND_UDEF_STEREO_COUNT>
0

> <PUBCHEM_ISOTOPIC_ATOM_COUNT>
0

> <PUBCHEM_COMPONENT_COUNT>
1

> <PUBCHEM_CACTVS_TAUTO_COUNT>
6

> <PUBCHEM_CONFORMER_ID>
073AF3D000000044

> <PUBCHEM_MMFF94_ENERGY>
83.7011

> <PUBCHEM_FEATURE_SELFOVERLAP>
86.519

> <PUBCHEM_SHAPE_FINGERPRINT>
11991303 11 18192434293617733952
12988421 55 18339915017839687204
13782708 43 17751938929244672771
14068700 675 14345787292421794477
14950920 106 18125734383307949219
16112460 7 18130784582143547424
18393751 57 18263926707828269268
19304152 47 18334568040796146532
19315092 285 18269281175581027955
19319366 153 18272090526062092000
21772528 278 18128263483126714288
23559900 14 17315646088782962871
244849 19 18042410118735752895
42626532 9 17681003885054316508
6695519 79 18410584976294866107
6703917 75 18193014788370336404

> <PUBCHEM_SHAPE_MULTIPOLES>
791.35
18.72
7.47
3.42
8.5
14.18
-0.38
-19.7
-14.76
16.18
-2.58
-6.55
-1.74
4.14

> <PUBCHEM_SHAPE_SELFOVERLAP>
1655.188

> <PUBCHEM_SHAPE_VOLUME>
449.2

> <PUBCHEM_COORDINATE_TYPE>
2
5
10

$$$$
121304016
  -OEChem-12162004593D

 77 80  0     1  0  0  0  0  0999 V2000
    1.8695   -0.1073   -2.0192 P   0  0  1  0  0  0  0  0  0  0  0  0
   -2.0026   -0.5602    0.8744 O   0  0  0  0  0  0  0  0  0  0  0  0
   -4.4356   -2.1756   -1.2361 O   0  0  0  0  0  0  0  0  0  0  0  0
   -2.0857   -3.3004   -0.3896 O   0  0  0  0  0  0  0  0  0  0  0  0
    0.2808   -0.4641   -1.9629 O   0  0  0  0  0  0  0  0  0  0  0  0
    2.3331   -0.5227   -0.5217 O   0  0  0  0  0  0  0  0  0  0  0  0
    2.5555   -0.9324   -3.0788 O   0  0  0  0  0  0  0  0  0  0  0  0
    4.8014    1.6546   -0.3214 O   0  0  0  0  0  0  0  0  0  0  0  0
    3.0984    3.1496    0.0979 O   0  0  0  0  0  0  0  0  0  0  0  0
   -5.5230    0.6040    0.4196 N   0  0  0  0  0  0  0  0  0  0  0  0
   -6.3413   -0.4215    0.0810 N   0  0  0  0  0  0  0  0  0  0  0  0
    2.0010    1.5396   -2.1441 N   0  0  0  0  0  0  0  0  0  0  0  0
   -4.3625   -2.5272    2.2582 N   0  0  0  0  0  0  0  0  0  0  0  0
   -8.1257    1.1987    0.0685 N   0  0  0  0  0  0  0  0  0  0  0  0
   -7.8517    3.4688    0.5440 N   0  0  0  0  0  0  0  0  0  0  0  0
   -3.3970   -0.7761    0.5366 C   0  0  2  0  0  0  0  0  0  0  0  0
   -3.3581   -1.3198   -0.9064 C   0  0  1  0  0  0  0  0  0  0  0  0
   -2.0118   -2.0119   -0.9952 C   0  0  1  0  0  0  0  0  0  0  0  0
   -1.1386   -1.1065   -0.1435 C   0  0  1  0  0  0  0  0  0  0  0  0
   -4.1732    0.5340    0.6457 C   0  0  0  0  0  0  0  0  0  0  0  0
   -0.5324    0.0533   -0.9228 C   0  0  0  0  0  0  0  0  0  0  0  0
   -3.9380   -1.7572    1.5012 C   0  0  0  0  0  0  0  0  0  0  0  0
   -3.7323    1.8013    0.9623 C   0  0  0  0  0  0  0  0  0  0  0  0
   -5.9478    1.8966    0.5874 C   0  0  0  0  0  0  0  0  0  0  0  0
   -4.8557    2.6656    0.9257 C   0  0  0  0  0  0  0  0  0  0  0  0
   -7.3461    2.1992    0.3957 C   0  0  0  0  0  0  0  0  0  0  0  0
    3.3350    2.1362   -2.1090 C   0  0  2  0  0  0  0  0  0  0  0  0
   -7.5856   -0.0666   -0.0739 C   0  0  0  0  0  0  0  0  0  0  0  0
    6.4936    0.9082    1.2517 C   0  0  0  0  0  0  0  0  0  0  0  0
    5.2583    1.7925    1.0171 C   0  0  0  0  0  0  0  0  0  0  0  0
    6.9321    0.8899    2.7332 C   0  0  0  0  0  0  0  0  0  0  0  0
    7.6088    1.3171    0.2699 C   0  0  0  0  0  0  0  0  0  0  0  0
    3.6979    2.3970   -0.6589 C   0  0  0  0  0  0  0  0  0  0  0  0
    3.3397    3.4334   -2.9061 C   0  0  0  0  0  0  0  0  0  0  0  0
    2.7376   -1.7711   -0.1326 C   0  0  0  0  0  0  0  0  0  0  0  0
    7.3906    2.2310    3.2891 C   0  0  0  0  0  0  0  0  0  0  0  0
    8.8495    0.4389    0.3472 C   0  0  0  0  0  0  0  0  0  0  0  0
    2.2262   -2.9007   -0.7715 C   0  0  0  0  0  0  0  0  0  0  0  0
    3.6612   -1.9137    0.9027 C   0  0  0  0  0  0  0  0  0  0  0  0
    2.6385   -4.1730   -0.3751 C   0  0  0  0  0  0  0  0  0  0  0  0
    4.0737   -3.1859    1.2992 C   0  0  0  0  0  0  0  0  0  0  0  0
    3.5622   -4.3156    0.6603 C   0  0  0  0  0  0  0  0  0  0  0  0
   -3.3716   -0.4832   -1.6175 H   0  0  0  0  0  0  0  0  0  0  0  0
   -1.6725   -2.1534   -2.0250 H   0  0  0  0  0  0  0  0  0  0  0  0
   -0.3481   -1.6733    0.3585 H   0  0  0  0  0  0  0  0  0  0  0  0
    0.0390    0.7017   -0.2489 H   0  0  0  0  0  0  0  0  0  0  0  0
   -1.3046    0.6869   -1.3714 H   0  0  0  0  0  0  0  0  0  0  0  0
   -4.2670   -2.5278   -2.1266 H   0  0  0  0  0  0  0  0  0  0  0  0
   -2.7138    2.0805    1.1943 H   0  0  0  0  0  0  0  0  0  0  0  0
   -1.1945   -3.6884   -0.4229 H   0  0  0  0  0  0  0  0  0  0  0  0
   -4.8600    3.7283    1.1245 H   0  0  0  0  0  0  0  0  0  0  0  0
    1.4672    1.9476   -2.9112 H   0  0  0  0  0  0  0  0  0  0  0  0
    4.0643    1.4565   -2.5647 H   0  0  0  0  0  0  0  0  0  0  0  0
    6.2143   -0.1201    0.9867 H   0  0  0  0  0  0  0  0  0  0  0  0
   -8.3041   -0.8556   -0.3505 H   0  0  0  0  0  0  0  0  0  0  0  0
    5.5023    2.8453    1.2008 H   0  0  0  0  0  0  0  0  0  0  0  0
    4.4560    1.4931    1.7021 H   0  0  0  0  0  0  0  0  0  0  0  0
    7.7318    0.1539    2.8738 H   0  0  0  0  0  0  0  0  0  0  0  0
    6.0903    0.5348    3.3411 H   0  0  0  0  0  0  0  0  0  0  0  0
    7.2313    1.2582   -0.7583 H   0  0  0  0  0  0  0  0  0  0  0  0
    7.8972    2.3625    0.4308 H   0  0  0  0  0  0  0  0  0  0  0  0
   -7.2644    4.2565    0.7965 H   0  0  0  0  0  0  0  0  0  0  0  0
   -8.8387    3.6555    0.4032 H   0  0  0  0  0  0  0  0  0  0  0  0
    3.1069    3.2524   -3.9611 H   0  0  0  0  0  0  0  0  0  0  0  0
    4.3253    3.9096   -2.8562 H   0  0  0  0  0  0  0  0  0  0  0  0
    2.6125    4.1541   -2.5141 H   0  0  0  0  0  0  0  0  0  0  0  0
    6.5946    2.9795    3.2438 H   0  0  0  0  0  0  0  0  0  0  0  0
    8.2608    2.6142    2.7488 H   0  0  0  0  0  0  0  0  0  0  0  0
    7.6773    2.1185    4.3400 H   0  0  0  0  0  0  0  0  0  0  0  0
    9.3733    0.5651    1.2991 H   0  0  0  0  0  0  0  0  0  0  0  0
    9.5494    0.7082   -0.4506 H   0  0  0  0  0  0  0  0  0  0  0  0
    8.5916   -0.6181    0.2281 H   0  0  0  0  0  0  0  0  0  0  0  0
    1.4898   -2.8244   -1.5650 H   0  0  0  0  0  0  0  0  0  0  0  0
    4.0509   -1.0395    1.4138 H   0  0  0  0  0  0  0  0  0  0  0  0
    2.2360   -5.0528   -0.8686 H   0  0  0  0  0  0  0  0  0  0  0  0
    4.7902   -3.2967    2.1079 H   0  0  0  0  0  0  0  0  0  0  0  0
    3.8817   -5.3062    0.9705 H   0  0  0  0  0  0  0  0  0  0  0  0
  1  5  1  0  0  0  0
  1  6  1  0  0  0  0
  1  7  2  0  0  0  0
  1 12  1  0  0  0  0
  2 16  1  0  0  0  0
  2 19  1  0  0  0  0
  3 17  1  0  0  0  0
  3 48  1  0  0  0  0
  4 18  1  0  0  0  0
  4 50  1  0  0  0  0
  5 21  1  0  0  0  0
  6 35  1  0  0  0  0
  8 30  1  0  0  0  0
  8 33  1  0  0  0  0
  9 33  2  0  0  0  0
 10 11  1  0  0  0  0
 10 20  1  0  0  0  0
 10 24  1  0  0  0  0
 11 28  2  0  0  0  0
 12 27  1  0  0  0  0
 12 52  1  0  0  0  0
 13 22  3  0  0  0  0
 14 26  2  0  0  0  0
 14 28  1  0  0  0  0
 15 26  1  0  0  0  0
 15 62  1  0  0  0  0
 15 63  1  0  0  0  0
 16 17  1  0  0  0  0
 16 20  1  0  0  0  0
 16 22  1  0  0  0  0
 17 18  1  0  0  0  0
 17 43  1  0  0  0  0
 18 19  1  0  0  0  0
 18 44  1  0  0  0  0
 19 21  1  0  0  0  0
 19 45  1  0  0  0  0
 20 23  2  0  0  0  0
 21 46  1  0  0  0  0
 21 47  1  0  0  0  0
 23 25  1  0  0  0  0
 23 49  1  0  0  0  0
 24 25  2  0  0  0  0
 24 26  1  0  0  0  0
 25 51  1  0  0  0  0
 27 33  1  0  0  0  0
 27 34  1  0  0  0  0
 27 53  1  0  0  0  0
 28 55  1  0  0  0  0
 29 30  1  0  0  0  0
 29 31  1  0  0  0  0
 29 32  1  0  0  0  0
 29 54  1  0  0  0  0
 30 56  1  0  0  0  0
 30 57  1  0  0  0  0
 31 36  1  0  0  0  0
 31 58  1  0  0  0  0
 31 59  1  0  0  0  0
 32 37  1  0  0  0  0
 32 60  1  0  0  0  0
 32 61  1  0  0  0  0
 34 64  1  0  0  0  0
 34 65  1  0  0  0  0
 34 66  1  0  0  0  0
 35 38  2  0  0  0  0
 35 39  1  0  0  0  0
 36 67  1  0  0  0  0
 36 68  1  0  0  0  0
 36 69  1  0  0  0  0
 37 70  1  0  0  0  0
 37 71  1  0  0  0  0
 37 72  1  0  0  0  0
 38 40  1  0  0  0  0
 38 73  1  0  0  0  0
 39 41  2  0  0  0  0
 39 74  1  0  0  0  0
 40 42  2  0  0  0  0
 40 75  1  0  0  0  0
 41 42  1  0  0  0  0
 41 76  1  0  0  0  0
 42 77  1  0  0  0  0
M  END
> <PUBCHEM_COMPOUND_CID>
121304016

> <PUBCHEM_CONFORMER_RMSD>
1.4

> <PUBCHEM_CONFORMER_DIVERSEORDER>
1
131
148
102
68
105
12
61
57
10
134
65
42
46
40
82
121
79
3
140
157
104
28
152
23
108
20
98
86
94
153
156
35
69
167
135
129
85
95
151
55
62
113
13
141
143
59
34
114
163
91
87
99
66
142
33
15
7
159
126
75
111
92
64
4
70
76
112
83
96
37
127
80
109
133
161
78
5
93
30
164
101
158
88
138
155
24
51
132
63
77
146
53
14
136
29
103
2
45
115
166
39
147
128
49
125
116
38
58
60
122
119
74
160
123
31
107
84
90
162
27
118
165
18
54
124
8
72
17
11
120
6
106
73
97
137
48
21
130
9
36
56
89
67
47
43
50
44
139
32
150
52
16
22
144
26
100
117
154
41
110
145
71
25
81
149
19

> <PUBCHEM_MMFF94_PARTIAL_CHARGES>
49
1 1.51
10 0.51
11 -0.65
12 -0.9
13 -0.56
14 -0.66
15 -0.85
16 0.66
17 0.28
18 0.28
19 0.28
2 -0.56
20 -0.33
21 0.28
22 0.36
23 -0.15
24 -0.24
25 -0.15
26 0.58
27 0.33
28 0.6
3 -0.68
30 0.28
33 0.66
35 0.08
38 -0.15
39 -0.15
4 -0.68
40 -0.15
41 -0.15
42 -0.15
48 0.4
49 0.15
5 -0.55
50 0.4
51 0.15
52 0.36
55 0.06
6 -0.35
62 0.4
63 0.4
7 -0.7
73 0.15
74 0.15
75 0.15
76 0.15
77 0.15
8 -0.43
9 -0.57

> <PUBCHEM_EFFECTIVE_ROTOR_COUNT>
15

> <PUBCHEM_PHARMACOPHORE_FEATURES>
17
1 13 acceptor
1 15 donor
1 2 acceptor
1 3 acceptor
1 3 donor
1 36 hydrophobe
1 37 hydrophobe
1 4 acceptor
1 4 donor
1 7 acceptor
1 9 acceptor
3 11 14 28 cation
3 14 15 26 cation
5 10 20 23 24 25 rings
5 2 16 17 18 19 rings
6 10 11 14 24 26 28 rings
6 35 38 39 40 41 42 rings

> <PUBCHEM_HEAVY_ATOM_COUNT>
42

> <PUBCHEM_ATOM_DEF_STEREO_COUNT>
6

> <PUBCHEM_ATOM_UDEF_STEREO_COUNT>
0

> <PUBCHEM_BOND_DEF_STEREO_COUNT>
0

> <PUBCHEM_BOND_UDEF_STEREO_COUNT>
0

> <PUBCHEM_ISOTOPIC_ATOM_COUNT>
0

> <PUBCHEM_COMPONENT_COUNT>
1

> <PUBCHEM_CACTVS_TAUTO_COUNT>
6

> <PUBCHEM_CONFORMER_ID>
073AF3D000000066

> <PUBCHEM_MMFF94_ENERGY>
84.3127

> <PUBCHEM_FEATURE_SELFOVERLAP>
86.519

> <PUBCHEM_SHAPE_FINGERPRINT>
10190108 129 18334572405426352180
13383668 362 18186813486243260203
14739800 52 18201718465832058817
20511986 3 18060136544178106751
23559900 14 17558851510716231399
44249763 50 17417812906788735893
44880168 125 13190345694848960737
563151 74 18412536609291659246
6201320 77 16227428704940919530

> <PUBCHEM_SHAPE_MULTIPOLES>
791.35
23.36
4.84
2.41
8.5
2.49
-0.36
-17.56
13.11
-2.57
0.02
-4.44
-1.23
-0.54

> <PUBCHEM_SHAPE_SELFOVERLAP>
1655.018

> <PUBCHEM_SHAPE_VOLUME>
449.1

> <PUBCHEM_COORDINATE_TYPE>
2
5
10

$$$$
121304016
  -OEChem-12162004593D

 77 80  0     1  0  0  0  0  0999 V2000
    0.7167    2.7523    1.1332 P   0  0  1  0  0  0  0  0  0  0  0  0
   -1.0967   -1.1759    1.4313 O   0  0  0  0  0  0  0  0  0  0  0  0
    0.5982   -4.3550    1.4928 O   0  0  0  0  0  0  0  0  0  0  0  0
    0.5094   -2.5732    3.5715 O   0  0  0  0  0  0  0  0  0  0  0  0
    0.1048    1.2811    0.7932 O   0  0  0  0  0  0  0  0  0  0  0  0
   -0.4430    3.7154    0.5351 O   0  0  0  0  0  0  0  0  0  0  0  0
    0.8856    2.9190    2.6225 O   0  0  0  0  0  0  0  0  0  0  0  0
    3.5233    1.0512   -1.1645 O   0  0  0  0  0  0  0  0  0  0  0  0
    3.9457    2.7711   -2.6392 O   0  0  0  0  0  0  0  0  0  0  0  0
   -2.4366   -1.8285   -0.9742 N   0  0  0  0  0  0  0  0  0  0  0  0
   -2.9907   -0.7457   -0.3772 N   0  0  0  0  0  0  0  0  0  0  0  0
    2.0669    2.9539    0.1944 N   0  0  0  0  0  0  0  0  0  0  0  0
   -2.6862   -3.8867    2.6471 N   0  0  0  0  0  0  0  0  0  0  0  0
   -4.1313   -0.3601   -2.4651 N   0  0  0  0  0  0  0  0  0  0  0  0
   -3.9124   -1.7100   -4.3584 N   0  0  0  0  0  0  0  0  0  0  0  0
   -1.0691   -2.5701    1.0305 C   0  0  2  0  0  0  0  0  0  0  0  0
    0.4072   -2.9842    1.1989 C   0  0  1  0  0  0  0  0  0  0  0  0
    0.9144   -2.0727    2.2995 C   0  0  1  0  0  0  0  0  0  0  0  0
    0.1666   -0.7833    2.0064 C   0  0  1  0  0  0  0  0  0  0  0  0
   -1.5542   -2.7124   -0.4102 C   0  0  0  0  0  0  0  0  0  0  0  0
    0.8832    0.1152    1.0071 C   0  0  0  0  0  0  0  0  0  0  0  0
   -1.9751   -3.3078    1.9361 C   0  0  0  0  0  0  0  0  0  0  0  0
   -1.2435   -3.6622   -1.3600 C   0  0  0  0  0  0  0  0  0  0  0  0
   -2.6921   -2.2014   -2.2685 C   0  0  0  0  0  0  0  0  0  0  0  0
   -1.9637   -3.3395   -2.5378 C   0  0  0  0  0  0  0  0  0  0  0  0
   -3.6028   -1.4038   -3.0548 C   0  0  0  0  0  0  0  0  0  0  0  0
    1.9378    2.7992   -1.2533 C   0  0  2  0  0  0  0  0  0  0  0  0
   -3.7998   -0.0799   -1.1520 C   0  0  0  0  0  0  0  0  0  0  0  0
    4.9101   -0.9056   -0.7859 C   0  0  0  0  0  0  0  0  0  0  0  0
    4.7273    0.4091   -1.5614 C   0  0  0  0  0  0  0  0  0  0  0  0
    4.8144   -0.7056    0.7432 C   0  0  0  0  0  0  0  0  0  0  0  0
    6.2066   -1.5972   -1.2506 C   0  0  0  0  0  0  0  0  0  0  0  0
    3.2439    2.2415   -1.7873 C   0  0  0  0  0  0  0  0  0  0  0  0
    1.6289    4.1477   -1.8894 C   0  0  0  0  0  0  0  0  0  0  0  0
   -1.7862    3.5748    0.7582 C   0  0  0  0  0  0  0  0  0  0  0  0
    5.8980    0.1750    1.3499 C   0  0  0  0  0  0  0  0  0  0  0  0
    6.4378   -2.9613   -0.6164 C   0  0  0  0  0  0  0  0  0  0  0  0
   -2.2401    3.0186    1.9541 C   0  0  0  0  0  0  0  0  0  0  0  0
   -2.7009    3.9880   -0.2102 C   0  0  0  0  0  0  0  0  0  0  0  0
   -3.6090    2.8754    2.1815 C   0  0  0  0  0  0  0  0  0  0  0  0
   -4.0697    3.8449    0.0170 C   0  0  0  0  0  0  0  0  0  0  0  0
   -4.5237    3.2885    1.2128 C   0  0  0  0  0  0  0  0  0  0  0  0
    0.9677   -2.7601    0.2815 H   0  0  0  0  0  0  0  0  0  0  0  0
    2.0039   -1.9750    2.3111 H   0  0  0  0  0  0  0  0  0  0  0  0
   -0.0646   -0.2173    2.9157 H   0  0  0  0  0  0  0  0  0  0  0  0
    1.0112   -0.3710    0.0357 H   0  0  0  0  0  0  0  0  0  0  0  0
    1.8629    0.3944    1.3994 H   0  0  0  0  0  0  0  0  0  0  0  0
    1.5456   -4.4870    1.6673 H   0  0  0  0  0  0  0  0  0  0  0  0
   -0.5740   -4.5004   -1.2256 H   0  0  0  0  0  0  0  0  0  0  0  0
    0.8057   -1.9346    4.2425 H   0  0  0  0  0  0  0  0  0  0  0  0
   -1.9485   -3.8813   -3.4733 H   0  0  0  0  0  0  0  0  0  0  0  0
    2.6608    3.7559    0.4033 H   0  0  0  0  0  0  0  0  0  0  0  0
    1.1508    2.0840   -1.5181 H   0  0  0  0  0  0  0  0  0  0  0  0
    4.0651   -1.5557   -1.0544 H   0  0  0  0  0  0  0  0  0  0  0  0
   -4.2882    0.8103   -0.7259 H   0  0  0  0  0  0  0  0  0  0  0  0
    4.6769    0.1936   -2.6360 H   0  0  0  0  0  0  0  0  0  0  0  0
    5.5758    1.0809   -1.3857 H   0  0  0  0  0  0  0  0  0  0  0  0
    4.8317   -1.6812    1.2428 H   0  0  0  0  0  0  0  0  0  0  0  0
    3.8444   -0.2702    0.9916 H   0  0  0  0  0  0  0  0  0  0  0  0
    6.1632   -1.7330   -2.3388 H   0  0  0  0  0  0  0  0  0  0  0  0
    7.0750   -0.9573   -1.0554 H   0  0  0  0  0  0  0  0  0  0  0  0
   -3.5140   -2.5136   -4.8323 H   0  0  0  0  0  0  0  0  0  0  0  0
   -4.5560   -1.1333   -4.8896 H   0  0  0  0  0  0  0  0  0  0  0  0
    0.6729    4.5544   -1.5490 H   0  0  0  0  0  0  0  0  0  0  0  0
    1.5709    4.0530   -2.9799 H   0  0  0  0  0  0  0  0  0  0  0  0
    2.4082    4.8879   -1.6724 H   0  0  0  0  0  0  0  0  0  0  0  0
    5.8713    1.1875    0.9373 H   0  0  0  0  0  0  0  0  0  0  0  0
    6.8952   -0.2426    1.1856 H   0  0  0  0  0  0  0  0  0  0  0  0
    5.7478    0.2560    2.4316 H   0  0  0  0  0  0  0  0  0  0  0  0
    6.6418   -2.8776    0.4549 H   0  0  0  0  0  0  0  0  0  0  0  0
    7.3034   -3.4470   -1.0785 H   0  0  0  0  0  0  0  0  0  0  0  0
    5.5695   -3.6126   -0.7566 H   0  0  0  0  0  0  0  0  0  0  0  0
   -1.5612    2.6924    2.7332 H   0  0  0  0  0  0  0  0  0  0  0  0
   -2.3525    4.4209   -1.1440 H   0  0  0  0  0  0  0  0  0  0  0  0
   -3.9629    2.4429    3.1128 H   0  0  0  0  0  0  0  0  0  0  0  0
   -4.7819    4.1654   -0.7376 H   0  0  0  0  0  0  0  0  0  0  0  0
   -5.5894    3.1763    1.3894 H   0  0  0  0  0  0  0  0  0  0  0  0
  1  5  1  0  0  0  0
  1  6  1  0  0  0  0
  1  7  2  0  0  0  0
  1 12  1  0  0  0  0
  2 16  1  0  0  0  0
  2 19  1  0  0  0  0
  3 17  1  0  0  0  0
  3 48  1  0  0  0  0
  4 18  1  0  0  0  0
  4 50  1  0  0  0  0
  5 21  1  0  0  0  0
  6 35  1  0  0  0  0
  8 30  1  0  0  0  0
  8 33  1  0  0  0  0
  9 33  2  0  0  0  0
 10 11  1  0  0  0  0
 10 20  1  0  0  0  0
 10 24  1  0  0  0  0
 11 28  2  0  0  0  0
 12 27  1  0  0  0  0
 12 52  1  0  0  0  0
 13 22  3  0  0  0  0
 14 26  2  0  0  0  0
 14 28  1  0  0  0  0
 15 26  1  0  0  0  0
 15 62  1  0  0  0  0
 15 63  1  0  0  0  0
 16 17  1  0  0  0  0
 16 20  1  0  0  0  0
 16 22  1  0  0  0  0
 17 18  1  0  0  0  0
 17 43  1  0  0  0  0
 18 19  1  0  0  0  0
 18 44  1  0  0  0  0
 19 21  1  0  0  0  0
 19 45  1  0  0  0  0
 20 23  2  0  0  0  0
 21 46  1  0  0  0  0
 21 47  1  0  0  0  0
 23 25  1  0  0  0  0
 23 49  1  0  0  0  0
 24 25  2  0  0  0  0
 24 26  1  0  0  0  0
 25 51  1  0  0  0  0
 27 33  1  0  0  0  0
 27 34  1  0  0  0  0
 27 53  1  0  0  0  0
 28 55  1  0  0  0  0
 29 30  1  0  0  0  0
 29 31  1  0  0  0  0
 29 32  1  0  0  0  0
 29 54  1  0  0  0  0
 30 56  1  0  0  0  0
 30 57  1  0  0  0  0
 31 36  1  0  0  0  0
 31 58  1  0  0  0  0
 31 59  1  0  0  0  0
 32 37  1  0  0  0  0
 32 60  1  0  0  0  0
 32 61  1  0  0  0  0
 34 64  1  0  0  0  0
 34 65  1  0  0  0  0
 34 66  1  0  0  0  0
 35 38  2  0  0  0  0
 35 39  1  0  0  0  0
 36 67  1  0  0  0  0
 36 68  1  0  0  0  0
 36 69  1  0  0  0  0
 37 70  1  0  0  0  0
 37 71  1  0  0  0  0
 37 72  1  0  0  0  0
 38 40  1  0  0  0  0
 38 73  1  0  0  0  0
 39 41  2  0  0  0  0
 39 74  1  0  0  0  0
 40 42  2  0  0  0  0
 40 75  1  0  0  0  0
 41 42  1  0  0  0  0
 41 76  1  0  0  0  0
 42 77  1  0  0  0  0
M  END
> <PUBCHEM_COMPOUND_CID>
121304016

> <PUBCHEM_CONFORMER_RMSD>
1.4

> <PUBCHEM_CONFORMER_DIVERSEORDER>
1
131
148
102
68
105
12
61
57
10
134
65
42
46
40
82
121
79
3
140
157
104
28
152
23
108
20
98
86
94
153
156
35
69
167
135
129
85
95
151
55
62
113
13
141
143
59
34
114
163
91
87
99
66
142
33
15
7
159
126
75
111
92
64
4
70
76
112
83
96
37
127
80
109
133
161
78
5
93
30
164
101
158
88
138
155
24
51
132
63
77
146
53
14
136
29
103
2
45
115
166
39
147
128
49
125
116
38
58
60
122
119
74
160
123
31
107
84
90
162
27
118
165
18
54
124
8
72
17
11
120
6
106
73
97
137
48
21
130
9
36
56
89
67
47
43
50
44
139
32
150
52
16
22
144
26
100
117
154
41
110
145
71
25
81
149
19

> <PUBCHEM_MMFF94_PARTIAL_CHARGES>
49
1 1.51
10 0.51
11 -0.65
12 -0.9
13 -0.56
14 -0.66
15 -0.85
16 0.66
17 0.28
18 0.28
19 0.28
2 -0.56
20 -0.33
21 0.28
22 0.36
23 -0.15
24 -0.24
25 -0.15
26 0.58
27 0.33
28 0.6
3 -0.68
30 0.28
33 0.66
35 0.08
38 -0.15
39 -0.15
4 -0.68
40 -0.15
41 -0.15
42 -0.15
48 0.4
49 0.15
5 -0.55
50 0.4
51 0.15
52 0.36
55 0.06
6 -0.35
62 0.4
63 0.4
7 -0.7
73 0.15
74 0.15
75 0.15
76 0.15
77 0.15
8 -0.43
9 -0.57

> <PUBCHEM_EFFECTIVE_ROTOR_COUNT>
15

> <PUBCHEM_PHARMACOPHORE_FEATURES>
17
1 13 acceptor
1 15 donor
1 2 acceptor
1 3 acceptor
1 3 donor
1 36 hydrophobe
1 37 hydrophobe
1 4 acceptor
1 4 donor
1 7 acceptor
1 9 acceptor
3 11 14 28 cation
3 14 15 26 cation
5 10 20 23 24 25 rings
5 2 16 17 18 19 rings
6 10 11 14 24 26 28 rings
6 35 38 39 40 41 42 rings

> <PUBCHEM_HEAVY_ATOM_COUNT>
42

> <PUBCHEM_ATOM_DEF_STEREO_COUNT>
6

> <PUBCHEM_ATOM_UDEF_STEREO_COUNT>
0

> <PUBCHEM_BOND_DEF_STEREO_COUNT>
0

> <PUBCHEM_BOND_UDEF_STEREO_COUNT>
0

> <PUBCHEM_ISOTOPIC_ATOM_COUNT>
0

> <PUBCHEM_COMPONENT_COUNT>
1

> <PUBCHEM_CACTVS_TAUTO_COUNT>
6

> <PUBCHEM_CONFORMER_ID>
073AF3D000000069

> <PUBCHEM_MMFF94_ENERGY>
84.6086

> <PUBCHEM_FEATURE_SELFOVERLAP>
86.519

> <PUBCHEM_SHAPE_FINGERPRINT>
11285246 1 18334852857462323172
11445158 3 16952286211543112684
12156800 1 17628887115528304838
13642711 20 17683830721249608707
14040221 310 17769399419530032940
14674994 50 17988373555211773164
14918310 93 17471584226228620957
15297060 5 17557702469509441945
15484559 13 17903101961200612125
15968369 153 18200599210487471849
19311894 1 18130218272992982901
19315092 285 15695457739948884933
21133410 62 17750517269879531117
4066623 53 17985523758395734085
5080951 261 17843433832131365176
563151 248 18129384791428316736
59025328 239 17199385141836858597

> <PUBCHEM_SHAPE_MULTIPOLES>
791.35
10.58
7.32
3.64
15.89
1.22
-1.07
1.35
-4.52
-4.97
0.51
-2.39
-2.46
-4.04

> <PUBCHEM_SHAPE_SELFOVERLAP>
1655.177

> <PUBCHEM_SHAPE_VOLUME>
449.2

> <PUBCHEM_COORDINATE_TYPE>
2
5
10

$$$$
121304016
  -OEChem-12162004593D

 77 80  0     1  0  0  0  0  0999 V2000
    1.7496    1.9295    1.6815 P   0  0  1  0  0  0  0  0  0  0  0  0
   -1.1815   -1.4157   -0.6962 O   0  0  0  0  0  0  0  0  0  0  0  0
   -3.4554    1.1012   -1.9117 O   0  0  0  0  0  0  0  0  0  0  0  0
   -1.0041    0.5336   -2.9944 O   0  0  0  0  0  0  0  0  0  0  0  0
    1.0697    1.2431    0.3696 O   0  0  0  0  0  0  0  0  0  0  0  0
    2.3146    3.3121    1.0495 O   0  0  0  0  0  0  0  0  0  0  0  0
    0.7091    2.1714    2.7459 O   0  0  0  0  0  0  0  0  0  0  0  0
    5.6031   -0.9169    0.3890 O   0  0  0  0  0  0  0  0  0  0  0  0
    4.3613   -1.3674    2.2775 O   0  0  0  0  0  0  0  0  0  0  0  0
   -4.8001   -1.2105    0.2091 N   0  0  0  0  0  0  0  0  0  0  0  0
   -5.5166   -0.5934   -0.7612 N   0  0  0  0  0  0  0  0  0  0  0  0
    3.0563    1.0017    2.1021 N   0  0  0  0  0  0  0  0  0  0  0  0
   -3.3340   -2.1740   -3.1752 N   0  0  0  0  0  0  0  0  0  0  0  0
   -7.4496   -0.9736    0.6272 N   0  0  0  0  0  0  0  0  0  0  0  0
   -7.3949   -2.0422    2.7032 N   0  0  0  0  0  0  0  0  0  0  0  0
   -2.5499   -1.0023   -0.9449 C   0  0  2  0  0  0  0  0  0  0  0  0
   -2.4646    0.5322   -1.0772 C   0  0  1  0  0  0  0  0  0  0  0  0
   -1.0580    0.7727   -1.5900 C   0  0  1  0  0  0  0  0  0  0  0  0
   -0.2730   -0.3083   -0.8666 C   0  0  1  0  0  0  0  0  0  0  0  0
   -3.4489   -1.4393    0.2092 C   0  0  0  0  0  0  0  0  0  0  0  0
    0.2146    0.1208    0.5111 C   0  0  0  0  0  0  0  0  0  0  0  0
   -2.9892   -1.6588   -2.1944 C   0  0  0  0  0  0  0  0  0  0  0  0
   -3.1316   -2.0914    1.3816 C   0  0  0  0  0  0  0  0  0  0  0  0
   -5.3474   -1.7070    1.3638 C   0  0  0  0  0  0  0  0  0  0  0  0
   -4.3335   -2.2617    2.1142 C   0  0  0  0  0  0  0  0  0  0  0  0
   -6.7693   -1.5724    1.5731 C   0  0  0  0  0  0  0  0  0  0  0  0
    4.0835    0.7478    1.0937 C   0  0  2  0  0  0  0  0  0  0  0  0
   -6.7901   -0.5114   -0.4972 C   0  0  0  0  0  0  0  0  0  0  0  0
    5.4465   -3.2466   -0.2773 C   0  0  0  0  0  0  0  0  0  0  0  0
    6.2391   -2.1829    0.4998 C   0  0  0  0  0  0  0  0  0  0  0  0
    5.9987   -4.6723   -0.0542 C   0  0  0  0  0  0  0  0  0  0  0  0
    5.3519   -2.8326   -1.7587 C   0  0  0  0  0  0  0  0  0  0  0  0
    4.6713   -0.6266    1.3535 C   0  0  0  0  0  0  0  0  0  0  0  0
    5.1626    1.8188    1.1774 C   0  0  0  0  0  0  0  0  0  0  0  0
    1.6091    4.1640    0.2432 C   0  0  0  0  0  0  0  0  0  0  0  0
    7.4175   -4.9028   -0.5562 C   0  0  0  0  0  0  0  0  0  0  0  0
    4.5012   -3.7679   -2.6060 C   0  0  0  0  0  0  0  0  0  0  0  0
    0.2249    4.2682    0.3804 C   0  0  0  0  0  0  0  0  0  0  0  0
    2.2744    4.9278   -0.7155 C   0  0  0  0  0  0  0  0  0  0  0  0
   -0.4941    5.1365   -0.4413 C   0  0  0  0  0  0  0  0  0  0  0  0
    1.5555    5.7961   -1.5372 C   0  0  0  0  0  0  0  0  0  0  0  0
    0.1713    5.9003   -1.4001 C   0  0  0  0  0  0  0  0  0  0  0  0
   -2.5614    0.9954   -0.0862 H   0  0  0  0  0  0  0  0  0  0  0  0
   -0.7117    1.7952   -1.4194 H   0  0  0  0  0  0  0  0  0  0  0  0
    0.5764   -0.6528   -1.4673 H   0  0  0  0  0  0  0  0  0  0  0  0
    0.7633   -0.6986    0.9885 H   0  0  0  0  0  0  0  0  0  0  0  0
   -0.6204    0.3752    1.1723 H   0  0  0  0  0  0  0  0  0  0  0  0
   -3.2574    2.0495   -1.9952 H   0  0  0  0  0  0  0  0  0  0  0  0
   -2.1440   -2.4115    1.6837 H   0  0  0  0  0  0  0  0  0  0  0  0
   -0.0804    0.6532   -3.2741 H   0  0  0  0  0  0  0  0  0  0  0  0
   -4.4400   -2.7360    3.0798 H   0  0  0  0  0  0  0  0  0  0  0  0
    3.4979    1.2043    2.9986 H   0  0  0  0  0  0  0  0  0  0  0  0
    3.6346    0.7234    0.0946 H   0  0  0  0  0  0  0  0  0  0  0  0
    4.4195   -3.2426    0.1138 H   0  0  0  0  0  0  0  0  0  0  0  0
   -7.4299   -0.0191   -1.2480 H   0  0  0  0  0  0  0  0  0  0  0  0
    7.2438   -2.0686    0.0784 H   0  0  0  0  0  0  0  0  0  0  0  0
    6.3740   -2.4726    1.5490 H   0  0  0  0  0  0  0  0  0  0  0  0
    5.3320   -5.4058   -0.5218 H   0  0  0  0  0  0  0  0  0  0  0  0
    5.9747   -4.8907    1.0210 H   0  0  0  0  0  0  0  0  0  0  0  0
    4.9077   -1.8323   -1.8321 H   0  0  0  0  0  0  0  0  0  0  0  0
    6.3523   -2.7570   -2.2006 H   0  0  0  0  0  0  0  0  0  0  0  0
   -6.8856   -2.5080    3.4467 H   0  0  0  0  0  0  0  0  0  0  0  0
   -8.3959   -1.9347    2.8266 H   0  0  0  0  0  0  0  0  0  0  0  0
    4.7623    2.8241    1.0229 H   0  0  0  0  0  0  0  0  0  0  0  0
    5.9308    1.6588    0.4125 H   0  0  0  0  0  0  0  0  0  0  0  0
    5.6708    1.8012    2.1488 H   0  0  0  0  0  0  0  0  0  0  0  0
    8.1323   -4.2399   -0.0606 H   0  0  0  0  0  0  0  0  0  0  0  0
    7.4914   -4.7497   -1.6365 H   0  0  0  0  0  0  0  0  0  0  0  0
    7.7228   -5.9333   -0.3467 H   0  0  0  0  0  0  0  0  0  0  0  0
    4.9658   -4.7527   -2.7086 H   0  0  0  0  0  0  0  0  0  0  0  0
    4.3807   -3.3554   -3.6131 H   0  0  0  0  0  0  0  0  0  0  0  0
    3.5047   -3.8953   -2.1716 H   0  0  0  0  0  0  0  0  0  0  0  0
   -0.3267    3.6968    1.1176 H   0  0  0  0  0  0  0  0  0  0  0  0
    3.3524    4.8500   -0.8268 H   0  0  0  0  0  0  0  0  0  0  0  0
   -1.5718    5.2183   -0.3343 H   0  0  0  0  0  0  0  0  0  0  0  0
    2.0736    6.3907   -2.2839 H   0  0  0  0  0  0  0  0  0  0  0  0
   -0.3884    6.5763   -2.0400 H   0  0  0  0  0  0  0  0  0  0  0  0
  1  5  1  0  0  0  0
  1  6  1  0  0  0  0
  1  7  2  0  0  0  0
  1 12  1  0  0  0  0
  2 16  1  0  0  0  0
  2 19  1  0  0  0  0
  3 17  1  0  0  0  0
  3 48  1  0  0  0  0
  4 18  1  0  0  0  0
  4 50  1  0  0  0  0
  5 21  1  0  0  0  0
  6 35  1  0  0  0  0
  8 30  1  0  0  0  0
  8 33  1  0  0  0  0
  9 33  2  0  0  0  0
 10 11  1  0  0  0  0
 10 20  1  0  0  0  0
 10 24  1  0  0  0  0
 11 28  2  0  0  0  0
 12 27  1  0  0  0  0
 12 52  1  0  0  0  0
 13 22  3  0  0  0  0
 14 26  2  0  0  0  0
 14 28  1  0  0  0  0
 15 26  1  0  0  0  0
 15 62  1  0  0  0  0
 15 63  1  0  0  0  0
 16 17  1  0  0  0  0
 16 20  1  0  0  0  0
 16 22  1  0  0  0  0
 17 18  1  0  0  0  0
 17 43  1  0  0  0  0
 18 19  1  0  0  0  0
 18 44  1  0  0  0  0
 19 21  1  0  0  0  0
 19 45  1  0  0  0  0
 20 23  2  0  0  0  0
 21 46  1  0  0  0  0
 21 47  1  0  0  0  0
 23 25  1  0  0  0  0
 23 49  1  0  0  0  0
 24 25  2  0  0  0  0
 24 26  1  0  0  0  0
 25 51  1  0  0  0  0
 27 33  1  0  0  0  0
 27 34  1  0  0  0  0
 27 53  1  0  0  0  0
 28 55  1  0  0  0  0
 29 30  1  0  0  0  0
 29 31  1  0  0  0  0
 29 32  1  0  0  0  0
 29 54  1  0  0  0  0
 30 56  1  0  0  0  0
 30 57  1  0  0  0  0
 31 36  1  0  0  0  0
 31 58  1  0  0  0  0
 31 59  1  0  0  0  0
 32 37  1  0  0  0  0
 32 60  1  0  0  0  0
 32 61  1  0  0  0  0
 34 64  1  0  0  0  0
 34 65  1  0  0  0  0
 34 66  1  0  0  0  0
 35 38  2  0  0  0  0
 35 39  1  0  0  0  0
 36 67  1  0  0  0  0
 36 68  1  0  0  0  0
 36 69  1  0  0  0  0
 37 70  1  0  0  0  0
 37 71  1  0  0  0  0
 37 72  1  0  0  0  0
 38 40  1  0  0  0  0
 38 73  1  0  0  0  0
 39 41  2  0  0  0  0
 39 74  1  0  0  0  0
 40 42  2  0  0  0  0
 40 75  1  0  0  0  0
 41 42  1  0  0  0  0
 41 76  1  0  0  0  0
 42 77  1  0  0  0  0
M  END
> <PUBCHEM_COMPOUND_CID>
121304016

> <PUBCHEM_CONFORMER_RMSD>
1.4

> <PUBCHEM_CONFORMER_DIVERSEORDER>
1
131
148
102
68
105
12
61
57
10
134
65
42
46
40
82
121
79
3
140
157
104
28
152
23
108
20
98
86
94
153
156
35
69
167
135
129
85
95
151
55
62
113
13
141
143
59
34
114
163
91
87
99
66
142
33
15
7
159
126
75
111
92
64
4
70
76
112
83
96
37
127
80
109
133
161
78
5
93
30
164
101
158
88
138
155
24
51
132
63
77
146
53
14
136
29
103
2
45
115
166
39
147
128
49
125
116
38
58
60
122
119
74
160
123
31
107
84
90
162
27
118
165
18
54
124
8
72
17
11
120
6
106
73
97
137
48
21
130
9
36
56
89
67
47
43
50
44
139
32
150
52
16
22
144
26
100
117
154
41
110
145
71
25
81
149
19

> <PUBCHEM_MMFF94_PARTIAL_CHARGES>
49
1 1.51
10 0.51
11 -0.65
12 -0.9
13 -0.56
14 -0.66
15 -0.85
16 0.66
17 0.28
18 0.28
19 0.28
2 -0.56
20 -0.33
21 0.28
22 0.36
23 -0.15
24 -0.24
25 -0.15
26 0.58
27 0.33
28 0.6
3 -0.68
30 0.28
33 0.66
35 0.08
38 -0.15
39 -0.15
4 -0.68
40 -0.15
41 -0.15
42 -0.15
48 0.4
49 0.15
5 -0.55
50 0.4
51 0.15
52 0.36
55 0.06
6 -0.35
62 0.4
63 0.4
7 -0.7
73 0.15
74 0.15
75 0.15
76 0.15
77 0.15
8 -0.43
9 -0.57

> <PUBCHEM_EFFECTIVE_ROTOR_COUNT>
15

> <PUBCHEM_PHARMACOPHORE_FEATURES>
17
1 13 acceptor
1 15 donor
1 2 acceptor
1 3 acceptor
1 3 donor
1 36 hydrophobe
1 37 hydrophobe
1 4 acceptor
1 4 donor
1 7 acceptor
1 9 acceptor
3 11 14 28 cation
3 14 15 26 cation
5 10 20 23 24 25 rings
5 2 16 17 18 19 rings
6 10 11 14 24 26 28 rings
6 35 38 39 40 41 42 rings

> <PUBCHEM_HEAVY_ATOM_COUNT>
42

> <PUBCHEM_ATOM_DEF_STEREO_COUNT>
6

> <PUBCHEM_ATOM_UDEF_STEREO_COUNT>
0

> <PUBCHEM_BOND_DEF_STEREO_COUNT>
0

> <PUBCHEM_BOND_UDEF_STEREO_COUNT>
0

> <PUBCHEM_ISOTOPIC_ATOM_COUNT>
0

> <PUBCHEM_COMPONENT_COUNT>
1

> <PUBCHEM_CACTVS_TAUTO_COUNT>
6

> <PUBCHEM_CONFORMER_ID>
073AF3D000000083

> <PUBCHEM_MMFF94_ENERGY>
84.8011

> <PUBCHEM_FEATURE_SELFOVERLAP>
86.519

> <PUBCHEM_SHAPE_FINGERPRINT>
10010297 198 18048882097996534239
10258939 38 18266155303030738816
10653451 467 17912368628309588045
11399939 17 17911514616706789198
117089 54 18337956692893658234
11991303 11 17760652460695618356
12422481 6 17489311828248776936
13782708 43 18408601478951976143
13785724 45 18409451388217163536
14114211 80 16963801684668652173
14918310 93 18130798884537656812
21716022 299 18115043973596138060
4144715 1 17968940933005863065
504843 32 9510586992933920142
513202 73 18271244906793422243
57816373 69 18263084460927214931
6679774 75 16533120179733109992

> <PUBCHEM_SHAPE_MULTIPOLES>
791.35
17.81
8.25
2.71
4.94
12.58
0.52
-29.63
-5.08
-12.03
3.09
1.23
-0.94
4.14

> <PUBCHEM_SHAPE_SELFOVERLAP>
1655.572

> <PUBCHEM_SHAPE_VOLUME>
448.7

> <PUBCHEM_COORDINATE_TYPE>
2
5
10

$$$$
121304016
  -OEChem-12162004593D

 77 80  0     1  0  0  0  0  0999 V2000
    0.3732    1.6887   -0.6927 P   0  0  1  0  0  0  0  0  0  0  0  0
   -2.9314    0.3557   -1.1395 O   0  0  0  0  0  0  0  0  0  0  0  0
   -5.8282    0.8520    0.9450 O   0  0  0  0  0  0  0  0  0  0  0  0
   -5.6206    1.6174   -1.6770 O   0  0  0  0  0  0  0  0  0  0  0  0
   -0.8955    2.2465   -1.5494 O   0  0  0  0  0  0  0  0  0  0  0  0
    0.7815    3.0115    0.1522 O   0  0  0  0  0  0  0  0  0  0  0  0
   -0.0554    0.5511    0.1995 O   0  0  0  0  0  0  0  0  0  0  0  0
    3.2845   -0.7902   -1.8884 O   0  0  0  0  0  0  0  0  0  0  0  0
    3.2844   -0.3630   -4.1530 O   0  0  0  0  0  0  0  0  0  0  0  0
   -2.1273   -1.8605    0.7482 N   0  0  0  0  0  0  0  0  0  0  0  0
   -1.9132   -2.4488   -0.4533 N   0  0  0  0  0  0  0  0  0  0  0  0
    1.5976    1.3842   -1.7666 N   0  0  0  0  0  0  0  0  0  0  0  0
   -5.4176   -1.9181   -1.1757 N   0  0  0  0  0  0  0  0  0  0  0  0
   -0.3852   -3.9132    0.6997 N   0  0  0  0  0  0  0  0  0  0  0  0
    0.0728   -3.8075    2.9874 N   0  0  0  0  0  0  0  0  0  0  0  0
   -3.7973   -0.1426   -0.0875 C   0  0  2  0  0  0  0  0  0  0  0  0
   -4.5410    1.1109    0.4175 C   0  0  1  0  0  0  0  0  0  0  0  0
   -4.5768    2.0219   -0.7942 C   0  0  1  0  0  0  0  0  0  0  0  0
   -3.2328    1.7337   -1.4411 C   0  0  1  0  0  0  0  0  0  0  0  0
   -2.9657   -0.8078    1.0067 C   0  0  0  0  0  0  0  0  0  0  0  0
   -2.1032    2.5965   -0.8939 C   0  0  0  0  0  0  0  0  0  0  0  0
   -4.7051   -1.1374   -0.6971 C   0  0  0  0  0  0  0  0  0  0  0  0
   -2.8847   -0.5248    2.3536 C   0  0  0  0  0  0  0  0  0  0  0  0
   -1.5140   -2.2519    1.9102 C   0  0  0  0  0  0  0  0  0  0  0  0
   -1.9652   -1.4389    2.9272 C   0  0  0  0  0  0  0  0  0  0  0  0
   -0.5826   -3.3539    1.8677 C   0  0  0  0  0  0  0  0  0  0  0  0
    1.4027    0.3352   -2.7656 C   0  0  2  0  0  0  0  0  0  0  0  0
   -1.0610   -3.4337   -0.4075 C   0  0  0  0  0  0  0  0  0  0  0  0
    5.0291   -1.9121   -0.6261 C   0  0  0  0  0  0  0  0  0  0  0  0
    4.5567   -1.4134   -2.0014 C   0  0  0  0  0  0  0  0  0  0  0  0
    4.1517   -3.0623   -0.0834 C   0  0  0  0  0  0  0  0  0  0  0  0
    5.1615   -0.7141    0.3342 C   0  0  0  0  0  0  0  0  0  0  0  0
    2.7503   -0.2998   -3.0532 C   0  0  0  0  0  0  0  0  0  0  0  0
    0.8097    0.9356   -4.0330 C   0  0  0  0  0  0  0  0  0  0  0  0
    1.6451    3.0413    1.2136 C   0  0  0  0  0  0  0  0  0  0  0  0
    4.6159   -3.6634    1.2360 C   0  0  0  0  0  0  0  0  0  0  0  0
    6.0809    0.3858   -0.1769 C   0  0  0  0  0  0  0  0  0  0  0  0
    2.2553    1.8652    1.6496 C   0  0  0  0  0  0  0  0  0  0  0  0
    1.9152    4.2479    1.8592 C   0  0  0  0  0  0  0  0  0  0  0  0
    3.1355    1.8955    2.7314 C   0  0  0  0  0  0  0  0  0  0  0  0
    2.7953    4.2784    2.9409 C   0  0  0  0  0  0  0  0  0  0  0  0
    3.4054    3.1022    3.3770 C   0  0  0  0  0  0  0  0  0  0  0  0
   -3.9613    1.6276    1.1915 H   0  0  0  0  0  0  0  0  0  0  0  0
   -4.7437    3.0728   -0.5403 H   0  0  0  0  0  0  0  0  0  0  0  0
   -3.2674    1.8157   -2.5332 H   0  0  0  0  0  0  0  0  0  0  0  0
   -1.9840    2.4664    0.1867 H   0  0  0  0  0  0  0  0  0  0  0  0
   -2.2983    3.6554   -1.0895 H   0  0  0  0  0  0  0  0  0  0  0  0
   -6.2434    1.7099    1.1375 H   0  0  0  0  0  0  0  0  0  0  0  0
   -3.4252    0.2440    2.8871 H   0  0  0  0  0  0  0  0  0  0  0  0
   -5.5743    2.1887   -2.4626 H   0  0  0  0  0  0  0  0  0  0  0  0
   -1.6714   -1.4937    3.9662 H   0  0  0  0  0  0  0  0  0  0  0  0
    2.0473    2.1915   -2.1975 H   0  0  0  0  0  0  0  0  0  0  0  0
    0.7436   -0.4566   -2.3909 H   0  0  0  0  0  0  0  0  0  0  0  0
    6.0357   -2.3289   -0.7714 H   0  0  0  0  0  0  0  0  0  0  0  0
   -0.8420   -3.9552   -1.3538 H   0  0  0  0  0  0  0  0  0  0  0  0
    4.4708   -2.2713   -2.6804 H   0  0  0  0  0  0  0  0  0  0  0  0
    5.2790   -0.7198   -2.4453 H   0  0  0  0  0  0  0  0  0  0  0  0
    4.1203   -3.8632   -0.8326 H   0  0  0  0  0  0  0  0  0  0  0  0
    3.1198   -2.7104    0.0394 H   0  0  0  0  0  0  0  0  0  0  0  0
    4.1751   -0.2934    0.5543 H   0  0  0  0  0  0  0  0  0  0  0  0
    5.5701   -1.0639    1.2891 H   0  0  0  0  0  0  0  0  0  0  0  0
   -0.0664   -3.3876    3.9003 H   0  0  0  0  0  0  0  0  0  0  0  0
    0.7240   -4.5832    2.9306 H   0  0  0  0  0  0  0  0  0  0  0  0
   -0.1822    1.3608   -3.8540 H   0  0  0  0  0  0  0  0  0  0  0  0
    0.6995    0.1677   -4.8073 H   0  0  0  0  0  0  0  0  0  0  0  0
    1.4483    1.7238   -4.4488 H   0  0  0  0  0  0  0  0  0  0  0  0
    4.5210   -2.9470    2.0571 H   0  0  0  0  0  0  0  0  0  0  0  0
    5.6596   -3.9865    1.1735 H   0  0  0  0  0  0  0  0  0  0  0  0
    4.0038   -4.5357    1.4871 H   0  0  0  0  0  0  0  0  0  0  0  0
    7.0447   -0.0194   -0.5001 H   0  0  0  0  0  0  0  0  0  0  0  0
    6.2712    1.1103    0.6222 H   0  0  0  0  0  0  0  0  0  0  0  0
    5.6321    0.9378   -1.0078 H   0  0  0  0  0  0  0  0  0  0  0  0
    2.1005    0.9077    1.1686 H   0  0  0  0  0  0  0  0  0  0  0  0
    1.4428    5.1670    1.5237 H   0  0  0  0  0  0  0  0  0  0  0  0
    3.6160    0.9811    3.0671 H   0  0  0  0  0  0  0  0  0  0  0  0
    3.0059    5.2179    3.4433 H   0  0  0  0  0  0  0  0  0  0  0  0
    4.0920    3.1262    4.2182 H   0  0  0  0  0  0  0  0  0  0  0  0
  1  5  1  0  0  0  0
  1  6  1  0  0  0  0
  1  7  2  0  0  0  0
  1 12  1  0  0  0  0
  2 16  1  0  0  0  0
  2 19  1  0  0  0  0
  3 17  1  0  0  0  0
  3 48  1  0  0  0  0
  4 18  1  0  0  0  0
  4 50  1  0  0  0  0
  5 21  1  0  0  0  0
  6 35  1  0  0  0  0
  8 30  1  0  0  0  0
  8 33  1  0  0  0  0
  9 33  2  0  0  0  0
 10 11  1  0  0  0  0
 10 20  1  0  0  0  0
 10 24  1  0  0  0  0
 11 28  2  0  0  0  0
 12 27  1  0  0  0  0
 12 52  1  0  0  0  0
 13 22  3  0  0  0  0
 14 26  2  0  0  0  0
 14 28  1  0  0  0  0
 15 26  1  0  0  0  0
 15 62  1  0  0  0  0
 15 63  1  0  0  0  0
 16 17  1  0  0  0  0
 16 20  1  0  0  0  0
 16 22  1  0  0  0  0
 17 18  1  0  0  0  0
 17 43  1  0  0  0  0
 18 19  1  0  0  0  0
 18 44  1  0  0  0  0
 19 21  1  0  0  0  0
 19 45  1  0  0  0  0
 20 23  2  0  0  0  0
 21 46  1  0  0  0  0
 21 47  1  0  0  0  0
 23 25  1  0  0  0  0
 23 49  1  0  0  0  0
 24 25  2  0  0  0  0
 24 26  1  0  0  0  0
 25 51  1  0  0  0  0
 27 33  1  0  0  0  0
 27 34  1  0  0  0  0
 27 53  1  0  0  0  0
 28 55  1  0  0  0  0
 29 30  1  0  0  0  0
 29 31  1  0  0  0  0
 29 32  1  0  0  0  0
 29 54  1  0  0  0  0
 30 56  1  0  0  0  0
 30 57  1  0  0  0  0
 31 36  1  0  0  0  0
 31 58  1  0  0  0  0
 31 59  1  0  0  0  0
 32 37  1  0  0  0  0
 32 60  1  0  0  0  0
 32 61  1  0  0  0  0
 34 64  1  0  0  0  0
 34 65  1  0  0  0  0
 34 66  1  0  0  0  0
 35 38  2  0  0  0  0
 35 39  1  0  0  0  0
 36 67  1  0  0  0  0
 36 68  1  0  0  0  0
 36 69  1  0  0  0  0
 37 70  1  0  0  0  0
 37 71  1  0  0  0  0
 37 72  1  0  0  0  0
 38 40  1  0  0  0  0
 38 73  1  0  0  0  0
 39 41  2  0  0  0  0
 39 74  1  0  0  0  0
 40 42  2  0  0  0  0
 40 75  1  0  0  0  0
 41 42  1  0  0  0  0
 41 76  1  0  0  0  0
 42 77  1  0  0  0  0
M  END
> <PUBCHEM_COMPOUND_CID>
121304016

> <PUBCHEM_CONFORMER_RMSD>
1.4

> <PUBCHEM_CONFORMER_DIVERSEORDER>
1
131
148
102
68
105
12
61
57
10
134
65
42
46
40
82
121
79
3
140
157
104
28
152
23
108
20
98
86
94
153
156
35
69
167
135
129
85
95
151
55
62
113
13
141
143
59
34
114
163
91
87
99
66
142
33
15
7
159
126
75
111
92
64
4
70
76
112
83
96
37
127
80
109
133
161
78
5
93
30
164
101
158
88
138
155
24
51
132
63
77
146
53
14
136
29
103
2
45
115
166
39
147
128
49
125
116
38
58
60
122
119
74
160
123
31
107
84
90
162
27
118
165
18
54
124
8
72
17
11
120
6
106
73
97
137
48
21
130
9
36
56
89
67
47
43
50
44
139
32
150
52
16
22
144
26
100
117
154
41
110
145
71
25
81
149
19

> <PUBCHEM_MMFF94_PARTIAL_CHARGES>
49
1 1.51
10 0.51
11 -0.65
12 -0.9
13 -0.56
14 -0.66
15 -0.85
16 0.66
17 0.28
18 0.28
19 0.28
2 -0.56
20 -0.33
21 0.28
22 0.36
23 -0.15
24 -0.24
25 -0.15
26 0.58
27 0.33
28 0.6
3 -0.68
30 0.28
33 0.66
35 0.08
38 -0.15
39 -0.15
4 -0.68
40 -0.15
41 -0.15
42 -0.15
48 0.4
49 0.15
5 -0.55
50 0.4
51 0.15
52 0.36
55 0.06
6 -0.35
62 0.4
63 0.4
7 -0.7
73 0.15
74 0.15
75 0.15
76 0.15
77 0.15
8 -0.43
9 -0.57

> <PUBCHEM_EFFECTIVE_ROTOR_COUNT>
15

> <PUBCHEM_PHARMACOPHORE_FEATURES>
17
1 13 acceptor
1 15 donor
1 2 acceptor
1 3 acceptor
1 3 donor
1 36 hydrophobe
1 37 hydrophobe
1 4 acceptor
1 4 donor
1 7 acceptor
1 9 acceptor
3 11 14 28 cation
3 14 15 26 cation
5 10 20 23 24 25 rings
5 2 16 17 18 19 rings
6 10 11 14 24 26 28 rings
6 35 38 39 40 41 42 rings

> <PUBCHEM_HEAVY_ATOM_COUNT>
42

> <PUBCHEM_ATOM_DEF_STEREO_COUNT>
6

> <PUBCHEM_ATOM_UDEF_STEREO_COUNT>
0

> <PUBCHEM_BOND_DEF_STEREO_COUNT>
0

> <PUBCHEM_BOND_UDEF_STEREO_COUNT>
0

> <PUBCHEM_ISOTOPIC_ATOM_COUNT>
0

> <PUBCHEM_COMPONENT_COUNT>
1

> <PUBCHEM_CACTVS_TAUTO_COUNT>
6

> <PUBCHEM_CONFORMER_ID>
073AF3D000000094

> <PUBCHEM_MMFF94_ENERGY>
84.1378

> <PUBCHEM_FEATURE_SELFOVERLAP>
86.519

> <PUBCHEM_SHAPE_FINGERPRINT>
11093857 51 17749382624849899235
12128747 34 18411974797694553124
12156800 1 13989415521047320895
12717326 68 17476911824090221422
12788726 201 18125458414495058134
13383668 262 15430894257655064435
14020679 6 18343291570572182652
14932702 115 18116460131460230212
15001296 14 17095251314845707796
150020 26 18187945974629818090
20764821 26 18126298436935733442
22223350 30 18335991947287981083
25265897 201 18265897045439162353
3493558 16 17540256445502818330
45266715 3 18118949515779913879
550186 83 16226041163825883510
6679774 75 17530969098822099627

> <PUBCHEM_SHAPE_MULTIPOLES>
791.35
11.42
5.55
4.04
1.67
0.72
1.45
-1.77
1.77
-4.17
-4.91
-2.99
0.63
3.97

> <PUBCHEM_SHAPE_SELFOVERLAP>
1655.269

> <PUBCHEM_SHAPE_VOLUME>
449.4

> <PUBCHEM_COORDINATE_TYPE>
2
5
10

$$$$
121304016
  -OEChem-12162004593D

 77 80  0     1  0  0  0  0  0999 V2000
    0.7186    0.1097   -0.7666 P   0  0  1  0  0  0  0  0  0  0  0  0
   -2.8379    2.0149   -0.7980 O   0  0  0  0  0  0  0  0  0  0  0  0
   -4.6028    3.1073    2.1472 O   0  0  0  0  0  0  0  0  0  0  0  0
   -3.3301    4.7557    0.3676 O   0  0  0  0  0  0  0  0  0  0  0  0
   -0.0764    1.5219   -0.9343 O   0  0  0  0  0  0  0  0  0  0  0  0
   -0.3889   -0.7774    0.0186 O   0  0  0  0  0  0  0  0  0  0  0  0
    1.0570   -0.4658   -2.1188 O   0  0  0  0  0  0  0  0  0  0  0  0
    5.5671    0.7854    0.0445 O   0  0  0  0  0  0  0  0  0  0  0  0
    4.2564   -0.3904    1.5313 O   0  0  0  0  0  0  0  0  0  0  0  0
   -3.9014   -0.5985   -0.5828 N   0  0  0  0  0  0  0  0  0  0  0  0
   -3.3401   -0.3913   -1.7985 N   0  0  0  0  0  0  0  0  0  0  0  0
    1.9784    0.3737    0.2767 N   0  0  0  0  0  0  0  0  0  0  0  0
   -6.0695    2.9373   -1.0400 N   0  0  0  0  0  0  0  0  0  0  0  0
   -3.4518   -2.7805   -2.0953 N   0  0  0  0  0  0  0  0  0  0  0  0
   -4.3078   -4.2694   -0.5126 N   0  0  0  0  0  0  0  0  0  0  0  0
   -3.9598    1.8429    0.1059 C   0  0  2  0  0  0  0  0  0  0  0  0
   -3.5295    2.5821    1.3896 C   0  0  1  0  0  0  0  0  0  0  0  0
   -2.5850    3.6571    0.8879 C   0  0  1  0  0  0  0  0  0  0  0  0
   -1.8790    2.9446   -0.2531 C   0  0  1  0  0  0  0  0  0  0  0  0
   -4.2179    0.3575    0.3466 C   0  0  0  0  0  0  0  0  0  0  0  0
   -0.6555    2.1555    0.1944 C   0  0  0  0  0  0  0  0  0  0  0  0
   -5.1418    2.4560   -0.5361 C   0  0  0  0  0  0  0  0  0  0  0  0
   -4.7681   -0.2807    1.4377 C   0  0  0  0  0  0  0  0  0  0  0  0
   -4.2422   -1.8355   -0.0999 C   0  0  0  0  0  0  0  0  0  0  0  0
   -4.7842   -1.6702    1.1562 C   0  0  0  0  0  0  0  0  0  0  0  0
   -3.9947   -2.9954   -0.9227 C   0  0  0  0  0  0  0  0  0  0  0  0
    3.2285    0.9063   -0.2619 C   0  0  2  0  0  0  0  0  0  0  0  0
   -3.1498   -1.4865   -2.4787 C   0  0  0  0  0  0  0  0  0  0  0  0
    7.9923    0.9026    0.0299 C   0  0  0  0  0  0  0  0  0  0  0  0
    6.7374    0.3342    0.7124 C   0  0  0  0  0  0  0  0  0  0  0  0
    8.0198    0.6129   -1.4875 C   0  0  0  0  0  0  0  0  0  0  0  0
    9.2469    0.4225    0.7855 C   0  0  0  0  0  0  0  0  0  0  0  0
    4.3740    0.3454    0.5599 C   0  0  0  0  0  0  0  0  0  0  0  0
    3.2118    2.4272   -0.1933 C   0  0  0  0  0  0  0  0  0  0  0  0
   -0.1809   -2.0233    0.5458 C   0  0  0  0  0  0  0  0  0  0  0  0
    8.0925   -0.8605   -1.8640 C   0  0  0  0  0  0  0  0  0  0  0  0
   10.5473    1.0069    0.2529 C   0  0  0  0  0  0  0  0  0  0  0  0
    0.7452   -2.8841   -0.0430 C   0  0  0  0  0  0  0  0  0  0  0  0
   -0.8951   -2.4321    1.6719 C   0  0  0  0  0  0  0  0  0  0  0  0
    0.9573   -4.1539    0.4943 C   0  0  0  0  0  0  0  0  0  0  0  0
   -0.6833   -3.7016    2.2094 C   0  0  0  0  0  0  0  0  0  0  0  0
    0.2429   -4.5626    1.6206 C   0  0  0  0  0  0  0  0  0  0  0  0
   -2.9642    1.9036    2.0422 H   0  0  0  0  0  0  0  0  0  0  0  0
   -1.9191    4.0437    1.6648 H   0  0  0  0  0  0  0  0  0  0  0  0
   -1.6048    3.6259   -1.0662 H   0  0  0  0  0  0  0  0  0  0  0  0
   -0.9271    1.4059    0.9431 H   0  0  0  0  0  0  0  0  0  0  0  0
    0.0909    2.8247    0.6336 H   0  0  0  0  0  0  0  0  0  0  0  0
   -4.2202    3.6255    2.8757 H   0  0  0  0  0  0  0  0  0  0  0  0
   -5.1236    0.1960    2.3406 H   0  0  0  0  0  0  0  0  0  0  0  0
   -2.6918    5.3952    0.0082 H   0  0  0  0  0  0  0  0  0  0  0  0
   -5.1510   -2.4561    1.8015 H   0  0  0  0  0  0  0  0  0  0  0  0
    1.7708    0.7949    1.1813 H   0  0  0  0  0  0  0  0  0  0  0  0
    3.3723    0.5621   -1.2919 H   0  0  0  0  0  0  0  0  0  0  0  0
    7.9399    1.9966    0.1238 H   0  0  0  0  0  0  0  0  0  0  0  0
   -2.6946   -1.3865   -3.4777 H   0  0  0  0  0  0  0  0  0  0  0  0
    6.7045    0.6747    1.7549 H   0  0  0  0  0  0  0  0  0  0  0  0
    6.7610   -0.7620    0.7101 H   0  0  0  0  0  0  0  0  0  0  0  0
    8.8686    1.1346   -1.9447 H   0  0  0  0  0  0  0  0  0  0  0  0
    7.1273    1.0459   -1.9560 H   0  0  0  0  0  0  0  0  0  0  0  0
    9.1542    0.7095    1.8408 H   0  0  0  0  0  0  0  0  0  0  0  0
    9.3103   -0.6717    0.7694 H   0  0  0  0  0  0  0  0  0  0  0  0
   -4.7270   -4.4563    0.3921 H   0  0  0  0  0  0  0  0  0  0  0  0
   -4.1231   -5.0683   -1.1097 H   0  0  0  0  0  0  0  0  0  0  0  0
    2.3796    2.8423   -0.7710 H   0  0  0  0  0  0  0  0  0  0  0  0
    4.1351    2.8501   -0.6042 H   0  0  0  0  0  0  0  0  0  0  0  0
    3.1247    2.7840    0.8396 H   0  0  0  0  0  0  0  0  0  0  0  0
    7.2246   -1.4136   -1.4938 H   0  0  0  0  0  0  0  0  0  0  0  0
    8.9988   -1.3317   -1.4733 H   0  0  0  0  0  0  0  0  0  0  0  0
    8.1096   -0.9648   -2.9539 H   0  0  0  0  0  0  0  0  0  0  0  0
   10.7761    0.6329   -0.7491 H   0  0  0  0  0  0  0  0  0  0  0  0
   11.3795    0.7252    0.9063 H   0  0  0  0  0  0  0  0  0  0  0  0
   10.5016    2.0998    0.2157 H   0  0  0  0  0  0  0  0  0  0  0  0
    1.3138   -2.6045   -0.9221 H   0  0  0  0  0  0  0  0  0  0  0  0
   -1.6149   -1.7641    2.1367 H   0  0  0  0  0  0  0  0  0  0  0  0
    1.6773   -4.8251    0.0353 H   0  0  0  0  0  0  0  0  0  0  0  0
   -1.2394   -4.0195    3.0864 H   0  0  0  0  0  0  0  0  0  0  0  0
    0.4075   -5.5513    2.0388 H   0  0  0  0  0  0  0  0  0  0  0  0
  1  5  1  0  0  0  0
  1  6  1  0  0  0  0
  1  7  2  0  0  0  0
  1 12  1  0  0  0  0
  2 16  1  0  0  0  0
  2 19  1  0  0  0  0
  3 17  1  0  0  0  0
  3 48  1  0  0  0  0
  4 18  1  0  0  0  0
  4 50  1  0  0  0  0
  5 21  1  0  0  0  0
  6 35  1  0  0  0  0
  8 30  1  0  0  0  0
  8 33  1  0  0  0  0
  9 33  2  0  0  0  0
 10 11  1  0  0  0  0
 10 20  1  0  0  0  0
 10 24  1  0  0  0  0
 11 28  2  0  0  0  0
 12 27  1  0  0  0  0
 12 52  1  0  0  0  0
 13 22  3  0  0  0  0
 14 26  2  0  0  0  0
 14 28  1  0  0  0  0
 15 26  1  0  0  0  0
 15 62  1  0  0  0  0
 15 63  1  0  0  0  0
 16 17  1  0  0  0  0
 16 20  1  0  0  0  0
 16 22  1  0  0  0  0
 17 18  1  0  0  0  0
 17 43  1  0  0  0  0
 18 19  1  0  0  0  0
 18 44  1  0  0  0  0
 19 21  1  0  0  0  0
 19 45  1  0  0  0  0
 20 23  2  0  0  0  0
 21 46  1  0  0  0  0
 21 47  1  0  0  0  0
 23 25  1  0  0  0  0
 23 49  1  0  0  0  0
 24 25  2  0  0  0  0
 24 26  1  0  0  0  0
 25 51  1  0  0  0  0
 27 33  1  0  0  0  0
 27 34  1  0  0  0  0
 27 53  1  0  0  0  0
 28 55  1  0  0  0  0
 29 30  1  0  0  0  0
 29 31  1  0  0  0  0
 29 32  1  0  0  0  0
 29 54  1  0  0  0  0
 30 56  1  0  0  0  0
 30 57  1  0  0  0  0
 31 36  1  0  0  0  0
 31 58  1  0  0  0  0
 31 59  1  0  0  0  0
 32 37  1  0  0  0  0
 32 60  1  0  0  0  0
 32 61  1  0  0  0  0
 34 64  1  0  0  0  0
 34 65  1  0  0  0  0
 34 66  1  0  0  0  0
 35 38  2  0  0  0  0
 35 39  1  0  0  0  0
 36 67  1  0  0  0  0
 36 68  1  0  0  0  0
 36 69  1  0  0  0  0
 37 70  1  0  0  0  0
 37 71  1  0  0  0  0
 37 72  1  0  0  0  0
 38 40  1  0  0  0  0
 38 73  1  0  0  0  0
 39 41  2  0  0  0  0
 39 74  1  0  0  0  0
 40 42  2  0  0  0  0
 40 75  1  0  0  0  0
 41 42  1  0  0  0  0
 41 76  1  0  0  0  0
 42 77  1  0  0  0  0
M  END
> <PUBCHEM_COMPOUND_CID>
121304016

> <PUBCHEM_CONFORMER_RMSD>
1.4

> <PUBCHEM_CONFORMER_DIVERSEORDER>
1
131
148
102
68
105
12
61
57
10
134
65
42
46
40
82
121
79
3
140
157
104
28
152
23
108
20
98
86
94
153
156
35
69
167
135
129
85
95
151
55
62
113
13
141
143
59
34
114
163
91
87
99
66
142
33
15
7
159
126
75
111
92
64
4
70
76
112
83
96
37
127
80
109
133
161
78
5
93
30
164
101
158
88
138
155
24
51
132
63
77
146
53
14
136
29
103
2
45
115
166
39
147
128
49
125
116
38
58
60
122
119
74
160
123
31
107
84
90
162
27
118
165
18
54
124
8
72
17
11
120
6
106
73
97
137
48
21
130
9
36
56
89
67
47
43
50
44
139
32
150
52
16
22
144
26
100
117
154
41
110
145
71
25
81
149
19

> <PUBCHEM_MMFF94_PARTIAL_CHARGES>
49
1 1.51
10 0.51
11 -0.65
12 -0.9
13 -0.56
14 -0.66
15 -0.85
16 0.66
17 0.28
18 0.28
19 0.28
2 -0.56
20 -0.33
21 0.28
22 0.36
23 -0.15
24 -0.24
25 -0.15
26 0.58
27 0.33
28 0.6
3 -0.68
30 0.28
33 0.66
35 0.08
38 -0.15
39 -0.15
4 -0.68
40 -0.15
41 -0.15
42 -0.15
48 0.4
49 0.15
5 -0.55
50 0.4
51 0.15
52 0.36
55 0.06
6 -0.35
62 0.4
63 0.4
7 -0.7
73 0.15
74 0.15
75 0.15
76 0.15
77 0.15
8 -0.43
9 -0.57

> <PUBCHEM_EFFECTIVE_ROTOR_COUNT>
15

> <PUBCHEM_PHARMACOPHORE_FEATURES>
17
1 13 acceptor
1 15 donor
1 2 acceptor
1 3 acceptor
1 3 donor
1 36 hydrophobe
1 37 hydrophobe
1 4 acceptor
1 4 donor
1 7 acceptor
1 9 acceptor
3 11 14 28 cation
3 14 15 26 cation
5 10 20 23 24 25 rings
5 2 16 17 18 19 rings
6 10 11 14 24 26 28 rings
6 35 38 39 40 41 42 rings

> <PUBCHEM_HEAVY_ATOM_COUNT>
42

> <PUBCHEM_ATOM_DEF_STEREO_COUNT>
6

> <PUBCHEM_ATOM_UDEF_STEREO_COUNT>
0

> <PUBCHEM_BOND_DEF_STEREO_COUNT>
0

> <PUBCHEM_BOND_UDEF_STEREO_COUNT>
0

> <PUBCHEM_ISOTOPIC_ATOM_COUNT>
0

> <PUBCHEM_COMPONENT_COUNT>
1

> <PUBCHEM_CACTVS_TAUTO_COUNT>
6

> <PUBCHEM_CONFORMER_ID>
073AF3D000000001

> <PUBCHEM_MMFF94_ENERGY>
79.8902

> <PUBCHEM_FEATURE_SELFOVERLAP>
86.519

> <PUBCHEM_SHAPE_FINGERPRINT>
10462385 53 18130797772172989646
11007060 377 18412270515157351184
11136131 41 18041837291239182498
12104220 1 18336543919146523426
14279260 333 18411414017021590766
14340393 34 17560815298998090150
14725015 67 18192713565244690411
14856354 85 18340771562630212415
15021287 119 16732704978280635668
15183329 4 17968365854101714058
15361156 5 18197782305437820108
16112460 7 18259698978925978506
19304152 47 18116165388998083889
19311894 1 18126840732096951383
20775438 99 16324815043663056839
3383291 50 18335982077690784482
469060 322 18190202194819114153
9896288 288 18341625785044793457

> <PUBCHEM_SHAPE_MULTIPOLES>
791.35
21.13
5.68
1.86
70.33
2.12
0.38
-9.39
1.8
-9.67
-1.84
-0.97
1
-1.21

> <PUBCHEM_SHAPE_SELFOVERLAP>
1654.563

> <PUBCHEM_SHAPE_VOLUME>
449.9

> <PUBCHEM_COORDINATE_TYPE>
2
5
10

$$$$
