SA15_0001.mol
  ChemDraw05222415042D

 22 25  0  0  0  0  0  0  0  0999 V2000
   -1.8723    2.4024    0.0000 C   0  0  0  0  0  0  0  0  0  0  0  0
   -2.5867    1.9899    0.0000 C   0  0  0  0  0  0  0  0  0  0  0  0
   -2.5867    1.1649    0.0000 C   0  0  0  0  0  0  0  0  0  0  0  0
   -1.8723    0.7524    0.0000 C   0  0  0  0  0  0  0  0  0  0  0  0
   -1.1578    1.1649    0.0000 C   0  0  0  0  0  0  0  0  0  0  0  0
   -1.1578    1.9899    0.0000 C   0  0  0  0  0  0  0  0  0  0  0  0
   -0.3732    0.9100    0.0000 C   0  0  0  0  0  0  0  0  0  0  0  0
    0.1117    1.5774    0.0000 C   0  0  0  0  0  0  0  0  0  0  0  0
   -0.3732    2.2449    0.0000 N   0  0  0  0  0  0  0  0  0  0  0  0
    0.9367    1.5774    0.0000 C   0  0  0  0  0  0  0  0  0  0  0  0
    1.3492    0.8630    0.0000 C   0  0  0  0  0  0  0  0  0  0  0  0
    2.1742    0.8630    0.0000 C   0  0  0  0  0  0  0  0  0  0  0  0
    2.5867    1.5774    0.0000 C   0  0  0  0  0  0  0  0  0  0  0  0
    2.1742    2.2919    0.0000 C   0  0  0  0  0  0  0  0  0  0  0  0
    1.3492    2.2919    0.0000 C   0  0  0  0  0  0  0  0  0  0  0  0
   -0.1182    0.1254    0.0000 C   0  0  0  0  0  0  0  0  0  0  0  0
    0.5962   -0.2871    0.0000 N   0  0  0  0  0  0  0  0  0  0  0  0
    0.8098   -1.0840    0.0000 N   0  0  0  0  0  0  0  0  0  0  0  0
    0.2264   -1.6674    0.0000 C   0  0  0  0  0  0  0  0  0  0  0  0
    0.6009   -2.4024    0.0000 N   0  0  0  0  0  0  0  0  0  0  0  0
    1.4158   -2.2734    0.0000 N   0  0  0  0  0  0  0  0  0  0  0  0
    1.5448   -1.4585    0.0000 C   0  0  0  0  0  0  0  0  0  0  0  0
  1  2  2  0      
  2  3  1  0      
  3  4  2  0      
  4  5  1  0      
  5  6  2  0      
  6  1  1  0      
  5  7  1  0      
  7  8  2  0      
  8  9  1  0      
  9  6  1  0      
  8 10  1  0      
 10 11  1  0      
 11 12  2  0      
 12 13  1  0      
 13 14  2  0      
 14 15  1  0      
 15 10  2  0      
  7 16  1  0      
 16 17  2  0      
 17 18  1  0      
 18 19  1  0      
 19 20  2  0      
 20 21  1  0      
 21 22  2  0      
 22 18  1  0      
M  END
