SA21_0008.mol
  ChemDraw05232413462D

 34 34  0  0  1  0  0  0  0  0999 V2000
    0.7575    4.6141    0.0000 C   0  0  0  0  0  0  0  0  0  0  0  0
   -0.0675    4.6141    0.0000 C   0  0  0  0  0  0  0  0  0  0  0  0
   -0.4800    3.8996    0.0000 C   0  0  0  0  0  0  0  0  0  0  0  0
   -0.0675    3.1851    0.0000 C   0  0  0  0  0  0  0  0  0  0  0  0
    0.7575    3.1851    0.0000 C   0  0  0  0  0  0  0  0  0  0  0  0
    1.1700    3.8996    0.0000 C   0  0  0  0  0  0  0  0  0  0  0  0
   -0.4800    2.4707    0.0000 C   0  0  0  0  0  0  0  0  0  0  0  0
   -0.0675    1.7562    0.0000 O   0  0  0  0  0  0  0  0  0  0  0  0
   -0.4800    1.0417    0.0000 C   0  0  0  0  0  0  0  0  0  0  0  0
   -0.0675    0.3273    0.0000 N   0  0  0  0  0  0  0  0  0  0  0  0
   -0.4800   -0.3872    0.0000 C   0  0  0  0  0  0  0  0  0  0  0  0
   -0.0675   -1.1017    0.0000 C   0  0  0  0  0  0  0  0  0  0  0  0
   -0.4800   -1.8162    0.0000 N   0  0  0  0  0  0  0  0  0  0  0  0
   -0.0675   -2.5306    0.0000 C   0  0  0  0  0  0  0  0  0  0  0  0
   -0.4800   -3.2451    0.0000 C   0  0  0  0  0  0  0  0  0  0  0  0
   -0.0675   -3.9596    0.0000 S   0  0  0  0  0  0  0  0  0  0  0  0
   -1.3050   -3.2451    0.0000 O   0  0  0  0  0  0  0  0  0  0  0  0
   -0.6509   -4.5429    0.0000 O   0  0  0  0  0  0  0  0  0  0  0  0
    0.6470   -3.5471    0.0000 O   0  0  0  0  0  0  0  0  0  0  0  0
    0.7575   -2.5306    0.0000 C   0  0  0  0  0  0  0  0  0  0  0  0
    1.1700   -3.2451    0.0000 C   0  0  0  0  0  0  0  0  0  0  0  0
    0.8344   -3.9988    0.0000 C   0  0  0  0  0  0  0  0  0  0  0  0
    1.4475   -4.5508    0.0000 C   0  0  0  0  0  0  0  0  0  0  0  0
    2.1620   -4.1383    0.0000 N   0  0  0  0  0  0  0  0  0  0  0  0
    1.9905   -3.3313    0.0000 C   0  0  0  0  0  0  0  0  0  0  0  0
    2.5425   -2.7182    0.0000 O   0  0  0  0  0  0  0  0  0  0  0  0
   -1.3050   -0.3872    0.0000 C   0  0  0  0  0  0  0  0  0  0  0  0
   -1.7175   -1.1017    0.0000 C   0  0  0  0  0  0  0  0  0  0  0  0
   -2.5425   -1.1017    0.0000 C   0  0  0  0  0  0  0  0  0  0  0  0
   -1.3050   -1.8162    0.0000 C   0  0  0  0  0  0  0  0  0  0  0  0
    0.7575   -1.1017    0.0000 O   0  0  0  0  0  0  0  0  0  0  0  0
   -1.3050    1.0417    0.0000 O   0  0  0  0  0  0  0  0  0  0  0  0
    0.4347   -4.6141    0.0000 O   0  5  0  0  0  0  0  0  0  0  0  0
    1.2494   -4.5068    0.0000 Na  0  3  0  0  0  0  0  0  0  0  0  0
 16 33  1  0      
  1  2  2  0      
  2  3  1  0      
  3  4  2  0      
  4  5  1  0      
  5  6  2  0      
  6  1  1  0      
  4  7  1  0      
  7  8  1  0      
  8  9  1  0      
  9 10  1  0      
 10 11  1  0      
 11 12  1  0      
 12 13  1  0      
 13 14  1  0      
 14 15  1  0      
 15 16  1  0      
 15 17  1  0      
 16 18  2  0      
 16 19  2  0      
 20 21  1  0      
 21 22  1  0      
 22 23  1  0      
 23 24  1  0      
 24 25  1  0      
 25 21  1  0      
 25 26  2  0      
 11 27  1  6      
 27 28  1  0      
 28 29  1  0      
 28 30  1  0      
 12 31  2  0      
  9 32  2  0      
 14 20  1  1      
M  CHG  2  33  -1  34   1
M  STY  1   1 SUP
M  SLB  1   1   1
M  SAL   1  2  33  34
M  SBL   1  1   1
M  SMT   1 O\S-\nNa+
M  SBV   1   1   -0.5022    0.6545
M  END
