SA21_0003.mol
  ChemDraw05232411152D

 25 27  0  0  0  0  0  0  0  0999 V2000
   -2.4974   -1.0390    0.0000 C   0  0  0  0  0  0  0  0  0  0  0  0
   -3.2943   -1.2525    0.0000 C   0  0  0  0  0  0  0  0  0  0  0  0
   -3.5078   -2.0494    0.0000 C   0  0  0  0  0  0  0  0  0  0  0  0
   -2.9245   -2.6328    0.0000 C   0  0  0  0  0  0  0  0  0  0  0  0
   -2.1276   -2.4193    0.0000 C   0  0  0  0  0  0  0  0  0  0  0  0
   -1.9141   -1.6224    0.0000 C   0  0  0  0  0  0  0  0  0  0  0  0
   -2.2839   -0.2421    0.0000 C   0  0  0  0  0  0  0  0  0  0  0  0
   -3.1380   -3.4297    0.0000 Cl  0  0  0  0  0  0  0  0  0  0  0  0
   -1.4870   -0.0286    0.0000 N   0  0  0  0  0  0  0  0  0  0  0  0
   -1.2735    0.7683    0.0000 C   0  0  0  0  0  0  0  0  0  0  0  0
   -1.8569    1.3516    0.0000 N   0  0  0  0  0  0  0  0  0  0  0  0
   -2.6537    1.1381    0.0000 C   0  0  0  0  0  0  0  0  0  0  0  0
   -2.8673    0.3412    0.0000 C   0  0  0  0  0  0  0  0  0  0  0  0
   -3.2371    1.7215    0.0000 O   0  0  0  0  0  0  0  0  0  0  0  0
   -0.4766    0.9818    0.0000 S   0  0  0  0  0  0  0  0  0  0  0  0
   -0.2631    1.7787    0.0000 C   0  0  0  0  0  0  0  0  0  0  0  0
    0.5338    1.9922    0.0000 C   0  0  0  0  0  0  0  0  0  0  0  0
    1.1172    1.4089    0.0000 C   0  0  0  0  0  0  0  0  0  0  0  0
    1.9141    1.6224    0.0000 C   0  0  0  0  0  0  0  0  0  0  0  0
    2.1276    2.4193    0.0000 C   0  0  0  0  0  0  0  0  0  0  0  0
    1.5442    3.0026    0.0000 C   0  0  0  0  0  0  0  0  0  0  0  0
    0.7473    2.7891    0.0000 C   0  0  0  0  0  0  0  0  0  0  0  0
    2.9245    2.6328    0.0000 N   0  0  0  0  0  0  0  0  0  0  0  0
    3.5078    2.0494    0.0000 O   0  0  0  0  0  0  0  0  0  0  0  0
    3.1380    3.4297    0.0000 O   0  0  0  0  0  0  0  0  0  0  0  0
  1  2  2  0      
  2  3  1  0      
  3  4  2  0      
  4  5  1  0      
  5  6  2  0      
  6  1  1  0      
  1  7  1  0      
  4  8  1  0      
  7  9  1  0      
  9 10  2  0      
 10 11  1  0      
 11 12  1  0      
 12 13  1  0      
 13  7  2  0      
 12 14  2  0      
 10 15  1  0      
 15 16  1  0      
 16 17  1  0      
 17 18  2  0      
 18 19  1  0      
 19 20  2  0      
 20 21  1  0      
 21 22  2  0      
 22 17  1  0      
 20 23  1  0      
 23 24  2  0      
 23 25  1  0      
M  END
