SA2_0003.mol
  ChemDraw05212415452D

 32 36  0  0  0  0  0  0  0  0999 V2000
   -2.1257    0.2148    0.0000 C   0  0  0  0  0  0  0  0  0  0  0  0
   -2.1257   -0.6102    0.0000 C   0  0  0  0  0  0  0  0  0  0  0  0
   -1.3410   -0.8652    0.0000 N   0  0  0  0  0  0  0  0  0  0  0  0
   -0.8561   -0.1977    0.0000 C   0  0  0  0  0  0  0  0  0  0  0  0
   -1.3410    0.4697    0.0000 C   0  0  0  0  0  0  0  0  0  0  0  0
   -0.0356   -0.1115    0.0000 N   0  0  0  0  0  0  0  0  0  0  0  0
    0.2999    0.6422    0.0000 C   0  0  0  0  0  0  0  0  0  0  0  0
   -0.1850    1.3096    0.0000 N   0  0  0  0  0  0  0  0  0  0  0  0
   -1.0055    1.2234    0.0000 C   0  0  0  0  0  0  0  0  0  0  0  0
   -0.7280    2.5291    0.0000 N   0  0  0  0  0  0  0  0  0  0  0  0
   -1.3410    1.9771    0.0000 N   0  0  0  0  0  0  0  0  0  0  0  0
   -2.7931    0.6997    0.0000 C   0  0  0  0  0  0  0  0  0  0  0  0
   -2.7931    1.5247    0.0000 C   0  0  0  0  0  0  0  0  0  0  0  0
   -3.5076    1.9372    0.0000 C   0  0  0  0  0  0  0  0  0  0  0  0
   -4.2220    1.5247    0.0000 C   0  0  0  0  0  0  0  0  0  0  0  0
   -4.2220    0.6997    0.0000 C   0  0  0  0  0  0  0  0  0  0  0  0
   -3.5076    0.2872    0.0000 C   0  0  0  0  0  0  0  0  0  0  0  0
   -1.0861   -1.6498    0.0000 C   0  0  0  0  0  0  0  0  0  0  0  0
   -1.6695   -2.2332    0.0000 C   0  0  0  0  0  0  0  0  0  0  0  0
   -1.4559   -3.0300    0.0000 C   0  0  0  0  0  0  0  0  0  0  0  0
   -0.6591   -3.2436    0.0000 C   0  0  0  0  0  0  0  0  0  0  0  0
   -0.0757   -2.6602    0.0000 C   0  0  0  0  0  0  0  0  0  0  0  0
   -0.2892   -1.8633    0.0000 C   0  0  0  0  0  0  0  0  0  0  0  0
    0.0970    2.5291    0.0000 C   0  0  0  0  0  0  0  0  0  0  0  0
    0.9220    2.5291    0.0000 C   0  0  0  0  0  0  0  0  0  0  0  0
    1.3345    1.8146    0.0000 C   0  0  0  0  0  0  0  0  0  0  0  0
    2.1595    1.8146    0.0000 C   0  0  0  0  0  0  0  0  0  0  0  0
    2.5720    2.5291    0.0000 C   0  0  0  0  0  0  0  0  0  0  0  0
    2.1595    3.2436    0.0000 C   0  0  0  0  0  0  0  0  0  0  0  0
    1.3345    3.2436    0.0000 C   0  0  0  0  0  0  0  0  0  0  0  0
    3.3970    2.5291    0.0000 O   0  0  0  0  0  0  0  0  0  0  0  0
    4.2220    2.5291    0.0000 C   0  0  0  0  0  0  0  0  0  0  0  0
  1  2  2  0      
  2  3  1  0      
  3  4  1  0      
  4  5  2  0      
  5  1  1  0      
  4  6  1  0      
  6  7  2  0      
  7  8  1  0      
  8  9  2  0      
  9  5  1  0      
 10 11  1  0      
 11  9  1  0      
  1 12  1  0      
 12 13  2  0      
 13 14  1  0      
 14 15  2  0      
 15 16  1  0      
 16 17  2  0      
 17 12  1  0      
  3 18  1  0      
 18 19  2  0      
 19 20  1  0      
 20 21  2  0      
 21 22  1  0      
 22 23  2  0      
 23 18  1  0      
 10 24  2  0      
 24 25  1  0      
 25 26  2  0      
 26 27  1  0      
 27 28  2  0      
 28 29  1  0      
 29 30  2  0      
 30 25  1  0      
 28 31  1  0      
 31 32  1  0      
M  END
