SA37_0005.mol
  ChemDraw05232416202D

 36 40  0  0  0  0  0  0  0  0999 V2000
   -1.2254    1.1177    0.0000 C   0  0  0  0  0  0  0  0  0  0  0  0
   -1.2254    0.2927    0.0000 C   0  0  0  0  0  0  0  0  0  0  0  0
   -0.5109   -0.1198    0.0000 C   0  0  0  0  0  0  0  0  0  0  0  0
    0.2036    0.2927    0.0000 C   0  0  0  0  0  0  0  0  0  0  0  0
    0.2036    1.1177    0.0000 C   0  0  0  0  0  0  0  0  0  0  0  0
   -0.5109    1.5302    0.0000 C   0  0  0  0  0  0  0  0  0  0  0  0
    0.9181   -0.1198    0.0000 O   0  0  0  0  0  0  0  0  0  0  0  0
    1.6325    0.2927    0.0000 C   0  0  0  0  0  0  0  0  0  0  0  0
    1.6325    1.1177    0.0000 C   0  0  0  0  0  0  0  0  0  0  0  0
    0.9181    1.5302    0.0000 C   0  0  0  0  0  0  0  0  0  0  0  0
   -1.9398   -0.1198    0.0000 O   0  0  0  0  0  0  0  0  0  0  0  0
   -0.5109    2.3552    0.0000 O   0  0  0  0  0  0  0  0  0  0  0  0
    0.9181    2.3552    0.0000 O   0  0  0  0  0  0  0  0  0  0  0  0
   -0.5109   -0.9448    0.0000 Se  0  0  0  0  0  0  0  0  0  0  0  0
    2.3470    1.5302    0.0000 O   0  0  0  0  0  0  0  0  0  0  0  0
    2.3470   -0.1198    0.0000 C   0  0  0  0  0  0  0  0  0  0  0  0
    2.3470   -0.9448    0.0000 C   0  0  0  0  0  0  0  0  0  0  0  0
    3.0615   -1.3573    0.0000 C   0  0  0  0  0  0  0  0  0  0  0  0
    3.7759   -0.9448    0.0000 C   0  0  0  0  0  0  0  0  0  0  0  0
    3.7759   -0.1198    0.0000 C   0  0  0  0  0  0  0  0  0  0  0  0
    3.0615    0.2927    0.0000 C   0  0  0  0  0  0  0  0  0  0  0  0
    4.4904    0.2927    0.0000 O   0  0  0  0  0  0  0  0  0  0  0  0
    4.4904   -1.3573    0.0000 O   0  0  0  0  0  0  0  0  0  0  0  0
    0.2036   -1.3573    0.0000 C   0  0  0  0  0  0  0  0  0  0  0  0
    0.2036   -2.1823    0.0000 C   0  0  0  0  0  0  0  0  0  0  0  0
    0.9181   -2.5948    0.0000 C   0  0  0  0  0  0  0  0  0  0  0  0
    1.6325   -2.1823    0.0000 C   0  0  0  0  0  0  0  0  0  0  0  0
    1.6325   -1.3573    0.0000 C   0  0  0  0  0  0  0  0  0  0  0  0
    0.9181   -0.9448    0.0000 C   0  0  0  0  0  0  0  0  0  0  0  0
   -2.0481    1.5556    0.0000 Se  0  0  0  0  0  0  0  0  0  0  0  0
   -2.8622    1.6893    0.0000 C   0  0  0  0  0  0  0  0  0  0  0  0
   -3.1535    2.4611    0.0000 C   0  0  0  0  0  0  0  0  0  0  0  0
   -3.9676    2.5948    0.0000 C   0  0  0  0  0  0  0  0  0  0  0  0
   -4.4904    1.9566    0.0000 C   0  0  0  0  0  0  0  0  0  0  0  0
   -4.1991    1.1848    0.0000 C   0  0  0  0  0  0  0  0  0  0  0  0
   -3.3850    1.0511    0.0000 C   0  0  0  0  0  0  0  0  0  0  0  0
  1  2  2  0      
  2  3  1  0      
  3  4  2  0      
  4  5  1  0      
  5  6  2  0      
  6  1  1  0      
  4  7  1  0      
  7  8  1  0      
  8  9  2  0      
  9 10  1  0      
 10  5  1  0      
  2 11  1  0      
  6 12  1  0      
 10 13  2  0      
  3 14  1  0      
  9 15  1  0      
  8 16  1  0      
 16 17  2  0      
 17 18  1  0      
 18 19  2  0      
 19 20  1  0      
 20 21  2  0      
 21 16  1  0      
 20 22  1  0      
 19 23  1  0      
 14 24  1  0      
 24 25  2  0      
 25 26  1  0      
 26 27  2  0      
 27 28  1  0      
 28 29  2  0      
 29 24  1  0      
 30 31  1  0      
 31 32  2  0      
 32 33  1  0      
 33 34  2  0      
 34 35  1  0      
 35 36  2  0      
 36 31  1  0      
  1 30  1  0      
M  END
