SA44_0032.mol
  ChemDraw05022415242D

 21 23  0  0  0  0  0  0  0  0999 V2000
   -0.7362    0.5289    0.0000 C   0  0  0  0  0  0  0  0  0  0  0  0
   -0.7362   -0.2961    0.0000 C   0  0  0  0  0  0  0  0  0  0  0  0
    0.0484   -0.5510    0.0000 C   0  0  0  0  0  0  0  0  0  0  0  0
    0.5334    0.1164    0.0000 C   0  0  0  0  0  0  0  0  0  0  0  0
    0.0484    0.7838    0.0000 O   0  0  0  0  0  0  0  0  0  0  0  0
   -1.4036    1.0138    0.0000 C   0  0  0  0  0  0  0  0  0  0  0  0
   -2.1573    0.6783    0.0000 N   0  0  0  0  0  0  0  0  0  0  0  0
   -2.8247    1.1632    0.0000 N   0  0  0  0  0  0  0  0  0  0  0  0
   -3.5784    0.8276    0.0000 C   0  0  0  0  0  0  0  0  0  0  0  0
   -4.2459    1.3125    0.0000 N   0  0  0  0  0  0  0  0  0  0  0  0
   -3.6647    0.0071    0.0000 S   0  0  0  0  0  0  0  0  0  0  0  0
    1.3584    0.1164    0.0000 C   0  0  0  0  0  0  0  0  0  0  0  0
    1.7709   -0.5981    0.0000 C   0  0  0  0  0  0  0  0  0  0  0  0
    2.5959   -0.5981    0.0000 C   0  0  0  0  0  0  0  0  0  0  0  0
    3.0084    0.1164    0.0000 C   0  0  0  0  0  0  0  0  0  0  0  0
    2.5959    0.8309    0.0000 C   0  0  0  0  0  0  0  0  0  0  0  0
    1.7709    0.8309    0.0000 C   0  0  0  0  0  0  0  0  0  0  0  0
    3.0084   -1.3125    0.0000 N   0  0  0  0  0  0  0  0  0  0  0  0
    3.8334   -1.3125    0.0000 C   0  0  0  0  0  0  0  0  0  0  0  0
    4.2459   -0.5981    0.0000 C   0  0  0  0  0  0  0  0  0  0  0  0
    3.8334    0.1164    0.0000 C   0  0  0  0  0  0  0  0  0  0  0  0
  1  2  2  0      
  2  3  1  0      
  3  4  2  0      
  4  5  1  0      
  5  1  1  0      
  1  6  1  0      
  6  7  2  0      
  7  8  1  0      
  8  9  1  0      
  9 10  1  0      
  9 11  2  0      
  4 12  1  0      
 12 13  2  0      
 13 14  1  0      
 14 15  2  0      
 15 16  1  0      
 16 17  2  0      
 17 12  1  0      
 14 18  1  0      
 18 19  2  0      
 19 20  1  0      
 20 21  2  0      
 21 15  1  0      
M  END
