SA44_0002.mol
  ChemDraw05022413272D

 49 51  0  0  1  0  0  0  0  0999 V2000
   -7.1471    0.8365    0.0000 O   0  0  0  0  0  0  0  0  0  0  0  0
   -7.3606    0.0396    0.0000 C   0  0  0  0  0  0  0  0  0  0  0  0
   -6.6687   -0.4097    0.0000 C   0  0  0  0  0  0  0  0  0  0  0  0
   -6.0275    0.1095    0.0000 C   0  0  0  0  0  0  0  0  0  0  0  0
   -6.3232    0.8365    0.0000 N   0  0  0  0  0  0  0  0  0  0  0  0
   -8.1308   -0.2560    0.0000 C   0  0  0  0  0  0  0  0  0  0  0  0
   -5.4442   -0.4739    0.0000 C   0  0  0  0  0  0  0  0  0  0  0  0
   -4.7297   -0.0614    0.0000 N   0  0  0  0  0  0  0  0  0  0  0  0
   -4.0152   -0.4739    0.0000 C   0  0  0  0  0  0  0  0  0  0  0  0
   -3.3008   -0.0614    0.0000 C   0  0  0  0  0  0  0  0  0  0  0  0
   -2.5863   -0.4739    0.0000 N   0  0  0  0  0  0  0  0  0  0  0  0
   -1.8718   -0.0614    0.0000 C   0  0  0  0  0  0  0  0  0  0  0  0
   -5.5519   -1.2918    0.0000 O   0  0  0  0  0  0  0  0  0  0  0  0
   -3.3008    0.7636    0.0000 O   0  0  0  0  0  0  0  0  0  0  0  0
   -1.1573   -0.4739    0.0000 C   0  0  0  0  0  0  0  0  0  0  0  0
   -0.4429   -0.0614    0.0000 N   0  0  0  0  0  0  0  0  0  0  0  0
   -1.1573   -1.2989    0.0000 O   0  0  0  0  0  0  0  0  0  0  0  0
   -4.0152   -1.2989    0.0000 C   0  0  0  0  0  0  0  0  0  0  0  0
   -1.8718    0.7636    0.0000 C   0  0  0  0  0  0  0  0  0  0  0  0
   -2.5863    1.1761    0.0000 C   0  0  0  0  0  0  0  0  0  0  0  0
   -1.1573    1.1761    0.0000 C   0  0  0  0  0  0  0  0  0  0  0  0
    0.2716   -0.4739    0.0000 C   0  0  0  0  0  0  0  0  0  0  0  0
    0.9861   -0.0614    0.0000 C   0  0  0  0  0  0  0  0  0  0  0  0
    1.7005   -0.4739    0.0000 N   0  0  0  0  0  0  0  0  0  0  0  0
    2.4150   -0.0614    0.0000 C   0  0  0  0  0  0  0  0  0  0  0  0
    3.1295   -0.4739    0.0000 C   0  0  0  0  0  0  0  0  0  0  0  0
    3.8440   -0.0614    0.0000 C   0  0  0  0  0  0  0  0  0  0  0  0
    4.5584   -0.4739    0.0000 C   0  0  0  0  0  0  0  0  0  0  0  0
    5.2729   -0.0614    0.0000 O   0  0  0  0  0  0  0  0  0  0  0  0
    5.9874   -0.4739    0.0000 C   0  0  0  0  0  0  0  0  0  0  0  0
    0.2716   -1.2989    0.0000 C   0  0  0  0  0  0  0  0  0  0  0  0
    2.4150    0.7636    0.0000 C   0  0  0  0  0  0  0  0  0  0  0  0
    0.9861   -1.7114    0.0000 C   0  0  0  0  0  0  0  0  0  0  0  0
    0.9861   -2.5364    0.0000 C   0  0  0  0  0  0  0  0  0  0  0  0
    1.7005   -1.2989    0.0000 C   0  0  0  0  0  0  0  0  0  0  0  0
    0.9861    0.7636    0.0000 O   0  0  0  0  0  0  0  0  0  0  0  0
    2.9984    1.3470    0.0000 C   0  0  0  0  0  0  0  0  0  0  0  0
    3.8132    1.2179    0.0000 C   0  0  0  0  0  0  0  0  0  0  0  0
    4.1878    1.9530    0.0000 C   0  0  0  0  0  0  0  0  0  0  0  0
    3.6044    2.5364    0.0000 N   0  0  0  0  0  0  0  0  0  0  0  0
    2.8693    2.1618    0.0000 C   0  0  0  0  0  0  0  0  0  0  0  0
    2.1342    2.5364    0.0000 O   0  0  0  0  0  0  0  0  0  0  0  0
    6.7018   -0.0614    0.0000 C   0  0  0  0  0  0  0  0  0  0  0  0
    4.5584   -1.2989    0.0000 O   0  0  0  0  0  0  0  0  0  0  0  0
    7.4163   -0.4739    0.0000 C   0  0  0  0  0  0  0  0  0  0  0  0
    8.1308   -0.0614    0.0000 C   0  0  0  0  0  0  0  0  0  0  0  0
    8.1308    0.7636    0.0000 C   0  0  0  0  0  0  0  0  0  0  0  0
    7.4163    1.1761    0.0000 C   0  0  0  0  0  0  0  0  0  0  0  0
    6.7018    0.7636    0.0000 C   0  0  0  0  0  0  0  0  0  0  0  0
  1  2  1  0      
  2  3  2  0      
  3  4  1  0      
  4  5  2  0      
  5  1  1  0      
  2  6  1  0      
  4  7  1  0      
  7  8  1  0      
  8  9  1  0      
  9 10  1  0      
 10 11  1  0      
 11 12  1  0      
  7 13  2  0      
 10 14  2  0      
 12 15  1  0      
 15 16  1  0      
 15 17  2  0      
  9 18  1  6      
 12 19  1  1      
 19 20  1  0      
 19 21  1  0      
 16 22  1  0      
 22 23  1  0      
 23 24  1  0      
 24 25  1  0      
 25 26  1  0      
 26 27  2  0      
 27 28  1  0      
 28 29  1  0      
 29 30  1  0      
 22 31  1  6      
 25 32  1  1      
 31 33  1  0      
 33 34  1  0      
 33 35  1  0      
 23 36  2  0      
 32 37  1  0      
 37 38  1  1      
 38 39  1  0      
 39 40  1  0      
 40 41  1  0      
 41 37  1  0      
 41 42  2  0      
 30 43  1  0      
 28 44  2  0      
 43 45  2  0      
 45 46  1  0      
 46 47  2  0      
 47 48  1  0      
 48 49  2  0      
 49 43  1  0      
M  END
