SA44_0027.mol
  ChemDraw05022415302D

 21 22  0  0  0  0  0  0  0  0999 V2000
   -0.5299    0.8861    0.0000 C   0  0  0  0  0  0  0  0  0  0  0  0
   -0.5299    0.0611    0.0000 C   0  0  0  0  0  0  0  0  0  0  0  0
    0.2547   -0.1938    0.0000 C   0  0  0  0  0  0  0  0  0  0  0  0
    0.7396    0.4736    0.0000 C   0  0  0  0  0  0  0  0  0  0  0  0
    0.2547    1.1411    0.0000 O   0  0  0  0  0  0  0  0  0  0  0  0
   -1.1974    1.3711    0.0000 C   0  0  0  0  0  0  0  0  0  0  0  0
   -1.9511    1.0355    0.0000 N   0  0  0  0  0  0  0  0  0  0  0  0
   -2.6185    1.5204    0.0000 N   0  0  0  0  0  0  0  0  0  0  0  0
   -3.3722    1.1849    0.0000 C   0  0  0  0  0  0  0  0  0  0  0  0
   -4.0396    1.6698    0.0000 N   0  0  0  0  0  0  0  0  0  0  0  0
   -3.4584    0.3644    0.0000 S   0  0  0  0  0  0  0  0  0  0  0  0
    1.5646    0.4736    0.0000 C   0  0  0  0  0  0  0  0  0  0  0  0
    1.9771   -0.2408    0.0000 C   0  0  0  0  0  0  0  0  0  0  0  0
    2.8021   -0.2408    0.0000 C   0  0  0  0  0  0  0  0  0  0  0  0
    3.2146    0.4736    0.0000 C   0  0  0  0  0  0  0  0  0  0  0  0
    2.8021    1.1881    0.0000 C   0  0  0  0  0  0  0  0  0  0  0  0
    1.9771    1.1881    0.0000 C   0  0  0  0  0  0  0  0  0  0  0  0
    4.0396    0.4736    0.0000 O   0  0  0  0  0  0  0  0  0  0  0  0
    3.2146   -0.9553    0.0000 C   0  0  0  0  0  0  0  0  0  0  0  0
    2.8021   -1.6698    0.0000 O   0  0  0  0  0  0  0  0  0  0  0  0
    4.0396   -0.9553    0.0000 O   0  0  0  0  0  0  0  0  0  0  0  0
  1  2  2  0      
  2  3  1  0      
  3  4  2  0      
  4  5  1  0      
  5  1  1  0      
  1  6  1  0      
  6  7  2  0      
  7  8  1  0      
  8  9  1  0      
  9 10  1  0      
  9 11  2  0      
  4 12  1  0      
 12 13  2  0      
 13 14  1  0      
 14 15  2  0      
 15 16  1  0      
 16 17  2  0      
 17 12  1  0      
 15 18  1  0      
 14 19  1  0      
 19 20  2  0      
 19 21  1  0      
M  END
