SA44_0036.mol
  ChemDraw05022415162D

 20 21  0  0  0  0  0  0  0  0999 V2000
    1.7880   -0.7430    0.0000 C   0  0  0  0  0  0  0  0  0  0  0  0
    2.5763   -0.6601    0.0000 C   0  0  0  0  0  0  0  0  0  0  0  0
    2.8987    0.0640    0.0000 C   0  0  0  0  0  0  0  0  0  0  0  0
    2.4328    0.7053    0.0000 C   0  0  0  0  0  0  0  0  0  0  0  0
    1.6445    0.6224    0.0000 C   0  0  0  0  0  0  0  0  0  0  0  0
    1.3221   -0.1017    0.0000 C   0  0  0  0  0  0  0  0  0  0  0  0
    0.5338   -0.1845    0.0000 C   0  0  0  0  0  0  0  0  0  0  0  0
    0.0034    0.4045    0.0000 S   0  0  0  0  0  0  0  0  0  0  0  0
   -0.7207    0.0821    0.0000 C   0  0  0  0  0  0  0  0  0  0  0  0
   -0.6378   -0.7062    0.0000 C   0  0  0  0  0  0  0  0  0  0  0  0
    0.1375   -0.8710    0.0000 C   0  0  0  0  0  0  0  0  0  0  0  0
   -1.4071    0.4784    0.0000 C   0  0  0  0  0  0  0  0  0  0  0  0
   -2.0936    0.0821    0.0000 N   0  0  0  0  0  0  0  0  0  0  0  0
   -2.7801    0.4784    0.0000 N   0  0  0  0  0  0  0  0  0  0  0  0
   -3.4665    0.0821    0.0000 C   0  0  0  0  0  0  0  0  0  0  0  0
   -4.1530    0.4784    0.0000 N   0  0  0  0  0  0  0  0  0  0  0  0
   -3.4665   -0.7105    0.0000 S   0  0  0  0  0  0  0  0  0  0  0  0
    3.6871    0.1469    0.0000 C   0  0  0  0  0  0  0  0  0  0  0  0
    4.0095    0.8710    0.0000 O   0  0  0  0  0  0  0  0  0  0  0  0
    4.1530   -0.4944    0.0000 O   0  0  0  0  0  0  0  0  0  0  0  0
  1  2  2  0      
  2  3  1  0      
  3  4  2  0      
  4  5  1  0      
  5  6  2  0      
  6  1  1  0      
  6  7  1  0      
  7  8  1  0      
  8  9  1  0      
  9 10  2  0      
 10 11  1  0      
 11  7  2  0      
  9 12  1  0      
 12 13  2  0      
 13 14  1  0      
 14 15  1  0      
 15 16  1  0      
 15 17  2  0      
  3 18  1  0      
 18 19  1  0      
 18 20  2  0      
M  END
