SA45_0001.mol
  ChemDraw05022416402D

 51 54  0  0  1  0  0  0  0  0999 V2000
   -1.8003   -0.6009    0.0000 C   0  0  0  0  0  0  0  0  0  0  0  0
   -1.0419   -0.2847    0.0000 N   0  0  0  0  0  0  0  0  0  0  0  0
   -1.1509    0.5286    0.0000 C   0  0  0  0  0  0  0  0  0  0  0  0
   -1.9767    0.7150    0.0000 C   0  0  0  0  0  0  0  0  0  0  0  0
   -2.4044    0.0134    0.0000 O   0  0  0  0  0  0  0  0  0  0  0  0
   -2.2972    1.4716    0.0000 C   0  0  0  0  0  0  0  0  0  0  0  0
   -0.5447    1.0833    0.0000 C   0  0  0  0  0  0  0  0  0  0  0  0
   -1.9630   -1.4063    0.0000 C   0  0  0  0  0  0  0  0  0  0  0  0
    0.2387    0.8356    0.0000 N   0  0  0  0  0  0  0  0  0  0  0  0
   -0.7220    1.8856    0.0000 O   0  0  0  0  0  0  0  0  0  0  0  0
    0.8450    1.3903    0.0000 C   0  0  0  0  0  0  0  0  0  0  0  0
    1.6284    1.1426    0.0000 C   0  0  0  0  0  0  0  0  0  0  0  0
    0.6677    2.1926    0.0000 C   0  0  0  0  0  0  0  0  0  0  0  0
    1.4512    1.9449    0.0000 C   0  0  0  0  0  0  0  0  0  0  0  0
    1.2487    2.7736    0.0000 O   0  0  0  0  0  0  0  0  0  0  0  0
   -0.1260    2.4053    0.0000 O   0  0  0  0  0  0  0  0  0  0  0  0
    1.0361    3.5673    0.0000 C   0  0  0  0  0  0  0  0  0  0  0  0
    1.6171    4.1483    0.0000 C   0  0  0  0  0  0  0  0  0  0  0  0
    0.2424    3.7800    0.0000 C   0  0  0  0  0  0  0  0  0  0  0  0
    1.8886    0.3632    0.0000 N   0  0  0  0  0  0  0  0  0  0  0  0
    2.7102    0.3698    0.0000 C   0  0  0  0  0  0  0  0  0  0  0  0
    2.9579    1.1532    0.0000 C   0  0  0  0  0  0  0  0  0  0  0  0
    2.2893    1.6309    0.0000 O   0  0  0  0  0  0  0  0  0  0  0  0
    3.7373    1.4134    0.0000 C   0  0  0  0  0  0  0  0  0  0  0  0
    2.8194   -0.4446    0.0000 C   0  0  0  0  0  0  0  0  0  0  0  0
    3.5792   -0.7573    0.0000 O   0  0  0  0  0  0  0  0  0  0  0  0
    2.1687   -0.9464    0.0000 N   0  0  0  0  0  0  0  0  0  0  0  0
    2.2778   -1.7607    0.0000 C   0  0  0  0  0  0  0  0  0  0  0  0
    1.6271   -2.2625    0.0000 C   0  0  0  0  0  0  0  0  0  0  0  0
    3.0377   -2.0734    0.0000 C   0  0  0  0  0  0  0  0  0  0  0  0
    2.3870   -2.5751    0.0000 C   0  0  0  0  0  0  0  0  0  0  0  0
    3.6884   -1.5716    0.0000 O   0  0  0  0  0  0  0  0  0  0  0  0
    3.1469   -2.8878    0.0000 O   0  0  0  0  0  0  0  0  0  0  0  0
    3.9067   -3.2004    0.0000 C   0  0  0  0  0  0  0  0  0  0  0  0
    4.0159   -4.0148    0.0000 C   0  0  0  0  0  0  0  0  0  0  0  0
    4.5574   -2.6987    0.0000 C   0  0  0  0  0  0  0  0  0  0  0  0
    0.8388   -2.0310    0.0000 N   0  0  0  0  0  0  0  0  0  0  0  0
    0.3750   -2.7092    0.0000 C   0  0  0  0  0  0  0  0  0  0  0  0
    0.8767   -3.3599    0.0000 C   0  0  0  0  0  0  0  0  0  0  0  0
    1.6506   -3.0838    0.0000 O   0  0  0  0  0  0  0  0  0  0  0  0
   -0.4464   -2.7327    0.0000 C   0  0  0  0  0  0  0  0  0  0  0  0
   -0.8572   -3.4443    0.0000 O   0  0  0  0  0  0  0  0  0  0  0  0
   -0.8773   -2.0331    0.0000 N   0  0  0  0  0  0  0  0  0  0  0  0
   -2.7806   -1.3245    0.0000 C   0  0  0  0  0  0  0  0  0  0  0  0
   -2.4426   -2.0734    0.0000 C   0  0  0  0  0  0  0  0  0  0  0  0
   -3.1186   -0.5756    0.0000 O   0  0  0  0  0  0  0  0  0  0  0  0
   -3.2602   -1.9917    0.0000 O   0  0  0  0  0  0  0  0  0  0  0  0
   -4.0778   -1.9099    0.0000 C   0  0  0  0  0  0  0  0  0  0  0  0
   -4.5574   -2.5771    0.0000 C   0  0  0  0  0  0  0  0  0  0  0  0
   -4.4158   -1.1610    0.0000 C   0  0  0  0  0  0  0  0  0  0  0  0
    0.6452   -4.1483    0.0000 C   0  0  0  0  0  0  0  0  0  0  0  0
  1  2  2  0      
  2  3  1  0      
  3  4  2  0      
  4  5  1  0      
  5  1  1  0      
  4  6  1  0      
  3  7  1  0      
  1  8  1  0      
  7  9  1  0      
  7 10  2  0      
  9 11  1  0      
 11 12  1  0      
 11 13  1  0      
 11 14  1  1      
 13 15  1  0      
 13 16  2  0      
 15 17  1  0      
 17 18  1  0      
 17 19  1  0      
 12 20  2  0      
 20 21  1  0      
 21 22  2  0      
 22 23  1  0      
 23 12  1  0      
 22 24  1  0      
 21 25  1  0      
 25 26  2  0      
 25 27  1  0      
 27 28  1  0      
 28 29  1  0      
 28 30  1  0      
 28 31  1  1      
 30 32  2  0      
 30 33  1  0      
 33 34  1  0      
 34 35  1  0      
 34 36  1  0      
 29 37  2  0      
 37 38  1  0      
 38 39  2  0      
 39 40  1  0      
 40 29  1  0      
 38 41  1  0      
 41 42  2  0      
 41 43  1  0      
 43  8  1  0      
  8 44  1  6      
  8 45  1  1      
 44 46  2  0      
 44 47  1  0      
 47 48  1  0      
 48 49  1  0      
 48 50  1  0      
 39 51  1  0      
M  END
