SA51_0001.mol
  ChemDraw05032409332D

 13 14  0  0  0  0  0  0  0  0999 V2000
   -2.3664    0.0990    0.0000 C   0  0  0  0  0  0  0  0  0  0  0  0
   -2.3664   -0.7260    0.0000 C   0  0  0  0  0  0  0  0  0  0  0  0
   -1.6520   -1.1385    0.0000 C   0  0  0  0  0  0  0  0  0  0  0  0
   -0.9375   -0.7260    0.0000 C   0  0  0  0  0  0  0  0  0  0  0  0
   -0.9375    0.0990    0.0000 C   0  0  0  0  0  0  0  0  0  0  0  0
   -1.6520    0.5115    0.0000 C   0  0  0  0  0  0  0  0  0  0  0  0
   -0.1529   -0.9810    0.0000 Se  0  0  0  0  0  0  0  0  0  0  0  0
    0.3320   -0.3135    0.0000 N   0  0  0  0  0  0  0  0  0  0  0  0
   -0.1529    0.3539    0.0000 C   0  0  0  0  0  0  0  0  0  0  0  0
    0.1021    1.1385    0.0000 O   0  0  0  0  0  0  0  0  0  0  0  0
    1.1570   -0.3135    0.0000 C   0  0  0  0  0  0  0  0  0  0  0  0
    1.5695   -1.0280    0.0000 C   0  0  0  0  0  0  0  0  0  0  0  0
    2.3664   -0.8145    0.0000 O   0  0  0  0  0  0  0  0  0  0  0  0
  1  2  2  0      
  2  3  1  0      
  3  4  2  0      
  4  5  1  0      
  5  6  2  0      
  6  1  1  0      
  4  7  1  0      
  7  8  1  0      
  8  9  1  0      
  9  5  1  0      
  9 10  2  0      
  8 11  1  0      
 11 12  1  0      
 12 13  1  0      
M  END
