SA51_0003.mol
  ChemDraw05032409432D

 15 16  0  0  0  0  0  0  0  0999 V2000
   -2.5867    0.4009    0.0000 C   0  0  0  0  0  0  0  0  0  0  0  0
   -2.5867   -0.4241    0.0000 C   0  0  0  0  0  0  0  0  0  0  0  0
   -1.8723   -0.8366    0.0000 C   0  0  0  0  0  0  0  0  0  0  0  0
   -1.1578   -0.4241    0.0000 C   0  0  0  0  0  0  0  0  0  0  0  0
   -1.1578    0.4009    0.0000 C   0  0  0  0  0  0  0  0  0  0  0  0
   -1.8723    0.8134    0.0000 C   0  0  0  0  0  0  0  0  0  0  0  0
   -0.3732   -0.6790    0.0000 Se  0  0  0  0  0  0  0  0  0  0  0  0
    0.1117   -0.0116    0.0000 N   0  0  0  0  0  0  0  0  0  0  0  0
   -0.3732    0.6559    0.0000 C   0  0  0  0  0  0  0  0  0  0  0  0
   -0.1182    1.4405    0.0000 O   0  0  0  0  0  0  0  0  0  0  0  0
    0.9367   -0.0116    0.0000 C   0  0  0  0  0  0  0  0  0  0  0  0
    1.3492   -0.7260    0.0000 C   0  0  0  0  0  0  0  0  0  0  0  0
    2.1742   -0.7260    0.0000 C   0  0  0  0  0  0  0  0  0  0  0  0
    2.5867   -1.4405    0.0000 O   0  0  0  0  0  0  0  0  0  0  0  0
    2.5867   -0.0116    0.0000 O   0  0  0  0  0  0  0  0  0  0  0  0
  1  2  2  0      
  2  3  1  0      
  3  4  2  0      
  4  5  1  0      
  5  6  2  0      
  6  1  1  0      
  4  7  1  0      
  7  8  1  0      
  8  9  1  0      
  9  5  1  0      
  9 10  2  0      
  8 11  1  0      
 11 12  1  0      
 12 13  1  0      
 13 14  1  0      
 13 15  2  0      
M  END
