SA51_0009.mol
  ChemDraw05032409562D

 16 18  0  0  0  0  0  0  0  0999 V2000
   -2.4561    0.6964    0.0000 C   0  0  0  0  0  0  0  0  0  0  0  0
   -2.4561   -0.1253    0.0000 C   0  0  0  0  0  0  0  0  0  0  0  0
   -1.7445   -0.5361    0.0000 C   0  0  0  0  0  0  0  0  0  0  0  0
   -1.0329   -0.1253    0.0000 C   0  0  0  0  0  0  0  0  0  0  0  0
   -1.0329    0.6964    0.0000 C   0  0  0  0  0  0  0  0  0  0  0  0
   -1.7445    1.1072    0.0000 C   0  0  0  0  0  0  0  0  0  0  0  0
   -0.2514   -0.3792    0.0000 Se  0  0  0  0  0  0  0  0  0  0  0  0
    0.2315    0.2855    0.0000 N   0  0  0  0  0  0  0  0  0  0  0  0
   -0.2514    0.9503    0.0000 C   0  0  0  0  0  0  0  0  0  0  0  0
    0.0025    1.7317    0.0000 O   0  0  0  0  0  0  0  0  0  0  0  0
    1.0532    0.2855    0.0000 C   0  0  0  0  0  0  0  0  0  0  0  0
    1.4640   -0.4260    0.0000 C   0  0  0  0  0  0  0  0  0  0  0  0
    1.1285   -1.1797    0.0000 C   0  0  0  0  0  0  0  0  0  0  0  0
    1.7416   -1.7317    0.0000 C   0  0  0  0  0  0  0  0  0  0  0  0
    2.4561   -1.3192    0.0000 C   0  0  0  0  0  0  0  0  0  0  0  0
    2.2845   -0.5123    0.0000 O   0  0  0  0  0  0  0  0  0  0  0  0
  1  2  2  0      
  2  3  1  0      
  3  4  2  0      
  4  5  1  0      
  5  6  2  0      
  6  1  1  0      
  4  7  1  0      
  7  8  1  0      
  8  9  1  0      
  9  5  1  0      
  9 10  2  0      
  8 11  1  0      
 11 12  1  0      
 12 13  2  0      
 13 14  1  0      
 14 15  2  0      
 15 16  1  0      
 16 12  1  0      
M  END
