SA51_0007.mol
  ChemDraw05032409482D

 18 20  0  0  0  0  0  0  0  0999 V2000
   -3.2055    0.4009    0.0000 C   0  0  0  0  0  0  0  0  0  0  0  0
   -3.2055   -0.4241    0.0000 C   0  0  0  0  0  0  0  0  0  0  0  0
   -2.4910   -0.8366    0.0000 C   0  0  0  0  0  0  0  0  0  0  0  0
   -1.7766   -0.4241    0.0000 C   0  0  0  0  0  0  0  0  0  0  0  0
   -1.7766    0.4009    0.0000 C   0  0  0  0  0  0  0  0  0  0  0  0
   -2.4910    0.8134    0.0000 C   0  0  0  0  0  0  0  0  0  0  0  0
   -0.9919   -0.6790    0.0000 Se  0  0  0  0  0  0  0  0  0  0  0  0
   -0.5070   -0.0116    0.0000 N   0  0  0  0  0  0  0  0  0  0  0  0
   -0.9919    0.6559    0.0000 C   0  0  0  0  0  0  0  0  0  0  0  0
   -0.7370    1.4405    0.0000 O   0  0  0  0  0  0  0  0  0  0  0  0
    0.3180   -0.0116    0.0000 C   0  0  0  0  0  0  0  0  0  0  0  0
    0.7305   -0.7260    0.0000 C   0  0  0  0  0  0  0  0  0  0  0  0
    1.5555   -0.7260    0.0000 N   0  0  0  0  0  0  0  0  0  0  0  0
    1.9680   -1.4405    0.0000 C   0  0  0  0  0  0  0  0  0  0  0  0
    2.7930   -1.4405    0.0000 C   0  0  0  0  0  0  0  0  0  0  0  0
    3.2055   -0.7260    0.0000 O   0  0  0  0  0  0  0  0  0  0  0  0
    2.7930   -0.0116    0.0000 C   0  0  0  0  0  0  0  0  0  0  0  0
    1.9680   -0.0116    0.0000 C   0  0  0  0  0  0  0  0  0  0  0  0
  1  2  2  0      
  2  3  1  0      
  3  4  2  0      
  4  5  1  0      
  5  6  2  0      
  6  1  1  0      
  4  7  1  0      
  7  8  1  0      
  8  9  1  0      
  9  5  1  0      
  9 10  2  0      
  8 11  1  0      
 11 12  1  0      
 12 13  1  0      
 13 14  1  0      
 14 15  1  0      
 15 16  1  0      
 16 17  1  0      
 17 18  1  0      
 18 13  1  0      
M  END
