SA51_0004.mol
  ChemDraw05032409442D

 19 21  0  0  0  0  0  0  0  0999 V2000
   -3.2081    0.0990    0.0000 C   0  0  0  0  0  0  0  0  0  0  0  0
   -3.2081   -0.7260    0.0000 C   0  0  0  0  0  0  0  0  0  0  0  0
   -2.4936   -1.1385    0.0000 C   0  0  0  0  0  0  0  0  0  0  0  0
   -1.7791   -0.7260    0.0000 C   0  0  0  0  0  0  0  0  0  0  0  0
   -1.7791    0.0990    0.0000 C   0  0  0  0  0  0  0  0  0  0  0  0
   -2.4936    0.5115    0.0000 C   0  0  0  0  0  0  0  0  0  0  0  0
   -0.9945   -0.9810    0.0000 Se  0  0  0  0  0  0  0  0  0  0  0  0
   -0.5096   -0.3135    0.0000 N   0  0  0  0  0  0  0  0  0  0  0  0
   -0.9945    0.3539    0.0000 C   0  0  0  0  0  0  0  0  0  0  0  0
   -0.7396    1.1385    0.0000 O   0  0  0  0  0  0  0  0  0  0  0  0
    0.3154   -0.3135    0.0000 C   0  0  0  0  0  0  0  0  0  0  0  0
    2.7956   -0.3179    0.0000 C   0  0  0  0  0  0  0  0  0  0  0  0
    3.2081   -1.0324    0.0000 O   0  0  0  0  0  0  0  0  0  0  0  0
    3.2081    0.3966    0.0000 O   0  0  0  0  0  0  0  0  0  0  0  0
    0.7279   -1.0280    0.0000 C   0  0  0  0  0  0  0  0  0  0  0  0
    1.5529   -1.0280    0.0000 C   0  0  0  0  0  0  0  0  0  0  0  0
    1.9654   -0.3135    0.0000 C   0  0  0  0  0  0  0  0  0  0  0  0
    1.5529    0.4009    0.0000 C   0  0  0  0  0  0  0  0  0  0  0  0
    0.7279    0.4009    0.0000 C   0  0  0  0  0  0  0  0  0  0  0  0
  1  2  2  0      
  2  3  1  0      
  3  4  2  0      
  4  5  1  0      
  5  6  2  0      
  6  1  1  0      
  4  7  1  0      
  7  8  1  0      
  8  9  1  0      
  9  5  1  0      
  9 10  2  0      
  8 11  1  0      
 12 13  1  0      
 12 14  2  0      
 11 15  2  0      
 15 16  1  0      
 16 17  2  0      
 17 18  1  0      
 18 19  2  0      
 19 11  1  0      
 12 17  1  0      
M  END
