SA51_0002.mol
  ChemDraw05032409382D

 14 15  0  0  0  0  0  0  0  0999 V2000
   -2.3805    0.4009    0.0000 C   0  0  0  0  0  0  0  0  0  0  0  0
   -2.3805   -0.4241    0.0000 C   0  0  0  0  0  0  0  0  0  0  0  0
   -1.6660   -0.8366    0.0000 C   0  0  0  0  0  0  0  0  0  0  0  0
   -0.9516   -0.4241    0.0000 C   0  0  0  0  0  0  0  0  0  0  0  0
   -0.9516    0.4009    0.0000 C   0  0  0  0  0  0  0  0  0  0  0  0
   -1.6660    0.8134    0.0000 C   0  0  0  0  0  0  0  0  0  0  0  0
   -0.1669   -0.6790    0.0000 Se  0  0  0  0  0  0  0  0  0  0  0  0
    0.3180   -0.0116    0.0000 N   0  0  0  0  0  0  0  0  0  0  0  0
   -0.1669    0.6559    0.0000 C   0  0  0  0  0  0  0  0  0  0  0  0
    0.0880    1.4405    0.0000 O   0  0  0  0  0  0  0  0  0  0  0  0
    1.1430   -0.0116    0.0000 C   0  0  0  0  0  0  0  0  0  0  0  0
    1.5555   -0.7260    0.0000 C   0  0  0  0  0  0  0  0  0  0  0  0
    2.3805   -0.7260    0.0000 O   0  0  0  0  0  0  0  0  0  0  0  0
    1.1430   -1.4405    0.0000 O   0  0  0  0  0  0  0  0  0  0  0  0
  1  2  2  0      
  2  3  1  0      
  3  4  2  0      
  4  5  1  0      
  5  6  2  0      
  6  1  1  0      
  4  7  1  0      
  7  8  1  0      
  8  9  1  0      
  9  5  1  0      
  9 10  2  0      
  8 11  1  0      
 11 12  1  0      
 12 13  2  0      
 12 14  1  0      
M  END
