SA53_0001.mol
  ChemDraw05022412162D

 23 26  0  0  0  0  0  0  0  0999 V2000
   -0.4369   -1.4437    0.0000 C   0  0  0  0  0  0  0  0  0  0  0  0
   -0.4369   -2.2687    0.0000 C   0  0  0  0  0  0  0  0  0  0  0  0
    0.2775   -2.6812    0.0000 C   0  0  0  0  0  0  0  0  0  0  0  0
    0.9920   -2.2687    0.0000 C   0  0  0  0  0  0  0  0  0  0  0  0
    0.9920   -1.4437    0.0000 C   0  0  0  0  0  0  0  0  0  0  0  0
    0.2775   -1.0313    0.0000 C   0  0  0  0  0  0  0  0  0  0  0  0
    0.2775   -0.2062    0.0000 N   0  0  0  0  0  0  0  0  0  0  0  0
   -0.4369    0.2062    0.0000 C   0  0  0  0  0  0  0  0  0  0  0  0
   -1.1514   -0.2062    0.0000 C   0  0  0  0  0  0  0  0  0  0  0  0
   -1.1514   -1.0313    0.0000 C   0  0  0  0  0  0  0  0  0  0  0  0
   -1.9360    0.0487    0.0000 C   0  0  0  0  0  0  0  0  0  0  0  0
   -2.4209   -0.6188    0.0000 C   0  0  0  0  0  0  0  0  0  0  0  0
   -1.9360   -1.2862    0.0000 C   0  0  0  0  0  0  0  0  0  0  0  0
   -0.4369    1.0313    0.0000 C   0  0  0  0  0  0  0  0  0  0  0  0
    0.2775    1.4437    0.0000 C   0  0  0  0  0  0  0  0  0  0  0  0
    0.2775    2.2687    0.0000 C   0  0  0  0  0  0  0  0  0  0  0  0
   -0.4369    2.6812    0.0000 C   0  0  0  0  0  0  0  0  0  0  0  0
   -1.1514    2.2687    0.0000 C   0  0  0  0  0  0  0  0  0  0  0  0
   -1.1514    1.4437    0.0000 C   0  0  0  0  0  0  0  0  0  0  0  0
    1.7065   -1.0313    0.0000 C   0  0  0  0  0  0  0  0  0  0  0  0
    2.4209   -1.4437    0.0000 O   0  0  0  0  0  0  0  0  0  0  0  0
    1.7065   -0.2062    0.0000 O   0  0  0  0  0  0  0  0  0  0  0  0
    0.9920    2.6812    0.0000 Br  0  0  0  0  0  0  0  0  0  0  0  0
  1  2  2  0      
  2  3  1  0      
  3  4  2  0      
  4  5  1  0      
  5  6  2  0      
  6  1  1  0      
  6  7  1  0      
  7  8  1  0      
  8  9  1  0      
  9 10  1  0      
 10  1  1  0      
  9 11  1  0      
 11 12  1  0      
 12 13  2  0      
 13 10  1  0      
  8 14  1  0      
 14 15  2  0      
 15 16  1  0      
 16 17  2  0      
 17 18  1  0      
 18 19  2  0      
 19 14  1  0      
  5 20  1  0      
 20 21  1  0      
 20 22  2  0      
 16 23  1  0      
M  END
