SV_J9_0001.mol
  ChemDraw02082414282D

 46 51  0  0  0  0  0  0  0  0999 V2000
   -3.2945   -2.4441    0.0000 C   0  0  0  0  0  0  0  0  0  0  0  0
   -3.2945   -3.2691    0.0000 C   0  0  0  0  0  0  0  0  0  0  0  0
   -2.5800   -3.6816    0.0000 C   0  0  0  0  0  0  0  0  0  0  0  0
   -1.8655   -3.2691    0.0000 C   0  0  0  0  0  0  0  0  0  0  0  0
   -1.8655   -2.4441    0.0000 C   0  0  0  0  0  0  0  0  0  0  0  0
   -2.5800   -2.0316    0.0000 C   0  0  0  0  0  0  0  0  0  0  0  0
   -4.0090   -2.0316    0.0000 O   0  0  0  0  0  0  0  0  0  0  0  0
   -4.0090   -3.6816    0.0000 O   0  0  0  0  0  0  0  0  0  0  0  0
   -2.5800   -4.5066    0.0000 O   0  0  0  0  0  0  0  0  0  0  0  0
   -1.1511   -2.0316    0.0000 C   0  0  0  0  0  0  0  0  0  0  0  0
   -0.3542   -2.2451    0.0000 O   0  0  0  0  0  0  0  0  0  0  0  0
    0.0951   -1.5532    0.0000 C   0  0  0  0  0  0  0  0  0  0  0  0
   -0.4240   -0.9120    0.0000 N   0  0  0  0  0  0  0  0  0  0  0  0
   -1.1511   -1.2077    0.0000 N   0  0  0  0  0  0  0  0  0  0  0  0
    0.9190   -1.5100    0.0000 C   0  0  0  0  0  0  0  0  0  0  0  0
    1.3315   -0.7955    0.0000 C   0  0  0  0  0  0  0  0  0  0  0  0
    2.1565   -0.7955    0.0000 C   0  0  0  0  0  0  0  0  0  0  0  0
    2.5690   -0.0811    0.0000 C   0  0  0  0  0  0  0  0  0  0  0  0
    3.3895    0.0052    0.0000 N   0  0  0  0  0  0  0  0  0  0  0  0
    3.5610    0.8121    0.0000 N   0  0  0  0  0  0  0  0  0  0  0  0
    2.8466    1.2246    0.0000 C   0  0  0  0  0  0  0  0  0  0  0  0
    2.2335    0.6726    0.0000 O   0  0  0  0  0  0  0  0  0  0  0  0
    1.7440   -1.5100    0.0000 O   0  0  0  0  0  0  0  0  0  0  0  0
    0.9190   -0.0811    0.0000 C   0  0  0  0  0  0  0  0  0  0  0  0
    1.2546    0.6726    0.0000 N   0  0  0  0  0  0  0  0  0  0  0  0
    0.6415    1.2246    0.0000 N   0  0  0  0  0  0  0  0  0  0  0  0
   -0.0730    0.8121    0.0000 C   0  0  0  0  0  0  0  0  0  0  0  0
    0.0985    0.0052    0.0000 C   0  0  0  0  0  0  0  0  0  0  0  0
    2.7603    2.0451    0.0000 C   0  0  0  0  0  0  0  0  0  0  0  0
   -0.8267    1.1477    0.0000 C   0  0  0  0  0  0  0  0  0  0  0  0
   -0.9129    1.9682    0.0000 C   0  0  0  0  0  0  0  0  0  0  0  0
   -1.6666    2.3037    0.0000 C   0  0  0  0  0  0  0  0  0  0  0  0
   -2.3340    1.8188    0.0000 C   0  0  0  0  0  0  0  0  0  0  0  0
   -2.2478    0.9983    0.0000 C   0  0  0  0  0  0  0  0  0  0  0  0
   -1.4941    0.6628    0.0000 C   0  0  0  0  0  0  0  0  0  0  0  0
   -1.7528    3.1242    0.0000 O   0  0  0  0  0  0  0  0  0  0  0  0
   -3.0877    2.1544    0.0000 O   0  0  0  0  0  0  0  0  0  0  0  0
   -2.9152    0.5134    0.0000 O   0  0  0  0  0  0  0  0  0  0  0  0
    3.4278    2.5300    0.0000 C   0  0  0  0  0  0  0  0  0  0  0  0
    3.3415    3.3505    0.0000 C   0  0  0  0  0  0  0  0  0  0  0  0
    2.5878    3.6861    0.0000 C   0  0  0  0  0  0  0  0  0  0  0  0
    1.9204    3.2012    0.0000 C   0  0  0  0  0  0  0  0  0  0  0  0
    2.0066    2.3807    0.0000 C   0  0  0  0  0  0  0  0  0  0  0  0
    1.1667    3.5367    0.0000 O   0  0  0  0  0  0  0  0  0  0  0  0
    2.5016    4.5066    0.0000 O   0  0  0  0  0  0  0  0  0  0  0  0
    4.0090    3.8354    0.0000 O   0  0  0  0  0  0  0  0  0  0  0  0
  1  2  2  0      
  2  3  1  0      
  3  4  2  0      
  4  5  1  0      
  5  6  2  0      
  6  1  1  0      
  1  7  1  0      
  2  8  1  0      
  3  9  1  0      
  5 10  1  0      
 10 11  1  0      
 11 12  1  0      
 12 13  2  0      
 13 14  1  0      
 14 10  2  0      
 12 15  1  0      
 15 16  1  0      
 16 17  1  0      
 17 18  1  0      
 18 19  2  0      
 19 20  1  0      
 20 21  2  0      
 21 22  1  0      
 22 18  1  0      
 16 23  1  0      
 16 24  1  0      
 24 25  2  0      
 25 26  1  0      
 26 27  2  0      
 27 28  1  0      
 28 24  1  0      
 21 29  1  0      
 27 30  1  0      
 30 31  2  0      
 31 32  1  0      
 32 33  2  0      
 33 34  1  0      
 34 35  2  0      
 35 30  1  0      
 32 36  1  0      
 33 37  1  0      
 34 38  1  0      
 29 39  2  0      
 39 40  1  0      
 40 41  2  0      
 41 42  1  0      
 42 43  2  0      
 43 29  1  0      
 42 44  1  0      
 41 45  1  0      
 40 46  1  0      
M  END
