SV_J4_0002.mol
  ChemDraw02072413002D

 30 32  0  0  0  0  0  0  0  0999 V2000
   -4.2213    2.0271    0.0000 C   0  0  0  0  0  0  0  0  0  0  0  0
   -3.6379    1.4437    0.0000 C   0  0  0  0  0  0  0  0  0  0  0  0
   -2.9234    1.8562    0.0000 C   0  0  0  0  0  0  0  0  0  0  0  0
   -2.2090    1.4437    0.0000 C   0  0  0  0  0  0  0  0  0  0  0  0
   -2.9234    2.6812    0.0000 C   0  0  0  0  0  0  0  0  0  0  0  0
   -1.4945    1.8562    0.0000 C   0  0  0  0  0  0  0  0  0  0  0  0
   -0.7800    1.4437    0.0000 C   0  0  0  0  0  0  0  0  0  0  0  0
   -0.0656    1.8562    0.0000 C   0  0  0  0  0  0  0  0  0  0  0  0
    0.6489    1.4437    0.0000 C   0  0  0  0  0  0  0  0  0  0  0  0
   -0.0656    2.6812    0.0000 C   0  0  0  0  0  0  0  0  0  0  0  0
    1.3634    1.8562    0.0000 C   0  0  0  0  0  0  0  0  0  0  0  0
    2.0779    1.4437    0.0000 C   0  0  0  0  0  0  0  0  0  0  0  0
    2.7923    1.8562    0.0000 C   0  0  0  0  0  0  0  0  0  0  0  0
    2.7923    2.6812    0.0000 C   0  0  0  0  0  0  0  0  0  0  0  0
    2.0779    3.0938    0.0000 C   0  0  0  0  0  0  0  0  0  0  0  0
    1.3634    2.6812    0.0000 C   0  0  0  0  0  0  0  0  0  0  0  0
    2.0779    0.6188    0.0000 O   0  0  0  0  0  0  0  0  0  0  0  0
    2.7923    0.2062    0.0000 C   0  0  0  0  0  0  0  0  0  0  0  0
    3.5068    0.6188    0.0000 C   0  0  0  0  0  0  0  0  0  0  0  0
    3.5068    1.4437    0.0000 C   0  0  0  0  0  0  0  0  0  0  0  0
    0.6489    3.0938    0.0000 O   0  0  0  0  0  0  0  0  0  0  0  0
    3.5068    3.0938    0.0000 O   0  0  0  0  0  0  0  0  0  0  0  0
    4.2213    1.8562    0.0000 O   0  0  0  0  0  0  0  0  0  0  0  0
    2.7923   -0.6188    0.0000 C   0  0  0  0  0  0  0  0  0  0  0  0
    2.0779   -1.0312    0.0000 C   0  0  0  0  0  0  0  0  0  0  0  0
    2.0779   -1.8562    0.0000 C   0  0  0  0  0  0  0  0  0  0  0  0
    2.7923   -2.2687    0.0000 C   0  0  0  0  0  0  0  0  0  0  0  0
    3.5068   -1.8562    0.0000 C   0  0  0  0  0  0  0  0  0  0  0  0
    3.5068   -1.0312    0.0000 C   0  0  0  0  0  0  0  0  0  0  0  0
    2.7923   -3.0938    0.0000 O   0  0  0  0  0  0  0  0  0  0  0  0
  1  2  1  0      
  2  3  1  0      
  3  4  2  0      
  3  5  1  0      
  4  6  1  0      
  6  7  1  0      
  7  8  1  0      
  8  9  2  0      
  8 10  1  0      
  9 11  1  0      
 11 12  2  0      
 12 13  1  0      
 13 14  2  0      
 14 15  1  0      
 15 16  2  0      
 16 11  1  0      
 12 17  1  0      
 17 18  1  0      
 18 19  2  0      
 19 20  1  0      
 20 13  1  0      
 16 21  1  0      
 14 22  1  0      
 20 23  2  0      
 18 24  1  0      
 24 25  2  0      
 25 26  1  0      
 26 27  2  0      
 27 28  1  0      
 28 29  2  0      
 29 24  1  0      
 27 30  1  0      
M  END
