SV_J2_0003.mol
  ChemDraw02072411472D

 35 39  0  0  1  0  0  0  0  0999 V2000
   -4.2782   -0.7415    0.0000 C   0  0  0  0  0  0  0  0  0  0  0  0
   -4.2782   -1.5665    0.0000 C   0  0  0  0  0  0  0  0  0  0  0  0
   -3.5637   -1.9790    0.0000 C   0  0  0  0  0  0  0  0  0  0  0  0
   -2.8493   -1.5665    0.0000 C   0  0  0  0  0  0  0  0  0  0  0  0
   -2.8493   -0.7415    0.0000 C   0  0  0  0  0  0  0  0  0  0  0  0
   -3.5637   -0.3290    0.0000 C   0  0  0  0  0  0  0  0  0  0  0  0
   -3.5637   -2.8040    0.0000 C   0  0  0  0  0  0  0  0  0  0  0  0
   -2.1348   -1.9790    0.0000 C   0  0  0  0  0  0  0  0  0  0  0  0
   -1.4203   -1.5665    0.0000 N   0  0  0  0  0  0  0  0  0  0  0  0
   -2.1348   -2.8040    0.0000 O   0  0  0  0  0  0  0  0  0  0  0  0
   -0.7059   -1.9790    0.0000 C   0  0  0  0  0  0  0  0  0  0  0  0
    0.0086   -1.5665    0.0000 C   0  0  0  0  0  0  0  0  0  0  0  0
    0.7231   -1.9790    0.0000 C   0  0  0  0  0  0  0  0  0  0  0  0
    1.4376   -1.5665    0.0000 C   0  0  0  0  0  0  0  0  0  0  0  0
    1.4376   -0.7415    0.0000 N   0  0  0  0  0  0  0  0  0  0  0  0
    0.7231   -0.3290    0.0000 C   0  0  0  0  0  0  0  0  0  0  0  0
    0.0086   -0.7415    0.0000 C   0  0  0  0  0  0  0  0  0  0  0  0
    0.7231    0.4960    0.0000 C   0  0  0  0  0  0  0  0  0  0  0  0
    0.0086    0.9085    0.0000 C   0  0  0  0  0  0  0  0  0  0  0  0
   -0.7059    0.4960    0.0000 C   0  0  0  0  0  0  0  0  0  0  0  0
   -0.7059   -0.3290    0.0000 C   0  0  0  0  0  0  0  0  0  0  0  0
   -0.7059   -2.8040    0.0000 C   0  0  0  0  0  0  0  0  0  0  0  0
    2.1520   -1.9790    0.0000 C   0  0  0  0  0  0  0  0  0  0  0  0
    2.2383   -2.7995    0.0000 C   0  0  0  0  0  0  0  0  0  0  0  0
    3.0452   -2.9710    0.0000 N   0  0  0  0  0  0  0  0  0  0  0  0
    3.4577   -2.2565    0.0000 N   0  0  0  0  0  0  0  0  0  0  0  0
    2.9057   -1.6434    0.0000 C   0  0  0  0  0  0  0  0  0  0  0  0
    4.2782   -2.1703    0.0000 C   0  0  0  0  0  0  0  0  0  0  0  0
   -3.5637    0.4960    0.0000 N   0  0  0  0  0  0  0  0  0  0  0  0
   -2.8493    0.9085    0.0000 C   0  0  0  0  0  0  0  0  0  0  0  0
   -2.8493    1.7335    0.0000 C   0  0  0  0  0  0  0  0  0  0  0  0
   -3.5637    2.1460    0.0000 N   0  0  0  0  0  0  0  0  0  0  0  0
   -4.2782    1.7335    0.0000 C   0  0  0  0  0  0  0  0  0  0  0  0
   -4.2782    0.9085    0.0000 C   0  0  0  0  0  0  0  0  0  0  0  0
   -3.5637    2.9710    0.0000 C   0  0  0  0  0  0  0  0  0  0  0  0
  1  2  2  0      
  2  3  1  0      
  3  4  2  0      
  4  5  1  0      
  5  6  2  0      
  6  1  1  0      
  3  7  1  0      
  4  8  1  0      
  8  9  1  0      
  8 10  2  0      
  9 11  1  0      
 11 12  1  0      
 12 13  2  0      
 13 14  1  0      
 14 15  2  0      
 15 16  1  0      
 16 17  2  0      
 17 12  1  0      
 16 18  1  0      
 18 19  2  0      
 19 20  1  0      
 20 21  2  0      
 21 17  1  0      
 11 22  1  1      
 14 23  1  0      
 23 24  1  0      
 24 25  2  0      
 25 26  1  0      
 26 27  1  0      
 27 23  2  0      
 26 28  1  0      
  6 29  1  0      
 29 30  1  0      
 30 31  1  0      
 31 32  1  0      
 32 33  1  0      
 33 34  1  0      
 34 29  1  0      
 32 35  1  0      
M  END
