SV_J5_0001.mol
  ChemDraw02072413202D

 32 35  0  0  0  0  0  0  0  0999 V2000
   -3.6409   -1.8351    0.0000 C   0  0  0  0  0  0  0  0  0  0  0  0
   -3.6409   -2.6601    0.0000 C   0  0  0  0  0  0  0  0  0  0  0  0
   -2.9264   -3.0726    0.0000 C   0  0  0  0  0  0  0  0  0  0  0  0
   -2.2120   -2.6601    0.0000 C   0  0  0  0  0  0  0  0  0  0  0  0
   -2.2120   -1.8351    0.0000 C   0  0  0  0  0  0  0  0  0  0  0  0
   -2.9264   -1.4226    0.0000 C   0  0  0  0  0  0  0  0  0  0  0  0
   -1.4975   -1.4226    0.0000 C   0  0  0  0  0  0  0  0  0  0  0  0
   -1.4975   -0.5976    0.0000 C   0  0  0  0  0  0  0  0  0  0  0  0
   -2.2120   -0.1851    0.0000 C   0  0  0  0  0  0  0  0  0  0  0  0
   -2.9264   -0.5976    0.0000 O   0  0  0  0  0  0  0  0  0  0  0  0
   -0.7830   -1.8351    0.0000 O   0  0  0  0  0  0  0  0  0  0  0  0
   -0.8844   -0.0456    0.0000 C   0  0  0  0  0  0  0  0  0  0  0  0
   -1.2200    0.7081    0.0000 N   0  0  0  0  0  0  0  0  0  0  0  0
   -2.0404    0.6219    0.0000 C   0  0  0  0  0  0  0  0  0  0  0  0
   -2.5925    1.2350    0.0000 O   0  0  0  0  0  0  0  0  0  0  0  0
   -0.0774   -0.2171    0.0000 C   0  0  0  0  0  0  0  0  0  0  0  0
   -0.5055    1.1206    0.0000 C   0  0  0  0  0  0  0  0  0  0  0  0
   -0.5055    1.9456    0.0000 C   0  0  0  0  0  0  0  0  0  0  0  0
    0.2090    2.3581    0.0000 C   0  0  0  0  0  0  0  0  0  0  0  0
    0.2090    3.1831    0.0000 N   0  0  0  0  0  0  0  0  0  0  0  0
    1.3479    3.3966    0.0000 C   0  0  0  0  0  0  0  0  0  0  0  0
   -0.2035    3.8976    0.0000 C   0  0  0  0  0  0  0  0  0  0  0  0
    0.1775   -1.0017    0.0000 C   0  0  0  0  0  0  0  0  0  0  0  0
    0.9845   -1.1732    0.0000 C   0  0  0  0  0  0  0  0  0  0  0  0
    1.5365   -0.5601    0.0000 C   0  0  0  0  0  0  0  0  0  0  0  0
    1.2816    0.2245    0.0000 C   0  0  0  0  0  0  0  0  0  0  0  0
    0.4746    0.3960    0.0000 C   0  0  0  0  0  0  0  0  0  0  0  0
    1.8336    0.8376    0.0000 O   0  0  0  0  0  0  0  0  0  0  0  0
    2.6305    0.6241    0.0000 C   0  0  0  0  0  0  0  0  0  0  0  0
    2.8440   -0.1728    0.0000 C   0  0  0  0  0  0  0  0  0  0  0  0
    3.6409   -0.3864    0.0000 C   0  0  0  0  0  0  0  0  0  0  0  0
   -2.9264   -3.8976    0.0000 Cl  0  0  0  0  0  0  0  0  0  0  0  0
  1  2  2  0      
  2  3  1  0      
  3  4  2  0      
  4  5  1  0      
  5  6  2  0      
  6  1  1  0      
  5  7  1  0      
  7  8  1  0      
  8  9  2  0      
  9 10  1  0      
 10  6  1  0      
  7 11  2  0      
  8 12  1  0      
 12 13  1  0      
 13 14  1  0      
 14  9  1  0      
 14 15  2  0      
 12 16  1  0      
 13 17  1  0      
 17 18  1  0      
 18 19  1  0      
 19 20  1  0      
 20 21  1  0      
 20 22  1  0      
 16 23  2  0      
 23 24  1  0      
 24 25  2  0      
 25 26  1  0      
 26 27  2  0      
 27 16  1  0      
 26 28  1  0      
 28 29  1  0      
 29 30  1  0      
 30 31  2  0      
  3 32  1  0      
M  END
