SV_J23_0003.mol
  ChemDraw04112414182D

 33 36  0  0  0  0  0  0  0  0999 V2000
   -2.8949   -2.3209    0.0000 C   0  0  0  0  0  0  0  0  0  0  0  0
   -2.7234   -1.5139    0.0000 C   0  0  0  0  0  0  0  0  0  0  0  0
   -3.2754   -0.9008    0.0000 N   0  0  0  0  0  0  0  0  0  0  0  0
   -2.8629   -0.1863    0.0000 N   0  0  0  0  0  0  0  0  0  0  0  0
   -2.0559   -0.3579    0.0000 C   0  0  0  0  0  0  0  0  0  0  0  0
   -1.4429    0.1942    0.0000 O   0  0  0  0  0  0  0  0  0  0  0  0
   -1.9697   -1.1784    0.0000 C   0  0  0  0  0  0  0  0  0  0  0  0
   -1.2552   -1.5909    0.0000 N   0  0  0  0  0  0  0  0  0  0  0  0
   -0.5408   -1.1784    0.0000 N   0  0  0  0  0  0  0  0  0  0  0  0
    0.1737   -1.5909    0.0000 C   0  0  0  0  0  0  0  0  0  0  0  0
    0.8882   -1.1784    0.0000 C   0  0  0  0  0  0  0  0  0  0  0  0
    0.8882   -0.3534    0.0000 O   0  0  0  0  0  0  0  0  0  0  0  0
    1.6026   -1.5909    0.0000 C   0  0  0  0  0  0  0  0  0  0  0  0
    1.6026   -2.4159    0.0000 C   0  0  0  0  0  0  0  0  0  0  0  0
    0.8882   -2.8284    0.0000 C   0  0  0  0  0  0  0  0  0  0  0  0
    0.1737   -2.4159    0.0000 C   0  0  0  0  0  0  0  0  0  0  0  0
    2.3171   -1.1784    0.0000 C   0  0  0  0  0  0  0  0  0  0  0  0
    2.3171   -0.3534    0.0000 C   0  0  0  0  0  0  0  0  0  0  0  0
    3.0316    0.0591    0.0000 C   0  0  0  0  0  0  0  0  0  0  0  0
    3.7461   -0.3534    0.0000 C   0  0  0  0  0  0  0  0  0  0  0  0
    3.7461   -1.1784    0.0000 C   0  0  0  0  0  0  0  0  0  0  0  0
    3.0316   -1.5909    0.0000 C   0  0  0  0  0  0  0  0  0  0  0  0
    4.4605   -1.5909    0.0000 C   0  0  0  0  0  0  0  0  0  0  0  0
    5.1750   -1.1784    0.0000 O   0  0  0  0  0  0  0  0  0  0  0  0
    4.4605   -2.4159    0.0000 O   0  0  0  0  0  0  0  0  0  0  0  0
   -3.1985    0.5673    0.0000 C   0  0  0  0  0  0  0  0  0  0  0  0
   -2.7136    1.2348    0.0000 C   0  0  0  0  0  0  0  0  0  0  0  0
   -3.0491    1.9884    0.0000 C   0  0  0  0  0  0  0  0  0  0  0  0
   -3.8696    2.0747    0.0000 C   0  0  0  0  0  0  0  0  0  0  0  0
   -4.2052    2.8284    0.0000 C   0  0  0  0  0  0  0  0  0  0  0  0
   -4.3545    1.4072    0.0000 C   0  0  0  0  0  0  0  0  0  0  0  0
   -5.1750    1.4935    0.0000 C   0  0  0  0  0  0  0  0  0  0  0  0
   -4.0190    0.6536    0.0000 C   0  0  0  0  0  0  0  0  0  0  0  0
  1  2  1  0      
  2  3  2  0      
  3  4  1  0      
  4  5  1  0      
  5  6  2  0      
  5  7  1  0      
  2  7  1  0      
  7  8  2  0      
  8  9  1  0      
  9 10  1  0      
 10 11  2  0      
 11 12  1  0      
 11 13  1  0      
 13 14  2  0      
 14 15  1  0      
 15 16  2  0      
 10 16  1  0      
 13 17  1  0      
 17 18  2  0      
 18 19  1  0      
 19 20  2  0      
 20 21  1  0      
 21 22  2  0      
 17 22  1  0      
 21 23  1  0      
 23 24  1  0      
 23 25  2  0      
  4 26  1  0      
 26 27  2  0      
 27 28  1  0      
 28 29  2  0      
 29 30  1  0      
 29 31  1  0      
 31 32  1  0      
 31 33  2  0      
 26 33  1  0      
M  END
