SV_J7_0004.mol
  ChemDraw02082411552D

 32 35  0  0  0  0  0  0  0  0999 V2000
   -4.1323   -1.7345    0.0000 C   0  0  0  0  0  0  0  0  0  0  0  0
   -4.1323   -2.5595    0.0000 C   0  0  0  0  0  0  0  0  0  0  0  0
   -3.4179   -2.9720    0.0000 C   0  0  0  0  0  0  0  0  0  0  0  0
   -2.7034   -2.5595    0.0000 C   0  0  0  0  0  0  0  0  0  0  0  0
   -2.7034   -1.7345    0.0000 C   0  0  0  0  0  0  0  0  0  0  0  0
   -3.4179   -1.3220    0.0000 C   0  0  0  0  0  0  0  0  0  0  0  0
   -1.9889   -2.9720    0.0000 N   0  0  0  0  0  0  0  0  0  0  0  0
   -1.2745   -2.5595    0.0000 C   0  0  0  0  0  0  0  0  0  0  0  0
   -0.5600   -2.9720    0.0000 O   0  0  0  0  0  0  0  0  0  0  0  0
   -1.2745   -1.7345    0.0000 C   0  0  0  0  0  0  0  0  0  0  0  0
   -0.6070   -1.2495    0.0000 S   0  0  0  0  0  0  0  0  0  0  0  0
   -0.8620   -0.4649    0.0000 C   0  0  0  0  0  0  0  0  0  0  0  0
   -1.6870   -0.4649    0.0000 N   0  0  0  0  0  0  0  0  0  0  0  0
   -1.9419   -1.2495    0.0000 N   0  0  0  0  0  0  0  0  0  0  0  0
   -2.2703    0.1184    0.0000 C   0  0  0  0  0  0  0  0  0  0  0  0
   -2.0568    0.9153    0.0000 C   0  0  0  0  0  0  0  0  0  0  0  0
   -2.6402    1.4987    0.0000 C   0  0  0  0  0  0  0  0  0  0  0  0
   -3.4371    1.2852    0.0000 C   0  0  0  0  0  0  0  0  0  0  0  0
   -3.6506    0.4883    0.0000 C   0  0  0  0  0  0  0  0  0  0  0  0
   -3.0672   -0.0951    0.0000 C   0  0  0  0  0  0  0  0  0  0  0  0
   -0.3770    0.2025    0.0000 N   0  0  0  0  0  0  0  0  0  0  0  0
    0.4198    0.4160    0.0000 N   0  0  0  0  0  0  0  0  0  0  0  0
    0.8323    1.1305    0.0000 C   0  0  0  0  0  0  0  0  0  0  0  0
    1.6573    1.1305    0.0000 C   0  0  0  0  0  0  0  0  0  0  0  0
    2.0698    0.4160    0.0000 C   0  0  0  0  0  0  0  0  0  0  0  0
    2.8948    0.4160    0.0000 C   0  0  0  0  0  0  0  0  0  0  0  0
    3.3073    1.1305    0.0000 C   0  0  0  0  0  0  0  0  0  0  0  0
    2.8948    1.8450    0.0000 C   0  0  0  0  0  0  0  0  0  0  0  0
    2.0698    1.8450    0.0000 C   0  0  0  0  0  0  0  0  0  0  0  0
    4.1323    1.1305    0.0000 O   0  0  0  0  0  0  0  0  0  0  0  0
    3.3073    2.5595    0.0000 O   0  0  0  0  0  0  0  0  0  0  0  0
    2.5929    2.9720    0.0000 C   0  0  0  0  0  0  0  0  0  0  0  0
  1  2  2  0      
  2  3  1  0      
  3  4  2  0      
  4  5  1  0      
  5  6  2  0      
  6  1  1  0      
  4  7  1  0      
  7  8  1  0      
  8  9  2  0      
  8 10  1  0      
 10 11  1  0      
 11 12  1  0      
 12 13  1  0      
 13 14  1  0      
 14 10  2  0      
 13 15  1  0      
 15 16  2  0      
 16 17  1  0      
 17 18  2  0      
 18 19  1  0      
 19 20  2  0      
 20 15  1  0      
 12 21  2  0      
 21 22  1  0      
 22 23  2  0      
 23 24  1  0      
 24 25  2  0      
 25 26  1  0      
 26 27  2  0      
 27 28  1  0      
 28 29  2  0      
 29 24  1  0      
 27 30  1  0      
 28 31  1  0      
 31 32  1  0      
M  END
