SV_J19_0009.mol
  ChemDraw04112415172D

 32 35  0  0  0  0  0  0  0  0999 V2000
   -3.2266   -1.8864    0.0000 C   0  0  0  0  0  0  0  0  0  0  0  0
   -3.2266   -2.7114    0.0000 C   0  0  0  0  0  0  0  0  0  0  0  0
   -2.5121   -3.1239    0.0000 C   0  0  0  0  0  0  0  0  0  0  0  0
   -1.7976   -2.7114    0.0000 C   0  0  0  0  0  0  0  0  0  0  0  0
   -1.7976   -1.8864    0.0000 C   0  0  0  0  0  0  0  0  0  0  0  0
   -2.5121   -1.4739    0.0000 C   0  0  0  0  0  0  0  0  0  0  0  0
   -3.9411   -3.1239    0.0000 C   0  0  0  0  0  0  0  0  0  0  0  0
   -4.1546   -3.9208    0.0000 C   0  0  0  0  0  0  0  0  0  0  0  0
   -4.5956   -2.6217    0.0000 O   0  0  0  0  0  0  0  0  0  0  0  0
   -1.0832   -1.4739    0.0000 N   0  0  0  0  0  0  0  0  0  0  0  0
   -0.2582   -1.4739    0.0000 C   0  0  0  0  0  0  0  0  0  0  0  0
    0.1543   -0.7594    0.0000 C   0  0  0  0  0  0  0  0  0  0  0  0
    0.1543   -2.1884    0.0000 O   0  0  0  0  0  0  0  0  0  0  0  0
    0.9793   -0.7594    0.0000 N   0  0  0  0  0  0  0  0  0  0  0  0
    1.4643   -1.4269    0.0000 N   0  0  0  0  0  0  0  0  0  0  0  0
    2.2489   -1.1719    0.0000 N   0  0  0  0  0  0  0  0  0  0  0  0
    2.2489   -0.3469    0.0000 C   0  0  0  0  0  0  0  0  0  0  0  0
    1.4643   -0.0920    0.0000 C   0  0  0  0  0  0  0  0  0  0  0  0
    2.9163    0.1380    0.0000 C   0  0  0  0  0  0  0  0  0  0  0  0
    3.1298    0.9349    0.0000 N   0  0  0  0  0  0  0  0  0  0  0  0
    3.8918    1.2513    0.0000 C   0  0  0  0  0  0  0  0  0  0  0  0
    3.8263    2.0737    0.0000 C   0  0  0  0  0  0  0  0  0  0  0  0
    3.0239    2.2656    0.0000 C   0  0  0  0  0  0  0  0  0  0  0  0
    2.5935    1.5618    0.0000 C   0  0  0  0  0  0  0  0  0  0  0  0
    4.5956    0.8209    0.0000 O   0  0  0  0  0  0  0  0  0  0  0  0
    4.4532    2.6100    0.0000 O   0  0  0  0  0  0  0  0  0  0  0  0
    2.5935    2.9902    0.0000 C   0  0  0  0  0  0  0  0  0  0  0  0
    1.7687    2.9902    0.0000 C   0  0  0  0  0  0  0  0  0  0  0  0
    1.3383    2.2656    0.0000 C   0  0  0  0  0  0  0  0  0  0  0  0
    1.7687    1.5618    0.0000 C   0  0  0  0  0  0  0  0  0  0  0  0
    1.3607    3.7072    0.0000 O   0  0  0  0  0  0  0  0  0  0  0  0
    0.5638    3.9208    0.0000 C   0  0  0  0  0  0  0  0  0  0  0  0
  1  2  2  0      
  2  3  1  0      
  3  4  2  0      
  4  5  1  0      
  5  6  2  0      
  6  1  1  0      
  2  7  1  0      
  7  8  1  0      
  7  9  2  0      
  5 10  1  0      
 10 11  1  0      
 11 12  1  0      
 11 13  2  0      
 12 14  1  0      
 14 15  1  0      
 15 16  2  0      
 16 17  1  0      
 17 18  2  0      
 18 14  1  0      
 17 19  1  0      
 19 20  1  0      
 20 21  1  0      
 21 22  1  0      
 22 23  1  0      
 23 24  2  0      
 24 20  1  0      
 21 25  2  0      
 22 26  2  0      
 23 27  1  0      
 27 28  2  0      
 28 29  1  0      
 29 30  2  0      
 30 24  1  0      
 28 31  1  0      
 31 32  1  0      
M  END
