@<TRIPOS>MOLECULE
J11_21
43 45 1 0 0 
SMALL
USER_CHARGES


@<TRIPOS>ATOM
  1 C        0.8098     0.9399     0.8931 C.2   1 <1>   0.6156 
  2 O        1.5523     1.6140     1.5997 O.2   1 <1>  -0.5700 
  3 N       -0.5606     1.0177     1.0020 N.am  1 <1>  -0.4900 
  4 H       -0.9265     1.6600     1.6903 H     1 <1>   0.3700 
  5 C       -1.4897     0.3075     0.2716 C.2   1 <1>   0.6900 
  6 O       -2.6887     0.4738     0.4812 O.2   1 <1>  -0.5700 
  7 N       -0.9587    -0.5726    -0.6738 N.am  1 <1>  -0.4691 
  8 C       -1.8470    -1.4042    -1.5101 C.3   1 <1>   0.3001 
  9 H       -1.2157    -2.0113    -2.1759 H     1 <1>   0.0000 
 10 C        0.4123    -0.6999    -0.8422 C.2   1 <1>  -0.0410 
 11 H        0.7496    -1.4092    -1.5933 H     1 <1>   0.1500 
 12 C        1.2993    -0.0068    -0.1257 C.2   1 <1>   0.1544 
 13 CL       2.9914    -0.1865    -0.3482 Cl    1 <1>  -0.1400 
 14 C       -2.8434    -0.6355    -2.3859 C.3   1 <1>   0.3001 
 15 H1      -2.3883    -0.2689    -3.3120 H     1 <1>   0.0000 
 16 H2      -3.3149     0.2136    -1.8832 H     1 <1>   0.0000 
 17 N       -3.8874    -1.6074    -2.6775 N.am  1 <1>  -0.6602 
 18 C       -4.8108    -1.4004    -3.6876 C.2   1 <1>   0.5438 
 19 C       -5.7689    -2.4863    -3.9670 C.ar  1 <1>   0.0862 
 20 O       -4.8680    -0.3852    -4.3740 O.2   1 <1>  -0.5700 
 21 C       -3.8165    -2.7494    -1.7716 C.3   1 <1>   0.3001 
 22 H1      -3.5266    -3.6391    -2.3408 H     1 <1>   0.0000 
 23 H2      -4.7938    -2.9353    -1.3153 H     1 <1>   0.0000 
 24 C       -2.7565    -2.3755    -0.7291 C.3   1 <1>   0.2800 
 25 O       -2.0180    -3.5138    -0.3006 O.3   1 <1>  -0.6800 
 26 H       -2.6149    -4.0637     0.2374 H     1 <1>   0.4000 
 27 H2      -3.2211    -1.9065     0.1434 H     1 <1>   0.0000 
 28 C       -7.1136    -2.3379    -3.6179 C.ar  1 <1>  -0.1500 
 29 H       -7.4623    -1.4295    -3.1334 H     1 <1>   0.1500 
 30 C       -8.0202    -3.3717    -3.8814 C.ar  1 <1>   0.0825 
 31 O       -9.3092    -3.1345    -3.4821 O.3   1 <1>  -0.3625 
 32 C      -10.2105    -4.2547    -3.4982 C.3   1 <1>   0.1740 
 33 H2      -9.7735    -5.1123    -2.9720 H     1 <1>   0.0000 
 34 C       -7.5712    -4.5307    -4.5217 C.ar  1 <1>  -0.1500 
 35 H       -8.2483    -5.3449    -4.7597 H     1 <1>   0.1500 
 36 C       -6.2272    -4.6632    -4.8867 C.ar  1 <1>  -0.1500 
 37 H       -5.8910    -5.5656    -5.3910 H     1 <1>   0.1500 
 38 C       -5.3222    -3.6403    -4.6126 C.ar  1 <1>  -0.1500 
 39 H       -4.2828    -3.7449    -4.9100 H     1 <1>   0.1500 
 40 H3     -10.4397    -4.5228    -4.5362 H     1 <1>   0.0000 
 41 C      -11.5117    -3.8904    -2.7591 C.2   1 <1>   0.9060 
 42 O      -11.3662    -3.3620    -1.6188 O.co2 1 <1>  -0.9000 
 43 O      -12.5777    -4.2085    -3.3654 O.co2 1 <1>  -0.9000 
@<TRIPOS>BOND
  1   1   2  2   
  2   1   3  am  
  3   1  12  1   
  4   3   4  1   
  5   3   5  am  
  6   5   6  2   
  7   5   7  am  
  8   7   8  1   
  9   7  10  1   
 10   8   9  1   
 11   8  14  1   
 12   8  24  1   
 13  10  11  1   
 14  10  12  2   
 15  12  13  1   
 16  14  15  1   
 17  14  16  1   
 18  14  17  1   
 19  17  18  am  
 20  17  21  1   
 21  18  19  1   
 22  18  20  2   
 23  19  28  ar  
 24  19  38  ar  
 25  21  22  1   
 26  21  23  1   
 27  21  24  1   
 28  24  25  1   
 29  24  27  1   
 30  25  26  1   
 31  28  29  1   
 32  28  30  ar  
 33  30  31  1   
 34  30  34  ar  
 35  31  32  1   
 36  32  33  1   
 37  32  40  1   
 38  32  41  1   
 39  34  35  1   
 40  34  36  ar  
 41  36  37  1   
 42  36  38  ar  
 43  38  39  1   
 44  41  42  ar  
 45  41  43  ar  
@<TRIPOS>SUBSTRUCTURE
  1 <1>   0 RESIDUE 1 * * 1
# MOE 2007.09 (io_trps.svl 2007.09)
