@<TRIPOS>MOLECULE
J11_01
51 52 1 0 0 
SMALL
USER_CHARGES


@<TRIPOS>ATOM
  1 C        1.6440     0.9436    -0.3289 C.3   1 <1>   0.2800 
  2 C        2.7847     1.6998     0.4112 C.3   1 <1>   0.3001 
  3 H1       3.7531     1.5061    -0.0681 H     1 <1>   0.0000 
  4 H2       2.8580     1.3296     1.4409 H     1 <1>   0.0000 
  5 N        2.5983     3.1586     0.4547 N.am  1 <1>  -0.4691 
  6 O        1.7989     1.2030    -1.7397 O.3   1 <1>  -0.6800 
  7 H        1.0010     0.9050    -2.2141 H     1 <1>   0.4000 
  8 C        0.2489     1.3886     0.1494 C.3   1 <1>   0.0000 
  9 H1       0.0745     2.4406    -0.1050 H     1 <1>   0.0000 
 10 H2       0.1885     1.2973     1.2409 H     1 <1>   0.0000 
 11 C       -0.8927     0.5819    -0.4654 C.3   1 <1>   0.0000 
 12 H1      -1.0028     0.8703    -1.5152 H     1 <1>   0.0000 
 13 H2      -1.8362     0.8694     0.0160 H     1 <1>   0.0000 
 14 C       -0.6840    -0.9308    -0.3129 C.3   1 <1>   0.3001 
 15 N       -1.7689    -1.7019    -0.9477 N.am  1 <1>  -0.6602 
 16 C       -2.5988    -2.4896    -0.0395 C.3   1 <1>   0.3001 
 17 H1      -3.4271    -2.9947    -0.5350 H     1 <1>   0.0000 
 18 H2      -3.0127    -1.8213     0.7220 H     1 <1>   0.0000 
 19 H3      -1.9662    -3.2419     0.4413 H     1 <1>   0.0000 
 20 C       -1.9455    -1.6524    -2.3339 C.2   1 <1>   0.5690 
 21 C       -3.0537    -2.5153    -2.9217 C.3   1 <1>   0.0610 
 22 C       -3.1105    -2.4358    -4.4456 C.3   1 <1>   0.0610 
 23 C       -1.9727    -3.1858    -5.0849 C.2   1 <1>   0.6590 
 24 O       -1.8735    -2.9140    -6.4021 O.co2 1 <1>  -0.6500 
 25 O       -1.2205    -3.9809    -4.5472 O.co2 1 <1>  -0.5700 
 26 H2      -3.0859    -1.3931    -4.7807 H     1 <1>   0.0000 
 27 H3      -4.0418    -2.8939    -4.7967 H     1 <1>   0.0000 
 28 H2      -4.0070    -2.1500    -2.5226 H     1 <1>   0.0000 
 29 H3      -2.9103    -3.5535    -2.6027 H     1 <1>   0.0000 
 30 O       -1.2513    -0.9431    -3.0665 O.2   1 <1>  -0.5700 
 31 H2      -0.7356    -1.1429     0.7649 H     1 <1>   0.0000 
 32 C        0.7042    -1.3948    -0.7740 C.3   1 <1>   0.0000 
 33 H1       0.8113    -1.3469    -1.8633 H     1 <1>   0.0000 
 34 H2       0.8410    -2.4572    -0.5317 H     1 <1>   0.0000 
 35 C        1.8195    -0.5798    -0.1200 C.3   1 <1>   0.2800 
 36 O        3.0639    -0.9988    -0.6857 O.3   1 <1>  -0.6800 
 37 H        3.1218    -0.5580    -1.5569 H     1 <1>   0.4000 
 38 H2       1.8503    -0.8129     0.9512 H     1 <1>   0.0000 
 39 C        2.0615     3.7416     1.5992 C.2   1 <1>   0.6900 
 40 O        1.7326     3.1224     2.6097 O.2   1 <1>  -0.5700 
 41 N        1.8900     5.1036     1.5351 N.am  1 <1>  -0.4900 
 42 H        1.4914     5.5456     2.3493 H     1 <1>   0.3700 
 43 C        2.2086     5.9168     0.4752 C.2   1 <1>   0.6156 
 44 O        2.0308     7.1300     0.5082 O.2   1 <1>  -0.5700 
 45 C        2.7834     5.2375    -0.7049 C.2   1 <1>  -0.1238 
 46 C        3.1393     6.0773    -1.8866 C.3   1 <1>   0.1382 
 47 H1       3.5499     5.4761    -2.7048 H     1 <1>   0.0000 
 48 H2       3.8917     6.8245    -1.6138 H     1 <1>   0.0000 
 49 H3       2.2547     6.5973    -2.2687 H     1 <1>   0.0000 
 50 C        2.9454     3.9118    -0.6496 C.2   1 <1>  -0.0410 
 51 H        3.3553     3.3634    -1.4943 H     1 <1>   0.1500 
@<TRIPOS>BOND
  1   1   2  1   
  2   1   6  1   
  3   1   8  1   
  4   1  35  1   
  5   2   3  1   
  6   2   4  1   
  7   2   5  1   
  8   5  39  am  
  9   5  50  1   
 10   6   7  1   
 11   8   9  1   
 12   8  10  1   
 13   8  11  1   
 14  11  12  1   
 15  11  13  1   
 16  11  14  1   
 17  14  15  1   
 18  14  31  1   
 19  14  32  1   
 20  15  16  1   
 21  15  20  am  
 22  16  17  1   
 23  16  18  1   
 24  16  19  1   
 25  20  21  1   
 26  20  30  2   
 27  21  22  1   
 28  21  28  1   
 29  21  29  1   
 30  22  23  1   
 31  22  26  1   
 32  22  27  1   
 33  23  24  ar  
 34  23  25  ar  
 35  32  33  1   
 36  32  34  1   
 37  32  35  1   
 38  35  36  1   
 39  35  38  1   
 40  36  37  1   
 41  39  40  2   
 42  39  41  am  
 43  41  42  1   
 44  41  43  am  
 45  43  44  2   
 46  43  45  1   
 47  45  46  1   
 48  45  50  2   
 49  46  47  1   
 50  46  48  1   
 51  46  49  1   
 52  50  51  1   
@<TRIPOS>SUBSTRUCTURE
  1 ****   8 GROUP 4 **** **** 0

# MOE 2015.10 (io_trps.svl 2015.10)
