@<TRIPOS>MOLECULE
J11_56
32 33 1 0 0 
SMALL
USER_CHARGES


@<TRIPOS>ATOM
  1 N        0.8414    -0.5706    -1.2913 N.ar  1 <1>  -0.6200 
  2 C       -0.3700    -0.3952    -1.8676 C.ar  1 <1>   0.4700 
  3 H       -0.3617     0.0125    -2.8734 H     1 <1>   0.1500 
  4 N       -1.5858    -0.6607    -1.3562 N.ar  1 <1>  -0.5670 
  5 C       -1.4833    -1.1668    -0.1181 C.ar  1 <1>   0.1054 
  6 C       -0.3223    -1.4083     0.5967 C.ar  1 <1>   0.2272 
  7 C        0.8892    -1.0857    -0.0362 C.ar  1 <1>   0.4100 
  8 N        2.1171    -1.2696     0.5602 N.pl3 1 <1>  -0.9000 
  9 H1       2.9412    -1.0141     0.0388 H     1 <1>   0.4000 
 10 H2       2.1698    -1.6502     1.4944 H     1 <1>   0.4000 
 11 N       -2.4982    -1.5586     0.7103 N.pl3 1 <1>   0.0476 
 12 C       -3.9119    -1.4686     0.4087 C.3   1 <1>   0.2556 
 13 C       -4.3734    -2.4441    -0.6740 C.3   1 <1>   0.2800 
 14 O       -5.3143    -1.7679    -1.5081 O.3   1 <1>  -0.5600 
 15 C       -5.8295    -2.5972    -2.5640 C.3   1 <1>   0.2800 
 16 H2      -5.1090    -3.3785    -2.8342 H     1 <1>   0.0000 
 17 H2      -4.8350    -3.3201    -0.2087 H     1 <1>   0.0000 
 18 H3      -3.5369    -2.7869    -1.2935 H     1 <1>   0.0000 
 19 H2      -4.1052    -0.4276     0.1214 H     1 <1>   0.0000 
 20 H3      -4.4682    -1.6474     1.3363 H     1 <1>   0.0000 
 21 C       -1.9291    -2.0220     1.8665 C.2   1 <1>   0.0365 
 22 H       -2.5143    -2.3996     2.6954 H     1 <1>   0.1500 
 23 N       -0.6125    -1.9368     1.8389 N.2   1 <1>  -0.5653 
 24 C       -6.0640    -1.6963    -3.7673 C.3   1 <1>   0.0000 
 25 H1      -6.4747    -2.2606    -4.6091 H     1 <1>   0.0000 
 26 H2      -5.1283    -1.2220    -4.0809 H     1 <1>   0.0000 
 27 H3      -6.7641    -0.8913    -3.5203 H     1 <1>   0.0000 
 28 P       -7.3775    -3.3907    -1.9743 P.3   1 <1>   1.1712 
 29 O       -8.4963    -2.3838    -1.8747 O.co2 1 <1>  -0.9500 
 30 O       -7.7264    -4.3113    -3.2690 O.3   1 <1>  -0.7712 
 31 H       -8.5597    -4.7878    -3.0974 H     1 <1>   0.5000 
 32 O       -7.0807    -4.3563    -0.8528 O.co2 1 <1>  -0.9500 
@<TRIPOS>BOND
  1   1   2  ar  
  2   1   7  ar  
  3   2   3  1   
  4   2   4  ar  
  5   4   5  ar  
  6   5   6  ar  
  7   5  11  1   
  8   6   7  ar  
  9   6  23  1   
 10   7   8  1   
 11   8   9  1   
 12   8  10  1   
 13  11  12  1   
 14  11  21  1   
 15  12  13  1   
 16  12  19  1   
 17  12  20  1   
 18  13  14  1   
 19  13  17  1   
 20  13  18  1   
 21  14  15  1   
 22  15  16  1   
 23  15  24  1   
 24  15  28  1   
 25  21  22  1   
 26  21  23  2   
 27  24  25  1   
 28  24  26  1   
 29  24  27  1   
 30  28  29  ar  
 31  28  30  1   
 32  28  32  ar  
 33  30  31  1   
@<TRIPOS>SUBSTRUCTURE
  1 <1>   0 RESIDUE 1 * * 1
# MOE 2007.09 (io_trps.svl 2007.09)
