@<TRIPOS>MOLECULE
J11_39
57 59 1 0 0 
SMALL
USER_CHARGES


@<TRIPOS>ATOM
  1 C        2.3139     0.9396     0.3993 C.2   1 <1>  -0.1500 
  2 H        3.3586     1.0660     0.6523 H     1 <1>   0.1500 
  3 C        1.2881     1.9073     0.5328 C.2   1 <1>  -0.1500 
  4 H        1.3771     2.9168     0.9088 H     1 <1>   0.1500 
  5 C        0.1385     1.3074     0.0810 C.2   1 <1>  -0.0100 
  6 H       -0.8878     1.6323    -0.0163 H     1 <1>   0.1500 
  7 O        0.3918     0.0371    -0.3212 O.3   1 <1>  -0.2800 
  8 C        1.7288    -0.1973    -0.1315 C.2   1 <1>   0.0550 
  9 C        2.2524    -1.4925    -0.4856 C.2   1 <1>   0.5350 
 10 N        1.4974    -2.4055    -1.0230 N.2   1 <1>  -0.5130 
 11 O        2.2146    -3.5799    -1.2920 O.3   1 <1>  -0.2170 
 12 C        1.3460    -4.4910    -1.9542 C.3   1 <1>   0.2800 
 13 H1       0.4939    -4.7367    -1.3129 H     1 <1>   0.0000 
 14 H2       1.9031    -5.4072    -2.1661 H     1 <1>   0.0000 
 15 H3       0.9971    -4.0637    -2.8993 H     1 <1>   0.0000 
 16 C        3.7138    -1.7203    -0.1607 C.2   1 <1>   0.6300 
 17 N        3.9468    -2.6645     0.8241 N.am  1 <1>  -0.6550 
 18 C        5.3238    -2.9709     1.2838 C.3   1 <1>   0.2780 
 19 H2       3.1319    -3.1465     1.1956 H     1 <1>   0.3700 
 20 C        5.4321    -4.0717     2.3787 C.3   1 <1>   0.4420 
 21 H        4.4821    -4.3272     2.8647 H     1 <1>   0.0000 
 22 N        6.2034    -3.1156     3.1438 N.am  1 <1>  -0.3940 
 23 C        5.8975    -2.0266     2.4073 C.2   1 <1>   0.5770 
 24 H        6.0132    -3.0800     0.4369 H     1 <1>   0.0000 
 25 O        6.0760    -0.8457     2.5822 O.2   1 <1>  -0.5700 
 26 O        4.5686    -1.0685    -0.7463 O.2   1 <1>  -0.5700 
 27 S        6.4838    -5.4886     1.9943 S.3   1 <1>  -0.4470 
 28 C        6.7598    -5.8925     3.7522 C.3   1 <1>   0.3682 
 29 H1       7.5248    -6.6751     3.7634 H     1 <1>   0.0000 
 30 H2       5.8443    -6.3204     4.1753 H     1 <1>   0.0000 
 31 C        7.9838    -5.0995     5.8230 C.3   1 <1>   0.4182 
 32 H1       8.1997    -4.2558     6.4845 H     1 <1>   0.0000 
 33 C        7.1991    -4.6997     4.5903 C.2   1 <1>  -0.2764 
 34 C        6.9324    -3.4193     4.2473 C.2   1 <1>   0.1234 
 35 O        9.2200    -5.6820     5.3920 O.3   1 <1>  -0.4300 
 36 C       10.0116    -6.1176     6.4006 C.2   1 <1>   0.7800 
 37 N       11.1506    -6.6544     5.8967 N.am  1 <1>  -0.8000 
 38 H1      11.8512    -7.0278     6.5224 H     1 <1>   0.3700 
 39 O        9.7596    -6.0461     7.5934 O.2   1 <1>  -0.5700 
 40 H3       7.4041    -5.8375     6.3918 H     1 <1>   0.0000 
 41 H2      11.2968    -6.6809     4.8976 H     1 <1>   0.3700 
 42 C        7.5073    -2.3005     5.0288 C.2   1 <1>   0.7056 
 43 O        7.1234    -1.9752     6.1426 O.2   1 <1>  -0.5700 
 44 O        8.5497    -1.7658     4.3415 O.3   1 <1>  -0.4300 
 45 C        9.2156    -0.6777     4.9916 C.3   1 <1>   0.5600 
 46 O       10.5462    -0.4966     4.4567 O.3   1 <1>  -0.4300 
 47 H2       9.2908    -0.8264     6.0756 H     1 <1>   0.0000 
 48 C        8.4606     0.6155     4.7049 C.3   1 <1>   0.0000 
 49 H1       7.4374     0.5784     5.0904 H     1 <1>   0.0000 
 50 H2       8.3973     0.7912     3.6250 H     1 <1>   0.0000 
 51 H3       8.9772     1.4742     5.1457 H     1 <1>   0.0000 
 52 C       11.5527    -1.3708     4.6867 C.2   1 <1>   0.6590 
 53 C       11.2166    -2.6551     5.3849 C.3   1 <1>   0.0610 
 54 H1      10.7643    -2.4695     6.3607 H     1 <1>   0.0000 
 55 H2      12.1419    -3.2144     5.5594 H     1 <1>   0.0000 
 56 H3      10.5746    -3.2705     4.7526 H     1 <1>   0.0000 
 57 O       12.7000    -1.1252     4.3218 O.2   1 <1>  -0.5700 
@<TRIPOS>BOND
  1   1   2  1   
  2   1   3  1   
  3   1   8  2   
  4   3   4  1   
  5   3   5  2   
  6   5   6  1   
  7   5   7  1   
  8   7   8  1   
  9   8   9  1   
 10   9  10  2   
 11   9  16  1   
 12  10  11  1   
 13  11  12  1   
 14  12  13  1   
 15  12  14  1   
 16  12  15  1   
 17  16  17  am  
 18  16  26  2   
 19  17  18  1   
 20  17  19  1   
 21  18  20  1   
 22  18  23  1   
 23  18  24  1   
 24  20  21  1   
 25  20  22  1   
 26  20  27  1   
 27  22  23  am  
 28  22  34  1   
 29  23  25  2   
 30  27  28  1   
 31  28  29  1   
 32  28  30  1   
 33  28  33  1   
 34  31  32  1   
 35  31  33  1   
 36  31  35  1   
 37  31  40  1   
 38  33  34  2   
 39  34  42  1   
 40  35  36  1   
 41  36  37  am  
 42  36  39  2   
 43  37  38  1   
 44  37  41  1   
 45  42  43  2   
 46  42  44  1   
 47  44  45  1   
 48  45  46  1   
 49  45  47  1   
 50  45  48  1   
 51  46  52  1   
 52  48  49  1   
 53  48  50  1   
 54  48  51  1   
 55  52  53  1   
 56  52  57  2   
 57  53  54  1   
 58  53  55  1   
 59  53  56  1   
@<TRIPOS>SUBSTRUCTURE
  1 <1>   0 RESIDUE 1 * * 1
# MOE 2007.09 (io_trps.svl 2007.09)
