@<TRIPOS>MOLECULE
J11_25
53 57 1 0 0 
SMALL
USER_CHARGES


@<TRIPOS>ATOM
  1 C        1.6720     0.5173     0.8244 C.ar  1 <1>  -0.1516 
  2 C        0.8327     0.8364     1.8917 C.ar  1 <1>  -0.1500 
  3 H        1.2211     1.1180     2.8643 H     1 <1>   0.1500 
  4 C       -0.5457     0.7709     1.6493 C.ar  1 <1>  -0.1500 
  5 H       -1.2284     1.0065     2.4646 H     1 <1>   0.1500 
  6 C       -1.0598     0.4136     0.3931 C.ar  1 <1>  -0.1435 
  7 C       -2.5437     0.3229     0.1839 C.3   1 <1>   0.1435 
  8 H1      -3.0706     1.0588     0.8003 H     1 <1>   0.0000 
  9 H2      -2.8976    -0.6787     0.4469 H     1 <1>   0.0000 
 10 H3      -2.8050     0.5279    -0.8597 H     1 <1>   0.0000 
 11 C       -0.1817     0.0848    -0.6551 C.ar  1 <1>  -0.1500 
 12 H       -0.5523    -0.2122    -1.6304 H     1 <1>   0.1500 
 13 C        1.2032     0.1454    -0.4302 C.ar  1 <1>   0.2272 
 14 N        2.2471    -0.1182    -1.2872 N.2   1 <1>  -0.5653 
 15 C        3.3421     0.0864    -0.5824 C.2   1 <1>   0.0065 
 16 C        4.7449    -0.0637    -1.0506 C.3   1 <1>   0.4600 
 17 H1       4.9196    -1.0946    -1.3767 H     1 <1>   0.0000 
 18 O        5.5995     0.2518     0.0484 O.3   1 <1>  -0.5600 
 19 C        6.9746     0.1259    -0.2932 C.3   1 <1>   0.3410 
 20 C        7.8946     0.4652     0.8876 C.2   1 <1>   0.5690 
 21 N        9.2533     0.4547     0.6190 N.am  1 <1>  -0.6602 
 22 O        7.4506     0.7290     2.0061 O.2   1 <1>  -0.5700 
 23 H2       7.2053     0.8070    -1.1198 H     1 <1>   0.0000 
 24 H3       7.1766    -0.9074    -0.5959 H     1 <1>   0.0000 
 25 H3       4.9357     0.6238    -1.8815 H     1 <1>   0.0000 
 26 N        3.0341     0.4723     0.7006 N.pl3 1 <1>   0.0332 
 27 H        3.7228     0.6807     1.4118 H     1 <1>   0.2700 
 28 C       10.2394     0.7579     1.6513 C.3   1 <1>   0.3001 
 29 H1      10.2674    -0.0918     2.3423 H     1 <1>   0.0000 
 30 H2       9.9441     1.6491     2.2151 H     1 <1>   0.0000 
 31 C       11.5478     0.9569     0.8786 C.3   1 <1>   0.2556 
 32 N       12.7617     0.8218     1.6463 N.pl3 1 <1>   0.0476 
 33 H2      11.5305     1.9787     0.4731 H     1 <1>   0.0000 
 34 C       11.3879    -0.0115    -0.3066 C.3   1 <1>   0.2800 
 35 O       11.6342    -1.3610     0.0917 O.3   1 <1>  -0.6800 
 36 H       11.5251    -1.9315    -0.6904 H     1 <1>   0.4000 
 37 H2      12.0517     0.2273    -1.1431 H     1 <1>   0.0000 
 38 C        9.9028     0.1519    -0.6570 C.3   1 <1>   0.3001 
 39 H1       9.4625    -0.7443    -1.1021 H     1 <1>   0.0000 
 40 H2       9.7402     1.0118    -1.3154 H     1 <1>   0.0000 
 41 C       13.1129    -0.2138     2.4742 C.2   1 <1>   0.0365 
 42 H       12.4900    -1.0883     2.6150 H     1 <1>   0.1500 
 43 N       14.2782    -0.0156     3.0555 N.2   1 <1>  -0.5653 
 44 C       14.7141     1.1949     2.5649 C.ar  1 <1>   0.2272 
 45 C       13.7911     1.7281     1.6793 C.ar  1 <1>   0.1054 
 46 C       15.8795     1.9417     2.8001 C.ar  1 <1>   0.4100 
 47 N       16.8700     1.5284     3.6639 N.pl3 1 <1>  -0.9000 
 48 H1      17.6757     2.1221     3.7846 H     1 <1>   0.4000 
 49 H2      16.7701     0.6508     4.1541 H     1 <1>   0.4000 
 50 N       16.0296     3.1202     2.1470 N.ar  1 <1>  -0.6200 
 51 C       15.0492     3.5163     1.3061 C.ar  1 <1>   0.4700 
 52 H       15.2135     4.4660     0.8064 H     1 <1>   0.1500 
 53 N       13.8942     2.8877     1.0085 N.ar  1 <1>  -0.5670 
@<TRIPOS>BOND
  1   1   2  ar  
  2   1  13  ar  
  3   1  26  1   
  4   2   3  1   
  5   2   4  ar  
  6   4   5  1   
  7   4   6  ar  
  8   6   7  1   
  9   6  11  ar  
 10   7   8  1   
 11   7   9  1   
 12   7  10  1   
 13  11  12  1   
 14  11  13  ar  
 15  13  14  1   
 16  14  15  2   
 17  15  16  1   
 18  15  26  1   
 19  16  17  1   
 20  16  18  1   
 21  16  25  1   
 22  18  19  1   
 23  19  20  1   
 24  19  23  1   
 25  19  24  1   
 26  20  21  am  
 27  20  22  2   
 28  21  28  1   
 29  21  38  1   
 30  26  27  1   
 31  28  29  1   
 32  28  30  1   
 33  28  31  1   
 34  31  32  1   
 35  31  33  1   
 36  31  34  1   
 37  32  41  1   
 38  32  45  1   
 39  34  35  1   
 40  34  37  1   
 41  34  38  1   
 42  35  36  1   
 43  38  39  1   
 44  38  40  1   
 45  41  42  1   
 46  41  43  2   
 47  43  44  1   
 48  44  45  ar  
 49  44  46  ar  
 50  45  53  ar  
 51  46  47  1   
 52  46  50  ar  
 53  47  48  1   
 54  47  49  1   
 55  50  51  ar  
 56  51  52  1   
 57  51  53  ar  
@<TRIPOS>SUBSTRUCTURE
  1 <1>   0 RESIDUE 1 * * 1
# MOE 2007.09 (io_trps.svl 2007.09)
