@<TRIPOS>MOLECULE
J11_55
66 67 1 0 0 
SMALL
USER_CHARGES


@<TRIPOS>ATOM
  1 C        0.7436     0.8463     0.6570 C.ar  1 <1>   0.2272 
  2 C        0.3878     2.1034     0.0932 C.ar  1 <1>   0.4100 
  3 N        0.0961     3.2015     0.7783 N.pl3 1 <1>  -0.9000 
  4 H1      -0.1383     4.0287     0.2586 H     1 <1>   0.4000 
  5 H2       0.1164     3.1715     1.7850 H     1 <1>   0.4000 
  6 N        0.3303     2.2545    -1.2372 N.ar  1 <1>  -0.6200 
  7 C        0.6166     1.2048    -2.0052 C.ar  1 <1>   0.4700 
  8 H        0.5577     1.3727    -3.0729 H     1 <1>   0.1500 
  9 N        0.9705    -0.0265    -1.6256 N.ar  1 <1>  -0.5670 
 10 C        1.0093    -0.1399    -0.2642 C.ar  1 <1>   0.1054 
 11 N        1.3183    -1.2496     0.4822 N.pl3 1 <1>   0.0476 
 12 C        1.7798    -2.5332    -0.0289 C.3   1 <1>   0.0956 
 13 C        3.2775    -2.3567    -0.3092 C.3   1 <1>   0.1200 
 14 O        3.7630    -3.6901    -0.6023 O.3   1 <1>  -0.5600 
 15 O        5.6302    -6.2914     0.1440 O.3   1 <1>  -0.5512 
 16 C        5.9994    -7.6649     0.2436 C.3   1 <1>   0.4000 
 17 O        7.4091    -7.6306     0.5091 O.3   1 <1>  -0.4300 
 18 C        8.2888    -8.2103    -0.3220 C.2   1 <1>   0.6590 
 19 C1       9.8113    -7.9934    -0.0955 C.3   1 <1>   0.0610 
 20 C11     10.4755    -7.4300    -1.3679 C.3   1 <1>  -0.2400 
 21 H111    10.3378    -8.1244    -2.1982 H     1 <1>   0.0800 
 22 H112    11.5429    -7.2735    -1.2101 H     1 <1>   0.0800 
 23 H113    10.0116    -6.4786    -1.6347 H     1 <1>   0.0800 
 24 C12     10.5092    -9.3210     0.2592 C.3   1 <1>  -0.2400 
 25 H121    10.3643   -10.0411    -0.5478 H     1 <1>   0.0800 
 26 H122    10.0809    -9.7327     1.1738 H     1 <1>   0.0800 
 27 H123    11.5788    -9.1649     0.4053 H     1 <1>   0.0800 
 28 C13     10.1002    -6.9947     1.0459 C.3   1 <1>  -0.2400 
 29 H131     9.6405    -6.0312     0.8174 H     1 <1>   0.0800 
 30 H132    11.1742    -6.8519     1.1696 H     1 <1>   0.0800 
 31 H133     9.6830    -7.3655     1.9831 H     1 <1>   0.0800 
 32 H2       5.7686    -8.1813    -0.6818 H     1 <1>   0.0800 
 33 H3       5.4962    -8.1027     1.0970 H     1 <1>   0.0800 
 34 O        5.1094    -7.4337    -4.1396 O.3   1 <1>  -0.4300 
 35 C        5.5024    -7.9237    -5.3241 C.2   1 <1>   0.6590 
 36 C1       4.4438    -8.6386    -6.2108 C.3   1 <1>   0.0610 
 37 C11      3.9419    -9.9254    -5.5268 C.3   1 <1>  -0.2400 
 38 H111     4.7790   -10.6044    -5.3576 H     1 <1>   0.0800 
 39 H112     3.1984   -10.4258    -6.1484 H     1 <1>   0.0800 
 40 H113     3.4912    -9.6833    -4.5631 H     1 <1>   0.0800 
 41 C12      5.0052    -9.0398    -7.5925 C.3   1 <1>  -0.2400 
 42 H121     5.8507    -9.7178    -7.4664 H     1 <1>   0.0800 
 43 H122     5.3533    -8.1524    -8.1231 H     1 <1>   0.0800 
 44 H123     4.2407    -9.5353    -8.1922 H     1 <1>   0.0800 
 45 C13      3.2252    -7.7269    -6.4599 C.3   1 <1>  -0.2400 
 46 H131     2.7578    -7.4596    -5.5108 H     1 <1>   0.0800 
 47 H132     2.4880    -8.2337    -7.0839 H     1 <1>   0.0800 
 48 H133     3.5441    -6.8113    -6.9597 H     1 <1>   0.0800 
 49 H2       6.6922    -7.5602    -2.8284 H     1 <1>   0.0800 
 50 H3       6.6493    -6.0773    -3.8677 H     1 <1>   0.0800 
 51 H2       3.7833    -1.9585     0.5727 H     1 <1>   0.0800 
 52 H3       3.4233    -1.6922    -1.1637 H     1 <1>   0.0800 
 53 C        5.2216    -3.8219    -0.8892 C.3   1 <1>   0.1200 
 54 P        5.9668    -5.4673    -1.1155 P.3   1 <1>   1.2424 
 55 H2       5.7291    -3.3237    -0.0755 H     1 <1>   0.0800 
 56 H3       5.4019    -3.2285    -1.7743 H     1 <1>   0.0800 
 57 O        7.4103    -5.3171    -1.3241 O.2   1 <1>  -0.7000 
 58 O        5.2819    -6.1264    -2.3245 O.3   1 <1>  -0.5512 
 59 C        6.0780    -6.8014    -3.2968 C.3   1 <1>   0.4000 
 60 H2       1.2710    -2.7629    -0.9551 H     1 <1>   0.0800 
 61 H3       1.6470    -3.2935     0.7279 H     1 <1>   0.0800 
 62 C        1.2545    -0.8825     1.8027 C.2   1 <1>   0.0365 
 63 H        1.4680    -1.5519     2.6254 H     1 <1>   0.1500 
 64 N        0.9081     0.3652     1.9664 N.2   1 <1>  -0.5653 
 65 O        7.8743    -8.9111    -1.2485 O.2   1 <1>  -0.5700 
 66 O        6.6764    -7.7971    -5.6791 O.2   1 <1>  -0.5700 
@<TRIPOS>BOND
  1   1   2  ar  
  2   1  10  ar  
  3   1  64  1   
  4   2   3  1   
  5   2   6  ar  
  6   3   4  1   
  7   3   5  1   
  8   6   7  ar  
  9   7   8  1   
 10   7   9  ar  
 11   9  10  ar  
 12  10  11  1   
 13  11  12  1   
 14  11  62  1   
 15  12  13  1   
 16  12  60  1   
 17  12  61  1   
 18  13  14  1   
 19  13  51  1   
 20  13  52  1   
 21  14  53  1   
 22  15  16  1   
 23  15  54  1   
 24  16  17  1   
 25  16  32  1   
 26  16  33  1   
 27  17  18  1   
 28  18  19  1   
 29  18  65  2   
 30  19  20  1   
 31  19  24  1   
 32  19  28  1   
 33  20  21  1   
 34  20  22  1   
 35  20  23  1   
 36  24  25  1   
 37  24  26  1   
 38  24  27  1   
 39  28  29  1   
 40  28  30  1   
 41  28  31  1   
 42  34  35  1   
 43  34  59  1   
 44  35  36  1   
 45  35  66  2   
 46  36  37  1   
 47  36  41  1   
 48  36  45  1   
 49  37  38  1   
 50  37  39  1   
 51  37  40  1   
 52  41  42  1   
 53  41  43  1   
 54  41  44  1   
 55  45  46  1   
 56  45  47  1   
 57  45  48  1   
 58  49  59  1   
 59  50  59  1   
 60  53  54  1   
 61  53  55  1   
 62  53  56  1   
 63  54  57  2   
 64  54  58  1   
 65  58  59  1   
 66  62  63  1   
 67  62  64  2   
@<TRIPOS>SUBSTRUCTURE
  1 ****  53 GROUP 4 **** **** 0

# MOE 2015.10 (io_trps.svl 2015.10)
