@<TRIPOS>MOLECULE
J11_04
61 64 1 0 0 
SMALL
USER_CHARGES


@<TRIPOS>ATOM
  1 C        1.2597     0.6009     0.3245 C.ar  1 <1>   0.2272 
  2 C       -0.0720     0.9575     0.5844 C.ar  1 <1>  -0.1500 
  3 H       -0.2741     1.7877     1.2530 H     1 <1>   0.1500 
  4 C       -1.1171     0.2335    -0.0262 C.ar  1 <1>  -0.1435 
  5 C       -2.5397     0.6325     0.2642 C.3   1 <1>   0.1435 
  6 H1      -2.5865     1.4836     0.9520 H     1 <1>   0.0000 
  7 H2      -3.0798    -0.1971     0.7310 H     1 <1>   0.0000 
  8 H3      -3.0480     0.9280    -0.6591 H     1 <1>   0.0000 
  9 C       -0.8195    -0.8437    -0.8921 C.ar  1 <1>  -0.1435 
 10 C       -1.9202    -1.6306    -1.5560 C.3   1 <1>   0.1435 
 11 H1      -2.5236    -0.9768    -2.1937 H     1 <1>   0.0000 
 12 H2      -2.5598    -2.1005    -0.8022 H     1 <1>   0.0000 
 13 H3      -1.5187    -2.4287    -2.1897 H     1 <1>   0.0000 
 14 C        0.5185    -1.2043    -1.1539 C.ar  1 <1>  -0.1500 
 15 H        0.7636    -2.0278    -1.8171 H     1 <1>   0.1500 
 16 C        1.5213    -0.4606    -0.5293 C.ar  1 <1>  -0.1516 
 17 N        2.8895    -0.5379    -0.5662 N.pl3 1 <1>   0.0332 
 18 H        3.4308    -1.2041    -1.0986 H     1 <1>   0.2700 
 19 C        3.3987     0.4475     0.2458 C.2   1 <1>   0.0065 
 20 C        4.8651     0.6463     0.4333 C.3   1 <1>   0.1800 
 21 H1       5.0581     1.7051     0.6459 H     1 <1>   0.0000 
 22 H2       5.3898     0.4165    -0.5027 H     1 <1>   0.0000 
 23 C        5.4038    -0.2200     1.5706 C.3   1 <1>   0.0610 
 24 C        6.9088    -0.0728     1.7349 C.2   1 <1>   0.5690 
 25 N        7.5117    -0.8372     2.7324 N.am  1 <1>  -0.6602 
 26 O        7.5502     0.6839     1.0041 O.2   1 <1>  -0.5700 
 27 H2       5.1804    -1.2738     1.3647 H     1 <1>   0.0000 
 28 H3       4.9173     0.0637     2.5114 H     1 <1>   0.0000 
 29 N        2.4290     1.1495     0.7970 N.2   1 <1>  -0.5653 
 30 C        6.8185    -1.7479     3.6457 C.3   1 <1>   0.3001 
 31 H1       5.7496    -1.8066     3.4334 H     1 <1>   0.0000 
 32 H2       6.9141    -1.3290     4.6536 H     1 <1>   0.0000 
 33 C        7.4189    -3.1547     3.5795 C.3   1 <1>   0.0000 
 34 H1       7.1671    -3.5932     2.6049 H     1 <1>   0.0000 
 35 H2       6.9414    -3.7709     4.3513 H     1 <1>   0.0000 
 36 C        8.9543    -3.1657     3.7641 C.3   1 <1>   0.2800 
 37 C        9.4819    -4.5850     3.5195 C.3   1 <1>   0.0000 
 38 H1      10.5517    -4.6568     3.7444 H     1 <1>   0.0000 
 39 H2       9.3202    -4.9048     2.4850 H     1 <1>   0.0000 
 40 H3       8.9849    -5.3024     4.1830 H     1 <1>   0.0000 
 41 O        9.2569    -2.8622     5.1329 O.3   1 <1>  -0.6800 
 42 H        8.7695    -2.0722     5.4163 H     1 <1>   0.4000 
 43 C        9.6099    -2.1418     2.7817 C.3   1 <1>   0.3001 
 44 H1       9.3390    -2.4861     1.7735 H     1 <1>   0.0000 
 45 N       11.0916    -2.0950     2.8387 N.am  1 <1>  -0.4691 
 46 C        8.9633    -0.7496     2.9189 C.3   1 <1>   0.3001 
 47 H1       9.4128    -0.0628     2.1936 H     1 <1>   0.0000 
 48 H2       9.1330    -0.3158     3.9108 H     1 <1>   0.0000 
 49 C       11.7347    -1.5591     3.9407 C.2   1 <1>  -0.0410 
 50 H       11.1059    -1.1978     4.7478 H     1 <1>   0.1500 
 51 C       13.0649    -1.4825     4.0483 C.2   1 <1>  -0.1238 
 52 C       13.7800    -0.9145     5.2300 C.3   1 <1>   0.1382 
 53 H1      14.3963    -0.0601     4.9316 H     1 <1>   0.0000 
 54 H2      14.4287    -1.6698     5.6857 H     1 <1>   0.0000 
 55 H3      13.0829    -0.5678     6.0003 H     1 <1>   0.0000 
 56 C       13.8840    -1.9943     2.9326 C.2   1 <1>   0.6156 
 57 O       15.1089    -1.9506     2.9487 O.2   1 <1>  -0.5700 
 58 N       13.1851    -2.5226     1.8770 N.am  1 <1>  -0.4900 
 59 H       13.7262    -2.8847     1.1059 H     1 <1>   0.3700 
 60 C       11.8179    -2.6097     1.7617 C.2   1 <1>   0.6900 
 61 O       11.3177    -3.1164     0.7587 O.2   1 <1>  -0.5700 
@<TRIPOS>BOND
  1   1   2  ar  
  2   1  16  ar  
  3   1  29  1   
  4   2   3  1   
  5   2   4  ar  
  6   4   5  1   
  7   4   9  ar  
  8   5   6  1   
  9   5   7  1   
 10   5   8  1   
 11   9  10  1   
 12   9  14  ar  
 13  10  11  1   
 14  10  12  1   
 15  10  13  1   
 16  14  15  1   
 17  14  16  ar  
 18  16  17  1   
 19  17  18  1   
 20  17  19  1   
 21  19  20  1   
 22  19  29  2   
 23  20  21  1   
 24  20  22  1   
 25  20  23  1   
 26  23  24  1   
 27  23  27  1   
 28  23  28  1   
 29  24  25  am  
 30  24  26  2   
 31  25  30  1   
 32  25  46  1   
 33  30  31  1   
 34  30  32  1   
 35  30  33  1   
 36  33  34  1   
 37  33  35  1   
 38  33  36  1   
 39  36  37  1   
 40  36  41  1   
 41  36  43  1   
 42  37  38  1   
 43  37  39  1   
 44  37  40  1   
 45  41  42  1   
 46  43  44  1   
 47  43  45  1   
 48  43  46  1   
 49  45  49  1   
 50  45  60  am  
 51  46  47  1   
 52  46  48  1   
 53  49  50  1   
 54  49  51  2   
 55  51  52  1   
 56  51  56  1   
 57  52  53  1   
 58  52  54  1   
 59  52  55  1   
 60  56  57  2   
 61  56  58  am  
 62  58  59  1   
 63  58  60  am  
 64  60  61  2   
@<TRIPOS>SUBSTRUCTURE
  1 <1>   0 RESIDUE 1 * * 1
# MOE 2007.09 (io_trps.svl 2007.09)
