@<TRIPOS>MOLECULE
J22_02
84 87 1 0 0 
SMALL
USER_CHARGES


@<TRIPOS>ATOM
  1 C        0.9856     0.7439    -1.7253 C.ar  1 <1>  -0.1435 
  2 C        2.2465     1.5521    -1.8842 C.3   1 <1>   0.4436 
  3 N        2.8412     1.8509    -0.5951 N.am  1 <1>  -0.7301 
  4 C        3.7913     2.7921    -0.3008 C.2   1 <1>   0.5690 
  5 C        4.2879     3.7120    -1.4332 C.3   1 <1>   0.3410 
  6 C        5.4206     4.6540    -0.9411 C.3   1 <1>   0.3001 
  7 C        5.7530     5.7623    -1.9624 C.3   1 <1>   0.0000 
  8 H1       6.6582     6.2925    -1.6387 H     1 <1>   0.0000 
  9 C        4.6328     6.7821    -2.1660 C.3   1 <1>   0.0610 
 10 H        3.7206     6.3011    -2.5375 H     1 <1>   0.0000 
 11 H3       6.0221     5.3133    -2.9273 H     1 <1>   0.0000 
 12 N        6.6367     3.8612    -0.7079 N.am  1 <1>  -0.7301 
 13 H2       6.8785     3.2539    -1.4863 H     1 <1>   0.3700 
 14 H3       5.1012     5.1255    -0.0197 H     1 <1>   0.0000 
 15 O        4.7378     2.9696    -2.5648 O.3   1 <1>  -0.6800 
 16 H        4.6691     3.5435    -3.3481 H     1 <1>   0.4000 
 17 H3       3.4126     4.2970    -1.7357 H     1 <1>   0.0000 
 18 O        4.1618     2.9127     0.8685 O.2   1 <1>  -0.5700 
 19 H2       2.5462     1.2975     0.2005 H     1 <1>   0.3700 
 20 H2       2.0256     2.4839    -2.4158 H     1 <1>   0.0000 
 21 H3       2.9891     1.0030    -2.4733 H     1 <1>   0.0000 
 22 C       -0.1716     1.3402    -1.2010 C.ar  1 <1>  -0.1500 
 23 H       -0.1621     2.3895    -0.9131 H     1 <1>   0.1500 
 24 C       -1.3410     0.5963    -1.0376 C.ar  1 <1>  -0.1500 
 25 H       -2.2320     1.0667    -0.6305 H     1 <1>   0.1500 
 26 C       -1.3658    -0.7508    -1.3944 C.ar  1 <1>  -0.1500 
 27 H       -2.2762    -1.3306    -1.2668 H     1 <1>   0.1500 
 28 C       -0.2210    -1.3549    -1.9122 C.ar  1 <1>  -0.1500 
 29 H       -0.2405    -2.4063    -2.1875 H     1 <1>   0.1500 
 30 C        0.9508    -0.6126    -2.0755 C.ar  1 <1>  -0.1500 
 31 H        1.8339    -1.1040    -2.4779 H     1 <1>   0.1500 
 32 C        7.5331     3.7232     0.2965 C.2   1 <1>   0.5690 
 33 C        7.5052     4.4495     1.6646 C.3   1 <1>   0.3611 
 34 N        8.8622     5.0285     1.8503 N.am  1 <1>  -0.4691 
 35 C        6.3909     5.4315     2.0349 C.3   1 <1>   0.0950 
 36 C        6.5091     5.9472     3.4479 C.3   1 <1>  -0.1950 
 37 H        7.3891     6.5646     3.5933 H     1 <1>   0.1000 
 38 H2       5.4266     4.9229     1.9464 H     1 <1>   0.0000 
 39 H3       6.3750     6.2925     1.3601 H     1 <1>   0.0000 
 40 H3       7.4080     3.6163     2.3775 H     1 <1>   0.0000 
 41 O        8.4567     2.9244     0.0656 O.2   1 <1>  -0.5700 
 42 C        6.0286     5.1125     4.6074 C.3   1 <1>  -0.2000 
 43 H1       6.6057     5.1439     5.5244 H     1 <1>   0.1000 
 44 H2       5.5661     4.1532     4.4043 H     1 <1>   0.1000 
 45 C        5.2711     6.3482     4.2086 C.3   1 <1>  -0.2000 
 46 H1       5.3373     7.2151     4.8560 H     1 <1>   0.1000 
 47 H2       4.3025     6.2170     3.7399 H     1 <1>   0.1000 
 48 C        9.2761     6.0853     1.0260 C.2   1 <1>   0.6156 
 49 O        8.5682     6.6085     0.1668 O.2   1 <1>  -0.5700 
 50 C       10.6871     6.5819     1.2027 C.2   1 <1>   0.1234 
 51 N       11.0755     7.5636     0.3195 N.am  1 <1>  -0.5390 
 52 H2      10.3628     7.8595    -0.3433 H     1 <1>   0.3700 
 53 C       11.4393     6.0366     2.1672 C.2   1 <1>  -0.1500 
 54 H       12.4634     6.3434     2.3466 H     1 <1>   0.1500 
 55 C       10.9314     4.9855     3.0126 C.2   1 <1>  -0.1500 
 56 H       11.5832     4.5787     3.7790 H     1 <1>   0.1500 
 57 C        9.6946     4.5107     2.8305 C.2   1 <1>  -0.0410 
 58 H        9.3102     3.7038     3.4471 H     1 <1>   0.1500 
 59 C       12.2823     8.1950     0.1952 C.2   1 <1>   0.7800 
 60 O       13.2822     8.0066     0.8710 O.2   1 <1>  -0.5700 
 61 O       12.1833     9.0824    -0.8287 O.3   1 <1>  -0.4300 
 62 C       13.3083     9.9104    -1.2258 C.3   1 <1>   0.2800 
 63 C       12.7807    10.7499    -2.3992 C.3   1 <1>   0.0000 
 64 H1      13.5470    11.4256    -2.7936 H     1 <1>   0.0000 
 65 H2      11.9158    11.3493    -2.0918 H     1 <1>   0.0000 
 66 H3      12.4347    10.1049    -3.2154 H     1 <1>   0.0000 
 67 C       14.4791     9.0545    -1.7212 C.3   1 <1>   0.0000 
 68 H1      14.9390     8.4818    -0.9101 H     1 <1>   0.0000 
 69 H2      15.2633     9.6735    -2.1703 H     1 <1>   0.0000 
 70 H3      14.1403     8.3261    -2.4665 H     1 <1>   0.0000 
 71 C       13.7273    10.8555    -0.0945 C.3   1 <1>   0.0000 
 72 H1      12.8598    11.3933     0.3043 H     1 <1>   0.0000 
 73 H2      14.4634    11.5893    -0.4402 H     1 <1>   0.0000 
 74 H3      14.1740    10.3151     0.7455 H     1 <1>   0.0000 
 75 C        4.9932     7.8465    -3.1859 C.2   1 <1>   0.5690 
 76 O        5.5981     7.6810    -4.2311 O.2   1 <1>  -0.5700 
 77 N        4.4416     9.0377    -2.7514 N.am  1 <1>  -0.7301 
 78 H        4.5236     9.8902    -3.2922 H     1 <1>   0.3700 
 79 C        3.7521     8.9095    -1.5019 C.3   1 <1>   0.3001 
 80 H1       2.6803     8.8333    -1.7088 H     1 <1>   0.0000 
 81 H2       3.9478     9.7811    -0.8726 H     1 <1>   0.0000 
 82 C        4.3141     7.6243    -0.9242 C.3   1 <1>   0.0000 
 83 H1       3.6123     7.1327    -0.2440 H     1 <1>   0.0000 
 84 H2       5.2315     7.8439    -0.3634 H     1 <1>   0.0000 
@<TRIPOS>BOND
  1   1   2  1   
  2   1  22  ar  
  3   1  30  ar  
  4   2   3  1   
  5   2  20  1   
  6   2  21  1   
  7   3   4  am  
  8   3  19  1   
  9   4   5  1   
 10   4  18  2   
 11   5   6  1   
 12   5  15  1   
 13   5  17  1   
 14   6   7  1   
 15   6  12  1   
 16   6  14  1   
 17   7   8  1   
 18   7   9  1   
 19   7  11  1   
 20   9  10  1   
 21   9  75  1   
 22   9  82  1   
 23  12  13  1   
 24  12  32  am  
 25  15  16  1   
 26  22  23  1   
 27  22  24  ar  
 28  24  25  1   
 29  24  26  ar  
 30  26  27  1   
 31  26  28  ar  
 32  28  29  1   
 33  28  30  ar  
 34  30  31  1   
 35  32  33  1   
 36  32  41  2   
 37  33  34  1   
 38  33  35  1   
 39  33  40  1   
 40  34  48  am  
 41  34  57  1   
 42  35  36  1   
 43  35  38  1   
 44  35  39  1   
 45  36  37  1   
 46  36  42  1   
 47  36  45  1   
 48  42  43  1   
 49  42  44  1   
 50  42  45  1   
 51  45  46  1   
 52  45  47  1   
 53  48  49  2   
 54  48  50  1   
 55  50  51  1   
 56  50  53  2   
 57  51  52  1   
 58  51  59  am  
 59  53  54  1   
 60  53  55  1   
 61  55  56  1   
 62  55  57  2   
 63  57  58  1   
 64  59  60  2   
 65  59  61  1   
 66  61  62  1   
 67  62  63  1   
 68  62  67  1   
 69  62  71  1   
 70  63  64  1   
 71  63  65  1   
 72  63  66  1   
 73  67  68  1   
 74  67  69  1   
 75  67  70  1   
 76  71  72  1   
 77  71  73  1   
 78  71  74  1   
 79  75  76  2   
 80  75  77  am  
 81  77  78  1   
 82  77  79  1   
 83  79  80  1   
 84  79  81  1   
 85  79  82  1   
 86  82  83  1   
 87  82  84  1   
@<TRIPOS>SUBSTRUCTURE
  1 <1>   0 RESIDUE 1 * * 1
# MOE 2007.09 (io_trps.svl 2007.09)
