JBB1_0001.mol
  ChemDraw02202409352D

 32 34  0  0  1  0  0  0  0  0999 V2000
   -3.9310    0.2079    0.0000 C   0  0  0  0  0  0  0  0  0  0  0  0
   -3.9310   -0.6171    0.0000 C   0  0  0  0  0  0  0  0  0  0  0  0
   -3.2166   -1.0296    0.0000 C   0  0  0  0  0  0  0  0  0  0  0  0
   -2.5021   -0.6171    0.0000 C   0  0  0  0  0  0  0  0  0  0  0  0
   -2.5021    0.2079    0.0000 C   0  0  0  0  0  0  0  0  0  0  0  0
   -3.2166    0.6204    0.0000 C   0  0  0  0  0  0  0  0  0  0  0  0
   -1.7876    0.6204    0.0000 C   0  0  0  0  0  0  0  0  0  0  0  0
   -1.0731    0.2079    0.0000 N   0  0  0  0  0  0  0  0  0  0  0  0
   -0.3587    0.6204    0.0000 C   0  0  0  0  0  0  0  0  0  0  0  0
    0.3558    0.2079    0.0000 C   0  0  0  0  0  0  0  0  0  0  0  0
   -0.3587    1.4454    0.0000 O   0  0  0  0  0  0  0  0  0  0  0  0
    0.3558   -0.6171    0.0000 C   0  0  0  0  0  0  0  0  0  0  0  0
    1.0703   -1.0296    0.0000 C   0  0  0  0  0  0  0  0  0  0  0  0
    1.7847   -0.6171    0.0000 C   0  0  0  0  0  0  0  0  0  0  0  0
    1.7847    0.2079    0.0000 C   0  0  0  0  0  0  0  0  0  0  0  0
    1.0703    0.6204    0.0000 C   0  0  0  0  0  0  0  0  0  0  0  0
    2.4992    0.6204    0.0000 N   0  0  0  0  0  0  0  0  0  0  0  0
    3.2137    0.2079    0.0000 C   0  0  0  0  0  0  0  0  0  0  0  0
    3.2137   -0.6171    0.0000 N   0  0  0  0  0  0  0  0  0  0  0  0
    3.9281   -1.0296    0.0000 C   0  0  0  0  0  0  0  0  0  0  0  0
    4.6426   -0.6171    0.0000 N   0  0  0  0  0  0  0  0  0  0  0  0
    4.6426    0.2079    0.0000 C   0  0  0  0  0  0  0  0  0  0  0  0
    3.9281    0.6204    0.0000 N   0  0  0  0  0  0  0  0  0  0  0  0
    5.3571    0.6204    0.0000 C   0  0  0  0  0  0  0  0  0  0  0  0
    3.9281   -1.8546    0.0000 N   0  0  0  0  0  0  0  0  0  0  0  0
    4.6426   -2.2671    0.0000 C   0  0  0  0  0  0  0  0  0  0  0  0
   -3.2166    1.4454    0.0000 C   0  0  0  0  0  0  0  0  0  0  0  0
   -2.3949    1.4454    0.0000 F   0  0  0  0  0  0  0  0  0  0  0  0
   -3.2166    2.2671    0.0000 F   0  0  0  0  0  0  0  0  0  0  0  0
   -4.0382    1.4454    0.0000 F   0  0  0  0  0  0  0  0  0  0  0  0
   -4.6455   -1.0296    0.0000 N   0  3  0  0  0  0  0  0  0  0  0  0
   -5.3571   -1.4404    0.0000 C   0  5  0  0  0  0  0  0  0  0  0  0
 27 28  1  0      
 27 29  1  0      
 27 30  1  0      
  6 27  1  0      
 31 32  3  0      
  2 31  1  0      
  1  2  2  0      
  2  3  1  0      
  3  4  2  0      
  4  5  1  0      
  5  6  2  0      
  6  1  1  0      
  5  7  1  0      
  7  8  1  0      
  8  9  1  0      
 10  9  1  1      
  9 11  2  0      
 10 12  1  0      
 12 13  1  0      
 13 14  1  0      
 14 15  1  0      
 15 16  1  0      
 16 10  1  0      
 15 17  1  1      
 17 18  1  0      
 18 19  2  0      
 19 20  1  0      
 20 21  2  0      
 21 22  1  0      
 22 23  2  0      
 23 18  1  0      
 22 24  1  0      
 20 25  1  0      
 25 26  1  0      
M  CHG  2  31   1  32  -1
M  STY  1   1 SUP
M  SLB  1   1   1
M  SAL   1  4  27  28  29  30
M  SBL   1  1   4
M  SMT   1 CF3
M  SBV   1   4    0.0000   -0.8250
M  STY  1   2 SUP
M  SLB  1   2   2
M  SAL   2  2  31  32
M  SBL   2  1   6
M  SMT   2 NC
M  SBV   2   6    0.7145    0.4125
M  END
