JBB12_0004.mol
  ChemDraw04092415262D

 35 39  0  0  1  0  0  0  0  0999 V2000
    2.9107    1.7584    0.0000 C   0  0  0  0  0  0  0  0  0  0  0  0
    2.9107    0.9334    0.0000 C   0  0  0  0  0  0  0  0  0  0  0  0
    2.1962    0.5209    0.0000 C   0  0  0  0  0  0  0  0  0  0  0  0
    1.4818    0.9334    0.0000 C   0  0  0  0  0  0  0  0  0  0  0  0
    1.4818    1.7584    0.0000 C   0  0  0  0  0  0  0  0  0  0  0  0
    2.1962    2.1709    0.0000 C   0  0  0  0  0  0  0  0  0  0  0  0
    3.6252    2.1709    0.0000 C   0  0  0  0  0  0  0  0  0  0  0  0
    4.3397    1.7584    0.0000 C   0  0  0  0  0  0  0  0  0  0  0  0
    3.6252    2.9959    0.0000 O   0  0  0  0  0  0  0  0  0  0  0  0
    2.1962    2.9959    0.0000 O   0  0  0  0  0  0  0  0  0  0  0  0
    3.6252    0.5209    0.0000 O   0  0  0  0  0  0  0  0  0  0  0  0
    0.6971    0.6785    0.0000 O   0  0  0  0  0  0  0  0  0  0  0  0
    0.2122    1.3459    0.0000 C   0  0  0  0  0  0  0  0  0  0  0  0
    0.6971    2.0133    0.0000 C   0  0  0  0  0  0  0  0  0  0  0  0
   -0.6083    1.4321    0.0000 C   0  0  0  0  0  0  0  0  0  0  0  0
   -0.9438    2.1858    0.0000 C   0  0  0  0  0  0  0  0  0  0  0  0
   -0.4589    2.8532    0.0000 C   0  0  0  0  0  0  0  0  0  0  0  0
    0.3616    2.7670    0.0000 C   0  0  0  0  0  0  0  0  0  0  0  0
    0.8465    3.4344    0.0000 O   0  0  0  0  0  0  0  0  0  0  0  0
   -0.7945    3.6069    0.0000 C   0  0  0  0  0  0  0  0  0  0  0  0
   -1.7643    2.2720    0.0000 O   0  0  0  0  0  0  0  0  0  0  0  0
    1.3955    2.5789    0.0000 C   0  0  0  0  0  0  0  0  0  0  0  0
   -1.0932    0.7647    0.0000 C   0  0  0  0  0  0  0  0  0  0  0  0
   -0.8382   -0.0199    0.0000 C   0  0  0  0  0  0  0  0  0  0  0  0
   -1.5057   -0.5049    0.0000 S   0  0  0  0  0  0  0  0  0  0  0  0
   -2.1731   -0.0199    0.0000 C   0  0  0  0  0  0  0  0  0  0  0  0
   -1.9182    0.7647    0.0000 N   0  0  0  0  0  0  0  0  0  0  0  0
   -2.9577   -0.2749    0.0000 N   0  0  0  0  0  0  0  0  0  0  0  0
   -2.9577   -1.0999    0.0000 N   0  0  0  0  0  0  0  0  0  0  0  0
   -3.6722   -1.5124    0.0000 C   0  0  0  0  0  0  0  0  0  0  0  0
   -3.6722   -2.3374    0.0000 C   0  0  0  0  0  0  0  0  0  0  0  0
   -3.0048   -2.8223    0.0000 C   0  0  0  0  0  0  0  0  0  0  0  0
   -3.2597   -3.6069    0.0000 C   0  0  0  0  0  0  0  0  0  0  0  0
   -4.0847   -3.6069    0.0000 C   0  0  0  0  0  0  0  0  0  0  0  0
   -4.3397   -2.8223    0.0000 S   0  0  0  0  0  0  0  0  0  0  0  0
  1  2  2  0      
  2  3  1  0      
  3  4  2  0      
  4  5  1  0      
  6  1  1  0      
  1  7  1  0      
  7  8  1  0      
  7  9  2  0      
  6 10  2  0      
  2 11  1  0      
  4 12  1  0      
 12 13  1  0      
 13 14  2  0      
 14  5  1  0      
 13 15  1  0      
 15 16  2  0      
 16 17  1  0      
 17 18  2  0      
 18 14  1  0      
 18 19  1  0      
 17 20  1  0      
 16 21  1  0      
  5 22  1  6      
 15 23  1  0      
 23 24  2  0      
 24 25  1  0      
 26 27  2  0      
 27 23  1  0      
 26 25  1  0      
 26 28  1  0      
 28 29  1  0      
 29 30  2  0      
 30 31  1  0      
 31 32  2  0      
 32 33  1  0      
 33 34  2  0      
 34 35  1  0      
 35 31  1  0      
  6  5  1  0      
M  END
