JBB19_0005.mol
  ChemDraw04102410502D

 31 33  0  0  0  0  0  0  0  0999 V2000
    3.4117   -0.0826    0.0000 N   0  0  0  0  0  0  0  0  0  0  0  0
    2.6580    0.2529    0.0000 C   0  0  0  0  0  0  0  0  0  0  0  0
    2.7442    1.0734    0.0000 C   0  0  0  0  0  0  0  0  0  0  0  0
    3.5512    1.2449    0.0000 C   0  0  0  0  0  0  0  0  0  0  0  0
    3.9637    1.9594    0.0000 C   0  0  0  0  0  0  0  0  0  0  0  0
    4.7887    1.9594    0.0000 C   0  0  0  0  0  0  0  0  0  0  0  0
    5.2012    1.2449    0.0000 C   0  0  0  0  0  0  0  0  0  0  0  0
    4.7887    0.5305    0.0000 C   0  0  0  0  0  0  0  0  0  0  0  0
    3.9637    0.5305    0.0000 C   0  0  0  0  0  0  0  0  0  0  0  0
    1.9435   -0.1596    0.0000 C   0  0  0  0  0  0  0  0  0  0  0  0
    1.9435   -0.9846    0.0000 O   0  0  0  0  0  0  0  0  0  0  0  0
    1.2290    0.2529    0.0000 N   0  0  0  0  0  0  0  0  0  0  0  0
    3.5832   -0.8896    0.0000 C   0  0  0  0  0  0  0  0  0  0  0  0
    4.3678   -1.1446    0.0000 C   0  0  0  0  0  0  0  0  0  0  0  0
    5.0090   -0.6254    0.0000 C   0  0  0  0  0  0  0  0  0  0  0  0
    4.4969   -1.9594    0.0000 C   0  0  0  0  0  0  0  0  0  0  0  0
    0.5146   -0.1596    0.0000 C   0  0  0  0  0  0  0  0  0  0  0  0
   -0.1999    0.2529    0.0000 C   0  0  0  0  0  0  0  0  0  0  0  0
   -0.9144   -0.1596    0.0000 C   0  0  0  0  0  0  0  0  0  0  0  0
   -2.3433   -0.1596    0.0000 C   0  0  0  0  0  0  0  0  0  0  0  0
   -2.3433   -0.9846    0.0000 O   0  0  0  0  0  0  0  0  0  0  0  0
   -1.6288    0.2529    0.0000 N   0  0  0  0  0  0  0  0  0  0  0  0
   -3.0578    1.0779    0.0000 C   0  0  0  0  0  0  0  0  0  0  0  0
   -3.7723    1.4904    0.0000 N   0  0  0  0  0  0  0  0  0  0  0  0
   -4.4867    1.0779    0.0000 C   0  0  0  0  0  0  0  0  0  0  0  0
   -4.4867    0.2529    0.0000 C   0  0  0  0  0  0  0  0  0  0  0  0
   -3.7723   -0.1596    0.0000 C   0  0  0  0  0  0  0  0  0  0  0  0
   -3.0578    0.2529    0.0000 N   0  0  0  0  0  0  0  0  0  0  0  0
   -5.2012    1.4904    0.0000 O   0  0  0  0  0  0  0  0  0  0  0  0
   -2.3433    1.4904    0.0000 O   0  0  0  0  0  0  0  0  0  0  0  0
   -5.2012   -0.1596    0.0000 F   0  0  0  0  0  0  0  0  0  0  0  0
  1  2  1  0      
  2  3  2  0      
  3  4  1  0      
  4  5  1  0      
  5  6  2  0      
  6  7  1  0      
  7  8  2  0      
  8  9  1  0      
  1  9  1  0      
  4  9  2  0      
 10 11  2  0      
 10 12  1  0      
  2 10  1  0      
 13 14  1  0      
 14 15  1  0      
 16 14  1  0      
  1 13  1  0      
 17 18  1  0      
 18 19  1  0      
 20 21  2  0      
 20 22  1  0      
 23 24  1  0      
 24 25  1  0      
 25 26  1  0      
 26 27  2  0      
 27 28  1  0      
 23 28  1  0      
 20 28  1  0      
 25 29  2  0      
 23 30  2  0      
 26 31  1  0      
 19 22  1  0      
 12 17  1  0      
M  END
