JBB18_0004.mol
  ChemDraw04102410272D

 33 32  0  0  1  0  0  0  0  0999 V2000
    4.2840   -0.1802    0.0000 C   0  0  0  0  0  0  0  0  0  0  0  0
    2.8551   -0.1897    0.0000 N   0  0  0  0  0  0  0  0  0  0  0  0
    3.5723   -0.5974    0.0000 C   0  0  0  0  0  0  0  0  0  0  0  0
    3.5777   -1.4224    0.0000 C   0  0  0  0  0  0  0  0  0  0  0  0
    4.2949   -1.8301    0.0000 S   0  0  0  0  0  0  0  0  0  0  0  0
    4.2785    0.6448    0.0000 O   0  0  0  0  0  0  0  0  0  0  0  0
    5.0012   -0.5879    0.0000 N   0  0  0  0  0  0  0  0  0  0  0  0
    2.1434   -0.6069    0.0000 C   0  0  0  0  0  0  0  0  0  0  0  0
    2.1488   -1.4319    0.0000 O   0  0  0  0  0  0  0  0  0  0  0  0
    1.4262   -0.1991    0.0000 C   0  0  0  0  0  0  0  0  0  0  0  0
    0.7145   -0.6164    0.0000 N   0  0  0  0  0  0  0  0  0  0  0  0
    1.4207    0.6258    0.0000 C   0  0  0  0  0  0  0  0  0  0  0  0
    2.1324    1.0431    0.0000 C   0  0  0  0  0  0  0  0  0  0  0  0
    2.1269    1.8681    0.0000 C   0  0  0  0  0  0  0  0  0  0  0  0
    2.8387    2.2853    0.0000 C   0  0  0  0  0  0  0  0  0  0  0  0
   -0.0027   -0.2086    0.0000 C   0  0  0  0  0  0  0  0  0  0  0  0
   -0.7145   -0.6258    0.0000 C   0  0  0  0  0  0  0  0  0  0  0  0
   -0.0082    0.6164    0.0000 O   0  0  0  0  0  0  0  0  0  0  0  0
   -1.4316   -0.2181    0.0000 N   0  0  0  0  0  0  0  0  0  0  0  0
   -0.7090   -1.4508    0.0000 C   0  0  0  0  0  0  0  0  0  0  0  0
   -1.4207   -1.8681    0.0000 C   0  0  0  0  0  0  0  0  0  0  0  0
   -1.4152   -2.6930    0.0000 S   0  0  0  0  0  0  0  0  0  0  0  0
   -2.1269   -3.1103    0.0000 C   0  0  0  0  0  0  0  0  0  0  0  0
   -2.1434   -0.6353    0.0000 C   0  0  0  0  0  0  0  0  0  0  0  0
   -2.8606   -0.2276    0.0000 C   0  0  0  0  0  0  0  0  0  0  0  0
   -2.1379   -1.4603    0.0000 O   0  0  0  0  0  0  0  0  0  0  0  0
   -3.5723   -0.6448    0.0000 N   0  0  0  0  0  0  0  0  0  0  0  0
   -4.2895   -0.2371    0.0000 C   0  0  0  0  0  0  0  0  0  0  0  0
   -2.8660    0.5974    0.0000 C   0  0  0  0  0  0  0  0  0  0  0  0
    2.8332    3.1103    0.0000 N   0  0  0  0  0  0  0  0  0  0  0  0
   -3.5832    1.0052    0.0000 S   0  0  0  0  0  0  0  0  0  0  0  0
   -5.0012   -0.6543    0.0000 C   0  0  0  0  0  0  0  0  0  0  0  0
   -4.2949    0.5879    0.0000 O   0  0  0  0  0  0  0  0  0  0  0  0
  2  3  1  0      
  1  3  1  0      
  3  4  1  6      
  4  5  1  0      
  1  6  2  0      
  1  7  1  0      
  8  9  2  0      
  8 10  1  0      
  2  8  1  0      
 10 11  1  0      
 10 12  1  1      
 12 13  1  0      
 13 14  1  0      
 14 15  1  0      
 11 16  1  0      
 16 17  1  0      
 16 18  2  0      
 17 19  1  0      
 17 20  1  6      
 20 21  1  0      
 21 22  1  0      
 22 23  1  0      
 19 24  1  0      
 24 25  1  0      
 24 26  2  0      
 25 27  1  0      
 27 28  1  0      
 25 29  1  1      
 15 30  1  0      
 29 31  1  0      
 28 32  1  0      
 28 33  2  0      
M  END
