JBB12_0001.mol
  ChemDraw04092415212D

 36 40  0  0  1  0  0  0  0  0999 V2000
   -3.0257    2.0921    0.0000 C   0  0  0  0  0  0  0  0  0  0  0  0
   -3.0257    1.2671    0.0000 C   0  0  0  0  0  0  0  0  0  0  0  0
   -2.3112    0.8546    0.0000 C   0  0  0  0  0  0  0  0  0  0  0  0
   -1.5968    1.2671    0.0000 C   0  0  0  0  0  0  0  0  0  0  0  0
   -1.5968    2.0921    0.0000 C   0  0  0  0  0  0  0  0  0  0  0  0
   -2.3112    2.5046    0.0000 C   0  0  0  0  0  0  0  0  0  0  0  0
   -3.7402    2.5046    0.0000 C   0  0  0  0  0  0  0  0  0  0  0  0
   -4.4546    2.0921    0.0000 C   0  0  0  0  0  0  0  0  0  0  0  0
   -3.7402    3.3296    0.0000 O   0  0  0  0  0  0  0  0  0  0  0  0
   -2.3112    3.3296    0.0000 O   0  0  0  0  0  0  0  0  0  0  0  0
   -3.7402    0.8546    0.0000 O   0  0  0  0  0  0  0  0  0  0  0  0
   -0.8121    1.0122    0.0000 O   0  0  0  0  0  0  0  0  0  0  0  0
   -0.3272    1.6796    0.0000 C   0  0  0  0  0  0  0  0  0  0  0  0
   -0.8121    2.3471    0.0000 C   0  0  0  0  0  0  0  0  0  0  0  0
    0.4933    1.7658    0.0000 C   0  0  0  0  0  0  0  0  0  0  0  0
    0.8288    2.5195    0.0000 C   0  0  0  0  0  0  0  0  0  0  0  0
    0.3439    3.1870    0.0000 C   0  0  0  0  0  0  0  0  0  0  0  0
   -0.4766    3.1007    0.0000 C   0  0  0  0  0  0  0  0  0  0  0  0
   -0.9615    3.7682    0.0000 O   0  0  0  0  0  0  0  0  0  0  0  0
    0.6795    3.9406    0.0000 C   0  0  0  0  0  0  0  0  0  0  0  0
    1.6493    2.6058    0.0000 O   0  0  0  0  0  0  0  0  0  0  0  0
   -1.5105    2.9126    0.0000 C   0  0  0  0  0  0  0  0  0  0  0  0
    0.9782    1.0984    0.0000 C   0  0  0  0  0  0  0  0  0  0  0  0
    0.7232    0.3138    0.0000 C   0  0  0  0  0  0  0  0  0  0  0  0
    1.3907   -0.1711    0.0000 S   0  0  0  0  0  0  0  0  0  0  0  0
    2.0581    0.3138    0.0000 C   0  0  0  0  0  0  0  0  0  0  0  0
    1.8032    1.0984    0.0000 N   0  0  0  0  0  0  0  0  0  0  0  0
    2.8427    0.0588    0.0000 N   0  0  0  0  0  0  0  0  0  0  0  0
    2.8427   -0.7662    0.0000 N   0  0  0  0  0  0  0  0  0  0  0  0
    3.5572   -1.1787    0.0000 C   0  0  0  0  0  0  0  0  0  0  0  0
    3.5572   -2.0037    0.0000 C   0  0  0  0  0  0  0  0  0  0  0  0
    2.8898   -2.4886    0.0000 C   0  0  0  0  0  0  0  0  0  0  0  0
    3.1447   -3.2732    0.0000 C   0  0  0  0  0  0  0  0  0  0  0  0
    3.9697   -3.2732    0.0000 C   0  0  0  0  0  0  0  0  0  0  0  0
    4.2247   -2.4886    0.0000 S   0  0  0  0  0  0  0  0  0  0  0  0
    4.4546   -3.9406    0.0000 Br  0  0  0  0  0  0  0  0  0  0  0  0
  1  2  2  0      
  2  3  1  0      
  3  4  2  0      
  4  5  1  0      
  6  1  1  0      
  1  7  1  0      
  7  8  1  0      
  7  9  2  0      
  6 10  2  0      
  2 11  1  0      
  4 12  1  0      
 12 13  1  0      
 13 14  2  0      
 14  5  1  0      
 13 15  1  0      
 15 16  2  0      
 16 17  1  0      
 17 18  2  0      
 18 14  1  0      
 18 19  1  0      
 17 20  1  0      
 16 21  1  0      
  5 22  1  1      
 15 23  1  0      
 23 24  2  0      
 24 25  1  0      
 26 27  2  0      
 27 23  1  0      
 26 25  1  0      
 26 28  1  0      
 28 29  1  0      
 29 30  2  0      
 30 31  1  0      
 31 32  2  0      
 32 33  1  0      
 33 34  2  0      
 34 35  1  0      
 35 31  1  0      
  6  5  1  0      
 34 36  1  0      
M  END
