JBB20_0013.mol
  ChemDraw04102411172D

 22 24  0  0  0  0  0  0  0  0999 V2000
    0.8370   -0.1846    0.0000 C   0  0  0  0  0  0  0  0  0  0  0  0
    0.2101   -0.7209    0.0000 C   0  0  0  0  0  0  0  0  0  0  0  0
    0.6859    0.6264    0.0000 O   0  0  0  0  0  0  0  0  0  0  0  0
    1.6149   -0.4594    0.0000 N   0  0  0  0  0  0  0  0  0  0  0  0
    2.2418    0.0770    0.0000 C   0  0  0  0  0  0  0  0  0  0  0  0
    2.0907    0.8880    0.0000 C   0  0  0  0  0  0  0  0  0  0  0  0
    2.7176    1.4243    0.0000 C   0  0  0  0  0  0  0  0  0  0  0  0
    3.4955    1.1496    0.0000 C   0  0  0  0  0  0  0  0  0  0  0  0
    3.6466    0.3385    0.0000 C   0  0  0  0  0  0  0  0  0  0  0  0
    3.0197   -0.1978    0.0000 C   0  0  0  0  0  0  0  0  0  0  0  0
   -0.5678   -0.4462    0.0000 S   0  0  0  0  0  0  0  0  0  0  0  0
   -1.8912   -2.1213    0.0000 N   0  0  0  0  0  0  0  0  0  0  0  0
   -1.1293   -1.8049    0.0000 C   0  0  0  0  0  0  0  0  0  0  0  0
   -1.1947   -0.9825    0.0000 C   0  0  0  0  0  0  0  0  0  0  0  0
   -1.9971   -0.7906    0.0000 C   0  0  0  0  0  0  0  0  0  0  0  0
   -2.3913   -0.0659    0.0000 C   0  0  0  0  0  0  0  0  0  0  0  0
   -3.2161   -0.0450    0.0000 C   0  0  0  0  0  0  0  0  0  0  0  0
   -3.6466   -0.7488    0.0000 C   0  0  0  0  0  0  0  0  0  0  0  0
   -3.2523   -1.4735    0.0000 C   0  0  0  0  0  0  0  0  0  0  0  0
   -2.4276   -1.4944    0.0000 C   0  0  0  0  0  0  0  0  0  0  0  0
    2.5666    2.2354    0.0000 C   0  0  0  0  0  0  0  0  0  0  0  0
   -0.4255   -2.2354    0.0000 C   0  0  0  0  0  0  0  0  0  0  0  0
  1  2  1  0      
  1  3  2  0      
  1  4  1  0      
  5  6  1  0      
  6  7  2  0      
  7  8  1  0      
  8  9  2  0      
  9 10  1  0      
  5 10  2  0      
  4  5  1  0      
 12 13  1  0      
 13 14  2  0      
 14 15  1  0      
 15 16  1  0      
 16 17  2  0      
 17 18  1  0      
 18 19  2  0      
 19 20  1  0      
 12 20  1  0      
 15 20  2  0      
 11 14  1  0      
  2 11  1  0      
  7 21  1  0      
 13 22  1  0      
M  END
