JBB20_0036.mol
  ChemDraw04102412372D

 44 48  0  0  0  0  0  0  0  0999 V2000
   -4.0185   -1.6500    0.0000 C   0  0  0  0  0  0  0  0  0  0  0  0
   -4.0185   -2.4750    0.0000 C   0  0  0  0  0  0  0  0  0  0  0  0
   -3.3040   -2.8875    0.0000 C   0  0  0  0  0  0  0  0  0  0  0  0
   -2.5895   -2.4750    0.0000 C   0  0  0  0  0  0  0  0  0  0  0  0
   -2.5895   -1.6500    0.0000 C   0  0  0  0  0  0  0  0  0  0  0  0
   -3.3040   -1.2375    0.0000 C   0  0  0  0  0  0  0  0  0  0  0  0
   -4.7330   -2.8875    0.0000 O   0  0  0  0  0  0  0  0  0  0  0  0
   -4.7330   -1.2375    0.0000 O   0  0  0  0  0  0  0  0  0  0  0  0
   -3.3040   -3.7125    0.0000 O   0  0  0  0  0  0  0  0  0  0  0  0
   -1.8751   -1.2375    0.0000 C   0  0  0  0  0  0  0  0  0  0  0  0
   -1.1606   -1.6500    0.0000 N   0  0  0  0  0  0  0  0  0  0  0  0
   -1.8751   -0.4125    0.0000 O   0  0  0  0  0  0  0  0  0  0  0  0
   -1.1606   -2.4750    0.0000 C   0  0  0  0  0  0  0  0  0  0  0  0
   -0.4461   -2.8875    0.0000 C   0  0  0  0  0  0  0  0  0  0  0  0
    0.2683   -2.4750    0.0000 N   0  0  0  0  0  0  0  0  0  0  0  0
    0.2683   -1.6500    0.0000 C   0  0  0  0  0  0  0  0  0  0  0  0
   -0.4461   -1.2375    0.0000 C   0  0  0  0  0  0  0  0  0  0  0  0
   -0.4461   -0.4125    0.0000 C   0  0  0  0  0  0  0  0  0  0  0  0
   -1.1606    0.0000    0.0000 O   0  0  0  0  0  0  0  0  0  0  0  0
    0.2683    0.0000    0.0000 N   0  0  0  0  0  0  0  0  0  0  0  0
    0.2683    0.8250    0.0000 C   0  0  0  0  0  0  0  0  0  0  0  0
   -0.4461    1.2375    0.0000 C   0  0  0  0  0  0  0  0  0  0  0  0
   -0.4461    2.0625    0.0000 C   0  0  0  0  0  0  0  0  0  0  0  0
   -1.1606    2.4750    0.0000 C   0  0  0  0  0  0  0  0  0  0  0  0
   -1.8751    2.0625    0.0000 C   0  0  0  0  0  0  0  0  0  0  0  0
   -1.8751    1.2375    0.0000 C   0  0  0  0  0  0  0  0  0  0  0  0
   -1.1606    0.8250    0.0000 C   0  0  0  0  0  0  0  0  0  0  0  0
   -2.5895    2.4750    0.0000 C   0  0  0  0  0  0  0  0  0  0  0  0
   -2.5895    3.3000    0.0000 C   0  0  0  0  0  0  0  0  0  0  0  0
   -3.3040    3.7125    0.0000 C   0  0  0  0  0  0  0  0  0  0  0  0
   -4.0185    3.3000    0.0000 C   0  0  0  0  0  0  0  0  0  0  0  0
   -4.0185    2.4750    0.0000 C   0  0  0  0  0  0  0  0  0  0  0  0
   -3.3040    2.0625    0.0000 C   0  0  0  0  0  0  0  0  0  0  0  0
    0.9828   -2.8875    0.0000 S   0  0  0  0  0  0  0  0  0  0  0  0
    1.6742   -3.3376    0.0000 O   0  0  0  0  0  0  0  0  0  0  0  0
    0.2473   -3.2612    0.0000 O   0  0  0  0  0  0  0  0  0  0  0  0
    1.7183   -2.5138    0.0000 C   0  0  0  0  0  0  0  0  0  0  0  0
    2.3847   -3.0002    0.0000 C   0  0  0  0  0  0  0  0  0  0  0  0
    3.1391   -2.6664    0.0000 C   0  0  0  0  0  0  0  0  0  0  0  0
    3.2272   -1.8461    0.0000 C   0  0  0  0  0  0  0  0  0  0  0  0
    2.5608   -1.3597    0.0000 C   0  0  0  0  0  0  0  0  0  0  0  0
    1.8064   -1.6935    0.0000 C   0  0  0  0  0  0  0  0  0  0  0  0
    3.9816   -1.5122    0.0000 C   0  0  0  0  0  0  0  0  0  0  0  0
    4.7330   -1.1798    0.0000 N   0  0  0  0  0  0  0  0  0  0  0  0
 43 44  3  0      
 40 43  1  0      
  1  2  2  0      
  2  3  1  0      
  3  4  2  0      
  4  5  1  0      
  5  6  2  0      
  6  1  1  0      
  2  7  1  0      
  1  8  1  0      
  3  9  1  0      
  5 10  1  0      
 10 11  1  0      
 10 12  2  0      
 11 13  1  0      
 13 14  1  0      
 14 15  1  0      
 15 16  1  0      
 16 17  1  0      
 17 11  1  0      
 17 18  1  0      
 18 19  2  0      
 18 20  1  0      
 20 21  1  0      
 21 22  1  0      
 22 23  2  0      
 23 24  1  0      
 24 25  2  0      
 25 26  1  0      
 26 27  2  0      
 27 22  1  0      
 25 28  1  0      
 28 29  2  0      
 29 30  1  0      
 30 31  2  0      
 31 32  1  0      
 32 33  2  0      
 33 28  1  0      
 15 34  1  0      
 34 35  2  0      
 34 36  2  0      
 34 37  1  0      
 37 38  2  0      
 38 39  1  0      
 39 40  2  0      
 40 41  1  0      
 41 42  2  0      
 42 37  1  0      
M  STY  1   1 SUP
M  SLB  1   1   1
M  SAL   1  2  43  44
M  SBL   1  1   2
M  SMT   1 CN
M  SBV   1   2   -0.7544   -0.3339
M  END
