JBB20_0032.mol
  ChemDraw04102412262D

 35 37  0  0  0  0  0  0  0  0999 V2000
   -3.5694   -0.6145    0.0000 N   0  0  0  0  0  0  0  0  0  0  0  0
   -2.8579   -0.2037    0.0000 C   0  0  0  0  0  0  0  0  0  0  0  0
   -2.1463   -0.6145    0.0000 O   0  0  0  0  0  0  0  0  0  0  0  0
   -2.8579    0.6179    0.0000 N   0  0  0  0  0  0  0  0  0  0  0  0
   -3.5694    1.0287    0.0000 C   0  0  0  0  0  0  0  0  0  0  0  0
   -3.5694    1.8503    0.0000 O   0  0  0  0  0  0  0  0  0  0  0  0
   -4.2810    0.6179    0.0000 C   0  0  0  0  0  0  0  0  0  0  0  0
   -4.2810   -0.2037    0.0000 C   0  0  0  0  0  0  0  0  0  0  0  0
   -2.1434    1.0304    0.0000 C   0  0  0  0  0  0  0  0  0  0  0  0
   -1.4289    0.6179    0.0000 C   0  0  0  0  0  0  0  0  0  0  0  0
   -0.7145    1.0304    0.0000 C   0  0  0  0  0  0  0  0  0  0  0  0
    0.0000    0.6179    0.0000 C   0  0  0  0  0  0  0  0  0  0  0  0
    0.7145    1.0304    0.0000 C   0  0  0  0  0  0  0  0  0  0  0  0
    1.4289    0.6179    0.0000 O   0  0  0  0  0  0  0  0  0  0  0  0
   -3.5694   -1.4395    0.0000 C   0  0  0  0  0  0  0  0  0  0  0  0
    2.1434    1.0304    0.0000 C   0  0  0  0  0  0  0  0  0  0  0  0
    2.8579    0.6179    0.0000 C   0  0  0  0  0  0  0  0  0  0  0  0
    3.5724    1.0304    0.0000 C   0  0  0  0  0  0  0  0  0  0  0  0
    3.5724    1.8554    0.0000 C   0  0  0  0  0  0  0  0  0  0  0  0
    2.8579    2.2679    0.0000 C   0  0  0  0  0  0  0  0  0  0  0  0
    2.1434    1.8554    0.0000 C   0  0  0  0  0  0  0  0  0  0  0  0
   -4.2839   -1.8520    0.0000 C   0  0  0  0  0  0  0  0  0  0  0  0
   -4.2839   -2.6770    0.0000 C   0  0  0  0  0  0  0  0  0  0  0  0
   -3.5694   -3.0895    0.0000 C   0  0  0  0  0  0  0  0  0  0  0  0
   -2.8550   -2.6770    0.0000 C   0  0  0  0  0  0  0  0  0  0  0  0
   -2.8550   -1.8520    0.0000 C   0  0  0  0  0  0  0  0  0  0  0  0
   -4.9984   -1.4395    0.0000 F   0  0  0  0  0  0  0  0  0  0  0  0
   -2.1405   -3.0895    0.0000 O   0  0  0  0  0  0  0  0  0  0  0  0
   -1.4260   -2.6770    0.0000 C   0  0  0  0  0  0  0  0  0  0  0  0
   -0.7115   -3.0895    0.0000 C   0  0  0  0  0  0  0  0  0  0  0  0
    0.0029   -2.6770    0.0000 C   0  0  0  0  0  0  0  0  0  0  0  0
    0.7174   -3.0895    0.0000 C   0  0  0  0  0  0  0  0  0  0  0  0
    4.2868    2.2679    0.0000 C   0  0  0  0  0  0  0  0  0  0  0  0
    4.2868    3.0895    0.0000 O   0  0  0  0  0  0  0  0  0  0  0  0
    4.9984    1.8571    0.0000 O   0  0  0  0  0  0  0  0  0  0  0  0
 33 34  2  0      
 33 35  1  0      
 19 33  1  0      
  1  2  1  0      
  2  3  2  0      
  2  4  1  0      
  4  5  1  0      
  5  6  2  0      
  5  7  1  0      
  7  8  2  0      
  1  8  1  0      
  4  9  1  0      
  9 10  1  0      
 10 11  1  0      
 11 12  1  0      
 12 13  1  0      
 13 14  1  0      
  1 15  1  0      
 14 16  1  0      
 16 17  2  0      
 17 18  1  0      
 18 19  2  0      
 19 20  1  0      
 20 21  2  0      
 21 16  1  0      
 15 22  2  0      
 22 23  1  0      
 23 24  2  0      
 24 25  1  0      
 25 26  2  0      
 26 15  1  0      
 22 27  1  0      
 25 28  1  0      
 28 29  1  0      
 29 30  1  0      
 30 31  1  0      
 31 32  1  0      
M  STY  1   1 SUP
M  SLB  1   1   1
M  SAL   1  3  33  34  35
M  SBL   1  1   3
M  SMT   1 COOH
M  SBV   1   3   -0.7145   -0.4125
M  END
