JBB20_0017.mol
  ChemDraw04102411422D

 27 29  0  0  0  0  0  0  0  0999 V2000
    0.1087    0.1652    0.0000 C   0  0  0  0  0  0  0  0  0  0  0  0
   -0.6028   -0.2456    0.0000 C   0  0  0  0  0  0  0  0  0  0  0  0
    0.1087    0.9868    0.0000 O   0  0  0  0  0  0  0  0  0  0  0  0
    0.8203   -0.2456    0.0000 N   0  0  0  0  0  0  0  0  0  0  0  0
    1.5318    0.1652    0.0000 C   0  0  0  0  0  0  0  0  0  0  0  0
   -1.3144    0.1652    0.0000 S   0  0  0  0  0  0  0  0  0  0  0  0
   -2.9155   -1.2335    0.0000 N   0  0  0  0  0  0  0  0  0  0  0  0
   -2.1118   -1.0627    0.0000 C   0  0  0  0  0  0  0  0  0  0  0  0
   -2.0259   -0.2456    0.0000 C   0  0  0  0  0  0  0  0  0  0  0  0
   -2.7765    0.0886    0.0000 C   0  0  0  0  0  0  0  0  0  0  0  0
   -3.0304    0.8700    0.0000 C   0  0  0  0  0  0  0  0  0  0  0  0
   -3.8341    1.0408    0.0000 C   0  0  0  0  0  0  0  0  0  0  0  0
   -4.3838    0.4302    0.0000 C   0  0  0  0  0  0  0  0  0  0  0  0
   -4.1299   -0.3512    0.0000 C   0  0  0  0  0  0  0  0  0  0  0  0
   -3.3263   -0.5220    0.0000 C   0  0  0  0  0  0  0  0  0  0  0  0
    2.2433   -0.2456    0.0000 C   0  0  0  0  0  0  0  0  0  0  0  0
    2.9549    0.1652    0.0000 C   0  0  0  0  0  0  0  0  0  0  0  0
    3.6664   -0.2456    0.0000 C   0  0  0  0  0  0  0  0  0  0  0  0
    3.6664   -1.0672    0.0000 C   0  0  0  0  0  0  0  0  0  0  0  0
    2.9549   -1.4780    0.0000 C   0  0  0  0  0  0  0  0  0  0  0  0
    2.2433   -1.0672    0.0000 C   0  0  0  0  0  0  0  0  0  0  0  0
   -2.4784    1.4831    0.0000 Br  0  0  0  0  0  0  0  0  0  0  0  0
    0.8203   -1.0706    0.0000 O   0  0  0  0  0  0  0  0  0  0  0  0
    1.5347   -1.4831    0.0000 C   0  0  0  0  0  0  0  0  0  0  0  0
    2.9549    0.9902    0.0000 O   0  0  0  0  0  0  0  0  0  0  0  0
    3.6694    1.4027    0.0000 C   0  0  0  0  0  0  0  0  0  0  0  0
    4.3838    0.9902    0.0000 C   0  0  0  0  0  0  0  0  0  0  0  0
  1  2  1  0      
  1  3  2  0      
  1  4  1  0      
  4  5  1  0      
  7  8  1  0      
  8  9  2  0      
  9 10  1  0      
 10 11  1  0      
 11 12  2  0      
 12 13  1  0      
 13 14  2  0      
 14 15  1  0      
  7 15  1  0      
 10 15  2  0      
  6  9  1  0      
  2  6  1  0      
 16 17  1  0      
 17 18  2  0      
 18 19  1  0      
 19 20  2  0      
 20 21  1  0      
 16 21  2  0      
 16  5  1  0      
 11 22  1  0      
  4 23  1  0      
 23 24  1  0      
 17 25  1  0      
 25 26  1  0      
 26 27  1  0      
M  END
