JBB20_0019.mol
  ChemDraw04102411462D

 28 31  0  0  0  0  0  0  0  0999 V2000
    0.4674    1.0051    0.0000 C   0  0  0  0  0  0  0  0  0  0  0  0
   -0.2441    0.5943    0.0000 C   0  0  0  0  0  0  0  0  0  0  0  0
    0.4674    1.8267    0.0000 O   0  0  0  0  0  0  0  0  0  0  0  0
    1.1790    0.5943    0.0000 N   0  0  0  0  0  0  0  0  0  0  0  0
    1.8905    1.0051    0.0000 C   0  0  0  0  0  0  0  0  0  0  0  0
   -0.9557    1.0051    0.0000 S   0  0  0  0  0  0  0  0  0  0  0  0
   -2.5568   -0.3936    0.0000 N   0  0  0  0  0  0  0  0  0  0  0  0
   -1.7531   -0.2228    0.0000 C   0  0  0  0  0  0  0  0  0  0  0  0
   -1.6672    0.5943    0.0000 C   0  0  0  0  0  0  0  0  0  0  0  0
   -2.4178    0.9285    0.0000 C   0  0  0  0  0  0  0  0  0  0  0  0
   -2.6717    1.7099    0.0000 C   0  0  0  0  0  0  0  0  0  0  0  0
   -3.4754    1.8807    0.0000 C   0  0  0  0  0  0  0  0  0  0  0  0
   -4.0251    1.2701    0.0000 C   0  0  0  0  0  0  0  0  0  0  0  0
   -3.7712    0.4887    0.0000 C   0  0  0  0  0  0  0  0  0  0  0  0
   -2.9676    0.3179    0.0000 C   0  0  0  0  0  0  0  0  0  0  0  0
    2.6020    0.5943    0.0000 C   0  0  0  0  0  0  0  0  0  0  0  0
    3.3136    1.0051    0.0000 C   0  0  0  0  0  0  0  0  0  0  0  0
    4.0251    0.5943    0.0000 C   0  0  0  0  0  0  0  0  0  0  0  0
    4.0251   -0.2273    0.0000 C   0  0  0  0  0  0  0  0  0  0  0  0
    3.3136   -0.6381    0.0000 C   0  0  0  0  0  0  0  0  0  0  0  0
    2.6020   -0.2273    0.0000 C   0  0  0  0  0  0  0  0  0  0  0  0
    1.1790   -0.2307    0.0000 C   0  0  0  0  0  0  0  0  0  0  0  0
    0.4645   -0.6432    0.0000 C   0  0  0  0  0  0  0  0  0  0  0  0
   -0.2500   -0.2307    0.0000 C   0  0  0  0  0  0  0  0  0  0  0  0
   -0.9645   -0.6432    0.0000 C   0  0  0  0  0  0  0  0  0  0  0  0
   -0.9645   -1.4682    0.0000 C   0  0  0  0  0  0  0  0  0  0  0  0
   -0.2500   -1.8807    0.0000 C   0  0  0  0  0  0  0  0  0  0  0  0
    0.4645   -1.4682    0.0000 C   0  0  0  0  0  0  0  0  0  0  0  0
  1  2  1  0      
  1  3  2  0      
  1  4  1  0      
  4  5  1  0      
  7  8  1  0      
  9 10  1  0      
 10 11  1  0      
 11 12  2  0      
 12 13  1  0      
 13 14  2  0      
 14 15  1  0      
  7 15  1  0      
 10 15  2  0      
  6  9  1  0      
  2  6  1  0      
 16 17  1  0      
 17 18  2  0      
 18 19  1  0      
 19 20  2  0      
 20 21  1  0      
 16 21  2  0      
 16  5  1  0      
  4 22  1  0      
  9  8  1  0      
 22 23  1  0      
 23 24  2  0      
 24 25  1  0      
 25 26  2  0      
 26 27  1  0      
 27 28  2  0      
 28 23  1  0      
M  END
