JBB24_0007
  -OEChem-04162410092D

 77 80  0     1  0  0  0  0  0999 V2000
    5.8472    0.8129    0.0000 S   0  0  0  0  0  0  0  0  0  0  0  0
    8.7020    1.7350    0.0000 P   0  0  3  0  0  0  0  0  0  0  0  0
    9.7053   -1.1857    0.0000 O   0  0  0  0  0  0  0  0  0  0  0  0
   12.2433   -1.6901    0.0000 O   0  0  0  0  0  0  0  0  0  0  0  0
   12.0550   -0.1020    0.0000 O   0  0  0  0  0  0  0  0  0  0  0  0
    9.0093    0.7835    0.0000 O   0  0  0  0  0  0  0  0  0  0  0  0
    7.7504    1.4277    0.0000 O   0  0  0  0  0  0  0  0  0  0  0  0
    9.6535    2.0424    0.0000 O   0  0  0  0  0  0  0  0  0  0  0  0
    8.1688   -5.7510    0.0000 O   0  0  0  0  0  0  0  0  0  0  0  0
    2.4600    1.5390    0.0000 O   0  0  0  0  0  0  0  0  0  0  0  0
    4.6860   -0.4722    0.0000 O   0  0  0  0  0  0  0  0  0  0  0  0
    9.9810   -2.9463    0.0000 N   0  0  0  0  0  0  0  0  0  0  0  0
    9.9810   -4.5558    0.0000 N   0  0  0  0  0  0  0  0  0  0  0  0
    8.1688   -2.7510    0.0000 N   0  0  0  0  0  0  0  0  0  0  0  0
    8.3946    2.6866    0.0000 N   0  0  0  0  0  0  0  0  0  0  0  0
    7.3028   -4.2510    0.0000 N   0  0  0  0  0  0  0  0  0  0  0  0
    6.4367   -2.7510    0.0000 N   0  0  0  0  0  0  0  0  0  0  0  0
   11.2433   -1.6884    0.0000 C   0  0  2  0  0  0  0  0  0  0  0  0
   11.2450   -0.6884    0.0000 C   0  0  1  0  0  0  0  0  0  0  0  0
   10.2917   -1.9958    0.0000 C   0  0  1  0  0  0  0  0  0  0  0  0
   10.2945   -0.3777    0.0000 C   0  0  1  0  0  0  0  0  0  0  0  0
   11.5506   -2.6400    0.0000 C   0  0  0  0  0  0  0  0  0  0  0  0
    9.9871    0.5739    0.0000 C   0  0  0  0  0  0  0  0  0  0  0  0
    9.0348   -3.2510    0.0000 C   0  0  0  0  0  0  0  0  0  0  0  0
   10.5646   -3.7510    0.0000 C   0  0  0  0  0  0  0  0  0  0  0  0
    9.0348   -4.2510    0.0000 C   0  0  0  0  0  0  0  0  0  0  0  0
    8.1688   -4.7510    0.0000 C   0  0  0  0  0  0  0  0  0  0  0  0
    7.3028   -3.2510    0.0000 C   0  0  0  0  0  0  0  0  0  0  0  0
    7.4168    2.8963    0.0000 C   0  0  0  0  0  0  0  0  0  0  0  0
    7.5408    0.4499    0.0000 C   0  0  0  0  0  0  0  0  0  0  0  0
    6.5892    0.1425    0.0000 C   0  0  0  0  0  0  0  0  0  0  0  0
    7.1094    3.8478    0.0000 C   0  0  0  0  0  0  0  0  0  0  0  0
    4.1536    1.1760    0.0000 C   0  0  0  0  0  0  0  0  0  0  0  0
    4.8956    0.5056    0.0000 C   0  0  0  0  0  0  0  0  0  0  0  0
    3.4116    1.8464    0.0000 C   0  0  0  0  0  0  0  0  0  0  0  0
    3.4832    0.4340    0.0000 C   0  0  0  0  0  0  0  0  0  0  0  0
    4.8240    1.9180    0.0000 C   0  0  0  0  0  0  0  0  0  0  0  0
    7.7798    4.5898    0.0000 C   0  0  0  0  0  0  0  0  0  0  0  0
    6.1316    4.0574    0.0000 C   0  0  0  0  0  0  0  0  0  0  0  0
    7.4725    5.5414    0.0000 C   0  0  0  0  0  0  0  0  0  0  0  0
    5.8243    5.0090    0.0000 C   0  0  0  0  0  0  0  0  0  0  0  0
    6.4947    5.7510    0.0000 C   0  0  0  0  0  0  0  0  0  0  0  0
   11.1491   -0.0759    0.0000 H   0  0  0  0  0  0  0  0  0  0  0  0
   10.7293   -2.4349    0.0000 H   0  0  0  0  0  0  0  0  0  0  0  0
    9.6823   -0.2797    0.0000 H   0  0  0  0  0  0  0  0  0  0  0  0
   10.9607   -2.8306    0.0000 H   0  0  0  0  0  0  0  0  0  0  0  0
   11.7412   -3.2300    0.0000 H   0  0  0  0  0  0  0  0  0  0  0  0
   12.1406   -2.4494    0.0000 H   0  0  0  0  0  0  0  0  0  0  0  0
   10.6012    0.6591    0.0000 H   0  0  0  0  0  0  0  0  0  0  0  0
   10.0098    1.1934    0.0000 H   0  0  0  0  0  0  0  0  0  0  0  0
   12.5523   -2.2276    0.0000 H   0  0  0  0  0  0  0  0  0  0  0  0
   11.9913    0.5147    0.0000 H   0  0  0  0  0  0  0  0  0  0  0  0
   11.1846   -3.7510    0.0000 H   0  0  0  0  0  0  0  0  0  0  0  0
    8.8102    3.1467    0.0000 H   0  0  0  0  0  0  0  0  0  0  0  0
    6.7658   -4.5610    0.0000 H   0  0  0  0  0  0  0  0  0  0  0  0
    6.8027    2.8110    0.0000 H   0  0  0  0  0  0  0  0  0  0  0  0
    7.3941    2.2767    0.0000 H   0  0  0  0  0  0  0  0  0  0  0  0
    7.6260   -0.1642    0.0000 H   0  0  0  0  0  0  0  0  0  0  0  0
    8.1603    0.4272    0.0000 H   0  0  0  0  0  0  0  0  0  0  0  0
    5.8998   -3.0610    0.0000 H   0  0  0  0  0  0  0  0  0  0  0  0
    6.4367   -2.1310    0.0000 H   0  0  0  0  0  0  0  0  0  0  0  0
    6.0999   -0.2383    0.0000 H   0  0  0  0  0  0  0  0  0  0  0  0
    6.8793   -0.4054    0.0000 H   0  0  0  0  0  0  0  0  0  0  0  0
    3.9008    2.2273    0.0000 H   0  0  0  0  0  0  0  0  0  0  0  0
    3.1215    2.3943    0.0000 H   0  0  0  0  0  0  0  0  0  0  0  0
    3.0232    0.8497    0.0000 H   0  0  0  0  0  0  0  0  0  0  0  0
    3.0675   -0.0260    0.0000 H   0  0  0  0  0  0  0  0  0  0  0  0
    3.9432    0.0183    0.0000 H   0  0  0  0  0  0  0  0  0  0  0  0
    5.2840    1.5023    0.0000 H   0  0  0  0  0  0  0  0  0  0  0  0
    5.2397    2.3780    0.0000 H   0  0  0  0  0  0  0  0  0  0  0  0
    4.3640    2.3336    0.0000 H   0  0  0  0  0  0  0  0  0  0  0  0
    8.3861    4.4599    0.0000 H   0  0  0  0  0  0  0  0  0  0  0  0
    5.7160    3.5974    0.0000 H   0  0  0  0  0  0  0  0  0  0  0  0
    7.8881    6.0014    0.0000 H   0  0  0  0  0  0  0  0  0  0  0  0
    5.2180    5.1390    0.0000 H   0  0  0  0  0  0  0  0  0  0  0  0
    6.3041    6.3410    0.0000 H   0  0  0  0  0  0  0  0  0  0  0  0
    2.0000    1.9547    0.0000 H   0  0  0  0  0  0  0  0  0  0  0  0
  1 31  1  0  0  0  0
  1 34  1  0  0  0  0
  2  6  1  0  0  0  0
  2  7  1  0  0  0  0
  2  8  2  0  0  0  0
  2 15  1  0  0  0  0
  3 20  1  0  0  0  0
  3 21  1  0  0  0  0
 18  4  1  1  0  0  0
  4 51  1  0  0  0  0
 19  5  1  1  0  0  0
  5 52  1  0  0  0  0
  6 23  1  0  0  0  0
  7 30  1  0  0  0  0
  9 27  2  0  0  0  0
 10 35  1  0  0  0  0
 10 77  1  0  0  0  0
 11 34  2  0  0  0  0
 20 12  1  6  0  0  0
 12 24  1  0  0  0  0
 12 25  1  0  0  0  0
 13 25  2  0  0  0  0
 13 26  1  0  0  0  0
 14 24  1  0  0  0  0
 14 28  2  0  0  0  0
 15 29  1  0  0  0  0
 15 54  1  0  0  0  0
 16 27  1  0  0  0  0
 16 28  1  0  0  0  0
 16 55  1  0  0  0  0
 17 28  1  0  0  0  0
 17 60  1  0  0  0  0
 17 61  1  0  0  0  0
 18 19  1  0  0  0  0
 18 20  1  0  0  0  0
 18 22  1  0  0  0  0
 19 21  1  0  0  0  0
 19 43  1  0  0  0  0
 20 44  1  0  0  0  0
 21 23  1  6  0  0  0
 21 45  1  0  0  0  0
 22 46  1  0  0  0  0
 22 47  1  0  0  0  0
 22 48  1  0  0  0  0
 23 49  1  0  0  0  0
 23 50  1  0  0  0  0
 24 26  2  0  0  0  0
 25 53  1  0  0  0  0
 26 27  1  0  0  0  0
 29 32  1  0  0  0  0
 29 56  1  0  0  0  0
 29 57  1  0  0  0  0
 30 31  1  0  0  0  0
 30 58  1  0  0  0  0
 30 59  1  0  0  0  0
 31 62  1  0  0  0  0
 31 63  1  0  0  0  0
 32 38  2  0  0  0  0
 32 39  1  0  0  0  0
 33 34  1  0  0  0  0
 33 35  1  0  0  0  0
 33 36  1  0  0  0  0
 33 37  1  0  0  0  0
 35 64  1  0  0  0  0
 35 65  1  0  0  0  0
 36 66  1  0  0  0  0
 36 67  1  0  0  0  0
 36 68  1  0  0  0  0
 37 69  1  0  0  0  0
 37 70  1  0  0  0  0
 37 71  1  0  0  0  0
 38 40  1  0  0  0  0
 38 72  1  0  0  0  0
 39 41  2  0  0  0  0
 39 73  1  0  0  0  0
 40 42  2  0  0  0  0
 40 74  1  0  0  0  0
 41 42  1  0  0  0  0
 41 75  1  0  0  0  0
 42 76  1  0  0  0  0
M  END
> <PUBCHEM_COMPOUND_CID>
135565589

> <PUBCHEM_COMPOUND_CANONICALIZED>
1

> <PUBCHEM_CACTVS_COMPLEXITY>
1060

> <PUBCHEM_CACTVS_HBOND_ACCEPTOR>
13

> <PUBCHEM_CACTVS_HBOND_DONOR>
6

> <PUBCHEM_CACTVS_ROTATABLE_BOND>
14

> <PUBCHEM_CACTVS_SUBSKEYS>
AAADcfB7vAJAAAAAAAAAAAAAAAAAAWJAAAAwQAAAAAAAAEABwAAAHgQQiCAADlzl3ga3sJfMFxioQydzdICCgC03ELAJ2IGoVMiLeC7g2TGeYIhvoQL7iGfwsAIOAAAAAAAAAAAAAAAAAAAAAAAAAAAAAA==

> <PUBCHEM_IUPAC_OPENEYE_NAME>
S-[2-[[(2R,3R,4R,5R)-5-(2-amino-6-oxo-1H-purin-9-yl)-3,4-dihydroxy-4-methyl-tetrahydrofuran-2-yl]methoxy-(benzylamino)phosphoryl]oxyethyl] 3-hydroxy-2,2-dimethyl-propanethioate

> <PUBCHEM_IUPAC_CAS_NAME>
3-hydroxy-2,2-dimethylpropanethioic acid S-[2-[[(2R,3R,4R,5R)-5-(2-amino-6-oxo-1H-purin-9-yl)-3,4-dihydroxy-4-methyl-2-oxolanyl]methoxy-[(phenylmethyl)amino]phosphoryl]oxyethyl] ester

> <PUBCHEM_IUPAC_NAME_MARKUP>
<I>S</I>-[2-[[(2<I>R</I>,3<I>R</I>,4<I>R</I>,5<I>R</I>)-5-(2-amino-6-oxo-1<I>H</I>-purin-9-yl)-3,4-dihydroxy-4-methyloxolan-2-yl]methoxy-(benzylamino)phosphoryl]oxyethyl] 3-hydroxy-2,2-dimethylpropanethioate

> <PUBCHEM_IUPAC_NAME>
S-[2-[[(2R,3R,4R,5R)-5-(2-amino-6-oxo-1H-purin-9-yl)-3,4-dihydroxy-4-methyloxolan-2-yl]methoxy-(benzylamino)phosphoryl]oxyethyl] 3-hydroxy-2,2-dimethylpropanethioate

> <PUBCHEM_IUPAC_SYSTEMATIC_NAME>
S-[2-[[(2R,3R,4R,5R)-5-(2-azanyl-6-oxidanylidene-1H-purin-9-yl)-4-methyl-3,4-bis(oxidanyl)oxolan-2-yl]methoxy-[(phenylmethyl)amino]phosphoryl]oxyethyl] 2,2-dimethyl-3-oxidanyl-propanethioate

> <PUBCHEM_IUPAC_TRADITIONAL_NAME>
3-hydroxy-2,2-dimethyl-propanethioic acid S-[2-[[(2R,3R,4R,5R)-5-(2-amino-6-keto-1H-purin-9-yl)-3,4-dihydroxy-4-methyl-tetrahydrofuran-2-yl]methoxy-(benzylamino)phosphoryl]oxyethyl] ester

> <PUBCHEM_IUPAC_INCHI>
InChI=1S/C25H35N6O9PS/c1-24(2,13-32)22(35)42-10-9-38-41(37,28-11-15-7-5-4-6-8-15)39-12-16-18(33)25(3,36)21(40-16)31-14-27-17-19(31)29-23(26)30-20(17)34/h4-8,14,16,18,21,32-33,36H,9-13H2,1-3H3,(H,28,37)(H3,26,29,30,34)/t16-,18-,21-,25-,41?/m1/s1

> <PUBCHEM_IUPAC_INCHIKEY>
FGHMGRXAHIXTBM-TWFJNEQDSA-N

> <PUBCHEM_XLOGP3_AA>
-1.3

> <PUBCHEM_EXACT_MASS>
626.19238489

> <PUBCHEM_MOLECULAR_FORMULA>
C25H35N6O9PS

> <PUBCHEM_MOLECULAR_WEIGHT>
626.6

> <PUBCHEM_OPENEYE_CAN_SMILES>
CC1(C(C(OC1N2C=NC3=C2N=C(NC3=O)N)COP(=O)(NCC4=CC=CC=C4)OCCSC(=O)C(C)(C)CO)O)O

> <PUBCHEM_OPENEYE_ISO_SMILES>
C[C@]1([C@@H]([C@H](O[C@H]1N2C=NC3=C2N=C(NC3=O)N)COP(=O)(NCC4=CC=CC=C4)OCCSC(=O)C(C)(C)CO)O)O

> <PUBCHEM_CACTVS_TPSA>
245

> <PUBCHEM_MONOISOTOPIC_WEIGHT>
626.19238489

> <PUBCHEM_TOTAL_CHARGE>
0

> <PUBCHEM_HEAVY_ATOM_COUNT>
42

> <PUBCHEM_ATOM_DEF_STEREO_COUNT>
4

> <PUBCHEM_ATOM_UDEF_STEREO_COUNT>
1

> <PUBCHEM_BOND_DEF_STEREO_COUNT>
0

> <PUBCHEM_BOND_UDEF_STEREO_COUNT>
0

> <PUBCHEM_ISOTOPIC_ATOM_COUNT>
0

> <PUBCHEM_COMPONENT_COUNT>
1

> <PUBCHEM_CACTVS_TAUTO_COUNT>
-1

> <PUBCHEM_COORDINATE_TYPE>
1
5
255

> <PUBCHEM_BONDANNOTATIONS>
20  12  6
12  24  8
12  25  8
13  25  8
13  26  8
14  24  8
14  28  8
16  27  8
16  28  8
2  15  3
21  23  6
24  26  8
26  27  8
32  38  8
32  39  8
38  40  8
39  41  8
18  4  5
40  42  8
41  42  8
19  5  5

$$$$
