JBB39_0014.mol
  ChemDraw04112415242D

 18 20  0  0  0  0  0  0  0  0999 V2000
   -0.3732   -1.3266    0.0000 Se  0  0  0  0  0  0  0  0  0  0  0  0
    0.1117   -0.6592    0.0000 N   0  0  0  0  0  0  0  0  0  0  0  0
   -0.3732    0.0082    0.0000 C   0  0  0  0  0  0  0  0  0  0  0  0
   -1.1578   -0.2467    0.0000 C   0  0  0  0  0  0  0  0  0  0  0  0
   -1.8723    0.1658    0.0000 C   0  0  0  0  0  0  0  0  0  0  0  0
   -2.5867   -0.2467    0.0000 C   0  0  0  0  0  0  0  0  0  0  0  0
   -2.5867   -1.0717    0.0000 C   0  0  0  0  0  0  0  0  0  0  0  0
   -1.8723   -1.4842    0.0000 C   0  0  0  0  0  0  0  0  0  0  0  0
   -1.1578   -1.0717    0.0000 C   0  0  0  0  0  0  0  0  0  0  0  0
   -0.1182    0.7929    0.0000 O   0  0  0  0  0  0  0  0  0  0  0  0
    0.9367   -0.6592    0.0000 C   0  0  0  0  0  0  0  0  0  0  0  0
    1.3492    0.0553    0.0000 C   0  0  0  0  0  0  0  0  0  0  0  0
    2.1742    0.0553    0.0000 C   0  0  0  0  0  0  0  0  0  0  0  0
    2.5867   -0.6592    0.0000 C   0  0  0  0  0  0  0  0  0  0  0  0
    2.1742   -1.3737    0.0000 C   0  0  0  0  0  0  0  0  0  0  0  0
    1.3492   -1.3737    0.0000 C   0  0  0  0  0  0  0  0  0  0  0  0
    0.9367    0.7697    0.0000 O   0  0  0  0  0  0  0  0  0  0  0  0
    1.3492    1.4842    0.0000 C   0  0  0  0  0  0  0  0  0  0  0  0
  1  2  1  0      
  2  3  1  0      
  3  4  1  0      
  4  5  1  0      
  5  6  2  0      
  6  7  1  0      
  7  8  2  0      
  8  9  1  0      
  1  9  1  0      
  4  9  2  0      
  3 10  2  0      
 11 12  1  0      
 12 13  2  0      
 13 14  1  0      
 14 15  2  0      
 15 16  1  0      
 11 16  2  0      
  2 11  1  0      
 12 17  1  0      
 17 18  1  0      
M  END
