JBB39_0006.mol
  ChemDraw04112413162D

 34 37  0  0  1  0  0  0  0  0999 V2000
   -1.1626   -0.2726    0.0000 C   0  0  0  0  0  0  0  0  0  0  0  0
   -0.4511    0.1382    0.0000 N   0  0  0  0  0  0  0  0  0  0  0  0
   -1.1626   -1.0943    0.0000 O   0  0  0  0  0  0  0  0  0  0  0  0
    0.2604   -0.2726    0.0000 C   0  0  0  0  0  0  0  0  0  0  0  0
    0.2604   -1.0943    0.0000 C   0  0  0  0  0  0  0  0  0  0  0  0
    0.9720    0.1382    0.0000 C   0  0  0  0  0  0  0  0  0  0  0  0
    0.9720    0.9598    0.0000 O   0  0  0  0  0  0  0  0  0  0  0  0
    1.6835   -0.2726    0.0000 N   0  0  0  0  0  0  0  0  0  0  0  0
    2.3951    0.1382    0.0000 C   0  0  0  0  0  0  0  0  0  0  0  0
    3.1066   -0.2726    0.0000 C   0  0  0  0  0  0  0  0  0  0  0  0
    2.3951    0.9598    0.0000 C   0  0  0  0  0  0  0  0  0  0  0  0
    3.1066    1.3706    0.0000 C   0  0  0  0  0  0  0  0  0  0  0  0
    3.8572    1.0364    0.0000 C   0  0  0  0  0  0  0  0  0  0  0  0
    4.4070    1.6470    0.0000 C   0  0  0  0  0  0  0  0  0  0  0  0
    3.9962    2.3585    0.0000 N   0  0  0  0  0  0  0  0  0  0  0  0
    3.1925    2.1877    0.0000 C   0  0  0  0  0  0  0  0  0  0  0  0
    2.5819    2.7375    0.0000 O   0  0  0  0  0  0  0  0  0  0  0  0
    3.8182    0.1382    0.0000 O   0  0  0  0  0  0  0  0  0  0  0  0
    0.9720   -1.5051    0.0000 C   0  0  0  0  0  0  0  0  0  0  0  0
    0.9720   -2.3267    0.0000 C   0  0  0  0  0  0  0  0  0  0  0  0
    1.6835   -2.7375    0.0000 C   0  0  0  0  0  0  0  0  0  0  0  0
    2.3951   -2.3267    0.0000 C   0  0  0  0  0  0  0  0  0  0  0  0
    2.3951   -1.5051    0.0000 C   0  0  0  0  0  0  0  0  0  0  0  0
    1.6835   -1.0943    0.0000 C   0  0  0  0  0  0  0  0  0  0  0  0
    3.1066   -2.7375    0.0000 F   0  0  0  0  0  0  0  0  0  0  0  0
   -2.6248   -0.1960    0.0000 N   0  0  0  0  0  0  0  0  0  0  0  0
   -1.8742    0.1382    0.0000 C   0  0  0  0  0  0  0  0  0  0  0  0
   -1.9601    0.9553    0.0000 C   0  0  0  0  0  0  0  0  0  0  0  0
   -2.7637    1.1261    0.0000 C   0  0  0  0  0  0  0  0  0  0  0  0
   -3.1745    1.8377    0.0000 C   0  0  0  0  0  0  0  0  0  0  0  0
   -3.9962    1.8377    0.0000 C   0  0  0  0  0  0  0  0  0  0  0  0
   -4.4070    1.1261    0.0000 C   0  0  0  0  0  0  0  0  0  0  0  0
   -3.9962    0.4146    0.0000 C   0  0  0  0  0  0  0  0  0  0  0  0
   -3.1745    0.4146    0.0000 C   0  0  0  0  0  0  0  0  0  0  0  0
  1  2  1  0      
  1  3  2  0      
  2  4  1  0      
  4  5  1  6      
  6  7  2  0      
  4  6  1  0      
  6  8  1  0      
  8  9  1  0      
  9 10  1  0      
  9 11  1  1      
 11 12  1  0      
 12 13  1  1      
 13 14  1  0      
 14 15  1  0      
 15 16  1  0      
 16 12  1  0      
 16 17  2  0      
 10 18  2  0      
  5 19  1  0      
 19 20  2  0      
 20 21  1  0      
 21 22  2  0      
 22 23  1  0      
 23 24  2  0      
 24 19  1  0      
 22 25  1  0      
 26 27  1  0      
 27 28  2  0      
 28 29  1  0      
 29 30  1  0      
 30 31  2  0      
 31 32  1  0      
 32 33  2  0      
 33 34  1  0      
 26 34  1  0      
 29 34  2  0      
 27  1  1  0      
M  END
