JBB39_0008.mol
  ChemDraw04112413182D

 34 36  0  0  1  0  0  0  0  0999 V2000
   -1.2269   -0.7409    0.0000 C   0  0  0  0  0  0  0  0  0  0  0  0
   -0.5154   -0.3301    0.0000 N   0  0  0  0  0  0  0  0  0  0  0  0
   -1.2269   -1.5625    0.0000 O   0  0  0  0  0  0  0  0  0  0  0  0
    0.1962   -0.7409    0.0000 C   0  0  0  0  0  0  0  0  0  0  0  0
    0.1962   -1.5625    0.0000 C   0  0  0  0  0  0  0  0  0  0  0  0
    0.9077   -0.3301    0.0000 C   0  0  0  0  0  0  0  0  0  0  0  0
    0.9077    0.4915    0.0000 O   0  0  0  0  0  0  0  0  0  0  0  0
    1.6192   -0.7409    0.0000 N   0  0  0  0  0  0  0  0  0  0  0  0
    2.3308   -0.3301    0.0000 C   0  0  0  0  0  0  0  0  0  0  0  0
    3.0423   -0.7409    0.0000 C   0  0  0  0  0  0  0  0  0  0  0  0
    2.3308    0.4915    0.0000 C   0  0  0  0  0  0  0  0  0  0  0  0
    3.0423    0.9023    0.0000 C   0  0  0  0  0  0  0  0  0  0  0  0
    3.7929    0.5682    0.0000 C   0  0  0  0  0  0  0  0  0  0  0  0
    4.3427    1.1787    0.0000 C   0  0  0  0  0  0  0  0  0  0  0  0
    3.9319    1.8903    0.0000 N   0  0  0  0  0  0  0  0  0  0  0  0
    3.1282    1.7195    0.0000 C   0  0  0  0  0  0  0  0  0  0  0  0
    2.5176    2.2692    0.0000 O   0  0  0  0  0  0  0  0  0  0  0  0
    3.0423   -1.5625    0.0000 O   0  0  0  0  0  0  0  0  0  0  0  0
    0.9077   -1.9733    0.0000 C   0  0  0  0  0  0  0  0  0  0  0  0
    1.6192   -1.5625    0.0000 C   0  0  0  0  0  0  0  0  0  0  0  0
   -2.6891   -0.6643    0.0000 N   0  0  0  0  0  0  0  0  0  0  0  0
   -1.9385   -0.3301    0.0000 C   0  0  0  0  0  0  0  0  0  0  0  0
   -2.0244    0.4870    0.0000 C   0  0  0  0  0  0  0  0  0  0  0  0
   -2.8280    0.6578    0.0000 C   0  0  0  0  0  0  0  0  0  0  0  0
   -3.2388    1.3694    0.0000 C   0  0  0  0  0  0  0  0  0  0  0  0
   -4.0605    1.3694    0.0000 C   0  0  0  0  0  0  0  0  0  0  0  0
   -4.4713    0.6578    0.0000 C   0  0  0  0  0  0  0  0  0  0  0  0
   -4.0605   -0.0537    0.0000 C   0  0  0  0  0  0  0  0  0  0  0  0
   -3.2388   -0.0537    0.0000 C   0  0  0  0  0  0  0  0  0  0  0  0
   -2.8263    2.0839    0.0000 O   0  0  0  0  0  0  0  0  0  0  0  0
   -3.2388    2.7983    0.0000 C   0  0  0  0  0  0  0  0  0  0  0  0
    3.7568   -0.3284    0.0000 C   0  0  0  0  0  0  0  0  0  0  0  0
    4.4713   -0.7409    0.0000 O   0  0  0  0  0  0  0  0  0  0  0  0
    0.9077   -2.7983    0.0000 C   0  0  0  0  0  0  0  0  0  0  0  0
  1  2  1  0      
  1  3  2  0      
  2  4  1  0      
  4  5  1  6      
  6  7  2  0      
  4  6  1  0      
  6  8  1  0      
  8  9  1  0      
  9 10  1  0      
  9 11  1  1      
 11 12  1  0      
 12 13  1  1      
 13 14  1  0      
 14 15  1  0      
 15 16  1  0      
 16 12  1  0      
 16 17  2  0      
 10 18  2  0      
  5 19  1  0      
 20 19  1  0      
 21 22  1  0      
 22 23  2  0      
 23 24  1  0      
 24 25  1  0      
 25 26  2  0      
 26 27  1  0      
 27 28  2  0      
 28 29  1  0      
 21 29  1  0      
 24 29  2  0      
 22  1  1  0      
 25 30  1  0      
 30 31  1  0      
 10 32  1  0      
 32 33  1  0      
 19 34  1  0      
M  END
