JBB48_0002.mol
  ChemDraw06102409502D

 22 24  0  0  0  0  0  0  0  0999 V2000
    0.0798    0.2026    0.0000 N   0  0  0  0  0  0  0  0  0  0  0  0
    0.5648   -0.4649    0.0000 C   0  0  0  0  0  0  0  0  0  0  0  0
    0.0798   -1.1323    0.0000 C   0  0  0  0  0  0  0  0  0  0  0  0
   -0.7048   -0.8774    0.0000 C   0  0  0  0  0  0  0  0  0  0  0  0
   -1.4193   -1.2899    0.0000 C   0  0  0  0  0  0  0  0  0  0  0  0
   -2.1337   -0.8774    0.0000 C   0  0  0  0  0  0  0  0  0  0  0  0
   -2.1337   -0.0524    0.0000 C   0  0  0  0  0  0  0  0  0  0  0  0
   -1.4193    0.3601    0.0000 C   0  0  0  0  0  0  0  0  0  0  0  0
   -0.7048   -0.0524    0.0000 C   0  0  0  0  0  0  0  0  0  0  0  0
    1.3898   -0.4649    0.0000 O   0  0  0  0  0  0  0  0  0  0  0  0
    0.3348   -1.9169    0.0000 O   0  0  0  0  0  0  0  0  0  0  0  0
   -2.8482   -1.2899    0.0000 N   0  3  0  0  0  0  0  0  0  0  0  0
   -2.8482   -2.1149    0.0000 O   0  0  0  0  0  0  0  0  0  0  0  0
   -3.5627   -0.8774    0.0000 O   0  5  0  0  0  0  0  0  0  0  0  0
    0.3348    0.9872    0.0000 C   0  0  0  0  0  0  0  0  0  0  0  0
    1.1418    1.1587    0.0000 C   0  0  0  0  0  0  0  0  0  0  0  0
    1.6938    0.5456    0.0000 C   0  0  0  0  0  0  0  0  0  0  0  0
    2.5008    0.7172    0.0000 C   0  0  0  0  0  0  0  0  0  0  0  0
    2.7557    1.5018    0.0000 C   0  0  0  0  0  0  0  0  0  0  0  0
    2.2037    2.1149    0.0000 C   0  0  0  0  0  0  0  0  0  0  0  0
    1.3967    1.9433    0.0000 C   0  0  0  0  0  0  0  0  0  0  0  0
    3.5627    1.6733    0.0000 Br  0  0  0  0  0  0  0  0  0  0  0  0
  1  2  1  0      
  2  3  1  0      
  3  4  1  0      
  4  5  1  0      
  5  6  2  0      
  6  7  1  0      
  7  8  2  0      
  8  9  1  0      
  1  9  1  0      
  4  9  2  0      
  2 10  2  0      
  3 11  2  0      
 12 13  2  0      
 12 14  1  0      
  6 12  1  0      
 15 16  1  0      
 16 17  1  0      
 17 18  2  0      
 18 19  1  0      
 19 20  2  0      
 20 21  1  0      
 16 21  2  0      
 19 22  1  0      
  1 15  1  0      
M  CHG  2  12   1  14  -1
M  END
