JBB47_0010.mol
  ChemDraw06102409352D

 24 27  0  0  0  0  0  0  0  0999 V2000
   -1.0032    0.5615    0.0000 C   0  0  0  0  0  0  0  0  0  0  0  0
   -1.0032    1.3359    0.0000 C   0  0  0  0  0  0  0  0  0  0  0  0
   -1.6738    1.7230    0.0000 O   0  0  0  0  0  0  0  0  0  0  0  0
   -0.3326    0.1744    0.0000 C   0  0  0  0  0  0  0  0  0  0  0  0
    0.3380    0.5615    0.0000 C   0  0  0  0  0  0  0  0  0  0  0  0
    0.3380    1.3359    0.0000 C   0  0  0  0  0  0  0  0  0  0  0  0
   -0.3326    1.7230    0.0000 C   0  0  0  0  0  0  0  0  0  0  0  0
    1.0086    0.1744    0.0000 C   0  0  0  0  0  0  0  0  0  0  0  0
    1.6792    0.5615    0.0000 N   0  0  0  0  0  0  0  0  0  0  0  0
    1.6792    1.3359    0.0000 C   0  0  0  0  0  0  0  0  0  0  0  0
    1.0086    1.7230    0.0000 C   0  0  0  0  0  0  0  0  0  0  0  0
    1.7046   -0.1651    0.0000 C   0  0  0  0  0  0  0  0  0  0  0  0
    1.5968   -0.9319    0.0000 N   0  0  0  0  0  0  0  0  0  0  0  0
    0.8342   -1.0663    0.0000 C   0  0  0  0  0  0  0  0  0  0  0  0
    0.4707   -0.3827    0.0000 C   0  0  0  0  0  0  0  0  0  0  0  0
    0.4239   -1.7230    0.0000 C   0  0  0  0  0  0  0  0  0  0  0  0
   -0.3500   -1.6960    0.0000 C   0  0  0  0  0  0  0  0  0  0  0  0
   -0.7135   -1.0123    0.0000 C   0  0  0  0  0  0  0  0  0  0  0  0
   -0.3032   -0.3556    0.0000 C   0  0  0  0  0  0  0  0  0  0  0  0
    2.3882    0.1984    0.0000 S   0  0  0  0  0  0  0  0  0  0  0  0
   -1.6738    0.1744    0.0000 O   0  0  0  0  0  0  0  0  0  0  0  0
   -1.5380   -0.9835    0.0000 Cl  0  0  0  0  0  0  0  0  0  0  0  0
   -2.3882    1.3105    0.0000 C   0  0  0  0  0  0  0  0  0  0  0  0
   -2.3882    0.5869    0.0000 C   0  0  0  0  0  0  0  0  0  0  0  0
  1  2  2  0      
  2  3  1  0      
  1  4  1  0      
  4  5  2  0      
  5  6  1  0      
  6  7  2  0      
  7  2  1  0      
  5  8  1  0      
  8  9  1  0      
  9 10  1  0      
 11  6  1  0      
  8 12  1  0      
 12 13  1  0      
 13 14  1  0      
 14 15  2  0      
 15  8  1  0      
 14 16  1  0      
 16 17  2  0      
 17 18  1  0      
 18 19  2  0      
 19 15  1  0      
 12 20  2  0      
  1 21  1  0      
 11 10  1  0      
 18 22  1  0      
  3 23  1  0      
 21 24  1  0      
M  END
