JBB49_0002.mol
  ChemDraw06102410132D

 33 36  0  0  0  0  0  0  0  0999 V2000
   -0.5624    2.8131    0.0000 C   0  0  0  0  0  0  0  0  0  0  0  0
   -1.3561    2.6004    0.0000 C   0  0  0  0  0  0  0  0  0  0  0  0
   -0.3497    3.6067    0.0000 O   0  0  0  0  0  0  0  0  0  0  0  0
    0.0186    2.2321    0.0000 N   0  0  0  0  0  0  0  0  0  0  0  0
    3.1802    3.0797    0.0000 N   0  0  0  0  0  0  0  0  0  0  0  0
    3.5144    2.3290    0.0000 C   0  0  0  0  0  0  0  0  0  0  0  0
    2.9037    1.7792    0.0000 C   0  0  0  0  0  0  0  0  0  0  0  0
    2.1922    2.1901    0.0000 C   0  0  0  0  0  0  0  0  0  0  0  0
    1.4107    1.9362    0.0000 C   0  0  0  0  0  0  0  0  0  0  0  0
    0.8001    2.4860    0.0000 C   0  0  0  0  0  0  0  0  0  0  0  0
    0.9709    3.2897    0.0000 C   0  0  0  0  0  0  0  0  0  0  0  0
    1.7524    3.5436    0.0000 C   0  0  0  0  0  0  0  0  0  0  0  0
    2.3630    2.9938    0.0000 C   0  0  0  0  0  0  0  0  0  0  0  0
    2.9896    0.9621    0.0000 N   0  0  0  0  0  0  0  0  0  0  0  0
    2.3249    0.4791    0.0000 N   0  0  0  0  0  0  0  0  0  0  0  0
    2.4108   -0.3381    0.0000 C   0  0  0  0  0  0  0  0  0  0  0  0
    3.1614   -0.6723    0.0000 C   0  0  0  0  0  0  0  0  0  0  0  0
    2.5826   -1.9724    0.0000 C   0  0  0  0  0  0  0  0  0  0  0  0
    1.7460   -0.8210    0.0000 C   0  0  0  0  0  0  0  0  0  0  0  0
    3.2473   -1.4894    0.0000 C   0  0  0  0  0  0  0  0  0  0  0  0
    1.8319   -1.6382    0.0000 C   0  0  0  0  0  0  0  0  0  0  0  0
    4.3181    2.1582    0.0000 O   0  0  0  0  0  0  0  0  0  0  0  0
   -4.3181    2.5434    0.0000 O   0  0  0  0  0  0  0  0  0  0  0  0
   -3.7371    1.9624    0.0000 C   0  0  0  0  0  0  0  0  0  0  0  0
   -2.9434    2.1751    0.0000 C   0  0  0  0  0  0  0  0  0  0  0  0
   -2.7307    2.9688    0.0000 N   0  0  0  0  0  0  0  0  0  0  0  0
   -3.3117    3.5498    0.0000 C   0  0  0  0  0  0  0  0  0  0  0  0
   -4.1054    3.3371    0.0000 C   0  0  0  0  0  0  0  0  0  0  0  0
   -1.9371    3.1814    0.0000 C   0  0  0  0  0  0  0  0  0  0  0  0
    2.6684   -2.7896    0.0000 C   0  0  0  0  0  0  0  0  0  0  0  0
    1.8513   -2.8755    0.0000 F   0  0  0  0  0  0  0  0  0  0  0  0
    2.7543   -3.6067    0.0000 F   0  0  0  0  0  0  0  0  0  0  0  0
    3.4856   -2.7037    0.0000 F   0  0  0  0  0  0  0  0  0  0  0  0
 30 31  1  0      
 30 32  1  0      
 30 33  1  0      
 18 30  1  0      
  1  2  1  0      
  1  3  2  0      
  1  4  1  0      
  5  6  1  0      
  6  7  1  0      
  7  8  1  0      
  8  9  1  0      
  9 10  2  0      
 10 11  1  0      
 11 12  2  0      
 12 13  1  0      
  5 13  1  0      
  8 13  2  0      
 14 15  1  0      
 16 17  1  0      
 16 19  2  0      
 17 20  2  0      
 18 20  1  0      
 18 21  2  0      
 19 21  1  0      
 15 16  1  0      
  7 14  2  0      
  6 22  2  0      
  4 10  1  0      
 23 24  1  0      
 24 25  1  0      
 25 26  1  0      
 26 27  1  0      
 27 28  1  0      
 23 28  1  0      
 26 29  1  0      
 29  2  1  0      
M  STY  1   1 SUP
M  SLB  1   1   1
M  SAL   1  4  30  31  32  33
M  SBL   1  1   4
M  SMT   1 CF3
M  SBV   1   4   -0.0859    0.8172
M  END
