JBB6_0002.mol
  ChemDraw03062412102D

 28 31  0  0  1  0  0  0  0  0999 V2000
   -2.5224    0.0665    0.0000 C   0  0  0  0  0  0  0  0  0  0  0  0
   -3.2327    0.4728    0.0000 C   0  0  0  0  0  0  0  0  0  0  0  0
   -3.9414    0.0637    0.0000 O   0  0  0  0  0  0  0  0  0  0  0  0
   -3.2360    1.2911    0.0000 C   0  0  0  0  0  0  0  0  0  0  0  0
   -3.9446    1.7003    0.0000 O   0  0  0  0  0  0  0  0  0  0  0  0
   -2.5290    1.7031    0.0000 C   0  0  0  0  0  0  0  0  0  0  0  0
   -2.5290    2.5214    0.0000 O   0  0  0  0  0  0  0  0  0  0  0  0
   -1.8138    1.2968    0.0000 C   0  0  0  0  0  0  0  0  0  0  0  0
   -1.8154    0.4785    0.0000 N   0  3  0  0  0  0  0  0  0  0  0  0
   -1.1051    1.7059    0.0000 C   0  0  0  0  0  0  0  0  0  0  0  0
   -1.1051    2.5242    0.0000 O   0  0  0  0  0  0  0  0  0  0  0  0
   -1.1067    0.0693    0.0000 C   0  0  0  0  0  0  0  0  0  0  0  0
   -0.3981    0.4785    0.0000 C   0  0  0  0  0  0  0  0  0  0  0  0
    0.3106    0.0693    0.0000 C   0  0  0  0  0  0  0  0  0  0  0  0
    1.0192    0.4785    0.0000 C   0  0  0  0  0  0  0  0  0  0  0  0
    1.7279    0.0693    0.0000 C   0  0  0  0  0  0  0  0  0  0  0  0
    2.4366    0.4785    0.0000 O   0  0  0  0  0  0  0  0  0  0  0  0
    3.1452    0.0693    0.0000 C   0  0  0  0  0  0  0  0  0  0  0  0
    3.1452   -0.7740    0.0000 C   0  0  0  0  0  0  0  0  0  0  0  0
    2.3582   -0.9979    0.0000 C   0  0  0  0  0  0  0  0  0  0  0  0
    2.3662   -1.8161    0.0000 C   0  0  0  0  0  0  0  0  0  0  0  0
    1.9562   -2.5242    0.0000 C   0  0  0  0  0  0  0  0  0  0  0  0
    2.7416   -2.3017    0.0000 C   0  0  0  0  0  0  0  0  0  0  0  0
    2.7571   -1.5139    0.0000 C   0  0  0  0  0  0  0  0  0  0  0  0
    3.5345   -2.5242    0.0000 C   0  0  0  0  0  0  0  0  0  0  0  0
    3.9446   -1.8161    0.0000 C   0  0  0  0  0  0  0  0  0  0  0  0
    3.1575   -2.0399    0.0000 C   0  0  0  0  0  0  0  0  0  0  0  0
    3.9397   -0.9697    0.0000 C   0  0  0  0  0  0  0  0  0  0  0  0
  1  2  1  0      
  2  3  1  6      
  2  4  1  0      
  4  5  1  1      
  4  6  1  0      
  6  7  1  6      
  6  8  1  0      
  8  9  1  0      
  8 10  1  1      
 10 11  1  0      
  1  9  1  0      
  9 12  1  0      
 12 13  1  0      
 13 14  1  0      
 14 15  1  0      
 15 16  1  0      
 16 17  1  0      
 17 18  1  0      
 18 19  1  0      
 19 20  1  0      
 20 21  1  0      
 21 22  1  0      
 22 23  1  0      
 23 24  1  0      
 24 19  1  0      
 23 25  1  0      
 25 26  1  0      
 26 27  1  0      
 27 21  1  0      
 19 28  1  0      
 26 28  1  0      
M  CHG  1   9   1
M  END
