JBB7_0016.mol
  ChemDraw03062415022D

 41 41  0  0  1  0  0  0  0  0999 V2000
    3.5750    0.0034    0.0000 C   0  0  0  0  0  0  0  0  0  0  0  0
    2.8664   -0.4058    0.0000 O   0  0  0  0  0  0  0  0  0  0  0  0
    2.1577    0.0034    0.0000 C   0  0  0  0  0  0  0  0  0  0  0  0
    1.4491   -0.4058    0.0000 C   0  0  0  0  0  0  0  0  0  0  0  0
    2.1577    0.8216    0.0000 O   0  0  0  0  0  0  0  0  0  0  0  0
    0.7404    0.0034    0.0000 N   0  0  0  0  0  0  0  0  0  0  0  0
    0.0317   -0.4058    0.0000 C   0  0  0  0  0  0  0  0  0  0  0  0
    0.0317   -1.2241    0.0000 O   0  0  0  0  0  0  0  0  0  0  0  0
    4.2837   -0.4058    0.0000 C   0  0  0  0  0  0  0  0  0  0  0  0
   -0.6769    0.0034    0.0000 C   0  0  0  0  0  0  0  0  0  0  0  0
   -1.3856   -0.4058    0.0000 N   0  0  0  0  0  0  0  0  0  0  0  0
   -2.0942    0.0034    0.0000 C   0  0  0  0  0  0  0  0  0  0  0  0
   -2.8029   -0.4058    0.0000 C   0  0  0  0  0  0  0  0  0  0  0  0
   -2.0942    0.8216    0.0000 O   0  0  0  0  0  0  0  0  0  0  0  0
   -0.6769    0.8216    0.0000 C   0  0  0  0  0  0  0  0  0  0  0  0
    0.0317    1.2308    0.0000 C   0  0  0  0  0  0  0  0  0  0  0  0
   -3.5116    0.0034    0.0000 N   0  0  0  0  0  0  0  0  0  0  0  0
   -4.2139   -0.4165    0.0000 C   0  0  0  0  0  0  0  0  0  0  0  0
   -4.9260   -0.0133    0.0000 C   0  0  0  0  0  0  0  0  0  0  0  0
   -4.2071   -1.2348    0.0000 O   0  0  0  0  0  0  0  0  0  0  0  0
    4.9924    0.0034    0.0000 C   0  0  0  0  0  0  0  0  0  0  0  0
    0.0317    2.0491    0.0000 C   0  0  0  0  0  0  0  0  0  0  0  0
    0.7404    0.8216    0.0000 C   0  0  0  0  0  0  0  0  0  0  0  0
   -2.8029   -1.2241    0.0000 C   0  0  0  0  0  0  0  0  0  0  0  0
   -2.0942   -1.6332    0.0000 C   0  0  0  0  0  0  0  0  0  0  0  0
   -5.6370   -0.4318    0.0000 N   0  0  0  0  0  0  0  0  0  0  0  0
   -4.9329    0.8117    0.0000 C   0  0  0  0  0  0  0  0  0  0  0  0
   -4.2219    1.2301    0.0000 C   0  0  0  0  0  0  0  0  0  0  0  0
   -5.6508    1.2182    0.0000 C   0  0  0  0  0  0  0  0  0  0  0  0
   -6.3549   -0.0253    0.0000 C   0  0  0  0  0  0  0  0  0  0  0  0
   -7.0659   -0.4437    0.0000 C   0  0  0  0  0  0  0  0  0  0  0  0
   -6.3618    0.7997    0.0000 O   0  0  0  0  0  0  0  0  0  0  0  0
    5.7481   -0.4994    0.0000 N   0  0  0  0  0  0  0  0  0  0  0  0
    5.9240   -1.2986    0.0000 C   0  0  0  0  0  0  0  0  0  0  0  0
    6.7384   -1.3782    0.0000 C   0  0  0  0  0  0  0  0  0  0  0  0
    7.0659   -0.6283    0.0000 C   0  0  0  0  0  0  0  0  0  0  0  0
    6.4538   -0.0852    0.0000 C   0  0  0  0  0  0  0  0  0  0  0  0
    6.5335    0.7292    0.0000 O   0  0  0  0  0  0  0  0  0  0  0  0
    5.3809   -1.9106    0.0000 O   0  0  0  0  0  0  0  0  0  0  0  0
   -3.5174   -1.6366    0.0000 C   0  0  0  0  0  0  0  0  0  0  0  0
   -2.8029   -2.0491    0.0000 C   0  0  0  0  0  0  0  0  0  0  0  0
  1  2  1  0      
  2  3  1  0      
  3  4  1  0      
  3  5  2  0      
  4  6  1  0      
  6  7  1  0      
  7  8  2  0      
  7 10  1  0      
 10 11  1  0      
 11 12  1  0      
 12 13  1  0      
 12 14  2  0      
 10 15  1  1      
 15 16  1  0      
  1  9  1  0      
 17 13  1  0      
 17 18  1  0      
 18 19  1  0      
 18 20  2  0      
  9 21  1  0      
 16 22  1  0      
 16 23  1  0      
 13 24  1  6      
 24 25  1  0      
 19 26  1  0      
 19 27  1  1      
 27 28  1  0      
 27 29  1  0      
 26 30  1  0      
 30 31  1  0      
 30 32  2  0      
 34 35  1  0      
 35 36  2  0      
 36 37  1  0      
 37 33  1  0      
 34 33  1  0      
 37 38  2  0      
 34 39  2  0      
 33 21  1  0      
 24 40  1  0      
 24 41  1  0      
M  END
