JBB7_0002.mol
  ChemDraw03062413572D

 25 25  0  0  1  0  0  0  0  0999 V2000
    2.9077    0.2727    0.0000 C   0  0  0  0  0  0  0  0  0  0  0  0
    2.1961   -0.1382    0.0000 C   0  0  0  0  0  0  0  0  0  0  0  0
    1.4845    0.2727    0.0000 C   0  0  0  0  0  0  0  0  0  0  0  0
    0.7730   -0.1382    0.0000 O   0  0  0  0  0  0  0  0  0  0  0  0
    0.0614    0.2727    0.0000 C   0  0  0  0  0  0  0  0  0  0  0  0
   -0.6502   -0.1382    0.0000 C   0  0  0  0  0  0  0  0  0  0  0  0
    0.0614    1.0943    0.0000 O   0  0  0  0  0  0  0  0  0  0  0  0
   -1.3618    0.2727    0.0000 N   0  0  0  0  0  0  0  0  0  0  0  0
   -2.0734   -0.1382    0.0000 C   0  0  0  0  0  0  0  0  0  0  0  0
   -2.7850    0.2727    0.0000 C   0  0  0  0  0  0  0  0  0  0  0  0
   -2.0734   -0.9599    0.0000 O   0  0  0  0  0  0  0  0  0  0  0  0
   -3.4966   -0.1382    0.0000 N   0  0  0  0  0  0  0  0  0  0  0  0
   -4.2082    0.2727    0.0000 C   0  0  0  0  0  0  0  0  0  0  0  0
   -4.9198   -0.1382    0.0000 C   0  0  0  0  0  0  0  0  0  0  0  0
   -4.2082    1.0943    0.0000 O   0  0  0  0  0  0  0  0  0  0  0  0
   -2.7850    1.0943    0.0000 C   0  0  0  0  0  0  0  0  0  0  0  0
   -2.0734    1.5052    0.0000 C   0  0  0  0  0  0  0  0  0  0  0  0
   -3.4966    1.5052    0.0000 C   0  0  0  0  0  0  0  0  0  0  0  0
    3.6193   -0.1382    0.0000 N   0  0  0  0  0  0  0  0  0  0  0  0
    3.7052   -0.9554    0.0000 C   0  0  0  0  0  0  0  0  0  0  0  0
    4.5089   -1.1262    0.0000 C   0  0  0  0  0  0  0  0  0  0  0  0
    4.9198   -0.4146    0.0000 C   0  0  0  0  0  0  0  0  0  0  0  0
    4.3699    0.1960    0.0000 C   0  0  0  0  0  0  0  0  0  0  0  0
    4.5408    0.9997    0.0000 O   0  0  0  0  0  0  0  0  0  0  0  0
    3.0946   -1.5052    0.0000 O   0  0  0  0  0  0  0  0  0  0  0  0
  1  2  1  0      
  2  3  1  0      
  3  4  1  0      
  4  5  1  0      
  5  6  1  0      
  5  7  2  0      
  6  8  1  0      
  8  9  1  0      
  9 10  1  0      
  9 11  2  0      
 10 12  1  0      
 12 13  1  0      
 13 14  1  0      
 13 15  2  0      
 10 16  1  1      
 16 17  1  0      
 16 18  1  0      
 20 21  1  0      
 21 22  2  0      
 22 23  1  0      
 23 19  1  0      
 20 19  1  0      
 23 24  2  0      
 20 25  2  0      
  1 19  1  0      
M  END
