JBB7_0006.mol
  ChemDraw03062414072D

 25 26  0  0  1  0  0  0  0  0999 V2000
    2.6918    0.3949    0.0000 C   0  0  0  0  0  0  0  0  0  0  0  0
    1.9802   -0.0159    0.0000 C   0  0  0  0  0  0  0  0  0  0  0  0
    1.2686    0.3949    0.0000 C   0  0  0  0  0  0  0  0  0  0  0  0
    0.5570   -0.0159    0.0000 O   0  0  0  0  0  0  0  0  0  0  0  0
   -0.1546    0.3949    0.0000 C   0  0  0  0  0  0  0  0  0  0  0  0
   -0.8661   -0.0159    0.0000 C   0  0  0  0  0  0  0  0  0  0  0  0
   -0.1546    1.2166    0.0000 O   0  0  0  0  0  0  0  0  0  0  0  0
   -1.5777    0.3949    0.0000 N   0  0  0  0  0  0  0  0  0  0  0  0
   -2.2893   -0.0159    0.0000 C   0  0  0  0  0  0  0  0  0  0  0  0
   -3.0009    0.3949    0.0000 C   0  0  0  0  0  0  0  0  0  0  0  0
   -2.2893   -0.8376    0.0000 O   0  0  0  0  0  0  0  0  0  0  0  0
   -3.0868    1.2121    0.0000 C   0  0  0  0  0  0  0  0  0  0  0  0
   -3.8905    1.3829    0.0000 S   0  0  0  0  0  0  0  0  0  0  0  0
   -4.3013    0.6713    0.0000 C   0  0  0  0  0  0  0  0  0  0  0  0
   -3.7515    0.0607    0.0000 N   0  0  0  0  0  0  0  0  0  0  0  0
   -3.9224   -0.7430    0.0000 C   0  0  0  0  0  0  0  0  0  0  0  0
   -3.3414   -1.3240    0.0000 C   0  0  0  0  0  0  0  0  0  0  0  0
   -4.7038   -0.9969    0.0000 O   0  0  0  0  0  0  0  0  0  0  0  0
    3.4034   -0.0159    0.0000 N   0  0  0  0  0  0  0  0  0  0  0  0
    3.4893   -0.8331    0.0000 C   0  0  0  0  0  0  0  0  0  0  0  0
    4.2930   -1.0039    0.0000 C   0  0  0  0  0  0  0  0  0  0  0  0
    4.7038   -0.2924    0.0000 C   0  0  0  0  0  0  0  0  0  0  0  0
    4.1540    0.3183    0.0000 C   0  0  0  0  0  0  0  0  0  0  0  0
    4.3249    1.1220    0.0000 O   0  0  0  0  0  0  0  0  0  0  0  0
    2.8787   -1.3829    0.0000 O   0  0  0  0  0  0  0  0  0  0  0  0
  1  2  1  0      
  2  3  1  0      
  3  4  1  0      
  4  5  1  0      
  5  6  1  0      
  5  7  2  0      
  6  8  1  0      
  8  9  1  0      
 10  9  1  1      
  9 11  2  0      
 10 12  1  0      
 12 13  1  0      
 13 14  1  0      
 14 15  1  0      
 15 10  1  0      
 15 16  1  0      
 16 17  1  0      
 16 18  2  0      
 20 21  1  0      
 21 22  2  0      
 22 23  1  0      
 23 19  1  0      
 20 19  1  0      
 23 24  2  0      
 20 25  2  0      
  1 19  1  0      
M  END
