JBB7_0018.mol
  ChemDraw03062415082D

 41 42  0  0  1  0  0  0  0  0999 V2000
    3.3695    0.0034    0.0000 C   0  0  0  0  0  0  0  0  0  0  0  0
    2.6609   -0.4058    0.0000 O   0  0  0  0  0  0  0  0  0  0  0  0
    1.9522    0.0034    0.0000 C   0  0  0  0  0  0  0  0  0  0  0  0
    1.2436   -0.4058    0.0000 C   0  0  0  0  0  0  0  0  0  0  0  0
    1.9522    0.8216    0.0000 O   0  0  0  0  0  0  0  0  0  0  0  0
    0.5349    0.0034    0.0000 N   0  0  0  0  0  0  0  0  0  0  0  0
   -0.1738   -0.4058    0.0000 C   0  0  0  0  0  0  0  0  0  0  0  0
   -0.1738   -1.2241    0.0000 O   0  0  0  0  0  0  0  0  0  0  0  0
    4.0782   -0.4058    0.0000 C   0  0  0  0  0  0  0  0  0  0  0  0
   -0.8824    0.0034    0.0000 C   0  0  0  0  0  0  0  0  0  0  0  0
   -1.5911   -0.4058    0.0000 N   0  0  0  0  0  0  0  0  0  0  0  0
   -2.2997    0.0034    0.0000 C   0  0  0  0  0  0  0  0  0  0  0  0
   -3.0084   -0.4058    0.0000 C   0  0  0  0  0  0  0  0  0  0  0  0
   -2.2997    0.8216    0.0000 O   0  0  0  0  0  0  0  0  0  0  0  0
   -0.8824    0.8216    0.0000 C   0  0  0  0  0  0  0  0  0  0  0  0
   -0.1738    1.2308    0.0000 C   0  0  0  0  0  0  0  0  0  0  0  0
   -3.7171    0.0034    0.0000 N   0  0  0  0  0  0  0  0  0  0  0  0
   -4.4194   -0.4165    0.0000 C   0  0  0  0  0  0  0  0  0  0  0  0
   -5.1315   -0.0133    0.0000 C   0  0  0  0  0  0  0  0  0  0  0  0
   -4.4126   -1.2348    0.0000 O   0  0  0  0  0  0  0  0  0  0  0  0
   -0.1738    2.0491    0.0000 C   0  0  0  0  0  0  0  0  0  0  0  0
    0.5349    0.8216    0.0000 C   0  0  0  0  0  0  0  0  0  0  0  0
   -3.0084   -1.2241    0.0000 C   0  0  0  0  0  0  0  0  0  0  0  0
   -2.2997   -1.6332    0.0000 C   0  0  0  0  0  0  0  0  0  0  0  0
   -3.7229   -1.6366    0.0000 C   0  0  0  0  0  0  0  0  0  0  0  0
   -3.0084   -2.0491    0.0000 C   0  0  0  0  0  0  0  0  0  0  0  0
   -5.2246    0.8064    0.0000 C   0  0  0  0  0  0  0  0  0  0  0  0
   -6.0329    0.9712    0.0000 S   0  0  0  0  0  0  0  0  0  0  0  0
   -6.4395    0.2533    0.0000 C   0  0  0  0  0  0  0  0  0  0  0  0
   -5.8823   -0.3552    0.0000 N   0  0  0  0  0  0  0  0  0  0  0  0
   -6.0471   -1.1635    0.0000 C   0  0  0  0  0  0  0  0  0  0  0  0
   -5.4294   -1.7104    0.0000 C   0  0  0  0  0  0  0  0  0  0  0  0
   -6.8296   -1.4250    0.0000 O   0  0  0  0  0  0  0  0  0  0  0  0
    5.5914   -0.3653    0.0000 N   0  0  0  0  0  0  0  0  0  0  0  0
    5.5522   -1.1827    0.0000 C   0  0  0  0  0  0  0  0  0  0  0  0
    6.3174   -1.4726    0.0000 C   0  0  0  0  0  0  0  0  0  0  0  0
    6.8296   -0.8344    0.0000 C   0  0  0  0  0  0  0  0  0  0  0  0
    6.3809   -0.1501    0.0000 C   0  0  0  0  0  0  0  0  0  0  0  0
    6.6708    0.6151    0.0000 O   0  0  0  0  0  0  0  0  0  0  0  0
    4.8678   -1.6313    0.0000 O   0  0  0  0  0  0  0  0  0  0  0  0
    4.7927    0.0067    0.0000 C   0  0  0  0  0  0  0  0  0  0  0  0
  1  2  1  0      
  2  3  1  0      
  3  4  1  0      
  3  5  2  0      
  4  6  1  0      
  6  7  1  0      
  7  8  2  0      
  7 10  1  0      
 10 11  1  0      
 11 12  1  0      
 12 13  1  0      
 12 14  2  0      
 10 15  1  1      
 15 16  1  0      
  1  9  1  0      
 17 13  1  0      
 17 18  1  0      
 18 19  1  0      
 18 20  2  0      
 16 21  1  0      
 16 22  1  0      
 13 23  1  6      
 23 24  1  0      
 23 25  1  0      
 23 26  1  0      
 19 27  1  1      
 27 28  1  0      
 28 29  1  0      
 29 30  1  0      
 30 19  1  0      
 30 31  1  0      
 31 32  1  0      
 31 33  2  0      
 35 36  1  0      
 36 37  2  0      
 37 38  1  0      
 38 34  1  0      
 35 34  1  0      
 38 39  2  0      
 35 40  2  0      
  9 41  1  0      
 41 34  1  0      
M  END
