MCSJ25_0041.mol
  ChemDraw04192413262D

 28 31  0  0  0  0  0  0  0  0999 V2000
   -3.2317    2.5342    0.0000 C   0  0  0  0  0  0  0  0  0  0  0  0
   -3.4025    1.7305    0.0000 C   0  0  0  0  0  0  0  0  0  0  0  0
   -2.7919    1.1807    0.0000 C   0  0  0  0  0  0  0  0  0  0  0  0
   -2.0105    1.4346    0.0000 C   0  0  0  0  0  0  0  0  0  0  0  0
   -1.8396    2.2383    0.0000 C   0  0  0  0  0  0  0  0  0  0  0  0
   -2.4502    2.7881    0.0000 C   0  0  0  0  0  0  0  0  0  0  0  0
   -2.7919    0.3590    0.0000 N   0  0  0  0  0  0  0  0  0  0  0  0
   -2.0105    0.1051    0.0000 C   0  0  0  0  0  0  0  0  0  0  0  0
   -1.5275    0.7698    0.0000 C   0  0  0  0  0  0  0  0  0  0  0  0
   -0.7058    0.7698    0.0000 S   0  0  0  0  0  0  0  0  0  0  0  0
   -0.2950    0.0582    0.0000 C   0  0  0  0  0  0  0  0  0  0  0  0
    0.5267    0.0582    0.0000 C   0  0  0  0  0  0  0  0  0  0  0  0
    0.9375   -0.6533    0.0000 N   0  0  0  0  0  0  0  0  0  0  0  0
    0.9375    0.7698    0.0000 O   0  0  0  0  0  0  0  0  0  0  0  0
    1.7592   -0.6533    0.0000 C   0  0  0  0  0  0  0  0  0  0  0  0
    2.1700   -1.3649    0.0000 C   0  0  0  0  0  0  0  0  0  0  0  0
    1.7592   -2.0765    0.0000 C   0  0  0  0  0  0  0  0  0  0  0  0
    2.1700   -2.7881    0.0000 C   0  0  0  0  0  0  0  0  0  0  0  0
    2.9917   -2.7881    0.0000 C   0  0  0  0  0  0  0  0  0  0  0  0
    3.4025   -2.0765    0.0000 C   0  0  0  0  0  0  0  0  0  0  0  0
    2.9917   -1.3649    0.0000 C   0  0  0  0  0  0  0  0  0  0  0  0
    0.5250   -1.3678    0.0000 C   0  0  0  0  0  0  0  0  0  0  0  0
   -0.3000   -1.3678    0.0000 C   0  0  0  0  0  0  0  0  0  0  0  0
   -0.7125   -0.6533    0.0000 C   0  0  0  0  0  0  0  0  0  0  0  0
   -1.5375   -0.6533    0.0000 C   0  0  0  0  0  0  0  0  0  0  0  0
   -1.9500   -1.3678    0.0000 C   0  0  0  0  0  0  0  0  0  0  0  0
   -1.5375   -2.0823    0.0000 C   0  0  0  0  0  0  0  0  0  0  0  0
   -0.7125   -2.0823    0.0000 C   0  0  0  0  0  0  0  0  0  0  0  0
  1  2  2  0      
  2  3  1  0      
  3  4  2  0      
  4  5  1  0      
  5  6  2  0      
  6  1  1  0      
  3  7  1  0      
  7  8  1  0      
  8  9  2  0      
  9  4  1  0      
  9 10  1  0      
 10 11  1  0      
 11 12  1  0      
 12 13  1  0      
 12 14  2  0      
 13 15  1  0      
 15 16  1  0      
 16 17  2  0      
 17 18  1  0      
 18 19  2  0      
 19 20  1  0      
 20 21  2  0      
 21 16  1  0      
 13 22  1  0      
 22 23  1  0      
 23 24  2  0      
 24 25  1  0      
 25 26  2  0      
 26 27  1  0      
 27 28  2  0      
 28 23  1  0      
M  END
