MCSJ25_0077.mol
  ChemDraw04192414262D

 20 22  0  0  0  0  0  0  0  0999 V2000
   -2.0637    0.6188    0.0000 C   0  0  0  0  0  0  0  0  0  0  0  0
   -2.0637   -0.2062    0.0000 C   0  0  0  0  0  0  0  0  0  0  0  0
   -1.3492   -0.6188    0.0000 N   0  0  0  0  0  0  0  0  0  0  0  0
   -0.6348   -0.2062    0.0000 C   0  0  0  0  0  0  0  0  0  0  0  0
   -0.6348    0.6188    0.0000 C   0  0  0  0  0  0  0  0  0  0  0  0
   -1.3492    1.0313    0.0000 C   0  0  0  0  0  0  0  0  0  0  0  0
   -2.7782    1.0313    0.0000 Cl  0  0  0  0  0  0  0  0  0  0  0  0
    0.0797    1.0313    0.0000 O   0  0  0  0  0  0  0  0  0  0  0  0
    0.7942    0.6188    0.0000 C   0  0  0  0  0  0  0  0  0  0  0  0
    1.5086    1.0313    0.0000 O   0  0  0  0  0  0  0  0  0  0  0  0
    0.7942   -0.2062    0.0000 C   0  0  0  0  0  0  0  0  0  0  0  0
    0.0797   -0.6188    0.0000 C   0  0  0  0  0  0  0  0  0  0  0  0
    0.0797   -1.4437    0.0000 C   0  0  0  0  0  0  0  0  0  0  0  0
    0.7942   -1.8563    0.0000 C   0  0  0  0  0  0  0  0  0  0  0  0
    1.5086   -1.4437    0.0000 C   0  0  0  0  0  0  0  0  0  0  0  0
    1.5086   -0.6188    0.0000 C   0  0  0  0  0  0  0  0  0  0  0  0
    2.2933   -1.6987    0.0000 N   0  0  0  0  0  0  0  0  0  0  0  0
    2.7782   -1.0312    0.0000 C   0  0  0  0  0  0  0  0  0  0  0  0
    2.2933   -0.3638    0.0000 C   0  0  0  0  0  0  0  0  0  0  0  0
   -1.3492    1.8563    0.0000 C   0  0  0  0  0  0  0  0  0  0  0  0
  1  2  2  0      
  2  3  1  0      
  3  4  2  0      
  4  5  1  0      
  5  6  2  0      
  6  1  1  0      
  1  7  1  0      
  5  8  1  0      
  8  9  1  0      
  9 10  2  0      
  9 11  1  0      
 11 12  2  0      
 12 13  1  0      
 13 14  2  0      
 14 15  1  0      
 15 16  2  0      
 16 11  1  0      
 15 17  1  0      
 17 18  1  0      
 18 19  2  0      
 19 16  1  0      
  6 20  1  0      
M  END
