MCSJ25_0010.mol
  ChemDraw04192412272D

 19 21  0  0  0  0  0  0  0  0999 V2000
   -1.3988    1.3915    0.0000 C   0  0  0  0  0  0  0  0  0  0  0  0
   -1.3988    0.5698    0.0000 C   0  0  0  0  0  0  0  0  0  0  0  0
   -0.6873    0.1590    0.0000 C   0  0  0  0  0  0  0  0  0  0  0  0
    0.0243    0.5698    0.0000 C   0  0  0  0  0  0  0  0  0  0  0  0
    0.0243    1.3915    0.0000 C   0  0  0  0  0  0  0  0  0  0  0  0
   -0.6873    1.8023    0.0000 C   0  0  0  0  0  0  0  0  0  0  0  0
    0.8058    0.3159    0.0000 N   0  0  0  0  0  0  0  0  0  0  0  0
    1.2888    0.9806    0.0000 C   0  0  0  0  0  0  0  0  0  0  0  0
    0.8058    1.6454    0.0000 C   0  0  0  0  0  0  0  0  0  0  0  0
    1.0597   -0.4656    0.0000 C   0  0  0  0  0  0  0  0  0  0  0  0
    0.4787   -1.0466    0.0000 N   0  0  0  0  0  0  0  0  0  0  0  0
    2.1104    0.9806    0.0000 O   0  0  0  0  0  0  0  0  0  0  0  0
    1.0597    2.4268    0.0000 O   0  0  0  0  0  0  0  0  0  0  0  0
   -2.1104    1.8023    0.0000 Cl  0  0  0  0  0  0  0  0  0  0  0  0
   -0.3182   -0.8331    0.0000 C   0  0  0  0  0  0  0  0  0  0  0  0
   -0.9016   -1.4164    0.0000 C   0  0  0  0  0  0  0  0  0  0  0  0
   -0.6880   -2.2133    0.0000 O   0  0  0  0  0  0  0  0  0  0  0  0
    0.1089   -2.4268    0.0000 C   0  0  0  0  0  0  0  0  0  0  0  0
    0.6922   -1.8435    0.0000 C   0  0  0  0  0  0  0  0  0  0  0  0
  1  2  2  0      
  2  3  1  0      
  3  4  2  0      
  4  5  1  0      
  5  6  2  0      
  6  1  1  0      
  4  7  1  0      
  7  8  1  0      
  8  9  1  0      
  9  5  1  0      
  7 10  1  0      
 10 11  1  0      
  8 12  2  0      
  9 13  2  0      
  1 14  1  0      
 11 15  1  0      
 15 16  1  0      
 16 17  1  0      
 17 18  1  0      
 18 19  1  0      
 19 11  1  0      
M  END
