MCSJ15_0004.mol
  ChemDraw02082411252D

 61 63  0  0  1  0  0  0  0  0999 V2000
   -6.4043    2.8758    0.0000 C   0  0  0  0  0  0  0  0  0  0  0  0
   -6.4043    2.0542    0.0000 C   0  0  0  0  0  0  0  0  0  0  0  0
   -5.6927    1.6433    0.0000 C   0  0  0  0  0  0  0  0  0  0  0  0
   -4.9811    2.0542    0.0000 C   0  0  0  0  0  0  0  0  0  0  0  0
   -4.9811    2.8758    0.0000 C   0  0  0  0  0  0  0  0  0  0  0  0
   -5.6927    3.2867    0.0000 C   0  0  0  0  0  0  0  0  0  0  0  0
   -4.2695    3.2867    0.0000 C   0  0  0  0  0  0  0  0  0  0  0  0
   -3.5579    2.8758    0.0000 C   0  0  0  0  0  0  0  0  0  0  0  0
   -3.5579    2.0542    0.0000 C   0  0  0  0  0  0  0  0  0  0  0  0
   -2.8464    1.6433    0.0000 C   0  0  0  0  0  0  0  0  0  0  0  0
   -2.1348    2.0542    0.0000 C   0  0  0  0  0  0  0  0  0  0  0  0
   -2.1348    2.8758    0.0000 C   0  0  0  0  0  0  0  0  0  0  0  0
   -2.8464    3.2867    0.0000 C   0  0  0  0  0  0  0  0  0  0  0  0
   -1.4232    3.2867    0.0000 C   0  0  0  0  0  0  0  0  0  0  0  0
   -0.7116    2.8758    0.0000 C   0  0  0  0  0  0  0  0  0  0  0  0
   -0.7116    2.0542    0.0000 C   0  0  0  0  0  0  0  0  0  0  0  0
    0.0000    1.6433    0.0000 C   0  0  0  0  0  0  0  0  0  0  0  0
    0.7116    2.0542    0.0000 C   0  0  0  0  0  0  0  0  0  0  0  0
    0.7116    2.8758    0.0000 C   0  0  0  0  0  0  0  0  0  0  0  0
    0.0000    3.2867    0.0000 C   0  0  0  0  0  0  0  0  0  0  0  0
   -2.8464    0.8217    0.0000 O   0  0  0  0  0  0  0  0  0  0  0  0
   -2.8464    4.1084    0.0000 O   0  0  0  0  0  0  0  0  0  0  0  0
   -2.1348    0.4108    0.0000 C   0  0  0  0  0  0  0  0  0  0  0  0
   -2.1348   -0.4108    0.0000 N   0  0  0  0  0  0  0  0  0  0  0  0
   -1.4232    0.8217    0.0000 O   0  0  0  0  0  0  0  0  0  0  0  0
   -1.4232   -0.8217    0.0000 C   0  0  0  0  0  0  0  0  0  0  0  0
   -0.7116   -0.4108    0.0000 C   0  0  0  0  0  0  0  0  0  0  0  0
    0.0000   -0.8217    0.0000 C   0  0  0  0  0  0  0  0  0  0  0  0
    0.7116   -0.4108    0.0000 C   0  0  0  0  0  0  0  0  0  0  0  0
    1.4232   -0.8217    0.0000 C   0  0  0  0  0  0  0  0  0  0  0  0
    2.1348   -0.4108    0.0000 C   0  0  0  0  0  0  0  0  0  0  0  0
    2.1348    0.4108    0.0000 O   0  0  0  0  0  0  0  0  0  0  0  0
    2.8464   -0.8217    0.0000 N   0  0  0  0  0  0  0  0  0  0  0  0
    3.5579   -0.4108    0.0000 C   0  0  0  0  0  0  0  0  0  0  0  0
    4.2695   -0.8217    0.0000 C   0  0  0  0  0  0  0  0  0  0  0  0
    4.2695   -1.6433    0.0000 O   0  0  0  0  0  0  0  0  0  0  0  0
    4.9811   -0.4108    0.0000 N   0  0  0  0  0  0  0  0  0  0  0  0
    5.6927   -0.8217    0.0000 C   0  0  0  0  0  0  0  0  0  0  0  0
    6.4043   -0.4108    0.0000 C   0  0  0  0  0  0  0  0  0  0  0  0
    5.6927   -1.6433    0.0000 C   0  0  0  0  0  0  0  0  0  0  0  0
    7.1159   -0.8217    0.0000 C   0  0  0  0  0  0  0  0  0  0  0  0
    7.1159   -1.6433    0.0000 O   0  0  0  0  0  0  0  0  0  0  0  0
    7.8275   -0.4108    0.0000 O   0  0  0  0  0  0  0  0  0  0  0  0
    4.9811   -2.0542    0.0000 O   0  0  0  0  0  0  0  0  0  0  0  0
    6.4043   -2.0542    0.0000 O   0  0  0  0  0  0  0  0  0  0  0  0
    4.9811   -2.8759    0.0000 C   0  0  0  0  0  0  0  0  0  0  0  0
    7.8275   -2.0542    0.0000 C   0  0  0  0  0  0  0  0  0  0  0  0
   -7.1159    1.6433    0.0000 N   0  3  0  0  0  0  0  0  0  0  0  0
   -7.8275    2.0542    0.0000 O   0  0  0  0  0  0  0  0  0  0  0  0
   -7.1159    0.8217    0.0000 O   0  5  0  0  0  0  0  0  0  0  0  0
    1.4232    1.6433    0.0000 N   0  3  0  0  0  0  0  0  0  0  0  0
    1.4232    0.8217    0.0000 O   0  0  0  0  0  0  0  0  0  0  0  0
    2.1348    2.0542    0.0000 O   0  5  0  0  0  0  0  0  0  0  0  0
    1.4232   -1.6433    0.0000 N   0  0  0  0  0  0  0  0  0  0  0  0
    2.1348   -2.8759    0.0000 O   0  0  0  0  0  0  0  0  0  0  0  0
    2.8464   -3.2867    0.0000 C   0  0  0  0  0  0  0  0  0  0  0  0
    2.8464   -4.1084    0.0000 C   0  0  0  0  0  0  0  0  0  0  0  0
    3.5579   -3.6975    0.0000 C   0  0  0  0  0  0  0  0  0  0  0  0
    3.5579   -2.8759    0.0000 C   0  0  0  0  0  0  0  0  0  0  0  0
    2.1348   -2.0542    0.0000 C   0  0  0  0  0  0  0  0  0  0  0  0
    2.8464   -1.6433    0.0000 O   0  0  0  0  0  0  0  0  0  0  0  0
 48 49  2  0      
 48 50  1  0      
  2 48  1  0      
 51 52  2  0      
 51 53  1  0      
 18 51  1  0      
 60 61  2  0      
 56 57  1  0      
 56 58  1  0      
 56 59  1  0      
 55 56  1  0      
 55 60  1  0      
 54 60  1  0      
 30 54  1  0      
  1  2  2  0      
  2  3  1  0      
  3  4  2  0      
  4  5  1  0      
  5  6  2  0      
  6  1  1  0      
  5  7  1  0      
  7  8  2  0      
  8  9  1  0      
  9 10  1  0      
 10 11  1  0      
 11 12  1  0      
 12 13  1  0      
 13  8  1  0      
 12 14  2  0      
 14 15  1  0      
 15 16  2  0      
 16 17  1  0      
 17 18  2  0      
 18 19  1  0      
 19 20  2  0      
 20 15  1  0      
 10 21  1  0      
 13 22  2  0      
 21 23  1  0      
 23 24  1  0      
 23 25  2  0      
 24 26  1  0      
 26 27  1  0      
 27 28  1  0      
 28 29  1  0      
 30 29  1  1      
 30 31  1  0      
 31 32  2  0      
 31 33  1  0      
 33 34  1  0      
 34 35  1  0      
 35 36  2  0      
 35 37  1  0      
 37 38  1  0      
 38 39  1  1      
 38 40  1  0      
 39 41  1  0      
 41 42  1  0      
 41 43  2  0      
 40 44  1  0      
 40 45  2  0      
 44 46  1  0      
 42 47  1  0      
M  CHG  4  48   1  50  -1  51   1  53  -1
M  STY  1   1 SUP
M  SLB  1   1   1
M  SAL   1  3  48  49  50
M  SBL   1  1   3
M  SMT   1 ^NO2
M  SBV   1   3    0.7116    0.4108
M  STY  1   2 SUP
M  SLB  1   2   2
M  SAL   2  3  51  52  53
M  SBL   2  1   6
M  SMT   2 NO2
M  SBV   2   6   -0.7116    0.4108
M  STY  1   3 SUP
M  SLB  1   3   3
M  SAL   3  8  54  55  56  57  58  59  60  61
M  SBL   3  1  14
M  SMT   3 NHBoc
M  SBV   3  14    0.0000    0.8217
M  END
