MCSJ23_0001.mol
  ChemDraw04192411342D

 36 40  0  0  0  0  0  0  0  0999 V2000
   -2.8109   -1.0304    0.0000 C   0  0  0  0  0  0  0  0  0  0  0  0
   -2.8109   -1.8554    0.0000 C   0  0  0  0  0  0  0  0  0  0  0  0
   -2.0965   -2.2679    0.0000 N   0  0  0  0  0  0  0  0  0  0  0  0
   -1.3820   -1.8554    0.0000 C   0  0  0  0  0  0  0  0  0  0  0  0
   -1.3820   -1.0304    0.0000 C   0  0  0  0  0  0  0  0  0  0  0  0
   -2.0965   -0.6179    0.0000 C   0  0  0  0  0  0  0  0  0  0  0  0
   -0.6675   -2.2679    0.0000 N   0  0  0  0  0  0  0  0  0  0  0  0
    0.0469   -1.8554    0.0000 C   0  0  0  0  0  0  0  0  0  0  0  0
    0.0469   -1.0304    0.0000 N   0  0  0  0  0  0  0  0  0  0  0  0
   -0.6675   -0.6179    0.0000 C   0  0  0  0  0  0  0  0  0  0  0  0
   -3.5956   -0.7755    0.0000 C   0  0  0  0  0  0  0  0  0  0  0  0
   -4.0805   -1.4429    0.0000 N   0  0  0  0  0  0  0  0  0  0  0  0
   -3.5956   -2.1104    0.0000 N   0  0  0  0  0  0  0  0  0  0  0  0
   -0.6675    0.2071    0.0000 N   0  0  0  0  0  0  0  0  0  0  0  0
    1.2226    0.2071    0.0000 N   0  0  0  0  0  0  0  0  0  0  0  0
    1.2226   -0.6179    0.0000 C   0  0  0  0  0  0  0  0  0  0  0  0
    1.9371   -1.0304    0.0000 C   0  0  0  0  0  0  0  0  0  0  0  0
    0.7614   -2.2679    0.0000 N   0  0  0  0  0  0  0  0  0  0  0  0
   -3.8505    0.0091    0.0000 C   0  0  0  0  0  0  0  0  0  0  0  0
   -2.0965    0.2071    0.0000 C   0  0  0  0  0  0  0  0  0  0  0  0
    0.7614   -3.0929    0.0000 C   0  0  0  0  0  0  0  0  0  0  0  0
    1.4759   -1.8554    0.0000 C   0  0  0  0  0  0  0  0  0  0  0  0
    1.9371   -1.8554    0.0000 C   0  0  0  0  0  0  0  0  0  0  0  0
    2.6515   -2.2679    0.0000 C   0  0  0  0  0  0  0  0  0  0  0  0
    3.3660   -1.8554    0.0000 C   0  0  0  0  0  0  0  0  0  0  0  0
    3.3660   -1.0304    0.0000 C   0  0  0  0  0  0  0  0  0  0  0  0
    2.6515   -0.6179    0.0000 C   0  0  0  0  0  0  0  0  0  0  0  0
    4.0805   -2.2679    0.0000 Cl  0  0  0  0  0  0  0  0  0  0  0  0
   -1.3820    0.6196    0.0000 C   0  0  0  0  0  0  0  0  0  0  0  0
   -1.3820    1.4446    0.0000 C   0  0  0  0  0  0  0  0  0  0  0  0
   -2.0965    1.8571    0.0000 C   0  0  0  0  0  0  0  0  0  0  0  0
   -2.8109    1.4446    0.0000 C   0  0  0  0  0  0  0  0  0  0  0  0
   -2.8109    0.6196    0.0000 C   0  0  0  0  0  0  0  0  0  0  0  0
   -2.0965    2.6821    0.0000 N   0  3  0  0  0  0  0  0  0  0  0  0
   -1.3849    3.0929    0.0000 O   0  0  0  0  0  0  0  0  0  0  0  0
   -2.8081    3.0929    0.0000 O   0  5  0  0  0  0  0  0  0  0  0  0
 34 35  2  0      
 34 36  1  0      
 31 34  1  0      
  1  2  2  0      
  2  3  1  0      
  3  4  1  0      
  4  5  2  0      
  5  6  1  0      
  6  1  1  0      
  4  7  1  0      
  7  8  2  0      
  8  9  1  0      
  9 10  2  0      
 10  5  1  0      
  1 11  1  0      
 11 12  2  0      
 12 13  1  0      
 13  2  1  0      
 10 14  1  0      
 14 15  1  0      
 15 16  2  0      
 16 17  1  0      
  8 18  1  0      
 11 19  1  0      
  6 20  1  0      
 18 21  1  0      
 18 22  1  0      
 17 23  2  0      
 23 24  1  0      
 24 25  2  0      
 25 26  1  0      
 26 27  2  0      
 27 17  1  0      
 25 28  1  0      
 20 29  2  0      
 29 30  1  0      
 30 31  2  0      
 31 32  1  0      
 32 33  2  0      
 33 20  1  0      
M  CHG  2  34   1  36  -1
M  STY  1   1 SUP
M  SLB  1   1   1
M  SAL   1  3  34  35  36
M  SBL   1  1   3
M  SMT   1 NO2
M  SBV   1   3    0.0000   -0.8250
M  END
