MCSJ25_0028.mol
  ChemDraw04192413092D

 24 27  0  0  0  0  0  0  0  0999 V2000
   -1.0473    1.7051    0.0000 C   0  0  0  0  0  0  0  0  0  0  0  0
   -1.0473    0.8801    0.0000 C   0  0  0  0  0  0  0  0  0  0  0  0
   -0.3328    0.4676    0.0000 C   0  0  0  0  0  0  0  0  0  0  0  0
    0.3817    0.8801    0.0000 C   0  0  0  0  0  0  0  0  0  0  0  0
    0.3817    1.7051    0.0000 C   0  0  0  0  0  0  0  0  0  0  0  0
   -0.3328    2.1176    0.0000 C   0  0  0  0  0  0  0  0  0  0  0  0
    1.1663    0.6252    0.0000 N   0  0  0  0  0  0  0  0  0  0  0  0
    1.6512    1.2926    0.0000 C   0  0  0  0  0  0  0  0  0  0  0  0
    1.1663    1.9601    0.0000 C   0  0  0  0  0  0  0  0  0  0  0  0
    1.3798    2.7569    0.0000 O   0  0  0  0  0  0  0  0  0  0  0  0
    2.4762    1.2926    0.0000 O   0  0  0  0  0  0  0  0  0  0  0  0
   -1.7617    2.1176    0.0000 C   0  0  0  0  0  0  0  0  0  0  0  0
   -2.4762    1.7051    0.0000 N   0  0  0  0  0  0  0  0  0  0  0  0
    1.4212   -0.1594    0.0000 C   0  0  0  0  0  0  0  0  0  0  0  0
    0.8379   -0.7428    0.0000 C   0  0  0  0  0  0  0  0  0  0  0  0
    0.0230   -0.6138    0.0000 C   0  0  0  0  0  0  0  0  0  0  0  0
   -0.3515   -1.3488    0.0000 C   0  0  0  0  0  0  0  0  0  0  0  0
    0.2318   -1.9322    0.0000 C   0  0  0  0  0  0  0  0  0  0  0  0
    0.9669   -1.5577    0.0000 S   0  0  0  0  0  0  0  0  0  0  0  0
   -1.1484   -1.5624    0.0000 C   0  0  0  0  0  0  0  0  0  0  0  0
   -1.3619   -2.3592    0.0000 C   0  0  0  0  0  0  0  0  0  0  0  0
   -0.7786   -2.9426    0.0000 C   0  0  0  0  0  0  0  0  0  0  0  0
    0.0183   -2.7291    0.0000 C   0  0  0  0  0  0  0  0  0  0  0  0
   -1.7617    2.9426    0.0000 O   0  0  0  0  0  0  0  0  0  0  0  0
  1  2  2  0      
  2  3  1  0      
  3  4  2  0      
  4  5  1  0      
  5  6  2  0      
  6  1  1  0      
  4  7  1  0      
  7  8  1  0      
  8  9  1  0      
  9  5  1  0      
  9 10  2  0      
  8 11  2  0      
  1 12  1  0      
 12 13  1  0      
  7 14  1  0      
 14 15  1  0      
 15 16  2  0      
 16 17  1  0      
 17 18  2  0      
 18 19  1  0      
 19 15  1  0      
 17 20  1  0      
 20 21  2  0      
 21 22  1  0      
 22 23  2  0      
 23 18  1  0      
 12 24  2  0      
M  END
