MCSJ25_0023.mol
  ChemDraw04192412492D

 15 16  0  0  0  0  0  0  0  0999 V2000
   -1.0402    0.3098    0.0000 C   0  0  0  0  0  0  0  0  0  0  0  0
   -1.0402   -0.5119    0.0000 C   0  0  0  0  0  0  0  0  0  0  0  0
   -0.3286   -0.9227    0.0000 C   0  0  0  0  0  0  0  0  0  0  0  0
    0.3830   -0.5119    0.0000 C   0  0  0  0  0  0  0  0  0  0  0  0
    0.3830    0.3098    0.0000 C   0  0  0  0  0  0  0  0  0  0  0  0
   -0.3286    0.7206    0.0000 C   0  0  0  0  0  0  0  0  0  0  0  0
    1.1645   -0.7658    0.0000 N   0  0  0  0  0  0  0  0  0  0  0  0
    1.6474   -0.1011    0.0000 C   0  0  0  0  0  0  0  0  0  0  0  0
    1.1645    0.5637    0.0000 C   0  0  0  0  0  0  0  0  0  0  0  0
    1.4184   -1.5473    0.0000 C   0  0  0  0  0  0  0  0  0  0  0  0
    2.4691   -0.1011    0.0000 O   0  0  0  0  0  0  0  0  0  0  0  0
    1.4184    1.3451    0.0000 O   0  0  0  0  0  0  0  0  0  0  0  0
   -1.7546    0.7223    0.0000 C   0  0  0  0  0  0  0  0  0  0  0  0
   -2.4691    0.3098    0.0000 O   0  0  0  0  0  0  0  0  0  0  0  0
   -1.7546    1.5473    0.0000 O   0  0  0  0  0  0  0  0  0  0  0  0
  1  2  2  0      
  2  3  1  0      
  3  4  2  0      
  4  5  1  0      
  5  6  2  0      
  6  1  1  0      
  4  7  1  0      
  7  8  1  0      
  8  9  1  0      
  9  5  1  0      
  7 10  1  0      
  8 11  2  0      
  9 12  2  0      
  1 13  1  0      
 13 14  1  0      
 13 15  2  0      
M  END
