MCSJ25_0029.mol
  ChemDraw04192413112D

 17 18  0  0  0  0  0  0  0  0999 V2000
   -1.0473    1.0126    0.0000 C   0  0  0  0  0  0  0  0  0  0  0  0
   -1.0473    0.1876    0.0000 C   0  0  0  0  0  0  0  0  0  0  0  0
   -0.3328   -0.2249    0.0000 C   0  0  0  0  0  0  0  0  0  0  0  0
    0.3817    0.1876    0.0000 C   0  0  0  0  0  0  0  0  0  0  0  0
    0.3817    1.0126    0.0000 C   0  0  0  0  0  0  0  0  0  0  0  0
   -0.3328    1.4251    0.0000 C   0  0  0  0  0  0  0  0  0  0  0  0
    1.1663   -0.0673    0.0000 N   0  0  0  0  0  0  0  0  0  0  0  0
    1.6512    0.6001    0.0000 C   0  0  0  0  0  0  0  0  0  0  0  0
    1.1663    1.2676    0.0000 C   0  0  0  0  0  0  0  0  0  0  0  0
    1.3798    2.0645    0.0000 O   0  0  0  0  0  0  0  0  0  0  0  0
    2.4762    0.6001    0.0000 O   0  0  0  0  0  0  0  0  0  0  0  0
   -1.7617    1.4251    0.0000 C   0  0  0  0  0  0  0  0  0  0  0  0
   -2.4762    1.0126    0.0000 N   0  0  0  0  0  0  0  0  0  0  0  0
    1.4212   -0.8519    0.0000 C   0  0  0  0  0  0  0  0  0  0  0  0
    0.8379   -1.4353    0.0000 C   0  0  0  0  0  0  0  0  0  0  0  0
    0.9669   -2.2501    0.0000 C   0  0  0  0  0  0  0  0  0  0  0  0
   -1.7617    2.2501    0.0000 O   0  0  0  0  0  0  0  0  0  0  0  0
  1  2  2  0      
  2  3  1  0      
  3  4  2  0      
  4  5  1  0      
  5  6  2  0      
  6  1  1  0      
  4  7  1  0      
  7  8  1  0      
  8  9  1  0      
  9  5  1  0      
  9 10  2  0      
  8 11  2  0      
  1 12  1  0      
 12 13  1  0      
  7 14  1  0      
 14 15  1  0      
 16 15  1  0      
 12 17  2  0      
M  END
