MCSJ21_0007.mol
  ChemDraw04192410452D

 32 34  0  0  0  0  0  0  0  0999 V2000
   -2.1434    0.6179    0.0000 C   0  0  0  0  0  0  0  0  0  0  0  0
   -2.1434   -0.2071    0.0000 C   0  0  0  0  0  0  0  0  0  0  0  0
   -1.4289   -0.6196    0.0000 C   0  0  0  0  0  0  0  0  0  0  0  0
   -0.7145   -0.2071    0.0000 C   0  0  0  0  0  0  0  0  0  0  0  0
   -0.7145    0.6179    0.0000 C   0  0  0  0  0  0  0  0  0  0  0  0
   -1.4289    1.0304    0.0000 C   0  0  0  0  0  0  0  0  0  0  0  0
    0.0000   -0.6196    0.0000 C   0  0  0  0  0  0  0  0  0  0  0  0
    0.7145   -0.2071    0.0000 C   0  0  0  0  0  0  0  0  0  0  0  0
    0.7145    0.6179    0.0000 C   0  0  0  0  0  0  0  0  0  0  0  0
    0.0000    1.0304    0.0000 C   0  0  0  0  0  0  0  0  0  0  0  0
    1.4289   -0.6196    0.0000 C   0  0  0  0  0  0  0  0  0  0  0  0
    2.1434   -0.2071    0.0000 C   0  0  0  0  0  0  0  0  0  0  0  0
    2.1434    0.6179    0.0000 C   0  0  0  0  0  0  0  0  0  0  0  0
    1.4289    1.0304    0.0000 C   0  0  0  0  0  0  0  0  0  0  0  0
    0.0000    1.8554    0.0000 O   0  0  0  0  0  0  0  0  0  0  0  0
    0.0000   -1.4446    0.0000 O   0  0  0  0  0  0  0  0  0  0  0  0
   -1.4289    1.8554    0.0000 O   0  0  0  0  0  0  0  0  0  0  0  0
   -2.8579   -0.6196    0.0000 O   0  0  0  0  0  0  0  0  0  0  0  0
    1.4289    1.8554    0.0000 O   0  0  0  0  0  0  0  0  0  0  0  0
    2.8579   -0.6196    0.0000 C   0  0  0  0  0  0  0  0  0  0  0  0
   -2.8579    1.0304    0.0000 N   0  3  0  0  0  0  0  0  0  0  0  0
   -2.8579    1.8521    0.0000 O   0  0  0  0  0  0  0  0  0  0  0  0
   -3.5695    0.6196    0.0000 O   0  5  0  0  0  0  0  0  0  0  0  0
   -1.4289   -1.4446    0.0000 N   0  3  0  0  0  0  0  0  0  0  0  0
   -2.1405   -1.8554    0.0000 O   0  0  0  0  0  0  0  0  0  0  0  0
   -0.7174   -1.8554    0.0000 O   0  5  0  0  0  0  0  0  0  0  0  0
    2.8579    1.0304    0.0000 N   0  3  0  0  0  0  0  0  0  0  0  0
    3.5695    0.6196    0.0000 O   0  0  0  0  0  0  0  0  0  0  0  0
    2.8579    1.8521    0.0000 O   0  5  0  0  0  0  0  0  0  0  0  0
    1.4289   -1.4446    0.0000 N   0  3  0  0  0  0  0  0  0  0  0  0
    0.7174   -1.8554    0.0000 O   0  0  0  0  0  0  0  0  0  0  0  0
    2.1405   -1.8554    0.0000 O   0  5  0  0  0  0  0  0  0  0  0  0
 21 22  2  0      
 21 23  1  0      
  1 21  1  0      
 24 25  2  0      
 24 26  1  0      
  3 24  1  0      
 27 28  2  0      
 27 29  1  0      
 13 27  1  0      
 30 31  2  0      
 30 32  1  0      
 11 30  1  0      
  1  2  2  0      
  2  3  1  0      
  3  4  2  0      
  4  5  1  0      
  5  6  2  0      
  6  1  1  0      
  4  7  1  0      
  7  8  1  0      
  8  9  2  0      
  9 10  1  0      
 10  5  1  0      
  8 11  1  0      
 11 12  2  0      
 12 13  1  0      
 13 14  2  0      
 14  9  1  0      
 10 15  2  0      
  7 16  2  0      
  6 17  1  0      
  2 18  1  0      
 14 19  1  0      
 12 20  1  0      
M  CHG  8  21   1  23  -1  24   1  26  -1  27   1  29  -1  30   1  32  -1
M  STY  1   1 SUP
M  SLB  1   1   1
M  SAL   1  3  21  22  23
M  SBL   1  1   3
M  SMT   1 ^NO2
M  SBV   1   3    0.7145   -0.4125
M  STY  1   2 SUP
M  SLB  1   2   2
M  SAL   2  3  24  25  26
M  SBL   2  1   6
M  SMT   2 NO2
M  SBV   2   6    0.0000    0.8250
M  STY  1   3 SUP
M  SLB  1   3   3
M  SAL   3  3  27  28  29
M  SBL   3  1   9
M  SMT   3 NO2
M  SBV   3   9   -0.7145   -0.4125
M  STY  1   4 SUP
M  SLB  1   4   4
M  SAL   4  3  30  31  32
M  SBL   4  1  12
M  SMT   4 NO2
M  SBV   4  12    0.0000    0.8250
M  END
