MCSJ25_0091.mol
  ChemDraw04192415212D

 41 46  0  0  1  0  0  0  0  0999 V2000
   -0.0988   -0.3961    0.0000 C   0  0  0  0  0  0  0  0  0  0  0  0
   -0.0988   -1.2211    0.0000 C   0  0  0  0  0  0  0  0  0  0  0  0
    0.6157   -1.6336    0.0000 N   0  0  0  0  0  0  0  0  0  0  0  0
    1.3302   -1.2211    0.0000 C   0  0  0  0  0  0  0  0  0  0  0  0
    1.3302   -0.3961    0.0000 C   0  0  0  0  0  0  0  0  0  0  0  0
    0.6157    0.0164    0.0000 C   0  0  0  0  0  0  0  0  0  0  0  0
    0.6157    0.8414    0.0000 O   0  0  0  0  0  0  0  0  0  0  0  0
   -0.8132    0.0164    0.0000 C   0  0  0  0  0  0  0  0  0  0  0  0
   -1.5277   -0.3961    0.0000 C   0  0  0  0  0  0  0  0  0  0  0  0
    2.0896   -0.7184    0.0000 C   0  0  0  0  0  0  0  0  0  0  0  0
    2.6308   -0.0957    0.0000 N   0  0  0  0  0  0  0  0  0  0  0  0
    2.2058    0.6114    0.0000 C   0  0  0  0  0  0  0  0  0  0  0  0
    1.4020    0.4257    0.0000 C   0  0  0  0  0  0  0  0  0  0  0  0
    0.9895    1.1402    0.0000 H   0  0  0  0  0  0  0  0  0  0  0  0
    1.8145    1.1402    0.0000 C   0  0  0  0  0  0  0  0  0  0  0  0
    2.0896   -1.5434    0.0000 C   0  0  0  0  0  0  0  0  0  0  0  0
    2.8742   -1.7983    0.0000 C   0  0  0  0  0  0  0  0  0  0  0  0
    3.3592   -1.1309    0.0000 N   0  0  0  0  0  0  0  0  0  0  0  0
    2.8742   -0.4635    0.0000 C   0  0  0  0  0  0  0  0  0  0  0  0
    1.4765   -2.0954    0.0000 C   0  0  0  0  0  0  0  0  0  0  0  0
    1.6480   -2.9024    0.0000 C   0  0  0  0  0  0  0  0  0  0  0  0
    2.4327   -3.1573    0.0000 C   0  0  0  0  0  0  0  0  0  0  0  0
    3.0458   -2.6053    0.0000 C   0  0  0  0  0  0  0  0  0  0  0  0
    3.6711   -0.2499    0.0000 O   0  0  0  0  0  0  0  0  0  0  0  0
   -2.2422    0.0164    0.0000 C   0  0  0  0  0  0  0  0  0  0  0  0
   -2.9567   -0.3961    0.0000 C   0  0  0  0  0  0  0  0  0  0  0  0
   -2.9567   -1.2211    0.0000 C   0  0  0  0  0  0  0  0  0  0  0  0
   -2.2422   -1.6336    0.0000 C   0  0  0  0  0  0  0  0  0  0  0  0
   -1.5277   -1.2211    0.0000 C   0  0  0  0  0  0  0  0  0  0  0  0
    2.6395    1.1402    0.0000 C   0  0  0  0  0  0  0  0  0  0  0  0
    3.0520    1.8547    0.0000 C   0  0  0  0  0  0  0  0  0  0  0  0
    2.6395    2.5692    0.0000 C   0  0  0  0  0  0  0  0  0  0  0  0
    1.8145    2.5692    0.0000 C   0  0  0  0  0  0  0  0  0  0  0  0
    1.4020    1.8547    0.0000 C   0  0  0  0  0  0  0  0  0  0  0  0
    0.6157   -2.4586    0.0000 S   0  0  0  0  0  0  0  0  0  0  0  0
   -0.2093   -2.4586    0.0000 O   0  0  0  0  0  0  0  0  0  0  0  0
    3.3453    0.3168    0.0000 C   0  0  0  0  0  0  0  0  0  0  0  0
    3.0520    3.2836    0.0000 Br  0  0  0  0  0  0  0  0  0  0  0  0
   -3.6711   -1.6336    0.0000 Br  0  0  0  0  0  0  0  0  0  0  0  0
    0.6157   -3.2836    0.0000 C   0  0  0  0  0  0  0  0  0  0  0  0
    1.3302   -2.8711    0.0000 O   0  0  0  0  0  0  0  0  0  0  0  0
  1  2  1  0      
  2  3  1  0      
  3  4  1  0      
  5  4  1  1      
  5  6  1  6      
  6  1  1  0      
  6  7  2  0      
  1  8  2  0      
  8  9  1  0      
  5 10  1  0      
 10 11  1  0      
 11 12  1  0      
 12 13  1  0      
 13  5  1  0      
 13 14  1  6      
 13 15  1  1      
 10 16  1  6      
 16 17  2  0      
 17 18  1  0      
 18 19  1  0      
 10 19  1  1      
 16 20  1  0      
 20 21  2  0      
 21 22  1  0      
 22 23  2  0      
 23 17  1  0      
 19 24  2  0      
  9 25  2  0      
 25 26  1  0      
 26 27  2  0      
 27 28  1  0      
 28 29  2  0      
 29  9  1  0      
 15 30  2  0      
 30 31  1  0      
 31 32  2  0      
 32 33  1  0      
 33 34  2  0      
 34 15  1  0      
  3 35  1  0      
 35 36  2  0      
 11 37  1  0      
 32 38  1  0      
 27 39  1  0      
 35 40  1  0      
 35 41  2  0      
M  END
