MCSJ22_0001.mol
  ChemDraw04192410592D

 38 41  0  0  0  0  0  0  0  0999 V2000
   -2.8579    2.6796    0.0000 C   0  0  0  0  0  0  0  0  0  0  0  0
   -2.8579    1.8546    0.0000 C   0  0  0  0  0  0  0  0  0  0  0  0
   -2.1434    1.4421    0.0000 C   0  0  0  0  0  0  0  0  0  0  0  0
   -1.4289    1.8546    0.0000 C   0  0  0  0  0  0  0  0  0  0  0  0
   -1.4289    2.6796    0.0000 C   0  0  0  0  0  0  0  0  0  0  0  0
   -2.1434    3.0921    0.0000 C   0  0  0  0  0  0  0  0  0  0  0  0
   -0.7145    1.4421    0.0000 S   0  0  0  0  0  0  0  0  0  0  0  0
   -0.0000    1.8546    0.0000 N   0  0  0  0  0  0  0  0  0  0  0  0
   -0.0000    2.6796    0.0000 C   0  0  0  0  0  0  0  0  0  0  0  0
   -0.7145    3.0921    0.0000 C   0  0  0  0  0  0  0  0  0  0  0  0
    0.7145    1.4421    0.0000 C   0  0  0  0  0  0  0  0  0  0  0  0
    1.4289    1.8546    0.0000 C   0  0  0  0  0  0  0  0  0  0  0  0
    1.4289    2.6796    0.0000 C   0  0  0  0  0  0  0  0  0  0  0  0
    0.7145    3.0921    0.0000 C   0  0  0  0  0  0  0  0  0  0  0  0
    2.1434    1.4421    0.0000 C   0  0  0  0  0  0  0  0  0  0  0  0
    2.8579    1.8546    0.0000 C   0  0  0  0  0  0  0  0  0  0  0  0
    2.8579    2.6796    0.0000 C   0  0  0  0  0  0  0  0  0  0  0  0
    2.1434    3.0921    0.0000 C   0  0  0  0  0  0  0  0  0  0  0  0
    0.7145    0.6171    0.0000 C   0  0  0  0  0  0  0  0  0  0  0  0
   -0.0000    0.2046    0.0000 O   0  0  0  0  0  0  0  0  0  0  0  0
    1.4289    0.2046    0.0000 N   0  0  0  0  0  0  0  0  0  0  0  0
    1.4289   -0.6204    0.0000 C   0  0  0  0  0  0  0  0  0  0  0  0
    0.7145   -1.0329    0.0000 C   0  0  0  0  0  0  0  0  0  0  0  0
    0.7145   -1.8579    0.0000 C   0  0  0  0  0  0  0  0  0  0  0  0
    1.4289   -2.2704    0.0000 C   0  0  0  0  0  0  0  0  0  0  0  0
    2.1434   -1.8579    0.0000 C   0  0  0  0  0  0  0  0  0  0  0  0
    2.1434   -1.0329    0.0000 C   0  0  0  0  0  0  0  0  0  0  0  0
   -1.2978    0.8587    0.0000 O   0  0  0  0  0  0  0  0  0  0  0  0
   -0.1311    0.8587    0.0000 O   0  0  0  0  0  0  0  0  0  0  0  0
   -3.5724    1.4421    0.0000 F   0  0  0  0  0  0  0  0  0  0  0  0
   -0.7145    3.9171    0.0000 O   0  0  0  0  0  0  0  0  0  0  0  0
    0.7145    3.9171    0.0000 O   0  0  0  0  0  0  0  0  0  0  0  0
    3.5724    3.0921    0.0000 Cl  0  0  0  0  0  0  0  0  0  0  0  0
    3.5724    1.4421    0.0000 F   0  0  0  0  0  0  0  0  0  0  0  0
    1.4289   -3.0954    0.0000 C   0  0  0  0  0  0  0  0  0  0  0  0
    0.6073   -3.0954    0.0000 F   0  0  0  0  0  0  0  0  0  0  0  0
    1.4289   -3.9171    0.0000 F   0  0  0  0  0  0  0  0  0  0  0  0
    2.2506   -3.0954    0.0000 F   0  0  0  0  0  0  0  0  0  0  0  0
 35 36  1  0      
 35 37  1  0      
 35 38  1  0      
 25 35  1  0      
  1  2  2  0      
  2  3  1  0      
  3  4  2  0      
  4  5  1  0      
  5  6  2  0      
  6  1  1  0      
  4  7  1  0      
  7  8  1  0      
  8  9  1  0      
  9 10  2  0      
 10  5  1  0      
  8 11  1  0      
 12 13  2  0      
 13 14  1  0      
 14  9  1  0      
 12 15  1  0      
 15 16  2  0      
 16 17  1  0      
 17 18  2  0      
 18 13  1  0      
 11 19  1  0      
 19 20  2  0      
 19 21  1  0      
 21 22  1  0      
 22 23  2  0      
 23 24  1  0      
 24 25  2  0      
 25 26  1  0      
 26 27  2  0      
 27 22  1  0      
  7 28  2  0      
  7 29  2  0      
  2 30  1  0      
 10 31  1  0      
 14 32  2  0      
 17 33  1  0      
 16 34  1  0      
M  STY  1   1 SUP
M  SLB  1   1   1
M  SAL   1  4  35  36  37  38
M  SBL   1  1   4
M  SMT   1 CF3
M  SBV   1   4    0.0000    0.8250
M  END
