MCSJ25_0082.mol
  ChemDraw04192414372D

 31 33  0  0  0  0  0  0  0  0999 V2000
   -2.2700   -2.4810    0.0000 C   0  0  0  0  0  0  0  0  0  0  0  0
   -2.2700   -3.3060    0.0000 C   0  0  0  0  0  0  0  0  0  0  0  0
   -1.5556   -3.7185    0.0000 C   0  0  0  0  0  0  0  0  0  0  0  0
   -0.8411   -3.3060    0.0000 C   0  0  0  0  0  0  0  0  0  0  0  0
   -0.8411   -2.4810    0.0000 C   0  0  0  0  0  0  0  0  0  0  0  0
   -1.5556   -2.0685    0.0000 C   0  0  0  0  0  0  0  0  0  0  0  0
   -0.0565   -3.5609    0.0000 N   0  0  0  0  0  0  0  0  0  0  0  0
    0.4284   -2.8935    0.0000 C   0  0  0  0  0  0  0  0  0  0  0  0
   -0.0565   -2.2261    0.0000 C   0  0  0  0  0  0  0  0  0  0  0  0
    1.2534   -2.8935    0.0000 O   0  0  0  0  0  0  0  0  0  0  0  0
    0.1985   -1.4414    0.0000 C   0  0  0  0  0  0  0  0  0  0  0  0
   -0.3536   -0.8283    0.0000 C   0  0  0  0  0  0  0  0  0  0  0  0
   -1.1605   -0.9999    0.0000 O   0  0  0  0  0  0  0  0  0  0  0  0
   -0.0986   -0.0437    0.0000 C   0  0  0  0  0  0  0  0  0  0  0  0
    0.7083    0.1278    0.0000 C   0  0  0  0  0  0  0  0  0  0  0  0
    0.9633    0.9124    0.0000 C   0  0  0  0  0  0  0  0  0  0  0  0
    0.4112    1.5255    0.0000 C   0  0  0  0  0  0  0  0  0  0  0  0
   -0.3957    1.3540    0.0000 C   0  0  0  0  0  0  0  0  0  0  0  0
   -0.6507    0.5694    0.0000 C   0  0  0  0  0  0  0  0  0  0  0  0
    0.6662    2.3101    0.0000 N   0  0  0  0  0  0  0  0  0  0  0  0
    1.4732    2.4817    0.0000 S   0  0  0  0  0  0  0  0  0  0  0  0
    2.0252    1.8686    0.0000 O   0  0  0  0  0  0  0  0  0  0  0  0
    1.7281    3.2663    0.0000 O   0  0  0  0  0  0  0  0  0  0  0  0
    2.2700    2.6952    0.0000 C   0  0  0  0  0  0  0  0  0  0  0  0
    2.9845    2.2827    0.0000 C   0  0  0  0  0  0  0  0  0  0  0  0
    0.0828    2.8935    0.0000 S   0  0  0  0  0  0  0  0  0  0  0  0
    0.0828    3.7185    0.0000 O   0  0  0  0  0  0  0  0  0  0  0  0
   -0.4602    2.0966    0.0000 O   0  0  0  0  0  0  0  0  0  0  0  0
   -0.7422    2.8935    0.0000 C   0  0  0  0  0  0  0  0  0  0  0  0
   -1.1547    3.6080    0.0000 C   0  0  0  0  0  0  0  0  0  0  0  0
   -2.9845   -2.0685    0.0000 Cl  0  0  0  0  0  0  0  0  0  0  0  0
  1  2  2  0      
  2  3  1  0      
  3  4  2  0      
  4  5  1  0      
  5  6  2  0      
  6  1  1  0      
  4  7  1  0      
  7  8  1  0      
  8  9  1  0      
  9  5  1  0      
  8 10  2  0      
  9 11  2  0      
 11 12  1  0      
 12 13  2  0      
 12 14  1  0      
 14 15  2  0      
 15 16  1  0      
 16 17  2  0      
 17 18  1  0      
 18 19  2  0      
 19 14  1  0      
 17 20  1  0      
 20 21  1  0      
 21 22  2  0      
 21 23  2  0      
 21 24  1  0      
 24 25  1  0      
 20 26  1  0      
 26 27  2  0      
 26 28  2  0      
 26 29  1  0      
 29 30  1  0      
  1 31  1  0      
M  END
