MCSJ25_0005.mol
  ChemDraw04192412152D

 70 76  0  0  1  0  0  0  0  0999 V2000
   -6.8833    4.8146    0.0000 C   0  0  0  0  0  0  0  0  0  0  0  0
   -6.6293    4.0331    0.0000 C   0  0  0  0  0  0  0  0  0  0  0  0
   -5.8256    3.8623    0.0000 C   0  0  0  0  0  0  0  0  0  0  0  0
   -5.2758    4.4729    0.0000 C   0  0  0  0  0  0  0  0  0  0  0  0
   -5.5297    5.2544    0.0000 C   0  0  0  0  0  0  0  0  0  0  0  0
   -6.3334    5.4252    0.0000 C   0  0  0  0  0  0  0  0  0  0  0  0
   -5.4148    3.1507    0.0000 N   0  0  0  0  0  0  0  0  0  0  0  0
   -4.6111    3.3215    0.0000 C   0  0  0  0  0  0  0  0  0  0  0  0
   -4.5252    4.1387    0.0000 C   0  0  0  0  0  0  0  0  0  0  0  0
   -4.0005    2.7717    0.0000 C   0  0  0  0  0  0  0  0  0  0  0  0
   -5.7490    2.4001    0.0000 C   0  0  0  0  0  0  0  0  0  0  0  0
   -5.2660    1.7353    0.0000 C   0  0  0  0  0  0  0  0  0  0  0  0
   -6.5662    2.3142    0.0000 O   0  0  0  0  0  0  0  0  0  0  0  0
   -5.6002    0.9847    0.0000 C   0  0  0  0  0  0  0  0  0  0  0  0
   -5.1173    0.3199    0.0000 C   0  0  0  0  0  0  0  0  0  0  0  0
   -4.3001    0.4058    0.0000 C   0  0  0  0  0  0  0  0  0  0  0  0
   -3.9659    1.1565    0.0000 C   0  0  0  0  0  0  0  0  0  0  0  0
   -4.4489    1.8212    0.0000 C   0  0  0  0  0  0  0  0  0  0  0  0
   -3.8171   -0.2589    0.0000 Cl  0  0  0  0  0  0  0  0  0  0  0  0
   -3.8136    4.5495    0.0000 C   0  0  0  0  0  0  0  0  0  0  0  0
   -3.1020    4.1387    0.0000 C   0  0  0  0  0  0  0  0  0  0  0  0
   -2.3904    4.5495    0.0000 N   0  0  0  0  0  0  0  0  0  0  0  0
   -3.1020    3.3170    0.0000 O   0  0  0  0  0  0  0  0  0  0  0  0
   -1.6788    4.1387    0.0000 C   0  0  0  0  0  0  0  0  0  0  0  0
   -0.9672    4.5495    0.0000 C   0  0  0  0  0  0  0  0  0  0  0  0
   -0.2557    4.1387    0.0000 N   0  0  0  0  0  0  0  0  0  0  0  0
    1.1675    4.1387    0.0000 C   0  0  0  0  0  0  0  0  0  0  0  0
   -6.5874    6.2067    0.0000 O   0  0  0  0  0  0  0  0  0  0  0  0
   -6.0376    6.8173    0.0000 C   0  0  0  0  0  0  0  0  0  0  0  0
   -0.2557    3.3170    0.0000 C   0  0  0  0  0  0  0  0  0  0  0  0
    0.4559    2.9062    0.0000 C   0  0  0  0  0  0  0  0  0  0  0  0
    1.1675    3.3170    0.0000 N   0  0  0  0  0  0  0  0  0  0  0  0
    0.4559    4.5495    0.0000 C   0  0  0  0  0  0  0  0  0  0  0  0
    1.8791    2.9062    0.0000 C   0  0  0  0  0  0  0  0  0  0  0  0
    2.5907    3.3170    0.0000 C   0  0  0  0  0  0  0  0  0  0  0  0
    1.8791    2.0845    0.0000 O   0  0  0  0  0  0  0  0  0  0  0  0
    4.7255    2.9062    0.0000 N   0  0  0  0  0  0  0  0  0  0  0  0
    4.7255    2.0845    0.0000 C   0  0  0  0  0  0  0  0  0  0  0  0
    5.4370    1.6737    0.0000 C   0  0  0  0  0  0  0  0  0  0  0  0
    4.0139    1.6737    0.0000 C   0  0  0  0  0  0  0  0  0  0  0  0
    5.4370    0.8520    0.0000 C   0  0  0  0  0  0  0  0  0  0  0  0
    6.1486    2.0845    0.0000 O   0  0  0  0  0  0  0  0  0  0  0  0
    3.3023    1.2629    0.0000 C   0  0  0  0  0  0  0  0  0  0  0  0
    3.3023    2.0845    0.0000 C   0  0  0  0  0  0  0  0  0  0  0  0
    4.0139    0.8520    0.0000 C   0  0  0  0  0  0  0  0  0  0  0  0
    6.1018    0.3691    0.0000 C   0  0  0  0  0  0  0  0  0  0  0  0
    5.8479   -0.4124    0.0000 C   0  0  0  0  0  0  0  0  0  0  0  0
    5.0262   -0.4124    0.0000 C   0  0  0  0  0  0  0  0  0  0  0  0
    4.7723    0.3691    0.0000 N   0  0  0  0  0  0  0  0  0  0  0  0
    6.8833    0.6230    0.0000 O   0  0  0  0  0  0  0  0  0  0  0  0
    4.5432   -1.0771    0.0000 C   0  0  0  0  0  0  0  0  0  0  0  0
    3.7261   -0.9913    0.0000 O   0  0  0  0  0  0  0  0  0  0  0  0
    4.8775   -1.8278    0.0000 N   0  0  0  0  0  0  0  0  0  0  0  0
    4.3945   -2.4925    0.0000 C   0  0  0  0  0  0  0  0  0  0  0  0
    3.5773   -2.4066    0.0000 C   0  0  0  0  0  0  0  0  0  0  0  0
    4.7287   -3.2432    0.0000 C   0  0  0  0  0  0  0  0  0  0  0  0
    5.5459   -3.3291    0.0000 C   0  0  0  0  0  0  0  0  0  0  0  0
    5.8801   -4.0797    0.0000 C   0  0  0  0  0  0  0  0  0  0  0  0
    5.3971   -4.7444    0.0000 C   0  0  0  0  0  0  0  0  0  0  0  0
    4.5799   -4.6585    0.0000 C   0  0  0  0  0  0  0  0  0  0  0  0
    4.2457   -3.9079    0.0000 C   0  0  0  0  0  0  0  0  0  0  0  0
    5.7313   -5.4951    0.0000 C   0  0  0  0  0  0  0  0  0  0  0  0
    6.5350   -5.6659    0.0000 S   0  0  0  0  0  0  0  0  0  0  0  0
    6.6209   -6.4831    0.0000 C   0  0  0  0  0  0  0  0  0  0  0  0
    5.8703   -6.8173    0.0000 N   0  0  0  0  0  0  0  0  0  0  0  0
    5.3205   -6.2067    0.0000 C   0  0  0  0  0  0  0  0  0  0  0  0
    3.3023    2.9062    0.0000 C   0  0  0  0  0  0  0  0  0  0  0  0
    4.0139    3.3170    0.0000 C   0  0  0  0  0  0  0  0  0  0  0  0
    4.0139    4.1387    0.0000 O   0  0  0  0  0  0  0  0  0  0  0  0
    4.5000   -6.2929    0.0000 C   0  0  0  0  0  0  0  0  0  0  0  0
  1  2  2  0      
  2  3  1  0      
  3  4  2  0      
  4  5  1  0      
  5  6  2  0      
  6  1  1  0      
  3  7  1  0      
  7  8  1  0      
  8  9  2  0      
  9  4  1  0      
  8 10  1  0      
  7 11  1  0      
 11 12  1  0      
 11 13  2  0      
 12 14  2  0      
 14 15  1  0      
 15 16  2  0      
 16 17  1  0      
 17 18  2  0      
 18 12  1  0      
 16 19  1  0      
  9 20  1  0      
 20 21  1  0      
 21 22  1  0      
 21 23  2  0      
 22 24  1  0      
 24 25  1  0      
 25 26  1  0      
  6 28  1  0      
 28 29  1  0      
 26 30  1  0      
 30 31  1  0      
 31 32  1  0      
 32 27  1  0      
 27 33  1  0      
 33 26  1  0      
 34 35  1  0      
 34 36  2  0      
 32 34  1  0      
 38 37  1  6      
 38 39  1  0      
 38 40  1  0      
 39 41  1  0      
 39 42  2  0      
 40 43  1  0      
 40 44  1  0      
 40 45  1  0      
 41 46  1  0      
 46 47  1  0      
 47 48  1  0      
 48 49  1  0      
 49 41  1  0      
 46 50  1  6      
 48 51  1  1      
 51 52  2  0      
 51 53  1  0      
 53 54  1  0      
 54 55  1  6      
 56 57  2  0      
 57 58  1  0      
 58 59  2  0      
 59 60  1  0      
 60 61  2  0      
 61 56  1  0      
 59 62  1  0      
 62 63  1  0      
 63 64  1  0      
 64 65  2  0      
 65 66  1  0      
 66 62  2  0      
 54 56  1  0      
 35 67  1  0      
 67 68  1  0      
 68 37  1  0      
 68 69  2  0      
 66 70  1  0      
M  END
