MCSJ25_0079.mol
  ChemDraw04192414332D

 24 26  0  0  0  0  0  0  0  0999 V2000
   -2.2700   -2.2549    0.0000 C   0  0  0  0  0  0  0  0  0  0  0  0
   -2.2700   -3.0799    0.0000 C   0  0  0  0  0  0  0  0  0  0  0  0
   -1.5556   -3.4924    0.0000 C   0  0  0  0  0  0  0  0  0  0  0  0
   -0.8411   -3.0799    0.0000 C   0  0  0  0  0  0  0  0  0  0  0  0
   -0.8411   -2.2549    0.0000 C   0  0  0  0  0  0  0  0  0  0  0  0
   -1.5556   -1.8424    0.0000 C   0  0  0  0  0  0  0  0  0  0  0  0
   -0.0565   -3.3348    0.0000 N   0  0  0  0  0  0  0  0  0  0  0  0
    0.4284   -2.6674    0.0000 C   0  0  0  0  0  0  0  0  0  0  0  0
   -0.0565   -2.0000    0.0000 C   0  0  0  0  0  0  0  0  0  0  0  0
    1.2534   -2.6674    0.0000 O   0  0  0  0  0  0  0  0  0  0  0  0
    0.1985   -1.2153    0.0000 C   0  0  0  0  0  0  0  0  0  0  0  0
   -0.3536   -0.6022    0.0000 C   0  0  0  0  0  0  0  0  0  0  0  0
   -1.1605   -0.7738    0.0000 O   0  0  0  0  0  0  0  0  0  0  0  0
   -0.0986    0.1824    0.0000 C   0  0  0  0  0  0  0  0  0  0  0  0
    0.7083    0.3539    0.0000 C   0  0  0  0  0  0  0  0  0  0  0  0
    0.9633    1.1385    0.0000 C   0  0  0  0  0  0  0  0  0  0  0  0
    0.4112    1.7516    0.0000 C   0  0  0  0  0  0  0  0  0  0  0  0
   -0.3957    1.5801    0.0000 C   0  0  0  0  0  0  0  0  0  0  0  0
   -0.6507    0.7955    0.0000 C   0  0  0  0  0  0  0  0  0  0  0  0
    0.6662    2.5362    0.0000 O   0  0  0  0  0  0  0  0  0  0  0  0
    1.4732    2.7078    0.0000 S   0  0  0  0  0  0  0  0  0  0  0  0
    2.0252    2.0947    0.0000 O   0  0  0  0  0  0  0  0  0  0  0  0
    1.7281    3.4924    0.0000 O   0  0  0  0  0  0  0  0  0  0  0  0
    2.2700    2.9213    0.0000 C   0  0  0  0  0  0  0  0  0  0  0  0
  1  2  2  0      
  2  3  1  0      
  3  4  2  0      
  4  5  1  0      
  5  6  2  0      
  6  1  1  0      
  4  7  1  0      
  7  8  1  0      
  8  9  1  0      
  9  5  1  0      
  8 10  2  0      
  9 11  2  0      
 11 12  1  0      
 12 13  2  0      
 12 14  1  0      
 14 15  2  0      
 15 16  1  0      
 16 17  2  0      
 17 18  1  0      
 18 19  2  0      
 19 14  1  0      
 17 20  1  0      
 20 21  1  0      
 21 22  2  0      
 21 23  2  0      
 21 24  1  0      
M  END
