MCSJ25_0007.mol
  ChemDraw04192412242D

 13 14  0  0  0  0  0  0  0  0999 V2000
   -1.7617    0.6187    0.0000 C   0  0  0  0  0  0  0  0  0  0  0  0
   -1.7617   -0.2063    0.0000 C   0  0  0  0  0  0  0  0  0  0  0  0
   -1.0473   -0.6188    0.0000 C   0  0  0  0  0  0  0  0  0  0  0  0
   -0.3328   -0.2063    0.0000 C   0  0  0  0  0  0  0  0  0  0  0  0
   -0.3328    0.6187    0.0000 C   0  0  0  0  0  0  0  0  0  0  0  0
   -1.0473    1.0312    0.0000 C   0  0  0  0  0  0  0  0  0  0  0  0
    0.4518   -0.4612    0.0000 N   0  0  0  0  0  0  0  0  0  0  0  0
    0.9367    0.2063    0.0000 C   0  0  0  0  0  0  0  0  0  0  0  0
    0.4518    0.8737    0.0000 C   0  0  0  0  0  0  0  0  0  0  0  0
    0.7068   -1.2458    0.0000 C   0  0  0  0  0  0  0  0  0  0  0  0
   -0.0077   -1.6583    0.0000 O   0  0  0  0  0  0  0  0  0  0  0  0
    1.7617    0.2063    0.0000 O   0  0  0  0  0  0  0  0  0  0  0  0
    0.7068    1.6583    0.0000 O   0  0  0  0  0  0  0  0  0  0  0  0
  1  2  2  0      
  2  3  1  0      
  3  4  2  0      
  4  5  1  0      
  5  6  2  0      
  6  1  1  0      
  4  7  1  0      
  7  8  1  0      
  8  9  1  0      
  9  5  1  0      
  7 10  1  0      
 10 11  1  0      
  8 12  2  0      
  9 13  2  0      
M  END
