SA12_0002.mol
  ChemDraw05222414192D

 38 40  0  0  0  0  0  0  0  0999 V2000
   -3.2151   -1.0504    0.0000 C   0  0  0  0  0  0  0  0  0  0  0  0
   -3.2151   -1.8754    0.0000 C   0  0  0  0  0  0  0  0  0  0  0  0
   -2.5006   -2.2879    0.0000 C   0  0  0  0  0  0  0  0  0  0  0  0
   -1.7862   -1.8754    0.0000 C   0  0  0  0  0  0  0  0  0  0  0  0
   -1.7862   -1.0504    0.0000 C   0  0  0  0  0  0  0  0  0  0  0  0
   -2.5006   -0.6379    0.0000 C   0  0  0  0  0  0  0  0  0  0  0  0
   -1.0717   -2.2879    0.0000 O   0  0  0  0  0  0  0  0  0  0  0  0
   -0.3572   -1.8754    0.0000 C   0  0  0  0  0  0  0  0  0  0  0  0
   -0.3572   -1.0504    0.0000 C   0  0  0  0  0  0  0  0  0  0  0  0
   -1.0717   -0.6379    0.0000 C   0  0  0  0  0  0  0  0  0  0  0  0
    0.3572   -2.2879    0.0000 C   0  0  0  0  0  0  0  0  0  0  0  0
    1.0717   -1.8754    0.0000 C   0  0  0  0  0  0  0  0  0  0  0  0
    1.0717   -1.0504    0.0000 C   0  0  0  0  0  0  0  0  0  0  0  0
    0.3572   -0.6379    0.0000 C   0  0  0  0  0  0  0  0  0  0  0  0
   -1.0717    0.6379    0.0000 C   0  0  0  0  0  0  0  0  0  0  0  0
   -0.3572    1.0504    0.0000 C   0  0  0  0  0  0  0  0  0  0  0  0
   -0.3572    1.8754    0.0000 C   0  0  0  0  0  0  0  0  0  0  0  0
   -1.0717    2.2879    0.0000 C   0  0  0  0  0  0  0  0  0  0  0  0
   -1.7862    1.8754    0.0000 C   0  0  0  0  0  0  0  0  0  0  0  0
   -1.7862    1.0504    0.0000 C   0  0  0  0  0  0  0  0  0  0  0  0
    0.3572    0.6379    0.0000 C   0  0  0  0  0  0  0  0  0  0  0  0
    1.0717    1.0504    0.0000 O   0  0  0  0  0  0  0  0  0  0  0  0
    0.3572   -0.1871    0.0000 O   0  0  0  0  0  0  0  0  0  0  0  0
    0.3572    2.2879    0.0000 Cl  0  0  0  0  0  0  0  0  0  0  0  0
   -1.0717    3.1129    0.0000 Cl  0  0  0  0  0  0  0  0  0  0  0  0
   -2.5006    2.2879    0.0000 Cl  0  0  0  0  0  0  0  0  0  0  0  0
   -2.5006    0.6379    0.0000 Cl  0  0  0  0  0  0  0  0  0  0  0  0
   -3.9296   -0.6379    0.0000 I   0  0  0  0  0  0  0  0  0  0  0  0
   -3.9296   -2.2879    0.0000 O   0  0  0  0  0  0  0  0  0  0  0  0
   -2.5006   -3.1129    0.0000 I   0  0  0  0  0  0  0  0  0  0  0  0
    0.3572   -3.1129    0.0000 I   0  0  0  0  0  0  0  0  0  0  0  0
    1.7862   -0.6379    0.0000 I   0  0  0  0  0  0  0  0  0  0  0  0
    1.7862    0.6379    0.0000 C   0  0  0  0  0  0  0  0  0  0  0  0
    2.5006    1.0504    0.0000 C   0  0  0  0  0  0  0  0  0  0  0  0
    3.2151    0.6379    0.0000 C   0  0  0  0  0  0  0  0  0  0  0  0
    3.9296    1.0504    0.0000 C   0  0  0  0  0  0  0  0  0  0  0  0
    1.7862   -2.2879    0.0000 O   0  5  0  0  0  0  0  0  0  0  0  0
    2.4978   -1.8771    0.0000 Na  0  3  0  0  0  0  0  0  0  0  0  0
 12 37  1  0      
  1  2  1  0      
  2  3  1  0      
  3  4  2  0      
  4  5  1  0      
  5  6  1  0      
  6  1  2  0      
  4  7  1  0      
  7  8  1  0      
  8  9  2  0      
  9 10  1  0      
 10  5  2  0      
  8 11  1  0      
 11 12  2  0      
 12 13  1  0      
 13 14  2  0      
 14  9  1  0      
 15 16  2  0      
 16 17  1  0      
 17 18  2  0      
 18 19  1  0      
 19 20  2  0      
 20 15  1  0      
 16 21  1  0      
 10 15  1  0      
 21 22  1  0      
 21 23  2  0      
 17 24  1  0      
 18 25  1  0      
 19 26  1  0      
 20 27  1  0      
  1 28  1  0      
  2 29  2  0      
  3 30  1  0      
 11 31  1  0      
 13 32  1  0      
 22 33  1  0      
 33 34  1  0      
 34 35  1  0      
 35 36  1  0      
M  CHG  2  37  -1  38   1
M  STY  1   1 SUP
M  SLB  1   1   1
M  SAL   1  2  37  38
M  SBL   1  1   1
M  SMT   1 O\S-\nNa\S+
M  SBV   1   1   -0.7145    0.4125
M  END
