SA1_0007.mol
  ChemDraw02172415322D

 18 22  0  0  0  0  0  0  0  0999 V2000
   -0.7099   -0.4125    0.0000 C   0  0  0  0  0  0  0  0  0  0  0  0
    0.0046   -0.8250    0.0000 C   0  0  0  0  0  0  0  0  0  0  0  0
    0.7190   -0.4125    0.0000 C   0  0  0  0  0  0  0  0  0  0  0  0
    0.7190    0.4125    0.0000 C   0  0  0  0  0  0  0  0  0  0  0  0
    0.0046    0.8250    0.0000 C   0  0  0  0  0  0  0  0  0  0  0  0
   -0.7099    0.4125    0.0000 C   0  0  0  0  0  0  0  0  0  0  0  0
    0.0046    1.6500    0.0000 O   0  0  0  0  0  0  0  0  0  0  0  0
    0.0046   -1.6500    0.0000 O   0  0  0  0  0  0  0  0  0  0  0  0
    1.5036   -0.6674    0.0000 C   0  0  0  0  0  0  0  0  0  0  0  0
    1.9886    0.0000    0.0000 C   0  0  0  0  0  0  0  0  0  0  0  0
    1.5036    0.6674    0.0000 C   0  0  0  0  0  0  0  0  0  0  0  0
   -2.3005    0.3889    0.0000 C   0  0  0  0  0  0  0  0  0  0  0  0
   -2.3005   -0.4361    0.0000 C   0  0  0  0  0  0  0  0  0  0  0  0
   -1.5159   -0.6911    0.0000 C   0  0  0  0  0  0  0  0  0  0  0  0
   -1.0310   -0.0236    0.0000 C   0  0  0  0  0  0  0  0  0  0  0  0
   -1.5159    0.6438    0.0000 C   0  0  0  0  0  0  0  0  0  0  0  0
    2.3005   -0.4539    0.0000 C   0  0  0  0  0  0  0  0  0  0  0  0
    2.3005    0.4539    0.0000 C   0  0  0  0  0  0  0  0  0  0  0  0
  1  2  1  0      
  2  3  1  0      
  3  4  1  0      
  4  5  1  0      
  5  6  1  0      
  6  1  1  0      
  5  7  2  0      
  2  8  2  0      
  3  9  1  0      
  9 10  1  0      
 10 11  1  0      
 11  4  1  0      
 12 13  2  0      
 13 14  1  0      
 14 15  1  0      
 15 16  1  0      
 16 12  1  0      
 14  1  1  0      
 16  6  1  0      
  9 17  1  0      
 11 18  1  0      
 18 17  2  0      
M  END
