SA21_0002.mol
  ChemDraw05232411092D

 15 16  0  0  0  0  0  0  0  0999 V2000
   -0.0934   -0.7733    0.0000 C   0  0  0  0  0  0  0  0  0  0  0  0
   -0.8903   -0.9868    0.0000 C   0  0  0  0  0  0  0  0  0  0  0  0
   -1.1038   -1.7837    0.0000 C   0  0  0  0  0  0  0  0  0  0  0  0
   -0.5205   -2.3671    0.0000 C   0  0  0  0  0  0  0  0  0  0  0  0
    0.2764   -2.1535    0.0000 N   0  0  0  0  0  0  0  0  0  0  0  0
    0.4899   -1.3567    0.0000 C   0  0  0  0  0  0  0  0  0  0  0  0
   -1.9007   -1.9972    0.0000 Cl  0  0  0  0  0  0  0  0  0  0  0  0
    0.1201    0.0236    0.0000 O   0  0  0  0  0  0  0  0  0  0  0  0
    0.9170    0.2371    0.0000 C   0  0  0  0  0  0  0  0  0  0  0  0
    1.5004   -0.3462    0.0000 O   0  0  0  0  0  0  0  0  0  0  0  0
    1.1305    1.0340    0.0000 C   0  0  0  0  0  0  0  0  0  0  0  0
    1.9007    1.3297    0.0000 C   0  0  0  0  0  0  0  0  0  0  0  0
    1.8575    2.1535    0.0000 C   0  0  0  0  0  0  0  0  0  0  0  0
    1.0607    2.3671    0.0000 C   0  0  0  0  0  0  0  0  0  0  0  0
    0.6113    1.6752    0.0000 S   0  0  0  0  0  0  0  0  0  0  0  0
  1  2  2  0      
  2  3  1  0      
  3  4  2  0      
  4  5  1  0      
  5  6  2  0      
  6  1  1  0      
  3  7  1  0      
  1  8  1  0      
  8  9  1  0      
  9 10  2  0      
  9 11  1  0      
 11 12  2  0      
 12 13  1  0      
 13 14  2  0      
 14 15  1  0      
 15 11  1  0      
M  END
