SA21_0007.mol
  ChemDraw05232412562D

 29 33  0  0  0  0  0  0  0  0999 V2000
   -3.7249   -0.9193    0.0000 C   0  0  0  0  0  0  0  0  0  0  0  0
   -3.7249   -1.7443    0.0000 C   0  0  0  0  0  0  0  0  0  0  0  0
   -3.0104   -2.1568    0.0000 C   0  0  0  0  0  0  0  0  0  0  0  0
   -2.2959   -1.7443    0.0000 C   0  0  0  0  0  0  0  0  0  0  0  0
   -2.2959   -0.9193    0.0000 N   0  0  0  0  0  0  0  0  0  0  0  0
   -3.0104   -0.5068    0.0000 C   0  0  0  0  0  0  0  0  0  0  0  0
   -1.5814   -2.1568    0.0000 N   0  0  0  0  0  0  0  0  0  0  0  0
   -0.8670   -1.7443    0.0000 C   0  0  0  0  0  0  0  0  0  0  0  0
   -0.8670   -0.9193    0.0000 C   0  0  0  0  0  0  0  0  0  0  0  0
   -1.5814   -0.5068    0.0000 C   0  0  0  0  0  0  0  0  0  0  0  0
   -0.0824   -1.9992    0.0000 N   0  0  0  0  0  0  0  0  0  0  0  0
    0.4026   -1.3318    0.0000 C   0  0  0  0  0  0  0  0  0  0  0  0
   -0.0824   -0.6643    0.0000 C   0  0  0  0  0  0  0  0  0  0  0  0
    1.2276   -1.3318    0.0000 C   0  0  0  0  0  0  0  0  0  0  0  0
    1.6401   -0.6173    0.0000 N   0  0  0  0  0  0  0  0  0  0  0  0
    1.6401   -2.0462    0.0000 O   0  0  0  0  0  0  0  0  0  0  0  0
   -1.5814    0.3182    0.0000 O   0  0  0  0  0  0  0  0  0  0  0  0
   -3.0104   -2.9818    0.0000 H   0  0  0  0  0  0  0  0  0  0  0  0
    0.1726   -2.7838    0.0000 C   0  0  0  0  0  0  0  0  0  0  0  0
    3.6997    2.2747    0.0000 O   0  0  0  0  0  0  0  0  0  0  0  0
    3.2998    1.5530    0.0000 C   0  0  0  0  0  0  0  0  0  0  0  0
    2.4750    1.5385    0.0000 C   0  0  0  0  0  0  0  0  0  0  0  0
    2.0499    2.2456    0.0000 O   0  0  0  0  0  0  0  0  0  0  0  0
    2.4498    2.9672    0.0000 C   0  0  0  0  0  0  0  0  0  0  0  0
    3.2747    2.9818    0.0000 C   0  0  0  0  0  0  0  0  0  0  0  0
    2.0751    0.8169    0.0000 C   0  0  0  0  0  0  0  0  0  0  0  0
    2.5001    0.1098    0.0000 C   0  0  0  0  0  0  0  0  0  0  0  0
    3.3250    0.1243    0.0000 C   0  0  0  0  0  0  0  0  0  0  0  0
    3.7249    0.8460    0.0000 C   0  0  0  0  0  0  0  0  0  0  0  0
  1  2  1  0      
  2  3  2  0      
  3  4  1  0      
  4  5  1  0      
  5  6  1  0      
  6  1  2  0      
  4  7  2  0      
  7  8  1  0      
  8  9  2  0      
  9 10  1  0      
 10  5  1  0      
  8 11  1  0      
 11 12  1  0      
 12 13  2  0      
 13  9  1  0      
 12 14  1  0      
 14 15  1  0      
 14 16  2  0      
 10 17  2  0      
  3 18  1  0      
 11 19  1  0      
 20 21  1  0      
 21 22  1  0      
 22 23  1  0      
 23 24  1  0      
 24 25  1  0      
 20 25  1  0      
 26 27  1  0      
 27 28  2  0      
 28 29  1  0      
 29 21  2  0      
 26 22  2  0      
 15 27  1  0      
M  END
