SA2_0001.mol
  ChemDraw05212415352D

 26 30  0  0  0  0  0  0  0  0999 V2000
   -0.3847    0.5720    0.0000 C   0  0  0  0  0  0  0  0  0  0  0  0
   -0.3847   -0.2530    0.0000 C   0  0  0  0  0  0  0  0  0  0  0  0
    0.3999   -0.5079    0.0000 N   0  0  0  0  0  0  0  0  0  0  0  0
    0.8848    0.1595    0.0000 C   0  0  0  0  0  0  0  0  0  0  0  0
    0.3999    0.8269    0.0000 C   0  0  0  0  0  0  0  0  0  0  0  0
    1.7053    0.2457    0.0000 N   0  0  0  0  0  0  0  0  0  0  0  0
    2.0408    0.9994    0.0000 C   0  0  0  0  0  0  0  0  0  0  0  0
    1.5559    1.6669    0.0000 N   0  0  0  0  0  0  0  0  0  0  0  0
    0.7354    1.5806    0.0000 C   0  0  0  0  0  0  0  0  0  0  0  0
    1.7274    2.4738    0.0000 C   0  0  0  0  0  0  0  0  0  0  0  0
    1.0130    2.8863    0.0000 N   0  0  0  0  0  0  0  0  0  0  0  0
    0.3999    2.3343    0.0000 N   0  0  0  0  0  0  0  0  0  0  0  0
    2.4811    2.8094    0.0000 H   0  0  0  0  0  0  0  0  0  0  0  0
   -1.0522    1.0569    0.0000 C   0  0  0  0  0  0  0  0  0  0  0  0
   -1.0522    1.8819    0.0000 C   0  0  0  0  0  0  0  0  0  0  0  0
   -1.7667    2.2944    0.0000 C   0  0  0  0  0  0  0  0  0  0  0  0
   -2.4811    1.8819    0.0000 C   0  0  0  0  0  0  0  0  0  0  0  0
   -2.4811    1.0569    0.0000 C   0  0  0  0  0  0  0  0  0  0  0  0
   -1.7667    0.6444    0.0000 C   0  0  0  0  0  0  0  0  0  0  0  0
    0.6548   -1.2926    0.0000 C   0  0  0  0  0  0  0  0  0  0  0  0
    0.0715   -1.8759    0.0000 C   0  0  0  0  0  0  0  0  0  0  0  0
    0.2850   -2.6728    0.0000 C   0  0  0  0  0  0  0  0  0  0  0  0
    1.0819   -2.8863    0.0000 C   0  0  0  0  0  0  0  0  0  0  0  0
    1.6652   -2.3030    0.0000 C   0  0  0  0  0  0  0  0  0  0  0  0
    1.4517   -1.5061    0.0000 C   0  0  0  0  0  0  0  0  0  0  0  0
    2.4621   -2.5165    0.0000 Cl  0  0  0  0  0  0  0  0  0  0  0  0
  1  2  2  0      
  2  3  1  0      
  3  4  1  0      
  4  5  2  0      
  5  1  1  0      
  4  6  1  0      
  6  7  2  0      
  7  8  1  0      
  8  9  1  0      
  9  5  1  0      
  8 10  1  0      
 10 11  2  0      
 11 12  1  0      
 12  9  2  0      
 10 13  1  0      
  1 14  1  0      
 14 15  2  0      
 15 16  1  0      
 16 17  2  0      
 17 18  1  0      
 18 19  2  0      
 19 14  1  0      
  3 20  1  0      
 20 21  2  0      
 21 22  1  0      
 22 23  2  0      
 23 24  1  0      
 24 25  2  0      
 25 20  1  0      
 24 26  1  0      
M  END
