SA37_0006.mol
  ChemDraw05232416242D

 28 31  0  0  0  0  0  0  0  0999 V2000
    0.0000    0.6188    0.0000 C   0  0  0  0  0  0  0  0  0  0  0  0
    0.0000   -0.2062    0.0000 C   0  0  0  0  0  0  0  0  0  0  0  0
    0.7145   -0.6188    0.0000 C   0  0  0  0  0  0  0  0  0  0  0  0
    1.4289   -0.2062    0.0000 C   0  0  0  0  0  0  0  0  0  0  0  0
    1.4289    0.6188    0.0000 C   0  0  0  0  0  0  0  0  0  0  0  0
    0.7145    1.0312    0.0000 C   0  0  0  0  0  0  0  0  0  0  0  0
    2.1434   -0.6188    0.0000 O   0  0  0  0  0  0  0  0  0  0  0  0
    2.8579   -0.2062    0.0000 C   0  0  0  0  0  0  0  0  0  0  0  0
    2.8579    0.6188    0.0000 C   0  0  0  0  0  0  0  0  0  0  0  0
    2.1434    1.0312    0.0000 C   0  0  0  0  0  0  0  0  0  0  0  0
   -0.7145   -0.6188    0.0000 O   0  0  0  0  0  0  0  0  0  0  0  0
    0.7145    1.8562    0.0000 O   0  0  0  0  0  0  0  0  0  0  0  0
    2.1434    1.8562    0.0000 O   0  0  0  0  0  0  0  0  0  0  0  0
    3.5724   -0.6188    0.0000 C   0  0  0  0  0  0  0  0  0  0  0  0
    3.5724   -1.4437    0.0000 C   0  0  0  0  0  0  0  0  0  0  0  0
    4.2868   -1.8562    0.0000 C   0  0  0  0  0  0  0  0  0  0  0  0
    5.0013   -1.4437    0.0000 C   0  0  0  0  0  0  0  0  0  0  0  0
    5.0013   -0.6188    0.0000 C   0  0  0  0  0  0  0  0  0  0  0  0
    4.2868   -0.2062    0.0000 C   0  0  0  0  0  0  0  0  0  0  0  0
   -1.4289   -0.2062    0.0000 C   0  0  0  0  0  0  0  0  0  0  0  0
   -2.1434   -0.6188    0.0000 C   0  0  0  0  0  0  0  0  0  0  0  0
   -2.8579   -0.2062    0.0000 Te  0  0  0  0  0  0  0  0  0  0  0  0
   -3.5724   -0.6188    0.0000 C   0  0  0  0  0  0  0  0  0  0  0  0
   -4.2868   -0.2062    0.0000 C   0  0  0  0  0  0  0  0  0  0  0  0
   -5.0013   -0.6188    0.0000 C   0  0  0  0  0  0  0  0  0  0  0  0
   -5.0013   -1.4437    0.0000 C   0  0  0  0  0  0  0  0  0  0  0  0
   -4.2868   -1.8562    0.0000 C   0  0  0  0  0  0  0  0  0  0  0  0
   -3.5724   -1.4437    0.0000 C   0  0  0  0  0  0  0  0  0  0  0  0
  1  2  2  0      
  2  3  1  0      
  3  4  2  0      
  4  5  1  0      
  5  6  2  0      
  6  1  1  0      
  4  7  1  0      
  7  8  1  0      
  8  9  2  0      
  9 10  1  0      
 10  5  1  0      
  2 11  1  0      
  6 12  1  0      
 10 13  2  0      
  8 14  1  0      
 14 15  2  0      
 15 16  1  0      
 16 17  2  0      
 17 18  1  0      
 18 19  2  0      
 19 14  1  0      
 11 20  1  0      
 20 21  1  0      
 21 22  1  0      
 22 23  1  0      
 23 24  2  0      
 24 25  1  0      
 25 26  2  0      
 26 27  1  0      
 27 28  2  0      
 28 23  1  0      
M  END
