SA38_0002.mol
  ChemDraw05232416492D

 25 28  0  0  0  0  0  0  0  0999 V2000
   -2.5006    1.0473    0.0000 C   0  0  0  0  0  0  0  0  0  0  0  0
   -2.5006    0.2223    0.0000 C   0  0  0  0  0  0  0  0  0  0  0  0
   -1.7862   -0.1902    0.0000 C   0  0  0  0  0  0  0  0  0  0  0  0
   -1.0717    0.2223    0.0000 C   0  0  0  0  0  0  0  0  0  0  0  0
   -1.0717    1.0473    0.0000 C   0  0  0  0  0  0  0  0  0  0  0  0
   -1.7862    1.4598    0.0000 N   0  0  0  0  0  0  0  0  0  0  0  0
   -0.3572   -0.1902    0.0000 C   0  0  0  0  0  0  0  0  0  0  0  0
    0.3572    0.2223    0.0000 N   0  0  0  0  0  0  0  0  0  0  0  0
    0.3572    1.0473    0.0000 C   0  0  0  0  0  0  0  0  0  0  0  0
   -0.3572    1.4598    0.0000 N   0  0  0  0  0  0  0  0  0  0  0  0
   -0.3572   -1.0152    0.0000 N   0  0  0  0  0  0  0  0  0  0  0  0
   -1.7862   -1.0152    0.0000 C   0  0  0  0  0  0  0  0  0  0  0  0
   -3.2151    1.4598    0.0000 C   0  0  0  0  0  0  0  0  0  0  0  0
    1.0717    1.4598    0.0000 C   0  0  0  0  0  0  0  0  0  0  0  0
    1.7862    1.0473    0.0000 N   0  0  0  0  0  0  0  0  0  0  0  0
    1.0717    2.2848    0.0000 O   0  0  0  0  0  0  0  0  0  0  0  0
    1.7862    0.2223    0.0000 C   0  0  0  0  0  0  0  0  0  0  0  0
    2.5006   -0.1902    0.0000 C   0  0  0  0  0  0  0  0  0  0  0  0
    3.2151    0.2223    0.0000 C   0  0  0  0  0  0  0  0  0  0  0  0
    3.2151    1.0473    0.0000 C   0  0  0  0  0  0  0  0  0  0  0  0
    2.5006    1.4598    0.0000 C   0  0  0  0  0  0  0  0  0  0  0  0
   -1.0247   -1.5002    0.0000 C   0  0  0  0  0  0  0  0  0  0  0  0
   -0.7697   -2.2848    0.0000 C   0  0  0  0  0  0  0  0  0  0  0  0
    0.0553   -2.2848    0.0000 C   0  0  0  0  0  0  0  0  0  0  0  0
    0.3102   -1.5002    0.0000 C   0  0  0  0  0  0  0  0  0  0  0  0
  1  2  1  0      
  2  3  2  0      
  3  4  1  0      
  4  5  1  0      
  5  6  1  0      
  6  1  2  0      
  4  7  2  0      
  7  8  1  0      
  8  9  2  0      
  9 10  1  0      
 10  5  2  0      
  7 11  1  0      
  3 12  1  0      
  1 13  1  0      
  9 14  1  0      
 14 15  1  0      
 14 16  2  0      
 15 17  1  0      
 17 18  1  0      
 18 19  1  0      
 19 20  1  0      
 20 21  1  0      
 21 15  1  0      
 11 22  1  0      
 22 23  1  0      
 23 24  1  0      
 24 25  1  0      
 25 11  1  0      
M  END
