SA43_0003.mol
  ChemDraw05022412502D

 29 31  0  0  0  0  0  0  0  0999 V2000
   -2.3995   -2.3666    0.0000 C   0  0  0  0  0  0  0  0  0  0  0  0
   -2.3995   -3.1916    0.0000 C   0  0  0  0  0  0  0  0  0  0  0  0
   -1.6851   -3.6041    0.0000 C   0  0  0  0  0  0  0  0  0  0  0  0
   -0.9706   -3.1916    0.0000 C   0  0  0  0  0  0  0  0  0  0  0  0
   -0.9706   -2.3666    0.0000 C   0  0  0  0  0  0  0  0  0  0  0  0
   -1.6851   -1.9541    0.0000 C   0  0  0  0  0  0  0  0  0  0  0  0
   -0.1860   -3.4465    0.0000 N   0  0  0  0  0  0  0  0  0  0  0  0
    0.2989   -2.7791    0.0000 C   0  0  0  0  0  0  0  0  0  0  0  0
   -0.1860   -2.1117    0.0000 C   0  0  0  0  0  0  0  0  0  0  0  0
    0.2265   -1.3972    0.0000 C   0  0  0  0  0  0  0  0  0  0  0  0
   -0.1860   -0.6827    0.0000 C   0  0  0  0  0  0  0  0  0  0  0  0
    0.2265    0.0317    0.0000 C   0  0  0  0  0  0  0  0  0  0  0  0
   -1.0110   -0.6827    0.0000 O   0  0  0  0  0  0  0  0  0  0  0  0
    1.0515    0.0317    0.0000 C   0  0  0  0  0  0  0  0  0  0  0  0
    1.4640    0.7462    0.0000 C   0  0  0  0  0  0  0  0  0  0  0  0
    1.0515    1.4607    0.0000 C   0  0  0  0  0  0  0  0  0  0  0  0
    0.2265    1.4607    0.0000 C   0  0  0  0  0  0  0  0  0  0  0  0
   -0.1860    0.7462    0.0000 C   0  0  0  0  0  0  0  0  0  0  0  0
    1.4640    2.1752    0.0000 N   0  0  0  0  0  0  0  0  0  0  0  0
    1.1239   -2.7791    0.0000 O   0  0  0  0  0  0  0  0  0  0  0  0
   -3.1140   -1.9541    0.0000 H   0  0  0  0  0  0  0  0  0  0  0  0
    1.0515    2.8896    0.0000 S   0  0  0  0  0  0  0  0  0  0  0  0
    2.2890    2.1752    0.0000 S   0  0  0  0  0  0  0  0  0  0  0  0
    2.7015    2.8896    0.0000 O   0  0  0  0  0  0  0  0  0  0  0  0
    2.7015    1.4607    0.0000 O   0  0  0  0  0  0  0  0  0  0  0  0
    3.1140    2.1752    0.0000 C   0  0  0  0  0  0  0  0  0  0  0  0
    1.4640    3.6041    0.0000 O   0  0  0  0  0  0  0  0  0  0  0  0
    0.2265    2.8896    0.0000 O   0  0  0  0  0  0  0  0  0  0  0  0
    1.8765    2.8896    0.0000 C   0  0  0  0  0  0  0  0  0  0  0  0
  1  2  2  0      
  2  3  1  0      
  3  4  2  0      
  4  5  1  0      
  5  6  2  0      
  6  1  1  0      
  4  7  1  0      
  7  8  1  0      
  8  9  1  0      
  9  5  1  0      
  9 10  2  0      
 10 11  1  0      
 11 12  1  0      
 11 13  2  0      
 12 14  2  0      
 14 15  1  0      
 15 16  2  0      
 16 17  1  0      
 17 18  2  0      
 18 12  1  0      
 16 19  1  0      
  8 20  2  0      
  1 21  1  0      
 19 22  1  0      
 19 23  1  0      
 23 24  2  0      
 23 25  2  0      
 23 26  1  0      
 22 27  2  0      
 22 28  2  0      
 22 29  1  0      
M  END
