SA44_0012.mol
  ChemDraw05022413412D

 25 27  0  0  0  0  0  0  0  0999 V2000
   -3.2870    0.3329    0.0000 C   0  0  0  0  0  0  0  0  0  0  0  0
   -2.8745   -0.3816    0.0000 C   0  0  0  0  0  0  0  0  0  0  0  0
   -2.0495   -0.3816    0.0000 C   0  0  0  0  0  0  0  0  0  0  0  0
   -1.6370    0.3329    0.0000 N   0  0  0  0  0  0  0  0  0  0  0  0
   -2.0495    1.0474    0.0000 C   0  0  0  0  0  0  0  0  0  0  0  0
   -2.8745    1.0474    0.0000 N   0  0  0  0  0  0  0  0  0  0  0  0
   -1.4662   -0.9649    0.0000 C   0  0  0  0  0  0  0  0  0  0  0  0
   -1.6797   -1.7618    0.0000 O   0  0  0  0  0  0  0  0  0  0  0  0
   -0.6693   -0.7514    0.0000 N   0  0  0  0  0  0  0  0  0  0  0  0
   -0.0859   -1.3348    0.0000 C   0  0  0  0  0  0  0  0  0  0  0  0
    0.7110   -1.1213    0.0000 C   0  0  0  0  0  0  0  0  0  0  0  0
    0.9245   -0.3244    0.0000 C   0  0  0  0  0  0  0  0  0  0  0  0
    0.3411    0.2590    0.0000 C   0  0  0  0  0  0  0  0  0  0  0  0
   -0.4558    0.0455    0.0000 C   0  0  0  0  0  0  0  0  0  0  0  0
    1.7214   -0.1108    0.0000 C   0  0  0  0  0  0  0  0  0  0  0  0
    2.3047   -0.6942    0.0000 C   0  0  0  0  0  0  0  0  0  0  0  0
    3.1016   -0.4807    0.0000 C   0  0  0  0  0  0  0  0  0  0  0  0
    3.3152    0.3162    0.0000 C   0  0  0  0  0  0  0  0  0  0  0  0
    2.7318    0.8996    0.0000 C   0  0  0  0  0  0  0  0  0  0  0  0
    1.9349    0.6860    0.0000 C   0  0  0  0  0  0  0  0  0  0  0  0
    2.9453    1.6965    0.0000 Cl  0  0  0  0  0  0  0  0  0  0  0  0
    4.1120    0.5297    0.0000 Cl  0  0  0  0  0  0  0  0  0  0  0  0
    3.6850   -1.0640    0.0000 Cl  0  0  0  0  0  0  0  0  0  0  0  0
   -4.1120    0.3329    0.0000 O   0  0  0  0  0  0  0  0  0  0  0  0
   -1.6370    1.7618    0.0000 O   0  0  0  0  0  0  0  0  0  0  0  0
  1  2  1  0      
  2  3  2  0      
  3  4  1  0      
  4  5  1  0      
  5  6  1  0      
  6  1  1  0      
  3  7  1  0      
  7  8  2  0      
  7  9  1  0      
  9 10  1  0      
 10 11  1  0      
 11 12  1  0      
 12 13  1  0      
 13 14  1  0      
 14  9  1  0      
 12 15  1  0      
 15 16  2  0      
 16 17  1  0      
 17 18  2  0      
 18 19  1  0      
 19 20  2  0      
 20 15  1  0      
 19 21  1  0      
 18 22  1  0      
 17 23  1  0      
  1 24  2  0      
  5 25  2  0      
M  END
