SA44_0038.mol
  ChemDraw05022414073D

 27 29  0  0  0  0  0  0  0  0999 V2000
    4.7320    1.1829   -0.7103 C   0  0  0  0  0  0  0  0  0  0  0  0
    6.2345    1.1829   -0.9591 C   0  0  0  0  0  0  0  0  0  0  0  0
    6.9858   -0.1361   -1.0835 C   0  0  0  0  0  0  0  0  0  0  0  0
    6.2345   -1.4550   -0.9591 C   0  0  0  0  0  0  0  0  0  0  0  0
    4.7320   -1.4550   -0.7103 C   0  0  0  0  0  0  0  0  0  0  0  0
    3.9807   -0.1361   -0.5859 C   0  0  0  0  0  0  0  0  0  0  0  0
    2.4782   -0.1361   -0.3371 C   0  0  0  0  0  0  0  0  0  0  0  0
    1.5950   -1.3682   -0.1909 O   0  0  0  0  0  0  0  0  0  0  0  0
    0.1660   -0.8976    0.0457 C   0  0  0  0  0  0  0  0  0  0  0  0
    0.1660    0.6254    0.0457 C   0  0  0  0  0  0  0  0  0  0  0  0
    1.5950    1.0961   -0.1909 C   0  0  0  0  0  0  0  0  0  0  0  0
   -0.8965   -1.9745    0.2217 C   0  0  0  0  0  0  0  0  0  0  0  0
   -2.1977   -1.2130    0.4371 N   0  0  0  0  0  0  0  0  0  0  0  0
   -3.4989   -1.9745    0.6526 N   0  0  0  0  0  0  0  0  0  0  0  0
   -4.8002   -1.2130    0.8680 C   0  0  0  0  0  0  0  0  0  0  0  0
   -6.1014   -1.9745    1.0835 C   0  0  0  0  0  0  0  0  0  0  0  0
   -4.8002    0.3100    0.8680 O   0  0  0  0  0  0  0  0  0  0  0  0
   -7.4964   -1.3632   -0.2043 C   0  0  0  0  0  0  0  0  0  0  0  0
   -8.5088   -2.5010   -0.2043 N   0  0  0  0  0  0  0  0  0  0  0  0
   -7.7395   -3.8155   -0.2043 O   0  0  0  0  0  0  0  0  0  0  0  0
   -6.2517   -3.4901   -0.2043 N   0  0  0  0  0  0  0  0  0  0  0  0
   -7.8218    0.1246   -0.2043 N   0  0  0  0  0  0  0  0  0  0  0  0
    8.5088   -0.1361   -1.0835 C   0  0  0  0  0  0  0  0  0  0  0  0
    6.9999   -2.7718   -0.9591 Cl  0  0  0  0  0  0  0  0  0  0  0  0
    3.9666    2.4996   -0.2043 N   0  3  0  0  0  0  0  0  0  0  0  0
    4.7212    3.8155   -0.2043 O   0  0  0  0  0  0  0  0  0  0  0  0
    2.4498    2.4952   -0.2043 O   0  5  0  0  0  0  0  0  0  0  0  0
 25 26  2  0      
 25 27  1  0      
  1 25  1  0      
  1  2  2  0      
  2  3  1  0      
  3  4  2  0      
  4  5  1  0      
  5  6  2  0      
  6  1  1  0      
  6  7  1  0      
  7  8  1  0      
  8  9  1  0      
  9 10  2  0      
 10 11  1  0      
 11  7  2  0      
  9 12  1  0      
 12 13  2  0      
 13 14  1  0      
 14 15  1  0      
 15 16  1  0      
 15 17  2  0      
 16 18  1  0      
 18 19  2  0      
 19 20  1  0      
 20 21  1  0      
 21 16  2  0      
 18 22  1  0      
  3 23  1  0      
  4 24  1  0      
M  CHG  2  25   1  27  -1
M  STY  1   1 SUP
M  SLB  1   1   1
M  SAL   1  3  25  26  27
M  SBL   1  1   3
M  SMT   1 ^NO2
M  SBV   1   3    0.7653   -1.3167
M  END
