SA44_0030.mol
  ChemDraw05022415262D

 17 18  0  0  0  0  0  0  0  0999 V2000
   -0.1174    0.1717    0.0000 C   0  0  0  0  0  0  0  0  0  0  0  0
   -0.1174   -0.6533    0.0000 C   0  0  0  0  0  0  0  0  0  0  0  0
    0.6672   -0.9083    0.0000 C   0  0  0  0  0  0  0  0  0  0  0  0
    1.1521   -0.2408    0.0000 C   0  0  0  0  0  0  0  0  0  0  0  0
    0.6672    0.4266    0.0000 O   0  0  0  0  0  0  0  0  0  0  0  0
   -0.7849    0.6566    0.0000 C   0  0  0  0  0  0  0  0  0  0  0  0
   -1.5386    0.3210    0.0000 N   0  0  0  0  0  0  0  0  0  0  0  0
   -2.2060    0.8059    0.0000 N   0  0  0  0  0  0  0  0  0  0  0  0
   -2.9597    0.4704    0.0000 C   0  0  0  0  0  0  0  0  0  0  0  0
   -3.6271    0.9553    0.0000 N   0  0  0  0  0  0  0  0  0  0  0  0
   -3.0459   -0.3501    0.0000 S   0  0  0  0  0  0  0  0  0  0  0  0
    1.9771   -0.2408    0.0000 C   0  0  0  0  0  0  0  0  0  0  0  0
    2.3896   -0.9553    0.0000 C   0  0  0  0  0  0  0  0  0  0  0  0
    3.2146   -0.9553    0.0000 C   0  0  0  0  0  0  0  0  0  0  0  0
    3.6271   -0.2408    0.0000 N   0  0  0  0  0  0  0  0  0  0  0  0
    3.2146    0.4736    0.0000 C   0  0  0  0  0  0  0  0  0  0  0  0
    2.3896    0.4736    0.0000 C   0  0  0  0  0  0  0  0  0  0  0  0
  1  2  2  0      
  2  3  1  0      
  3  4  2  0      
  4  5  1  0      
  5  1  1  0      
  1  6  1  0      
  6  7  2  0      
  7  8  1  0      
  8  9  1  0      
  9 10  1  0      
  9 11  2  0      
  4 12  1  0      
 12 13  2  0      
 13 14  1  0      
 14 15  2  0      
 15 16  1  0      
 16 17  2  0      
 17 12  1  0      
M  END
