SA44_0014.mol
  ChemDraw05022416132D

 34 37  0  0  0  0  0  0  0  0999 V2000
   -4.1674   -0.5664    0.0000 C   0  0  0  0  0  0  0  0  0  0  0  0
   -4.5799   -1.2808    0.0000 C   0  0  0  0  0  0  0  0  0  0  0  0
   -4.1674   -1.9953    0.0000 C   0  0  0  0  0  0  0  0  0  0  0  0
   -3.3424   -1.9953    0.0000 C   0  0  0  0  0  0  0  0  0  0  0  0
   -2.9299   -1.2808    0.0000 C   0  0  0  0  0  0  0  0  0  0  0  0
   -3.3424   -0.5664    0.0000 C   0  0  0  0  0  0  0  0  0  0  0  0
   -2.9299    0.1481    0.0000 C   0  0  0  0  0  0  0  0  0  0  0  0
   -2.1094    0.2344    0.0000 O   0  0  0  0  0  0  0  0  0  0  0  0
   -1.9379    1.0413    0.0000 C   0  0  0  0  0  0  0  0  0  0  0  0
   -2.6524    1.4538    0.0000 C   0  0  0  0  0  0  0  0  0  0  0  0
   -3.2655    0.9018    0.0000 C   0  0  0  0  0  0  0  0  0  0  0  0
   -1.2234    1.4538    0.0000 C   0  0  0  0  0  0  0  0  0  0  0  0
   -1.2234    2.2788    0.0000 N   0  0  0  0  0  0  0  0  0  0  0  0
   -0.5090    2.6913    0.0000 N   0  0  0  0  0  0  0  0  0  0  0  0
    0.2055    2.2788    0.0000 C   0  0  0  0  0  0  0  0  0  0  0  0
    0.9200    2.6913    0.0000 N   0  0  0  0  0  0  0  0  0  0  0  0
    0.2055    1.4538    0.0000 S   0  0  0  0  0  0  0  0  0  0  0  0
    1.6344    2.2788    0.0000 C   0  0  0  0  0  0  0  0  0  0  0  0
    1.7207    1.4583    0.0000 C   0  0  0  0  0  0  0  0  0  0  0  0
    2.5277    1.2868    0.0000 N   0  0  0  0  0  0  0  0  0  0  0  0
    2.9402    2.0013    0.0000 N   0  0  0  0  0  0  0  0  0  0  0  0
    2.3881    2.6144    0.0000 C   0  0  0  0  0  0  0  0  0  0  0  0
    2.5596    3.4214    0.0000 O   0  0  0  0  0  0  0  0  0  0  0  0
    1.1076    0.9063    0.0000 C   0  0  0  0  0  0  0  0  0  0  0  0
    2.8632    0.5331    0.0000 C   0  0  0  0  0  0  0  0  0  0  0  0
    3.7606    2.0875    0.0000 C   0  0  0  0  0  0  0  0  0  0  0  0
    4.2456    1.4201    0.0000 C   0  0  0  0  0  0  0  0  0  0  0  0
    5.0660    1.5063    0.0000 C   0  0  0  0  0  0  0  0  0  0  0  0
    5.4016    2.2600    0.0000 C   0  0  0  0  0  0  0  0  0  0  0  0
    4.9167    2.9274    0.0000 C   0  0  0  0  0  0  0  0  0  0  0  0
    4.0962    2.8412    0.0000 C   0  0  0  0  0  0  0  0  0  0  0  0
   -4.5799   -2.7098    0.0000 N   0  3  0  0  0  0  0  0  0  0  0  0
   -5.4016   -2.7098    0.0000 O   0  0  0  0  0  0  0  0  0  0  0  0
   -4.1691   -3.4214    0.0000 O   0  5  0  0  0  0  0  0  0  0  0  0
 32 33  2  0      
 32 34  1  0      
  3 32  1  0      
  1  2  2  0      
  2  3  1  0      
  3  4  2  0      
  4  5  1  0      
  5  6  2  0      
  6  1  1  0      
  6  7  1  0      
  7  8  1  0      
  8  9  1  0      
  9 10  2  0      
 10 11  1  0      
 11  7  2  0      
  9 12  1  0      
 12 13  2  0      
 13 14  1  0      
 14 15  1  0      
 15 16  1  0      
 15 17  2  0      
 16 18  1  0      
 18 19  2  0      
 19 20  1  0      
 20 21  1  0      
 21 22  1  0      
 22 18  1  0      
 22 23  2  0      
 19 24  1  0      
 20 25  1  0      
 21 26  1  0      
 26 27  2  0      
 27 28  1  0      
 28 29  2  0      
 29 30  1  0      
 30 31  2  0      
 31 26  1  0      
M  CHG  2  32   1  34  -1
M  STY  1   1 SUP
M  SLB  1   1   1
M  SAL   1  3  32  33  34
M  SBL   1  1   3
M  SMT   1 ^NO2
M  SBV   1   3    0.4125    0.7145
M  END
