SA44_0040.mol
  ChemDraw05022414012D

 20 21  0  0  0  0  0  0  0  0999 V2000
   -1.5857    0.8552    0.0000 C   0  0  0  0  0  0  0  0  0  0  0  0
   -2.4107    0.8552    0.0000 C   0  0  0  0  0  0  0  0  0  0  0  0
   -2.8232    0.1407    0.0000 C   0  0  0  0  0  0  0  0  0  0  0  0
   -2.4107   -0.5738    0.0000 C   0  0  0  0  0  0  0  0  0  0  0  0
   -1.5857   -0.5738    0.0000 C   0  0  0  0  0  0  0  0  0  0  0  0
   -1.1732    0.1407    0.0000 C   0  0  0  0  0  0  0  0  0  0  0  0
   -0.3482    0.1407    0.0000 C   0  0  0  0  0  0  0  0  0  0  0  0
   -3.6482    0.1407    0.0000 C   0  0  0  0  0  0  0  0  0  0  0  0
    0.1368   -0.5267    0.0000 O   0  0  0  0  0  0  0  0  0  0  0  0
    0.9214   -0.2718    0.0000 C   0  0  0  0  0  0  0  0  0  0  0  0
    0.9214    0.5532    0.0000 C   0  0  0  0  0  0  0  0  0  0  0  0
    0.1368    0.8081    0.0000 C   0  0  0  0  0  0  0  0  0  0  0  0
    1.5047   -0.8552    0.0000 C   0  0  0  0  0  0  0  0  0  0  0  0
    2.2192   -0.4427    0.0000 N   0  0  0  0  0  0  0  0  0  0  0  0
    2.9337   -0.8552    0.0000 N   0  0  0  0  0  0  0  0  0  0  0  0
    3.6482   -0.4427    0.0000 C   0  0  0  0  0  0  0  0  0  0  0  0
    4.3626   -0.8552    0.0000 N   0  0  0  0  0  0  0  0  0  0  0  0
    3.6482    0.3823    0.0000 S   0  0  0  0  0  0  0  0  0  0  0  0
   -4.3626    0.5532    0.0000 O   0  0  0  0  0  0  0  0  0  0  0  0
   -3.6482   -0.6843    0.0000 O   0  0  0  0  0  0  0  0  0  0  0  0
  1  2  2  0      
  2  3  1  0      
  3  4  2  0      
  4  5  1  0      
  5  6  2  0      
  6  1  1  0      
  6  7  1  0      
  3  8  1  0      
  7  9  1  0      
  9 10  1  0      
 10 11  2  0      
 11 12  1  0      
 12  7  2  0      
 10 13  1  0      
 13 14  2  0      
 14 15  1  0      
 15 16  1  0      
 16 17  1  0      
 16 18  2  0      
  8 19  1  0      
  8 20  2  0      
M  END
