SA44_0015.mol
  ChemDraw05022416082D

 21 22  0  0  0  0  0  0  0  0999 V2000
   -4.6797    0.0855    0.0000 H   0  0  0  0  0  0  0  0  0  0  0  0
   -3.9652    0.4980    0.0000 N   0  0  0  0  0  0  0  0  0  0  0  0
   -3.2507    0.0855    0.0000 C   0  0  0  0  0  0  0  0  0  0  0  0
   -2.5363    0.4980    0.0000 N   0  0  0  0  0  0  0  0  0  0  0  0
   -1.8218    0.0855    0.0000 N   0  0  0  0  0  0  0  0  0  0  0  0
   -1.1073    0.4980    0.0000 C   0  0  0  0  0  0  0  0  0  0  0  0
   -0.3929    0.0855    0.0000 C   0  0  0  0  0  0  0  0  0  0  0  0
   -3.2507   -0.7395    0.0000 S   0  0  0  0  0  0  0  0  0  0  0  0
   -0.3066   -0.7350    0.0000 C   0  0  0  0  0  0  0  0  0  0  0  0
    0.5003   -0.9065    0.0000 C   0  0  0  0  0  0  0  0  0  0  0  0
    0.9128   -0.1921    0.0000 C   0  0  0  0  0  0  0  0  0  0  0  0
    0.3608    0.4210    0.0000 O   0  0  0  0  0  0  0  0  0  0  0  0
    1.7333   -0.1058    0.0000 C   0  0  0  0  0  0  0  0  0  0  0  0
    2.2182   -0.7733    0.0000 C   0  0  0  0  0  0  0  0  0  0  0  0
    3.0387   -0.6870    0.0000 C   0  0  0  0  0  0  0  0  0  0  0  0
    3.3743    0.0666    0.0000 C   0  0  0  0  0  0  0  0  0  0  0  0
    2.8894    0.7341    0.0000 C   0  0  0  0  0  0  0  0  0  0  0  0
    2.0689    0.6478    0.0000 C   0  0  0  0  0  0  0  0  0  0  0  0
    4.1948    0.1529    0.0000 C   0  0  0  0  0  0  0  0  0  0  0  0
    4.5303    0.9065    0.0000 O   0  0  0  0  0  0  0  0  0  0  0  0
    4.6797   -0.5146    0.0000 O   0  0  0  0  0  0  0  0  0  0  0  0
  1  2  1  0      
  2  3  1  0      
  3  4  1  0      
  4  5  1  0      
  5  6  2  0      
  6  7  1  0      
  3  8  2  0      
  7  9  2  0      
  9 10  1  0      
 10 11  2  0      
 11 12  1  0      
 12  7  1  0      
 11 13  1  0      
 13 14  2  0      
 14 15  1  0      
 15 16  2  0      
 16 17  1  0      
 17 18  2  0      
 18 13  1  0      
 16 19  1  0      
 19 20  2  0      
 19 21  1  0      
M  END
