SA44_0011
  -OEChem-07172407042D

 66 70  0     0  0  0  0  0  0999 V2000
    7.0916    5.6433    0.0000 S   0  0  0  0  0  0  0  0  0  0  0  0
    7.1962   -0.3512    0.0000 O   0  0  0  0  0  0  0  0  0  0  0  0
    2.8660   -2.8512    0.0000 N   0  0  0  0  0  0  0  0  0  0  0  0
    2.8660   -4.8512    0.0000 N   0  0  0  0  0  0  0  0  0  0  0  0
    6.3301    1.1488    0.0000 N   0  0  0  0  0  0  0  0  0  0  0  0
    8.0622    4.1488    0.0000 N   0  0  0  0  0  0  0  0  0  0  0  0
    6.2826    4.2420    0.0000 N   0  0  0  0  0  0  0  0  0  0  0  0
    3.0366    5.5851    0.0000 N   0  0  0  0  0  0  0  0  0  0  0  0
    2.0000   -3.3512    0.0000 C   0  0  0  0  0  0  0  0  0  0  0  0
    3.7320   -3.3512    0.0000 C   0  0  0  0  0  0  0  0  0  0  0  0
    2.0000   -4.3512    0.0000 C   0  0  0  0  0  0  0  0  0  0  0  0
    3.7320   -4.3512    0.0000 C   0  0  0  0  0  0  0  0  0  0  0  0
    2.8660   -1.8512    0.0000 C   0  0  0  0  0  0  0  0  0  0  0  0
    2.8660   -5.8512    0.0000 C   0  0  0  0  0  0  0  0  0  0  0  0
    3.7320   -1.3512    0.0000 C   0  0  0  0  0  0  0  0  0  0  0  0
    3.7320   -0.3512    0.0000 C   0  0  0  0  0  0  0  0  0  0  0  0
    4.5981   -1.8512    0.0000 C   0  0  0  0  0  0  0  0  0  0  0  0
    4.5981    0.1488    0.0000 C   0  0  0  0  0  0  0  0  0  0  0  0
    5.4641   -1.3512    0.0000 C   0  0  0  0  0  0  0  0  0  0  0  0
    5.4641   -0.3512    0.0000 C   0  0  0  0  0  0  0  0  0  0  0  0
    6.3301    0.1488    0.0000 C   0  0  0  0  0  0  0  0  0  0  0  0
    7.1962    1.6488    0.0000 C   0  0  0  0  0  0  0  0  0  0  0  0
    8.0622    3.1488    0.0000 C   0  0  0  0  0  0  0  0  0  0  0  0
    7.1962    2.6488    0.0000 C   0  0  0  0  0  0  0  0  0  0  0  0
    8.9282    2.6488    0.0000 C   0  0  0  0  0  0  0  0  0  0  0  0
    8.0622    1.1488    0.0000 C   0  0  0  0  0  0  0  0  0  0  0  0
    8.9282    1.6488    0.0000 C   0  0  0  0  0  0  0  0  0  0  0  0
    9.7942    3.1488    0.0000 C   0  0  0  0  0  0  0  0  0  0  0  0
    7.1962    4.6488    0.0000 C   0  0  0  0  0  0  0  0  0  0  0  0
    5.6135    4.9852    0.0000 C   0  0  0  0  0  0  0  0  0  0  0  0
    6.1135    5.8512    0.0000 C   0  0  0  0  0  0  0  0  0  0  0  0
    4.6190    4.8807    0.0000 C   0  0  0  0  0  0  0  0  0  0  0  0
    4.2122    3.9671    0.0000 C   0  0  0  0  0  0  0  0  0  0  0  0
    4.0312    5.6897    0.0000 C   0  0  0  0  0  0  0  0  0  0  0  0
    3.2177    3.8626    0.0000 C   0  0  0  0  0  0  0  0  0  0  0  0
    2.6299    4.6716    0.0000 C   0  0  0  0  0  0  0  0  0  0  0  0
    1.7880   -2.7686    0.0000 H   0  0  0  0  0  0  0  0  0  0  0  0
    1.3894   -3.4589    0.0000 H   0  0  0  0  0  0  0  0  0  0  0  0
    4.3426   -3.4589    0.0000 H   0  0  0  0  0  0  0  0  0  0  0  0
    3.9441   -2.7686    0.0000 H   0  0  0  0  0  0  0  0  0  0  0  0
    1.3894   -4.2436    0.0000 H   0  0  0  0  0  0  0  0  0  0  0  0
    1.7880   -4.9338    0.0000 H   0  0  0  0  0  0  0  0  0  0  0  0
    3.9441   -4.9338    0.0000 H   0  0  0  0  0  0  0  0  0  0  0  0
    4.3426   -4.2436    0.0000 H   0  0  0  0  0  0  0  0  0  0  0  0
    2.6540   -1.2686    0.0000 H   0  0  0  0  0  0  0  0  0  0  0  0
    2.2554   -1.9589    0.0000 H   0  0  0  0  0  0  0  0  0  0  0  0
    2.2460   -5.8512    0.0000 H   0  0  0  0  0  0  0  0  0  0  0  0
    2.8660   -6.4712    0.0000 H   0  0  0  0  0  0  0  0  0  0  0  0
    3.4860   -5.8512    0.0000 H   0  0  0  0  0  0  0  0  0  0  0  0
    3.1951   -0.0412    0.0000 H   0  0  0  0  0  0  0  0  0  0  0  0
    4.5981   -2.4712    0.0000 H   0  0  0  0  0  0  0  0  0  0  0  0
    4.5981    0.7688    0.0000 H   0  0  0  0  0  0  0  0  0  0  0  0
    6.0010   -1.6612    0.0000 H   0  0  0  0  0  0  0  0  0  0  0  0
    5.7932    1.4588    0.0000 H   0  0  0  0  0  0  0  0  0  0  0  0
    6.6592    2.9588    0.0000 H   0  0  0  0  0  0  0  0  0  0  0  0
    8.0622    0.5288    0.0000 H   0  0  0  0  0  0  0  0  0  0  0  0
    9.4651    1.3388    0.0000 H   0  0  0  0  0  0  0  0  0  0  0  0
    8.5991    4.4588    0.0000 H   0  0  0  0  0  0  0  0  0  0  0  0
   10.1042    2.6118    0.0000 H   0  0  0  0  0  0  0  0  0  0  0  0
   10.3312    3.4588    0.0000 H   0  0  0  0  0  0  0  0  0  0  0  0
    9.4842    3.6857    0.0000 H   0  0  0  0  0  0  0  0  0  0  0  0
    5.8613    6.4176    0.0000 H   0  0  0  0  0  0  0  0  0  0  0  0
    4.5766    3.4655    0.0000 H   0  0  0  0  0  0  0  0  0  0  0  0
    4.2834    6.2561    0.0000 H   0  0  0  0  0  0  0  0  0  0  0  0
    2.9655    3.2962    0.0000 H   0  0  0  0  0  0  0  0  0  0  0  0
    2.0133    4.6068    0.0000 H   0  0  0  0  0  0  0  0  0  0  0  0
  1 29  1  0  0  0  0
  1 31  1  0  0  0  0
  2 21  2  0  0  0  0
  3  9  1  0  0  0  0
  3 10  1  0  0  0  0
  3 13  1  0  0  0  0
  4 11  1  0  0  0  0
  4 12  1  0  0  0  0
  4 14  1  0  0  0  0
  5 21  1  0  0  0  0
  5 22  1  0  0  0  0
  5 54  1  0  0  0  0
  6 23  1  0  0  0  0
  6 29  1  0  0  0  0
  6 58  1  0  0  0  0
  7 29  2  0  0  0  0
  7 30  1  0  0  0  0
  8 34  1  0  0  0  0
  8 36  2  0  0  0  0
  9 11  1  0  0  0  0
  9 37  1  0  0  0  0
  9 38  1  0  0  0  0
 10 12  1  0  0  0  0
 10 39  1  0  0  0  0
 10 40  1  0  0  0  0
 11 41  1  0  0  0  0
 11 42  1  0  0  0  0
 12 43  1  0  0  0  0
 12 44  1  0  0  0  0
 13 15  1  0  0  0  0
 13 45  1  0  0  0  0
 13 46  1  0  0  0  0
 14 47  1  0  0  0  0
 14 48  1  0  0  0  0
 14 49  1  0  0  0  0
 15 16  2  0  0  0  0
 15 17  1  0  0  0  0
 16 18  1  0  0  0  0
 16 50  1  0  0  0  0
 17 19  2  0  0  0  0
 17 51  1  0  0  0  0
 18 20  2  0  0  0  0
 18 52  1  0  0  0  0
 19 20  1  0  0  0  0
 19 53  1  0  0  0  0
 20 21  1  0  0  0  0
 22 24  2  0  0  0  0
 22 26  1  0  0  0  0
 23 24  1  0  0  0  0
 23 25  2  0  0  0  0
 24 55  1  0  0  0  0
 25 27  1  0  0  0  0
 25 28  1  0  0  0  0
 26 27  2  0  0  0  0
 26 56  1  0  0  0  0
 27 57  1  0  0  0  0
 28 59  1  0  0  0  0
 28 60  1  0  0  0  0
 28 61  1  0  0  0  0
 30 31  2  0  0  0  0
 30 32  1  0  0  0  0
 31 62  1  0  0  0  0
 32 33  1  0  0  0  0
 32 34  2  0  0  0  0
 33 35  2  0  0  0  0
 33 63  1  0  0  0  0
 34 64  1  0  0  0  0
 35 36  1  0  0  0  0
 35 65  1  0  0  0  0
 36 66  1  0  0  0  0
M  END
> <PUBCHEM_COMPOUND_CID>
10074640

> <PUBCHEM_COMPOUND_CANONICALIZED>
1

> <PUBCHEM_CACTVS_COMPLEXITY>
696

> <PUBCHEM_CACTVS_HBOND_ACCEPTOR>
7

> <PUBCHEM_CACTVS_HBOND_DONOR>
2

> <PUBCHEM_CACTVS_ROTATABLE_BOND>
7

> <PUBCHEM_CACTVS_SUBSKEYS>
AAADceB7oABAAAAAAAAAAAAAAAAAAWAAAAA8eIEAAAAAAAAB9AAAHgQQAAAADAjF3gS/0ZPIEAisAzV3dACC8Kl1CjkJ2DU4ZNiIYPLg3dGUIQholALIyacYiACOSAAAAAQCAACQAAAACAQAAAAAAAAAAA==

> <PUBCHEM_IUPAC_OPENEYE_NAME>
4-[(4-methylpiperazin-1-yl)methyl]-N-[4-methyl-3-[[4-(3-pyridyl)thiazol-2-yl]amino]phenyl]benzamide

> <PUBCHEM_IUPAC_CAS_NAME>
4-[(4-methyl-1-piperazinyl)methyl]-N-[4-methyl-3-[[4-(3-pyridinyl)-2-thiazolyl]amino]phenyl]benzamide

> <PUBCHEM_IUPAC_NAME_MARKUP>
4-[(4-methylpiperazin-1-yl)methyl]-<I>N</I>-[4-methyl-3-[(4-pyridin-3-yl-1,3-thiazol-2-yl)amino]phenyl]benzamide

> <PUBCHEM_IUPAC_NAME>
4-[(4-methylpiperazin-1-yl)methyl]-N-[4-methyl-3-[(4-pyridin-3-yl-1,3-thiazol-2-yl)amino]phenyl]benzamide

> <PUBCHEM_IUPAC_SYSTEMATIC_NAME>
4-[(4-methylpiperazin-1-yl)methyl]-N-[4-methyl-3-[(4-pyridin-3-yl-1,3-thiazol-2-yl)amino]phenyl]benzamide

> <PUBCHEM_IUPAC_TRADITIONAL_NAME>
4-[(4-methylpiperazino)methyl]-N-[4-methyl-3-[[4-(3-pyridyl)thiazol-2-yl]amino]phenyl]benzamide

> <PUBCHEM_IUPAC_INCHI>
InChI=1S/C28H30N6OS/c1-20-5-10-24(16-25(20)31-28-32-26(19-36-28)23-4-3-11-29-17-23)30-27(35)22-8-6-21(7-9-22)18-34-14-12-33(2)13-15-34/h3-11,16-17,19H,12-15,18H2,1-2H3,(H,30,35)(H,31,32)

> <PUBCHEM_IUPAC_INCHIKEY>
WJEOLQLKVOPQFV-UHFFFAOYSA-N

> <PUBCHEM_XLOGP3_AA>
4.3

> <PUBCHEM_EXACT_MASS>
498.22018078

> <PUBCHEM_MOLECULAR_FORMULA>
C28H30N6OS

> <PUBCHEM_MOLECULAR_WEIGHT>
498.6

> <PUBCHEM_OPENEYE_CAN_SMILES>
CC1=C(C=C(C=C1)NC(=O)C2=CC=C(C=C2)CN3CCN(CC3)C)NC4=NC(=CS4)C5=CN=CC=C5

> <PUBCHEM_OPENEYE_ISO_SMILES>
CC1=C(C=C(C=C1)NC(=O)C2=CC=C(C=C2)CN3CCN(CC3)C)NC4=NC(=CS4)C5=CN=CC=C5

> <PUBCHEM_CACTVS_TPSA>
102

> <PUBCHEM_MONOISOTOPIC_WEIGHT>
498.22018078

> <PUBCHEM_TOTAL_CHARGE>
0

> <PUBCHEM_HEAVY_ATOM_COUNT>
36

> <PUBCHEM_ATOM_DEF_STEREO_COUNT>
0

> <PUBCHEM_ATOM_UDEF_STEREO_COUNT>
0

> <PUBCHEM_BOND_DEF_STEREO_COUNT>
0

> <PUBCHEM_BOND_UDEF_STEREO_COUNT>
0

> <PUBCHEM_ISOTOPIC_ATOM_COUNT>
0

> <PUBCHEM_COMPONENT_COUNT>
1

> <PUBCHEM_CACTVS_TAUTO_COUNT>
-1

> <PUBCHEM_COORDINATE_TYPE>
1
5
255

> <PUBCHEM_BONDANNOTATIONS>
1  29  8
1  31  8
15  16  8
15  17  8
16  18  8
17  19  8
18  20  8
19  20  8
22  24  8
22  26  8
23  24  8
23  25  8
25  27  8
26  27  8
30  31  8
32  33  8
32  34  8
33  35  8
35  36  8
7  29  8
7  30  8
8  34  8
8  36  8

$$$$
