SA45_0004.mol
  ChemDraw05022416502D

 87 96  0  0  1  0  0  0  0  0999 V2000
   -0.9983    0.5247    0.0000 C   0  0  0  0  0  0  0  0  0  0  0  0
   -0.1895    0.6699    0.0000 N   0  0  0  0  0  0  0  0  0  0  0  0
   -0.1205    1.4875    0.0000 C   0  0  0  0  0  0  0  0  0  0  0  0
   -0.8867    1.8477    0.0000 C   0  0  0  0  0  0  0  0  0  0  0  0
   -1.4556    1.2549    0.0000 O   0  0  0  0  0  0  0  0  0  0  0  0
   -1.0364    2.6556    0.0000 C   0  0  0  0  0  0  0  0  0  0  0  0
    0.5910    1.8984    0.0000 C   0  0  0  0  0  0  0  0  0  0  0  0
   -1.3309   -0.2266    0.0000 C   0  0  0  0  0  0  0  0  0  0  0  0
    1.3026    1.4875    0.0000 N   0  0  0  0  0  0  0  0  0  0  0  0
    0.5910    2.7201    0.0000 O   0  0  0  0  0  0  0  0  0  0  0  0
    2.0142    1.8984    0.0000 C   0  0  0  0  0  0  0  0  0  0  0  0
    2.7258    1.4875    0.0000 C   0  0  0  0  0  0  0  0  0  0  0  0
    2.0142    2.7201    0.0000 C   0  0  0  0  0  0  0  0  0  0  0  0
    2.7258    2.3092    0.0000 C   0  0  0  0  0  0  0  0  0  0  0  0
    2.7258    3.1309    0.0000 N   0  0  0  0  0  0  0  0  0  0  0  0
    1.3026    3.1309    0.0000 O   0  0  0  0  0  0  0  0  0  0  0  0
    2.8117    0.6704    0.0000 N   0  0  0  0  0  0  0  0  0  0  0  0
    3.6154    0.4995    0.0000 C   0  0  0  0  0  0  0  0  0  0  0  0
    4.0262    1.2111    0.0000 C   0  0  0  0  0  0  0  0  0  0  0  0
    3.4764    1.8218    0.0000 O   0  0  0  0  0  0  0  0  0  0  0  0
    4.8434    1.2970    0.0000 C   0  0  0  0  0  0  0  0  0  0  0  0
    3.5463   -0.3192    0.0000 C   0  0  0  0  0  0  0  0  0  0  0  0
    4.2579   -0.7301    0.0000 O   0  0  0  0  0  0  0  0  0  0  0  0
    2.8027   -0.6688    0.0000 N   0  0  0  0  0  0  0  0  0  0  0  0
    2.7337   -1.4875    0.0000 C   0  0  0  0  0  0  0  0  0  0  0  0
    1.9900   -1.8371    0.0000 C   0  0  0  0  0  0  0  0  0  0  0  0
    3.4452   -1.8984    0.0000 C   0  0  0  0  0  0  0  0  0  0  0  0
    2.7337   -2.3092    0.0000 C   0  0  0  0  0  0  0  0  0  0  0  0
    4.1568   -1.4875    0.0000 O   0  0  0  0  0  0  0  0  0  0  0  0
    3.4452   -2.7201    0.0000 N   0  0  0  0  0  0  0  0  0  0  0  0
    1.2702   -1.4410    0.0000 N   0  0  0  0  0  0  0  0  0  0  0  0
    0.6710   -2.0032    0.0000 C   0  0  0  0  0  0  0  0  0  0  0  0
    1.0205   -2.7468    0.0000 C   0  0  0  0  0  0  0  0  0  0  0  0
    1.8358   -2.6442    0.0000 O   0  0  0  0  0  0  0  0  0  0  0  0
   -0.1361   -1.8489    0.0000 C   0  0  0  0  0  0  0  0  0  0  0  0
   -0.6732   -2.4707    0.0000 O   0  0  0  0  0  0  0  0  0  0  0  0
   -0.4060   -1.0729    0.0000 N   0  0  0  0  0  0  0  0  0  0  0  0
   -2.1116    0.0296    0.0000 C   0  0  0  0  0  0  0  0  0  0  0  0
   -1.9431   -0.7746    0.0000 C   0  0  0  0  0  0  0  0  0  0  0  0
   -2.2801    0.8338    0.0000 O   0  0  0  0  0  0  0  0  0  0  0  0
   -2.7239   -0.5184    0.0000 N   0  0  0  0  0  0  0  0  0  0  0  0
    0.6097   -3.4584    0.0000 C   0  0  0  0  0  0  0  0  0  0  0  0
    7.7069    6.8284    0.0000 N   0  0  0  0  0  0  0  0  0  0  0  0
    6.9953    6.4176    0.0000 C   0  0  0  0  0  0  0  0  0  0  0  0
    6.2837    6.8284    0.0000 C   0  0  0  0  0  0  0  0  0  0  0  0
    5.5722    6.4176    0.0000 C   0  0  0  0  0  0  0  0  0  0  0  0
    5.5722    5.5959    0.0000 C   0  0  0  0  0  0  0  0  0  0  0  0
    4.8606    5.1851    0.0000 C   0  0  0  0  0  0  0  0  0  0  0  0
    4.1490    5.5959    0.0000 C   0  0  0  0  0  0  0  0  0  0  0  0
    4.1490    6.4176    0.0000 C   0  0  0  0  0  0  0  0  0  0  0  0
    4.8606    6.8284    0.0000 C   0  0  0  0  0  0  0  0  0  0  0  0
    3.4374    5.1851    0.0000 N   0  0  0  0  0  0  0  0  0  0  0  0
    3.4374    4.3634    0.0000 C   0  0  0  0  0  0  0  0  0  0  0  0
    2.7258    3.9526    0.0000 C   0  0  0  0  0  0  0  0  0  0  0  0
    2.0142    4.3634    0.0000 C   0  0  0  0  0  0  0  0  0  0  0  0
    2.0142    5.1851    0.0000 C   0  0  0  0  0  0  0  0  0  0  0  0
    2.7258    5.5959    0.0000 C   0  0  0  0  0  0  0  0  0  0  0  0
    9.1379   -6.8284    0.0000 N   0  0  0  0  0  0  0  0  0  0  0  0
    8.4264   -6.4176    0.0000 C   0  0  0  0  0  0  0  0  0  0  0  0
    8.4264   -5.5959    0.0000 C   0  0  0  0  0  0  0  0  0  0  0  0
    7.7148   -5.1851    0.0000 C   0  0  0  0  0  0  0  0  0  0  0  0
    7.0032   -5.5959    0.0000 C   0  0  0  0  0  0  0  0  0  0  0  0
    6.2916   -5.1851    0.0000 C   0  0  0  0  0  0  0  0  0  0  0  0
    6.2916   -4.3634    0.0000 C   0  0  0  0  0  0  0  0  0  0  0  0
    7.0032   -3.9526    0.0000 C   0  0  0  0  0  0  0  0  0  0  0  0
    7.7148   -4.3634    0.0000 C   0  0  0  0  0  0  0  0  0  0  0  0
    5.5800   -3.9526    0.0000 N   0  0  0  0  0  0  0  0  0  0  0  0
    4.8684   -4.3634    0.0000 C   0  0  0  0  0  0  0  0  0  0  0  0
    4.1568   -3.9526    0.0000 C   0  0  0  0  0  0  0  0  0  0  0  0
    4.1568   -3.1309    0.0000 C   0  0  0  0  0  0  0  0  0  0  0  0
    4.8684   -2.7201    0.0000 C   0  0  0  0  0  0  0  0  0  0  0  0
    5.5800   -3.1309    0.0000 C   0  0  0  0  0  0  0  0  0  0  0  0
   -9.1379    2.3355    0.0000 N   0  0  0  0  0  0  0  0  0  0  0  0
   -8.3572    2.0793    0.0000 C   0  0  0  0  0  0  0  0  0  0  0  0
   -8.1888    1.2751    0.0000 C   0  0  0  0  0  0  0  0  0  0  0  0
   -7.4081    1.0189    0.0000 C   0  0  0  0  0  0  0  0  0  0  0  0
   -6.7958    1.5669    0.0000 C   0  0  0  0  0  0  0  0  0  0  0  0
   -6.0151    1.3107    0.0000 C   0  0  0  0  0  0  0  0  0  0  0  0
   -5.8467    0.5064    0.0000 C   0  0  0  0  0  0  0  0  0  0  0  0
   -6.4589   -0.0416    0.0000 C   0  0  0  0  0  0  0  0  0  0  0  0
   -7.2396    0.2147    0.0000 C   0  0  0  0  0  0  0  0  0  0  0  0
   -5.0660    0.2502    0.0000 N   0  0  0  0  0  0  0  0  0  0  0  0
   -4.4537    0.7982    0.0000 C   0  0  0  0  0  0  0  0  0  0  0  0
   -3.6730    0.5420    0.0000 C   0  0  0  0  0  0  0  0  0  0  0  0
   -3.5046   -0.2622    0.0000 C   0  0  0  0  0  0  0  0  0  0  0  0
   -4.1168   -0.8102    0.0000 C   0  0  0  0  0  0  0  0  0  0  0  0
   -4.8975   -0.5540    0.0000 C   0  0  0  0  0  0  0  0  0  0  0  0
  1  2  2  0      
  2  3  1  0      
  3  4  2  0      
  4  5  1  0      
  5  1  1  0      
  4  6  1  0      
  3  7  1  0      
  1  8  1  0      
  7  9  1  0      
  7 10  2  0      
  9 11  1  0      
 11 12  1  0      
 11 13  1  6      
 11 14  1  1      
 13 15  1  0      
 13 16  2  0      
 12 17  2  0      
 17 18  1  0      
 18 19  2  0      
 19 20  1  0      
 20 12  1  0      
 19 21  1  0      
 18 22  1  0      
 22 23  2  0      
 22 24  1  0      
 24 25  1  0      
 25 26  1  0      
 25 27  1  6      
 25 28  1  1      
 27 29  2  0      
 27 30  1  0      
 26 31  2  0      
 31 32  1  0      
 32 33  2  0      
 33 34  1  0      
 34 26  1  0      
 32 35  1  0      
 35 36  2  0      
 35 37  1  0      
 37  8  1  0      
  8 38  1  6      
  8 39  1  1      
 38 40  2  0      
 38 41  1  0      
 33 42  1  0      
 44 45  1  0      
 43 44  1  0      
 46 47  1  0      
 47 48  2  0      
 48 49  1  0      
 49 50  2  0      
 50 51  1  0      
 46 51  2  0      
 52 53  1  0      
 53 54  1  0      
 54 55  1  0      
 55 56  1  0      
 56 57  1  0      
 52 57  1  0      
 49 52  1  0      
 45 46  1  0      
 59 60  1  0      
 58 59  1  0      
 61 62  1  0      
 62 63  2  0      
 63 64  1  0      
 64 65  2  0      
 65 66  1  0      
 61 66  2  0      
 67 68  1  0      
 68 69  1  0      
 69 70  1  0      
 70 71  1  0      
 71 72  1  0      
 67 72  1  0      
 64 67  1  0      
 60 61  1  0      
 74 75  1  0      
 73 74  1  0      
 76 77  1  0      
 77 78  2  0      
 78 79  1  0      
 79 80  2  0      
 80 81  1  0      
 76 81  2  0      
 82 83  1  0      
 83 84  1  0      
 84 85  1  0      
 85 86  1  0      
 86 87  1  0      
 82 87  1  0      
 79 82  1  0      
 75 76  1  0      
 41 85  1  0      
 15 54  1  0      
 30 70  1  0      
M  END
