SA51_0011.mol
  ChemDraw05032410162D

 11 12  0  0  0  0  0  0  0  0999 V2000
   -1.7546    0.0986    0.0000 C   0  0  0  0  0  0  0  0  0  0  0  0
   -1.7546   -0.7231    0.0000 C   0  0  0  0  0  0  0  0  0  0  0  0
   -1.0430   -1.1339    0.0000 C   0  0  0  0  0  0  0  0  0  0  0  0
   -0.3315   -0.7231    0.0000 C   0  0  0  0  0  0  0  0  0  0  0  0
   -0.3315    0.0986    0.0000 C   0  0  0  0  0  0  0  0  0  0  0  0
   -1.0430    0.5094    0.0000 C   0  0  0  0  0  0  0  0  0  0  0  0
    0.4500   -0.9770    0.0000 S   0  0  0  0  0  0  0  0  0  0  0  0
    0.9330   -0.3123    0.0000 N   0  0  0  0  0  0  0  0  0  0  0  0
    0.4500    0.3525    0.0000 C   0  0  0  0  0  0  0  0  0  0  0  0
    0.7039    1.1339    0.0000 O   0  0  0  0  0  0  0  0  0  0  0  0
    1.7546   -0.3123    0.0000 H   0  0  0  0  0  0  0  0  0  0  0  0
  1  2  2  0      
  2  3  1  0      
  3  4  2  0      
  4  5  1  0      
  5  6  2  0      
  6  1  1  0      
  4  7  1  0      
  7  8  1  0      
  8  9  1  0      
  9  5  1  0      
  9 10  2  0      
  8 11  1  0      
M  END
