SA51_0014.mol
  ChemDraw05032410182D

 13 14  0  0  0  0  0  0  0  0999 V2000
   -2.3734    0.0986    0.0000 C   0  0  0  0  0  0  0  0  0  0  0  0
   -2.3734   -0.7231    0.0000 C   0  0  0  0  0  0  0  0  0  0  0  0
   -1.6618   -1.1339    0.0000 C   0  0  0  0  0  0  0  0  0  0  0  0
   -0.9502   -0.7231    0.0000 C   0  0  0  0  0  0  0  0  0  0  0  0
   -0.9502    0.0986    0.0000 C   0  0  0  0  0  0  0  0  0  0  0  0
   -1.6618    0.5094    0.0000 C   0  0  0  0  0  0  0  0  0  0  0  0
   -0.1688   -0.9770    0.0000 S   0  0  0  0  0  0  0  0  0  0  0  0
    0.3142   -0.3123    0.0000 N   0  0  0  0  0  0  0  0  0  0  0  0
   -0.1688    0.3525    0.0000 C   0  0  0  0  0  0  0  0  0  0  0  0
    0.0852    1.1339    0.0000 O   0  0  0  0  0  0  0  0  0  0  0  0
    1.1359   -0.3123    0.0000 C   0  0  0  0  0  0  0  0  0  0  0  0
    1.5484   -1.0267    0.0000 C   0  0  0  0  0  0  0  0  0  0  0  0
    2.3734   -1.0267    0.0000 O   0  0  0  0  0  0  0  0  0  0  0  0
  1  2  2  0      
  2  3  1  0      
  3  4  2  0      
  4  5  1  0      
  5  6  2  0      
  6  1  1  0      
  4  7  1  0      
  7  8  1  0      
  8  9  1  0      
  9  5  1  0      
  9 10  2  0      
  8 11  1  0      
 11 12  1  0      
 12 13  1  0      
M  END
