SA51_0015.mol
  ChemDraw05032410202D

 14 15  0  0  0  0  0  0  0  0999 V2000
   -2.3734    0.4022    0.0000 C   0  0  0  0  0  0  0  0  0  0  0  0
   -2.3734   -0.4195    0.0000 C   0  0  0  0  0  0  0  0  0  0  0  0
   -1.6618   -0.8303    0.0000 C   0  0  0  0  0  0  0  0  0  0  0  0
   -0.9502   -0.4195    0.0000 C   0  0  0  0  0  0  0  0  0  0  0  0
   -0.9502    0.4022    0.0000 C   0  0  0  0  0  0  0  0  0  0  0  0
   -1.6618    0.8130    0.0000 C   0  0  0  0  0  0  0  0  0  0  0  0
   -0.1688   -0.6734    0.0000 S   0  0  0  0  0  0  0  0  0  0  0  0
    0.3142   -0.0086    0.0000 N   0  0  0  0  0  0  0  0  0  0  0  0
   -0.1688    0.6561    0.0000 C   0  0  0  0  0  0  0  0  0  0  0  0
    0.0852    1.4376    0.0000 O   0  0  0  0  0  0  0  0  0  0  0  0
    1.1359   -0.0086    0.0000 C   0  0  0  0  0  0  0  0  0  0  0  0
    1.5484   -0.7231    0.0000 C   0  0  0  0  0  0  0  0  0  0  0  0
    2.3734   -0.7231    0.0000 C   0  0  0  0  0  0  0  0  0  0  0  0
    1.1359   -1.4376    0.0000 C   0  0  0  0  0  0  0  0  0  0  0  0
  1  2  2  0      
  2  3  1  0      
  3  4  2  0      
  4  5  1  0      
  5  6  2  0      
  6  1  1  0      
  4  7  1  0      
  7  8  1  0      
  8  9  1  0      
  9  5  1  0      
  9 10  2  0      
  8 11  1  0      
 11 12  1  0      
 12 13  1  0      
 12 14  1  0      
M  END
