SA51_0023.mol
  ChemDraw05032409582D

 16 18  0  0  0  0  0  0  0  0999 V2000
   -2.5796    0.0986    0.0000 C   0  0  0  0  0  0  0  0  0  0  0  0
   -2.5796   -0.7231    0.0000 C   0  0  0  0  0  0  0  0  0  0  0  0
   -1.8680   -1.1339    0.0000 C   0  0  0  0  0  0  0  0  0  0  0  0
   -1.1565   -0.7231    0.0000 C   0  0  0  0  0  0  0  0  0  0  0  0
   -1.1565    0.0986    0.0000 C   0  0  0  0  0  0  0  0  0  0  0  0
   -1.8680    0.5094    0.0000 C   0  0  0  0  0  0  0  0  0  0  0  0
   -0.3750   -0.9770    0.0000 S   0  0  0  0  0  0  0  0  0  0  0  0
    0.1080   -0.3123    0.0000 N   0  0  0  0  0  0  0  0  0  0  0  0
   -0.3750    0.3525    0.0000 C   0  0  0  0  0  0  0  0  0  0  0  0
   -0.1211    1.1339    0.0000 O   0  0  0  0  0  0  0  0  0  0  0  0
    0.9296   -0.3123    0.0000 C   0  0  0  0  0  0  0  0  0  0  0  0
    1.3421   -1.0267    0.0000 C   0  0  0  0  0  0  0  0  0  0  0  0
    2.1671   -1.0267    0.0000 C   0  0  0  0  0  0  0  0  0  0  0  0
    2.5796   -0.3123    0.0000 C   0  0  0  0  0  0  0  0  0  0  0  0
    2.1671    0.4022    0.0000 C   0  0  0  0  0  0  0  0  0  0  0  0
    1.3421    0.4022    0.0000 C   0  0  0  0  0  0  0  0  0  0  0  0
  1  2  2  0      
  2  3  1  0      
  3  4  2  0      
  4  5  1  0      
  5  6  2  0      
  6  1  1  0      
  4  7  1  0      
  7  8  1  0      
  8  9  1  0      
  9  5  1  0      
  9 10  2  0      
  8 11  1  0      
 11 12  2  0      
 12 13  1  0      
 13 14  2  0      
 14 15  1  0      
 15 16  2  0      
 16 11  1  0      
M  END
