SA51_0005.mol
  ChemDraw05032409462D

 19 21  0  0  0  0  0  0  0  0999 V2000
   -2.9976    0.7567    0.0000 C   0  0  0  0  0  0  0  0  0  0  0  0
   -2.9976   -0.0683    0.0000 C   0  0  0  0  0  0  0  0  0  0  0  0
   -2.2831   -0.4808    0.0000 C   0  0  0  0  0  0  0  0  0  0  0  0
   -1.5686   -0.0683    0.0000 C   0  0  0  0  0  0  0  0  0  0  0  0
   -1.5686    0.7567    0.0000 C   0  0  0  0  0  0  0  0  0  0  0  0
   -2.2831    1.1692    0.0000 C   0  0  0  0  0  0  0  0  0  0  0  0
   -0.7840   -0.3232    0.0000 Se  0  0  0  0  0  0  0  0  0  0  0  0
   -0.2991    0.3442    0.0000 N   0  0  0  0  0  0  0  0  0  0  0  0
   -0.7840    1.0117    0.0000 C   0  0  0  0  0  0  0  0  0  0  0  0
   -0.5291    1.7963    0.0000 O   0  0  0  0  0  0  0  0  0  0  0  0
    0.5259    0.3442    0.0000 C   0  0  0  0  0  0  0  0  0  0  0  0
    0.9384   -0.3702    0.0000 C   0  0  0  0  0  0  0  0  0  0  0  0
    1.7634   -0.3702    0.0000 C   0  0  0  0  0  0  0  0  0  0  0  0
    2.1759    0.3442    0.0000 C   0  0  0  0  0  0  0  0  0  0  0  0
    1.7634    1.0587    0.0000 C   0  0  0  0  0  0  0  0  0  0  0  0
    0.9384    1.0587    0.0000 C   0  0  0  0  0  0  0  0  0  0  0  0
    2.1759   -1.0847    0.0000 N   0  3  0  0  0  0  0  0  0  0  0  0
    1.7651   -1.7963    0.0000 O   0  0  0  0  0  0  0  0  0  0  0  0
    2.9976   -1.0847    0.0000 O   0  5  0  0  0  0  0  0  0  0  0  0
 17 18  2  0      
 17 19  1  0      
 13 17  1  0      
  1  2  2  0      
  2  3  1  0      
  3  4  2  0      
  4  5  1  0      
  5  6  2  0      
  6  1  1  0      
  4  7  1  0      
  7  8  1  0      
  8  9  1  0      
  9  5  1  0      
  9 10  2  0      
  8 11  1  0      
 11 12  2  0      
 12 13  1  0      
 13 14  2  0      
 14 15  1  0      
 15 16  2  0      
 16 11  1  0      
M  CHG  2  17   1  19  -1
M  STY  1   1 SUP
M  SLB  1   1   1
M  SAL   1  3  17  18  19
M  SBL   1  1   3
M  SMT   1 NO2
M  SBV   1   3   -0.4125    0.7145
M  END
