SA5_00010.mol
  ChemDraw02212408402D

 28 31  0  0  0  0  0  0  0  0999 V2000
    1.8791   -1.2425    0.0000 C   0  0  0  0  0  0  0  0  0  0  0  0
    1.3954   -0.5741    0.0000 C   0  0  0  0  0  0  0  0  0  0  0  0
    1.3929   -1.9090    0.0000 N   0  0  0  0  0  0  0  0  0  0  0  0
   -0.1064   -2.0638    0.0000 N   0  0  0  0  0  0  0  0  0  0  0  0
   -0.8201   -1.6500    0.0000 C   0  0  0  0  0  0  0  0  0  0  0  0
   -0.8186   -0.8250    0.0000 C   0  0  0  0  0  0  0  0  0  0  0  0
   -0.1034   -0.4138    0.0000 C   0  0  0  0  0  0  0  0  0  0  0  0
    0.6103   -0.8276    0.0000 C   0  0  0  0  0  0  0  0  0  0  0  0
    0.6088   -1.6526    0.0000 C   0  0  0  0  0  0  0  0  0  0  0  0
   -1.5323   -0.4112    0.0000 C   0  0  0  0  0  0  0  0  0  0  0  0
    1.6518    0.2100    0.0000 N   0  0  0  0  0  0  0  0  0  0  0  0
   -1.5323    0.4138    0.0000 C   0  0  0  0  0  0  0  0  0  0  0  0
   -2.2468    0.8263    0.0000 C   0  0  0  0  0  0  0  0  0  0  0  0
   -2.9613    0.4138    0.0000 C   0  0  0  0  0  0  0  0  0  0  0  0
   -2.9613   -0.4112    0.0000 C   0  0  0  0  0  0  0  0  0  0  0  0
   -2.2468   -0.8237    0.0000 C   0  0  0  0  0  0  0  0  0  0  0  0
   -3.6758    0.8263    0.0000 O   0  0  0  0  0  0  0  0  0  0  0  0
   -2.2468    1.6513    0.0000 O   0  0  0  0  0  0  0  0  0  0  0  0
   -4.3902    0.4138    0.0000 C   0  0  0  0  0  0  0  0  0  0  0  0
   -1.5323    2.0638    0.0000 C   0  0  0  0  0  0  0  0  0  0  0  0
    2.4591    0.3801    0.0000 C   0  0  0  0  0  0  0  0  0  0  0  0
    3.0100   -0.2341    0.0000 C   0  0  0  0  0  0  0  0  0  0  0  0
    2.7154    1.1642    0.0000 O   0  0  0  0  0  0  0  0  0  0  0  0
    2.7964   -1.0309    0.0000 C   0  0  0  0  0  0  0  0  0  0  0  0
    3.3798   -1.6143    0.0000 C   0  0  0  0  0  0  0  0  0  0  0  0
    4.1767   -1.4008    0.0000 C   0  0  0  0  0  0  0  0  0  0  0  0
    4.3902   -0.6039    0.0000 N   0  0  0  0  0  0  0  0  0  0  0  0
    3.8069   -0.0205    0.0000 C   0  0  0  0  0  0  0  0  0  0  0  0
  2  8  1  0      
  3  9  1  0      
  3  1  1  0      
  2  1  2  0      
  9  4  2  0      
  5  4  1  0      
  6  5  2  0      
  7  6  1  0      
  8  7  2  0      
  9  8  1  0      
  6 10  1  0      
  2 11  1  0      
 10 12  2  0      
 12 13  1  0      
 13 14  2  0      
 14 15  1  0      
 15 16  2  0      
 16 10  1  0      
 14 17  1  0      
 13 18  1  0      
 17 19  1  0      
 18 20  1  0      
 11 21  1  0      
 21 22  1  0      
 21 23  2  0      
 22 24  2  0      
 24 25  1  0      
 25 26  2  0      
 26 27  1  0      
 27 28  2  0      
 28 22  1  0      
M  END
