SA5_0009.mol
  ChemDraw02212408382D

 27 30  0  0  0  0  0  0  0  0999 V2000
    2.5296   -1.9093    0.0000 C   0  0  0  0  0  0  0  0  0  0  0  0
    2.0459   -1.2410    0.0000 C   0  0  0  0  0  0  0  0  0  0  0  0
    2.0434   -2.5759    0.0000 N   0  0  0  0  0  0  0  0  0  0  0  0
    0.5441   -2.7307    0.0000 N   0  0  0  0  0  0  0  0  0  0  0  0
   -0.1697   -2.3169    0.0000 C   0  0  0  0  0  0  0  0  0  0  0  0
   -0.1681   -1.4919    0.0000 C   0  0  0  0  0  0  0  0  0  0  0  0
    0.5471   -1.0807    0.0000 C   0  0  0  0  0  0  0  0  0  0  0  0
    1.2608   -1.4945    0.0000 C   0  0  0  0  0  0  0  0  0  0  0  0
    1.2593   -2.3195    0.0000 C   0  0  0  0  0  0  0  0  0  0  0  0
   -0.8819   -1.0781    0.0000 C   0  0  0  0  0  0  0  0  0  0  0  0
    2.3023   -0.4569    0.0000 C   0  0  0  0  0  0  0  0  0  0  0  0
   -0.8819   -0.2531    0.0000 C   0  0  0  0  0  0  0  0  0  0  0  0
   -1.5963    0.1594    0.0000 C   0  0  0  0  0  0  0  0  0  0  0  0
   -2.3108   -0.2531    0.0000 C   0  0  0  0  0  0  0  0  0  0  0  0
   -2.3108   -1.0781    0.0000 C   0  0  0  0  0  0  0  0  0  0  0  0
   -1.5963   -1.4906    0.0000 C   0  0  0  0  0  0  0  0  0  0  0  0
   -3.0253    0.1594    0.0000 O   0  0  0  0  0  0  0  0  0  0  0  0
   -1.5963    0.9844    0.0000 O   0  0  0  0  0  0  0  0  0  0  0  0
   -3.7397   -0.2531    0.0000 C   0  0  0  0  0  0  0  0  0  0  0  0
   -0.8819    1.3969    0.0000 C   0  0  0  0  0  0  0  0  0  0  0  0
    2.5158    0.3400    0.0000 C   0  0  0  0  0  0  0  0  0  0  0  0
    2.7293    1.1369    0.0000 C   0  0  0  0  0  0  0  0  0  0  0  0
    3.5262    1.3504    0.0000 C   0  0  0  0  0  0  0  0  0  0  0  0
    3.7397    2.1473    0.0000 C   0  0  0  0  0  0  0  0  0  0  0  0
    3.1564    2.7307    0.0000 C   0  0  0  0  0  0  0  0  0  0  0  0
    2.3595    2.5172    0.0000 N   0  0  0  0  0  0  0  0  0  0  0  0
    2.1460    1.7203    0.0000 C   0  0  0  0  0  0  0  0  0  0  0  0
  2  8  1  0      
  3  9  1  0      
  3  1  1  0      
  2  1  2  0      
  9  4  2  0      
  5  4  1  0      
  6  5  2  0      
  7  6  1  0      
  8  7  2  0      
  9  8  1  0      
  6 10  1  0      
  2 11  1  0      
 10 12  2  0      
 12 13  1  0      
 13 14  2  0      
 14 15  1  0      
 15 16  2  0      
 16 10  1  0      
 14 17  1  0      
 13 18  1  0      
 17 19  1  0      
 18 20  1  0      
 11 21  3  0      
 21 22  1  0      
 22 23  2  0      
 23 24  1  0      
 24 25  2  0      
 25 26  1  0      
 26 27  2  0      
 27 22  1  0      
M  END
