SA5_0007
  -OEChem-07172407062D

 15 16  0     0  0  0  0  0  0999 V2000
    4.6783   -0.6077    0.0000 N   0  0  0  0  0  0  0  0  0  0  0  0
    2.8660   -0.8030    0.0000 N   0  0  0  0  0  0  0  0  0  0  0  0
    3.7320    0.6970    0.0000 C   0  0  0  0  0  0  0  0  0  0  0  0
    3.7320   -0.3030    0.0000 C   0  0  0  0  0  0  0  0  0  0  0  0
    4.6783    1.0018    0.0000 C   0  0  0  0  0  0  0  0  0  0  0  0
    2.8660    1.1970    0.0000 C   0  0  0  0  0  0  0  0  0  0  0  0
    5.2619    0.1970    0.0000 C   0  0  0  0  0  0  0  0  0  0  0  0
    2.0000    0.6970    0.0000 C   0  0  0  0  0  0  0  0  0  0  0  0
    2.0000   -0.3030    0.0000 C   0  0  0  0  0  0  0  0  0  0  0  0
    4.8709    1.5911    0.0000 H   0  0  0  0  0  0  0  0  0  0  0  0
    4.8709   -1.1970    0.0000 H   0  0  0  0  0  0  0  0  0  0  0  0
    2.8660    1.8170    0.0000 H   0  0  0  0  0  0  0  0  0  0  0  0
    5.8819    0.1970    0.0000 H   0  0  0  0  0  0  0  0  0  0  0  0
    1.4631    1.0070    0.0000 H   0  0  0  0  0  0  0  0  0  0  0  0
    1.4631   -0.6130    0.0000 H   0  0  0  0  0  0  0  0  0  0  0  0
  1  4  1  0  0  0  0
  1  7  1  0  0  0  0
  1 11  1  0  0  0  0
  2  4  1  0  0  0  0
  2  9  2  0  0  0  0
  3  4  2  0  0  0  0
  3  5  1  0  0  0  0
  3  6  1  0  0  0  0
  5  7  2  0  0  0  0
  5 10  1  0  0  0  0
  6  8  2  0  0  0  0
  6 12  1  0  0  0  0
  7 13  1  0  0  0  0
  8  9  1  0  0  0  0
  8 14  1  0  0  0  0
  9 15  1  0  0  0  0
M  END
> <PUBCHEM_COMPOUND_CID>
9222

> <PUBCHEM_COMPOUND_CANONICALIZED>
1

> <PUBCHEM_CACTVS_COMPLEXITY>
103

> <PUBCHEM_CACTVS_HBOND_ACCEPTOR>
1

> <PUBCHEM_CACTVS_HBOND_DONOR>
1

> <PUBCHEM_CACTVS_ROTATABLE_BOND>
0

> <PUBCHEM_CACTVS_SUBSKEYS>
AAADcYBjAAAAAAAAAAAAAAAAAAAAAWAAAAAsAAAAAAAAAFgB+AAAHAAQAAAADADBGwQ9sN7JkACgAjJnZACCgCmxAqAJ2aA4ZJiIKOLAmZGEIAhokALIyCcQAAAOAAAAAAAAAAAAAAAAAAAAAAAAAAAAAA==

> <PUBCHEM_IUPAC_OPENEYE_NAME>
1H-pyrrolo[2,3-b]pyridine

> <PUBCHEM_IUPAC_CAS_NAME>
1H-pyrrolo[2,3-b]pyridine

> <PUBCHEM_IUPAC_NAME_MARKUP>
1<I>H</I>-pyrrolo[2,3-b]pyridine

> <PUBCHEM_IUPAC_NAME>
1H-pyrrolo[2,3-b]pyridine

> <PUBCHEM_IUPAC_SYSTEMATIC_NAME>
1H-pyrrolo[2,3-b]pyridine

> <PUBCHEM_IUPAC_TRADITIONAL_NAME>
1H-pyrrolo[2,3-b]pyridine

> <PUBCHEM_IUPAC_INCHI>
InChI=1S/C7H6N2/c1-2-6-3-5-9-7(6)8-4-1/h1-5H,(H,8,9)

> <PUBCHEM_IUPAC_INCHIKEY>
MVXVYAKCVDQRLW-UHFFFAOYSA-N

> <PUBCHEM_XLOGP3>
1.8

> <PUBCHEM_EXACT_MASS>
118.053098200

> <PUBCHEM_MOLECULAR_FORMULA>
C7H6N2

> <PUBCHEM_MOLECULAR_WEIGHT>
118.14

> <PUBCHEM_OPENEYE_CAN_SMILES>
C1=CC2=C(NC=C2)N=C1

> <PUBCHEM_OPENEYE_ISO_SMILES>
C1=CC2=C(NC=C2)N=C1

> <PUBCHEM_CACTVS_TPSA>
28.7

> <PUBCHEM_MONOISOTOPIC_WEIGHT>
118.053098200

> <PUBCHEM_TOTAL_CHARGE>
0

> <PUBCHEM_HEAVY_ATOM_COUNT>
9

> <PUBCHEM_ATOM_DEF_STEREO_COUNT>
0

> <PUBCHEM_ATOM_UDEF_STEREO_COUNT>
0

> <PUBCHEM_BOND_DEF_STEREO_COUNT>
0

> <PUBCHEM_BOND_UDEF_STEREO_COUNT>
0

> <PUBCHEM_ISOTOPIC_ATOM_COUNT>
0

> <PUBCHEM_COMPONENT_COUNT>
1

> <PUBCHEM_CACTVS_TAUTO_COUNT>
-1

> <PUBCHEM_COORDINATE_TYPE>
1
5
255

> <PUBCHEM_BONDANNOTATIONS>
1  4  8
1  7  8
2  4  8
2  9  8
3  4  8
3  5  8
3  6  8
5  7  8
6  8  8
8  9  8

$$$$
