SV_J8_0002.mol
  ChemDraw02082413062D

 35 39  0  0  1  0  0  0  0  0999 V2000
    1.1157    1.8575    0.0000 C   0  0  0  0  0  0  0  0  0  0  0  0
    1.1157    1.0325    0.0000 C   0  0  0  0  0  0  0  0  0  0  0  0
    1.8302    0.6200    0.0000 C   0  0  0  0  0  0  0  0  0  0  0  0
    2.5447    1.0325    0.0000 C   0  0  0  0  0  0  0  0  0  0  0  0
    2.5447    1.8575    0.0000 C   0  0  0  0  0  0  0  0  0  0  0  0
    1.8302    2.2700    0.0000 C   0  0  0  0  0  0  0  0  0  0  0  0
    3.2592    2.2700    0.0000 C   0  0  0  0  0  0  0  0  0  0  0  0
    3.4727    3.0669    0.0000 C   0  0  0  0  0  0  0  0  0  0  0  0
    3.9137    1.7678    0.0000 O   0  0  0  0  0  0  0  0  0  0  0  0
    1.8302    3.0950    0.0000 O   0  0  0  0  0  0  0  0  0  0  0  0
    3.2592    0.6200    0.0000 O   0  0  0  0  0  0  0  0  0  0  0  0
    0.3311    2.1125    0.0000 C   0  0  0  0  0  0  0  0  0  0  0  0
   -0.1538    1.4450    0.0000 C   0  0  0  0  0  0  0  0  0  0  0  0
    0.3311    0.7776    0.0000 O   0  0  0  0  0  0  0  0  0  0  0  0
   -0.0044    2.8661    0.0000 C   0  0  0  0  0  0  0  0  0  0  0  0
   -0.8249    2.9524    0.0000 C   0  0  0  0  0  0  0  0  0  0  0  0
   -1.3098    2.2849    0.0000 C   0  0  0  0  0  0  0  0  0  0  0  0
   -0.9743    1.5313    0.0000 C   0  0  0  0  0  0  0  0  0  0  0  0
    0.4805    3.5336    0.0000 O   0  0  0  0  0  0  0  0  0  0  0  0
   -1.1605    3.7061    0.0000 C   0  0  0  0  0  0  0  0  0  0  0  0
   -2.1303    2.3712    0.0000 O   0  0  0  0  0  0  0  0  0  0  0  0
   -1.4592    0.8638    0.0000 C   0  0  0  0  0  0  0  0  0  0  0  0
   -2.2842    0.8638    0.0000 N   0  0  0  0  0  0  0  0  0  0  0  0
   -2.5391    0.0792    0.0000 C   0  0  0  0  0  0  0  0  0  0  0  0
   -1.8717   -0.4057    0.0000 S   0  0  0  0  0  0  0  0  0  0  0  0
   -1.2043    0.0792    0.0000 C   0  0  0  0  0  0  0  0  0  0  0  0
   -3.3238   -0.1757    0.0000 N   0  0  0  0  0  0  0  0  0  0  0  0
   -3.3238   -1.0007    0.0000 N   0  0  0  0  0  0  0  0  0  0  0  0
   -3.5651   -1.5841    0.0000 C   0  0  0  0  0  0  0  0  0  0  0  0
   -3.3516   -2.3810    0.0000 C   0  0  0  0  0  0  0  0  0  0  0  0
   -3.9137   -2.9849    0.0000 C   0  0  0  0  0  0  0  0  0  0  0  0
   -3.5131   -3.7061    0.0000 C   0  0  0  0  0  0  0  0  0  0  0  0
   -2.7034   -3.5479    0.0000 C   0  0  0  0  0  0  0  0  0  0  0  0
   -2.6035   -2.7290    0.0000 S   0  0  0  0  0  0  0  0  0  0  0  0
    1.0295    2.6780    0.0000 C   0  0  0  0  0  0  0  0  0  0  0  0
  1  2  1  0      
  2  3  2  0      
  3  4  1  0      
  4  5  2  0      
  5  6  1  0      
  6  1  1  0      
  5  7  1  0      
  7  8  1  0      
  7  9  2  0      
  6 10  2  0      
  4 11  1  0      
  1 12  1  0      
 12 13  2  0      
 13 14  1  0      
 14  2  1  0      
 12 15  1  0      
 15 16  2  0      
 16 17  1  0      
 17 18  2  0      
 18 13  1  0      
 15 19  1  0      
 16 20  1  0      
 17 21  1  0      
 18 22  1  0      
 22 23  1  0      
 23 24  2  0      
 24 25  1  0      
 25 26  1  0      
 26 22  2  0      
 24 27  1  0      
 27 28  1  0      
 28 29  2  0      
 29 30  1  0      
 30 31  2  0      
 31 32  1  0      
 32 33  2  0      
 33 34  1  0      
 34 30  1  0      
  1 35  1  1      
M  END
