SV_J26_0012
  -OEChem-07172407052D

 63 65  0     1  0  0  0  0  0999 V2000
    7.0468   -0.2500    0.0000 O   0  0  0  0  0  0  0  0  0  0  0  0
    4.4487    2.2500    0.0000 O   0  0  0  0  0  0  0  0  0  0  0  0
    2.6691    1.1567    0.0000 O   0  0  0  0  0  0  0  0  0  0  0  0
    5.3147    0.7500    0.0000 N   0  0  0  0  0  0  0  0  0  0  0  0
    7.9128    1.2500    0.0000 N   0  0  0  0  0  0  0  0  0  0  0  0
    7.0468    3.7500    0.0000 N   0  0  0  0  0  0  0  0  0  0  0  0
    5.3147   -3.2500    0.0000 C   0  0  0  0  0  0  0  0  0  0  0  0
    8.7788    0.7500    0.0000 C   0  0  0  0  0  0  0  0  0  0  0  0
    6.1808    1.2500    0.0000 C   0  0  1  0  0  0  0  0  0  0  0  0
    5.3147   -2.2500    0.0000 C   0  0  0  0  0  0  0  0  0  0  0  0
    5.3147   -0.2500    0.0000 C   0  0  0  0  0  0  0  0  0  0  0  0
    5.3147   -4.2500    0.0000 C   0  0  0  0  0  0  0  0  0  0  0  0
    4.3147   -3.2500    0.0000 C   0  0  0  0  0  0  0  0  0  0  0  0
    6.3147   -3.2500    0.0000 C   0  0  0  0  0  0  0  0  0  0  0  0
    7.0468    0.7500    0.0000 C   0  0  0  0  0  0  0  0  0  0  0  0
    6.1808   -1.7500    0.0000 C   0  0  0  0  0  0  0  0  0  0  0  0
    4.4487   -1.7500    0.0000 C   0  0  0  0  0  0  0  0  0  0  0  0
    6.1808    2.2500    0.0000 C   0  0  0  0  0  0  0  0  0  0  0  0
    6.1808   -0.7500    0.0000 C   0  0  0  0  0  0  0  0  0  0  0  0
    4.4487   -0.7500    0.0000 C   0  0  0  0  0  0  0  0  0  0  0  0
    9.6448    0.2500    0.0000 C   0  0  0  0  0  0  0  0  0  0  0  0
    9.2788    1.6160    0.0000 C   0  0  0  0  0  0  0  0  0  0  0  0
    8.2788   -0.1160    0.0000 C   0  0  0  0  0  0  0  0  0  0  0  0
    4.4487    1.2500    0.0000 C   0  0  0  0  0  0  0  0  0  0  0  0
    5.3147    2.7500    0.0000 C   0  0  0  0  0  0  0  0  0  0  0  0
    7.0468    2.7500    0.0000 C   0  0  0  0  0  0  0  0  0  0  0  0
    3.5827    0.7500    0.0000 C   0  0  0  0  0  0  0  0  0  0  0  0
    5.3147    3.7500    0.0000 C   0  0  0  0  0  0  0  0  0  0  0  0
    3.4782   -0.2445    0.0000 C   0  0  0  0  0  0  0  0  0  0  0  0
    6.1808    4.2500    0.0000 C   0  0  0  0  0  0  0  0  0  0  0  0
    2.5000   -0.4524    0.0000 C   0  0  0  0  0  0  0  0  0  0  0  0
    2.0000    0.4136    0.0000 C   0  0  0  0  0  0  0  0  0  0  0  0
    6.1808    0.6300    0.0000 H   0  0  0  0  0  0  0  0  0  0  0  0
    4.6947   -4.2500    0.0000 H   0  0  0  0  0  0  0  0  0  0  0  0
    5.3147   -4.8700    0.0000 H   0  0  0  0  0  0  0  0  0  0  0  0
    5.9347   -4.2500    0.0000 H   0  0  0  0  0  0  0  0  0  0  0  0
    4.3147   -2.6300    0.0000 H   0  0  0  0  0  0  0  0  0  0  0  0
    3.6947   -3.2500    0.0000 H   0  0  0  0  0  0  0  0  0  0  0  0
    4.3147   -3.8700    0.0000 H   0  0  0  0  0  0  0  0  0  0  0  0
    6.3147   -3.8700    0.0000 H   0  0  0  0  0  0  0  0  0  0  0  0
    6.9347   -3.2500    0.0000 H   0  0  0  0  0  0  0  0  0  0  0  0
    6.3147   -2.6300    0.0000 H   0  0  0  0  0  0  0  0  0  0  0  0
    7.9128    1.8700    0.0000 H   0  0  0  0  0  0  0  0  0  0  0  0
    6.7177   -2.0600    0.0000 H   0  0  0  0  0  0  0  0  0  0  0  0
    3.9118   -2.0600    0.0000 H   0  0  0  0  0  0  0  0  0  0  0  0
    6.7177   -0.4400    0.0000 H   0  0  0  0  0  0  0  0  0  0  0  0
    3.9118   -0.4400    0.0000 H   0  0  0  0  0  0  0  0  0  0  0  0
    9.3348   -0.2869    0.0000 H   0  0  0  0  0  0  0  0  0  0  0  0
   10.1818   -0.0600    0.0000 H   0  0  0  0  0  0  0  0  0  0  0  0
    9.9548    0.7869    0.0000 H   0  0  0  0  0  0  0  0  0  0  0  0
    9.8158    1.3060    0.0000 H   0  0  0  0  0  0  0  0  0  0  0  0
    9.5888    2.1530    0.0000 H   0  0  0  0  0  0  0  0  0  0  0  0
    8.7419    1.9260    0.0000 H   0  0  0  0  0  0  0  0  0  0  0  0
    7.7419    0.1940    0.0000 H   0  0  0  0  0  0  0  0  0  0  0  0
    7.9688   -0.6530    0.0000 H   0  0  0  0  0  0  0  0  0  0  0  0
    8.8158   -0.4260    0.0000 H   0  0  0  0  0  0  0  0  0  0  0  0
    4.7778    2.4400    0.0000 H   0  0  0  0  0  0  0  0  0  0  0  0
    7.5837    2.4400    0.0000 H   0  0  0  0  0  0  0  0  0  0  0  0
    4.7778    4.0600    0.0000 H   0  0  0  0  0  0  0  0  0  0  0  0
    3.9389   -0.6594    0.0000 H   0  0  0  0  0  0  0  0  0  0  0  0
    6.1808    4.8700    0.0000 H   0  0  0  0  0  0  0  0  0  0  0  0
    2.2478   -1.0188    0.0000 H   0  0  0  0  0  0  0  0  0  0  0  0
    1.3834    0.4784    0.0000 H   0  0  0  0  0  0  0  0  0  0  0  0
  1 15  2  0  0  0  0
  2 24  2  0  0  0  0
  3 27  1  0  0  0  0
  3 32  1  0  0  0  0
  9  4  1  6  0  0  0
  4 11  1  0  0  0  0
  4 24  1  0  0  0  0
  5  8  1  0  0  0  0
  5 15  1  0  0  0  0
  5 43  1  0  0  0  0
  6 26  1  0  0  0  0
  6 30  2  0  0  0  0
  7 10  1  0  0  0  0
  7 12  1  0  0  0  0
  7 13  1  0  0  0  0
  7 14  1  0  0  0  0
  8 21  1  0  0  0  0
  8 22  1  0  0  0  0
  8 23  1  0  0  0  0
  9 15  1  0  0  0  0
  9 18  1  0  0  0  0
  9 33  1  0  0  0  0
 10 16  2  0  0  0  0
 10 17  1  0  0  0  0
 11 19  2  0  0  0  0
 11 20  1  0  0  0  0
 12 34  1  0  0  0  0
 12 35  1  0  0  0  0
 12 36  1  0  0  0  0
 13 37  1  0  0  0  0
 13 38  1  0  0  0  0
 13 39  1  0  0  0  0
 14 40  1  0  0  0  0
 14 41  1  0  0  0  0
 14 42  1  0  0  0  0
 16 19  1  0  0  0  0
 16 44  1  0  0  0  0
 17 20  2  0  0  0  0
 17 45  1  0  0  0  0
 18 25  1  0  0  0  0
 18 26  2  0  0  0  0
 19 46  1  0  0  0  0
 20 47  1  0  0  0  0
 21 48  1  0  0  0  0
 21 49  1  0  0  0  0
 21 50  1  0  0  0  0
 22 51  1  0  0  0  0
 22 52  1  0  0  0  0
 22 53  1  0  0  0  0
 23 54  1  0  0  0  0
 23 55  1  0  0  0  0
 23 56  1  0  0  0  0
 24 27  1  0  0  0  0
 25 28  2  0  0  0  0
 25 57  1  0  0  0  0
 26 58  1  0  0  0  0
 27 29  2  0  0  0  0
 28 30  1  0  0  0  0
 28 59  1  0  0  0  0
 29 31  1  0  0  0  0
 29 60  1  0  0  0  0
 30 61  1  0  0  0  0
 31 32  2  0  0  0  0
 31 62  1  0  0  0  0
 32 63  1  0  0  0  0
M  END
> <PUBCHEM_COMPOUND_CID>
46897844

> <PUBCHEM_COMPOUND_CANONICALIZED>
1

> <PUBCHEM_CACTVS_COMPLEXITY>
644

> <PUBCHEM_CACTVS_HBOND_ACCEPTOR>
4

> <PUBCHEM_CACTVS_HBOND_DONOR>
1

> <PUBCHEM_CACTVS_ROTATABLE_BOND>
7

> <PUBCHEM_CACTVS_SUBSKEYS>
AAADceB7MAAAAAAAAAAAAAAAAAAAASAAAAA8QAAAAAAAAAAB8AAAHgAQAAAADqzhmgY+xJPIFECoAr131AKCiCA1IiAI2CH+bNgOZvLE9b+XOSjk1hHY6Yecn8IPiAAAAAAAAAAQAAAAAAAAAAAAAAAAAA==

> <PUBCHEM_IUPAC_OPENEYE_NAME>
N-[(1R)-2-(tert-butylamino)-2-oxo-1-(3-pyridyl)ethyl]-N-(4-tert-butylphenyl)furan-2-carboxamide

> <PUBCHEM_IUPAC_CAS_NAME>
N-[(1R)-2-(tert-butylamino)-2-oxo-1-(3-pyridinyl)ethyl]-N-(4-tert-butylphenyl)-2-furancarboxamide

> <PUBCHEM_IUPAC_NAME_MARKUP>
<I>N</I>-[(1<I>R</I>)-2-(<I>tert</I>-butylamino)-2-oxo-1-pyridin-3-ylethyl]-<I>N</I>-(4-<I>tert</I>-butylphenyl)furan-2-carboxamide

> <PUBCHEM_IUPAC_NAME>
N-[(1R)-2-(tert-butylamino)-2-oxo-1-pyridin-3-ylethyl]-N-(4-tert-butylphenyl)furan-2-carboxamide

> <PUBCHEM_IUPAC_SYSTEMATIC_NAME>
N-[(1R)-2-(tert-butylamino)-2-oxidanylidene-1-pyridin-3-yl-ethyl]-N-(4-tert-butylphenyl)furan-2-carboxamide

> <PUBCHEM_IUPAC_TRADITIONAL_NAME>
N-[(1R)-2-(tert-butylamino)-2-keto-1-(3-pyridyl)ethyl]-N-(4-tert-butylphenyl)-2-furamide

> <PUBCHEM_IUPAC_INCHI>
InChI=1S/C26H31N3O3/c1-25(2,3)19-11-13-20(14-12-19)29(24(31)21-10-8-16-32-21)22(18-9-7-15-27-17-18)23(30)28-26(4,5)6/h7-17,22H,1-6H3,(H,28,30)/t22-/m1/s1

> <PUBCHEM_IUPAC_INCHIKEY>
JXGIYKRRPGCLFV-JOCHJYFZSA-N

> <PUBCHEM_XLOGP3_AA>
5

> <PUBCHEM_EXACT_MASS>
433.23654186

> <PUBCHEM_MOLECULAR_FORMULA>
C26H31N3O3

> <PUBCHEM_MOLECULAR_WEIGHT>
433.5

> <PUBCHEM_OPENEYE_CAN_SMILES>
CC(C)(C)C1=CC=C(C=C1)N(C(C2=CN=CC=C2)C(=O)NC(C)(C)C)C(=O)C3=CC=CO3

> <PUBCHEM_OPENEYE_ISO_SMILES>
CC(C)(C)C1=CC=C(C=C1)N([C@H](C2=CN=CC=C2)C(=O)NC(C)(C)C)C(=O)C3=CC=CO3

> <PUBCHEM_CACTVS_TPSA>
75.4

> <PUBCHEM_MONOISOTOPIC_WEIGHT>
433.23654186

> <PUBCHEM_TOTAL_CHARGE>
0

> <PUBCHEM_HEAVY_ATOM_COUNT>
32

> <PUBCHEM_ATOM_DEF_STEREO_COUNT>
1

> <PUBCHEM_ATOM_UDEF_STEREO_COUNT>
0

> <PUBCHEM_BOND_DEF_STEREO_COUNT>
0

> <PUBCHEM_BOND_UDEF_STEREO_COUNT>
0

> <PUBCHEM_ISOTOPIC_ATOM_COUNT>
0

> <PUBCHEM_COMPONENT_COUNT>
1

> <PUBCHEM_CACTVS_TAUTO_COUNT>
-1

> <PUBCHEM_COORDINATE_TYPE>
1
5
255

> <PUBCHEM_BONDANNOTATIONS>
10  16  8
10  17  8
11  19  8
11  20  8
16  19  8
17  20  8
18  25  8
18  26  8
25  28  8
27  29  8
28  30  8
29  31  8
3  27  8
3  32  8
31  32  8
9  4  6
6  26  8
6  30  8

$$$$
