SV_J8_0007.mol
  ChemDraw02082413252D

 36 40  0  0  1  0  0  0  0  0999 V2000
    1.1157    2.0595    0.0000 C   0  0  0  0  0  0  0  0  0  0  0  0
    1.1157    1.2345    0.0000 C   0  0  0  0  0  0  0  0  0  0  0  0
    1.8302    0.8220    0.0000 C   0  0  0  0  0  0  0  0  0  0  0  0
    2.5447    1.2345    0.0000 C   0  0  0  0  0  0  0  0  0  0  0  0
    2.5447    2.0595    0.0000 C   0  0  0  0  0  0  0  0  0  0  0  0
    1.8302    2.4720    0.0000 C   0  0  0  0  0  0  0  0  0  0  0  0
    3.2592    2.4720    0.0000 C   0  0  0  0  0  0  0  0  0  0  0  0
    3.4727    3.2689    0.0000 C   0  0  0  0  0  0  0  0  0  0  0  0
    3.9137    1.9698    0.0000 O   0  0  0  0  0  0  0  0  0  0  0  0
    1.8302    3.2970    0.0000 O   0  0  0  0  0  0  0  0  0  0  0  0
    3.2592    0.8220    0.0000 O   0  0  0  0  0  0  0  0  0  0  0  0
    0.3311    2.3145    0.0000 C   0  0  0  0  0  0  0  0  0  0  0  0
   -0.1538    1.6470    0.0000 C   0  0  0  0  0  0  0  0  0  0  0  0
    0.3311    0.9796    0.0000 O   0  0  0  0  0  0  0  0  0  0  0  0
   -0.0044    3.0681    0.0000 C   0  0  0  0  0  0  0  0  0  0  0  0
   -0.8249    3.1544    0.0000 C   0  0  0  0  0  0  0  0  0  0  0  0
   -1.3098    2.4869    0.0000 C   0  0  0  0  0  0  0  0  0  0  0  0
   -0.9743    1.7333    0.0000 C   0  0  0  0  0  0  0  0  0  0  0  0
    0.4805    3.7356    0.0000 O   0  0  0  0  0  0  0  0  0  0  0  0
   -1.1605    3.9080    0.0000 C   0  0  0  0  0  0  0  0  0  0  0  0
   -2.1303    2.5732    0.0000 O   0  0  0  0  0  0  0  0  0  0  0  0
   -1.4592    1.0658    0.0000 C   0  0  0  0  0  0  0  0  0  0  0  0
   -2.2842    1.0658    0.0000 N   0  0  0  0  0  0  0  0  0  0  0  0
   -2.5391    0.2812    0.0000 C   0  0  0  0  0  0  0  0  0  0  0  0
   -1.8717   -0.2037    0.0000 S   0  0  0  0  0  0  0  0  0  0  0  0
   -1.2043    0.2812    0.0000 C   0  0  0  0  0  0  0  0  0  0  0  0
   -3.3238    0.0263    0.0000 N   0  0  0  0  0  0  0  0  0  0  0  0
   -3.3238   -0.7987    0.0000 N   0  0  0  0  0  0  0  0  0  0  0  0
   -3.5651   -1.3821    0.0000 C   0  0  0  0  0  0  0  0  0  0  0  0
   -3.3516   -2.1790    0.0000 C   0  0  0  0  0  0  0  0  0  0  0  0
   -3.9137   -2.7829    0.0000 C   0  0  0  0  0  0  0  0  0  0  0  0
   -3.5131   -3.5041    0.0000 C   0  0  0  0  0  0  0  0  0  0  0  0
   -2.7034   -3.3459    0.0000 C   0  0  0  0  0  0  0  0  0  0  0  0
   -2.6035   -2.5270    0.0000 S   0  0  0  0  0  0  0  0  0  0  0  0
    1.0295    2.8800    0.0000 C   0  0  0  0  0  0  0  0  0  0  0  0
   -2.0995   -3.9080    0.0000 C   0  0  0  0  0  0  0  0  0  0  0  0
  1  2  1  0      
  2  3  2  0      
  3  4  1  0      
  4  5  2  0      
  5  6  1  0      
  6  1  1  0      
  5  7  1  0      
  7  8  1  0      
  7  9  2  0      
  6 10  2  0      
  4 11  1  0      
  1 12  1  0      
 12 13  2  0      
 13 14  1  0      
 14  2  1  0      
 12 15  1  0      
 15 16  2  0      
 16 17  1  0      
 17 18  2  0      
 18 13  1  0      
 15 19  1  0      
 16 20  1  0      
 17 21  1  0      
 18 22  1  0      
 22 23  1  0      
 23 24  2  0      
 24 25  1  0      
 25 26  1  0      
 26 22  2  0      
 24 27  1  0      
 27 28  1  0      
 28 29  2  0      
 29 30  1  0      
 30 31  2  0      
 31 32  1  0      
 32 33  2  0      
 33 34  1  0      
 34 30  1  0      
  1 35  1  6      
 33 36  1  0      
M  END
