SV_J5_0002.mol
  ChemDraw02072413312D

 32 35  0  0  0  0  0  0  0  0999 V2000
   -4.1826    0.7162    0.0000 C   0  0  0  0  0  0  0  0  0  0  0  0
   -4.1826   -0.1088    0.0000 C   0  0  0  0  0  0  0  0  0  0  0  0
   -3.4681   -0.5213    0.0000 C   0  0  0  0  0  0  0  0  0  0  0  0
   -2.7537   -0.1088    0.0000 C   0  0  0  0  0  0  0  0  0  0  0  0
   -2.7537    0.7162    0.0000 C   0  0  0  0  0  0  0  0  0  0  0  0
   -3.4681    1.1287    0.0000 C   0  0  0  0  0  0  0  0  0  0  0  0
   -2.0392    1.1287    0.0000 N   0  0  0  0  0  0  0  0  0  0  0  0
   -1.2855    0.7932    0.0000 C   0  0  0  0  0  0  0  0  0  0  0  0
   -0.7335    1.4063    0.0000 C   0  0  0  0  0  0  0  0  0  0  0  0
   -1.1460    2.1208    0.0000 C   0  0  0  0  0  0  0  0  0  0  0  0
   -1.9530    1.9492    0.0000 C   0  0  0  0  0  0  0  0  0  0  0  0
   -2.5661    2.5013    0.0000 O   0  0  0  0  0  0  0  0  0  0  0  0
    0.0870    1.3200    0.0000 C   0  0  0  0  0  0  0  0  0  0  0  0
    0.3005    0.5232    0.0000 N   0  0  0  0  0  0  0  0  0  0  0  0
    0.6228    1.9474    0.0000 O   0  0  0  0  0  0  0  0  0  0  0  0
    0.8839   -0.0602    0.0000 C   0  0  0  0  0  0  0  0  0  0  0  0
    0.6704   -0.8571    0.0000 C   0  0  0  0  0  0  0  0  0  0  0  0
    1.2537   -1.4405    0.0000 C   0  0  0  0  0  0  0  0  0  0  0  0
    2.0506   -1.2269    0.0000 C   0  0  0  0  0  0  0  0  0  0  0  0
    2.2641   -0.4300    0.0000 C   0  0  0  0  0  0  0  0  0  0  0  0
    1.6808    0.1533    0.0000 C   0  0  0  0  0  0  0  0  0  0  0  0
    2.7425   -1.6763    0.0000 N   0  0  0  0  0  0  0  0  0  0  0  0
    3.3837   -1.1571    0.0000 C   0  0  0  0  0  0  0  0  0  0  0  0
    3.0880   -0.4300    0.0000 N   0  0  0  0  0  0  0  0  0  0  0  0
   -0.0441   -1.2696    0.0000 S   0  0  0  0  0  0  0  0  0  0  0  0
   -0.7586   -0.8571    0.0000 C   0  0  0  0  0  0  0  0  0  0  0  0
   -1.4729   -1.2699    0.0000 C   0  0  0  0  0  0  0  0  0  0  0  0
   -2.1875   -0.8576    0.0000 C   0  0  0  0  0  0  0  0  0  0  0  0
   -2.9018   -1.2704    0.0000 C   0  0  0  0  0  0  0  0  0  0  0  0
    2.7425   -2.5013    0.0000 C   0  0  0  0  0  0  0  0  0  0  0  0
    3.3015    0.3668    0.0000 C   0  0  0  0  0  0  0  0  0  0  0  0
    4.1826   -1.3627    0.0000 O   0  0  0  0  0  0  0  0  0  0  0  0
  1  2  2  0      
  2  3  1  0      
  3  4  2  0      
  4  5  1  0      
  5  6  2  0      
  6  1  1  0      
  5  7  1  0      
  7  8  1  0      
  8  9  1  0      
  9 10  1  0      
 10 11  1  0      
 11  7  1  0      
 11 12  2  0      
  9 13  1  0      
 13 14  1  0      
 13 15  2  0      
 14 16  1  0      
 16 17  2  0      
 17 18  1  0      
 18 19  2  0      
 19 20  1  0      
 20 21  2  0      
 21 16  1  0      
 19 22  1  0      
 22 23  1  0      
 23 24  1  0      
 24 20  1  0      
 17 25  1  0      
 25 26  1  0      
 26 27  1  0      
 27 28  1  0      
 28 29  1  0      
 22 30  1  0      
 24 31  1  0      
 23 32  2  0      
M  END
