SV_J4_0005.mol
  ChemDraw02072413082D

 31 34  0  0  1  0  0  0  0  0999 V2000
   -0.5075    1.9226    0.0000 C   0  0  0  0  0  0  0  0  0  0  0  0
   -0.5075    1.0976    0.0000 C   0  0  0  0  0  0  0  0  0  0  0  0
    0.2070    0.6851    0.0000 C   0  0  0  0  0  0  0  0  0  0  0  0
    0.9215    1.0976    0.0000 C   0  0  0  0  0  0  0  0  0  0  0  0
    0.9215    1.9226    0.0000 C   0  0  0  0  0  0  0  0  0  0  0  0
    0.2070    2.3351    0.0000 O   0  0  0  0  0  0  0  0  0  0  0  0
    1.6359    0.6851    0.0000 C   0  0  0  0  0  0  0  0  0  0  0  0
    2.3504    1.0976    0.0000 C   0  0  0  0  0  0  0  0  0  0  0  0
    2.3504    1.9226    0.0000 C   0  0  0  0  0  0  0  0  0  0  0  0
    1.6359    2.3351    0.0000 C   0  0  0  0  0  0  0  0  0  0  0  0
    1.6359   -0.1399    0.0000 O   0  0  0  0  0  0  0  0  0  0  0  0
    2.3504   -0.5524    0.0000 C   0  0  0  0  0  0  0  0  0  0  0  0
    3.0649   -0.1399    0.0000 C   0  0  0  0  0  0  0  0  0  0  0  0
    3.0649    0.6851    0.0000 C   0  0  0  0  0  0  0  0  0  0  0  0
    3.7794    1.0976    0.0000 O   0  0  0  0  0  0  0  0  0  0  0  0
    3.0649    2.3351    0.0000 O   0  0  0  0  0  0  0  0  0  0  0  0
   -1.3044    1.7090    0.0000 C   0  0  0  0  0  0  0  0  0  0  0  0
   -0.7210    2.7194    0.0000 C   0  0  0  0  0  0  0  0  0  0  0  0
    2.3504   -1.3774    0.0000 C   0  0  0  0  0  0  0  0  0  0  0  0
    1.6359   -1.7899    0.0000 C   0  0  0  0  0  0  0  0  0  0  0  0
    1.6359   -2.6149    0.0000 C   0  0  0  0  0  0  0  0  0  0  0  0
    2.3504   -3.0274    0.0000 C   0  0  0  0  0  0  0  0  0  0  0  0
    3.0649   -2.6149    0.0000 C   0  0  0  0  0  0  0  0  0  0  0  0
    3.0649   -1.7899    0.0000 C   0  0  0  0  0  0  0  0  0  0  0  0
    2.3504   -3.8524    0.0000 O   0  0  0  0  0  0  0  0  0  0  0  0
    3.7794   -1.3774    0.0000 O   0  0  0  0  0  0  0  0  0  0  0  0
   -1.7169    2.4235    0.0000 C   0  0  0  0  0  0  0  0  0  0  0  0
   -2.5419    2.4235    0.0000 C   0  0  0  0  0  0  0  0  0  0  0  0
   -2.9544    3.1380    0.0000 C   0  0  0  0  0  0  0  0  0  0  0  0
   -3.7794    3.1380    0.0000 C   0  0  0  0  0  0  0  0  0  0  0  0
   -2.5419    3.8524    0.0000 C   0  0  0  0  0  0  0  0  0  0  0  0
  1  2  1  0      
  2  3  2  0      
  3  4  1  0      
  4  5  2  0      
  5  6  1  0      
  6  1  1  0      
  4  7  1  0      
  7  8  2  0      
  8  9  1  0      
  9 10  2  0      
 10  5  1  0      
  7 11  1  0      
 12 11  1  6      
 12 13  1  0      
 13 14  1  0      
 14  8  1  0      
 14 15  2  0      
  9 16  1  0      
  1 17  1  1      
  1 18  1  6      
 12 19  1  1      
 19 20  2  0      
 20 21  1  0      
 21 22  2  0      
 22 23  1  0      
 23 24  2  0      
 24 19  1  0      
 22 25  1  0      
 24 26  1  0      
 17 27  1  0      
 27 28  1  0      
 28 29  2  0      
 29 30  1  0      
 29 31  1  0      
M  END
