SV_J27_0001.mol
  ChemDraw04112412272D

 54 60  0  0  0  0  0  0  0  0999 V2000
   -0.8381   -0.1088    0.0000 C   0  0  0  0  0  0  0  0  0  0  0  0
    0.3967   -0.2315    0.0000 C   0  0  0  0  0  0  0  0  0  0  0  0
    1.0679    0.2482    0.0000 C   0  0  0  0  0  0  0  0  0  0  0  0
    0.5043    0.8507    0.0000 C   0  0  0  0  0  0  0  0  0  0  0  0
   -0.7305    0.9734    0.0000 C   0  0  0  0  0  0  0  0  0  0  0  0
   -1.4017    0.4937    0.0000 C   0  0  0  0  0  0  0  0  0  0  0  0
    1.2187    1.2632    0.0000 C   0  0  0  0  0  0  0  0  0  0  0  0
    1.0052    2.0600    0.0000 N   0  0  0  0  0  0  0  0  0  0  0  0
    1.7197    2.4725    0.0000 C   0  0  0  0  0  0  0  0  0  0  0  0
    1.7197    3.2975    0.0000 C   0  0  0  0  0  0  0  0  0  0  0  0
    2.3871    3.7825    0.0000 C   0  0  0  0  0  0  0  0  0  0  0  0
    2.1322    4.5671    0.0000 C   0  0  0  0  0  0  0  0  0  0  0  0
    1.3072    4.5671    0.0000 C   0  0  0  0  0  0  0  0  0  0  0  0
    1.0522    3.7825    0.0000 N   0  0  0  0  0  0  0  0  0  0  0  0
    1.8888    0.1666    0.0000 C   0  0  0  0  0  0  0  0  0  0  0  0
    2.4722   -0.4168    0.0000 N   0  0  0  0  0  0  0  0  0  0  0  0
    3.0555   -1.0002    0.0000 C   0  0  0  0  0  0  0  0  0  0  0  0
    3.2691   -1.7971    0.0000 C   0  0  0  0  0  0  0  0  0  0  0  0
    2.7070   -2.4009    0.0000 N   0  0  0  0  0  0  0  0  0  0  0  0
    3.1076   -3.1221    0.0000 C   0  0  0  0  0  0  0  0  0  0  0  0
    3.9173   -2.9640    0.0000 C   0  0  0  0  0  0  0  0  0  0  0  0
    4.0171   -2.1451    0.0000 C   0  0  0  0  0  0  0  0  0  0  0  0
    1.1111   -0.6440    0.0000 C   0  0  0  0  0  0  0  0  0  0  0  0
    1.8618    0.9496    0.0000 N   0  0  0  0  0  0  0  0  0  0  0  0
    2.6587    1.1631    0.0000 C   0  0  0  0  0  0  0  0  0  0  0  0
    2.8722    1.9600    0.0000 C   0  0  0  0  0  0  0  0  0  0  0  0
    3.6341    2.2764    0.0000 C   0  0  0  0  0  0  0  0  0  0  0  0
    3.5686    3.0988    0.0000 C   0  0  0  0  0  0  0  0  0  0  0  0
    2.7663    3.2907    0.0000 C   0  0  0  0  0  0  0  0  0  0  0  0
    2.3358    2.5869    0.0000 N   0  0  0  0  0  0  0  0  0  0  0  0
   -2.2227    0.5753    0.0000 C   0  0  0  0  0  0  0  0  0  0  0  0
   -2.6352    1.2898    0.0000 N   0  0  0  0  0  0  0  0  0  0  0  0
   -3.3496    1.7023    0.0000 C   0  0  0  0  0  0  0  0  0  0  0  0
   -3.3496    2.5273    0.0000 C   0  0  0  0  0  0  0  0  0  0  0  0
   -2.6822    3.0122    0.0000 N   0  0  0  0  0  0  0  0  0  0  0  0
   -2.9371    3.7968    0.0000 C   0  0  0  0  0  0  0  0  0  0  0  0
   -3.7621    3.7968    0.0000 C   0  0  0  0  0  0  0  0  0  0  0  0
   -4.0171    3.0122    0.0000 C   0  0  0  0  0  0  0  0  0  0  0  0
   -1.4450    1.3859    0.0000 C   0  0  0  0  0  0  0  0  0  0  0  0
   -2.5000   -0.5120    0.0000 N   0  0  0  0  0  0  0  0  0  0  0  0
   -2.9125   -1.2265    0.0000 C   0  0  0  0  0  0  0  0  0  0  0  0
   -2.9125   -2.0515    0.0000 C   0  0  0  0  0  0  0  0  0  0  0  0
   -3.5799   -2.5364    0.0000 C   0  0  0  0  0  0  0  0  0  0  0  0
   -3.3250   -3.3210    0.0000 C   0  0  0  0  0  0  0  0  0  0  0  0
   -2.5000   -3.3210    0.0000 C   0  0  0  0  0  0  0  0  0  0  0  0
   -2.2450   -2.5364    0.0000 N   0  0  0  0  0  0  0  0  0  0  0  0
   -1.2506   -0.8232    0.0000 C   0  0  0  0  0  0  0  0  0  0  0  0
   -1.2506   -1.6482    0.0000 N   0  0  0  0  0  0  0  0  0  0  0  0
   -1.4641   -2.4451    0.0000 C   0  0  0  0  0  0  0  0  0  0  0  0
   -1.2506   -3.2420    0.0000 C   0  0  0  0  0  0  0  0  0  0  0  0
   -1.8127   -3.8459    0.0000 C   0  0  0  0  0  0  0  0  0  0  0  0
   -1.4121   -4.5671    0.0000 C   0  0  0  0  0  0  0  0  0  0  0  0
   -0.6024   -4.4090    0.0000 C   0  0  0  0  0  0  0  0  0  0  0  0
   -0.5026   -3.5900    0.0000 N   0  0  0  0  0  0  0  0  0  0  0  0
  1  2  4  0      
  3  2  4  0      
  3  4  4  0      
  4  5  4  0      
  5  6  4  0      
  6  1  4  0      
  4  7  1  0      
  7  8  1  0      
  8  9  1  0      
  9 10  1  0      
 10 11  2  0      
 11 12  1  0      
 12 13  2  0      
 13 14  1  1      
 10 14  1  1      
  3 15  1  0      
 15 16  1  0      
 16 17  1  0      
 17 18  1  0      
 18 19  1  0      
 19 20  1  0      
 20 21  2  0      
 21 22  1  0      
 22 18  2  0      
  2 23  1  0      
 23 24  1  0      
 24 25  1  0      
 25 26  1  0      
 26 27  2  0      
 27 28  1  1      
 28 29  2  0      
 29 30  1  0      
 30 26  1  0      
  6 31  1  0      
 31 32  1  0      
 32 33  1  0      
 33 34  1  0      
 34 35  1  0      
 35 36  1  0      
 36 37  2  0      
 37 38  1  0      
 38 34  2  0      
  5 39  1  0      
 39 40  1  0      
 40 41  1  0      
 41 42  1  0      
 42 43  2  0      
 43 44  1  0      
 44 45  2  0      
 45 46  1  1      
 46 42  1  1      
  1 47  1  0      
 47 48  1  0      
 48 49  1  0      
 49 50  1  0      
 50 51  2  0      
 51 52  1  1      
 52 53  2  0      
 53 54  1  0      
 54 50  1  0      
M  END
