SV_J8_0001.mol
  ChemDraw04112416302D

 34 38  0  0  0  0  0  0  0  0999 V2000
   -6.2889    1.0312    0.0000 C   0  0  0  0  0  0  0  0  0  0  0  0
   -6.2889    0.2062    0.0000 C   0  0  0  0  0  0  0  0  0  0  0  0
   -5.5745   -0.2062    0.0000 C   0  0  0  0  0  0  0  0  0  0  0  0
   -4.8600    0.2062    0.0000 C   0  0  0  0  0  0  0  0  0  0  0  0
   -4.8600    1.0312    0.0000 C   0  0  0  0  0  0  0  0  0  0  0  0
   -5.5745    1.4437    0.0000 C   0  0  0  0  0  0  0  0  0  0  0  0
   -4.1455   -0.2062    0.0000 N   0  0  0  0  0  0  0  0  0  0  0  0
   -3.4310    0.2062    0.0000 C   0  0  0  0  0  0  0  0  0  0  0  0
   -2.7166   -0.2062    0.0000 C   0  0  0  0  0  0  0  0  0  0  0  0
   -3.4310    1.0312    0.0000 O   0  0  0  0  0  0  0  0  0  0  0  0
   -2.7166   -1.0312    0.0000 C   0  0  0  0  0  0  0  0  0  0  0  0
   -2.0021   -1.4437    0.0000 C   0  0  0  0  0  0  0  0  0  0  0  0
   -1.2876   -1.0312    0.0000 C   0  0  0  0  0  0  0  0  0  0  0  0
   -1.2876   -0.2062    0.0000 N   0  0  0  0  0  0  0  0  0  0  0  0
   -2.0021    0.2063    0.0000 C   0  0  0  0  0  0  0  0  0  0  0  0
   -0.5732    0.2062    0.0000 C   0  0  0  0  0  0  0  0  0  0  0  0
    0.1413   -0.2062    0.0000 C   0  0  0  0  0  0  0  0  0  0  0  0
   -0.5732    1.0312    0.0000 O   0  0  0  0  0  0  0  0  0  0  0  0
    0.2276   -1.0267    0.0000 N   0  0  0  0  0  0  0  0  0  0  0  0
    1.0345   -1.1983    0.0000 N   0  0  0  0  0  0  0  0  0  0  0  0
    1.4470   -0.4838    0.0000 C   0  0  0  0  0  0  0  0  0  0  0  0
    0.8950    0.1293    0.0000 S   0  0  0  0  0  0  0  0  0  0  0  0
    2.1615   -0.0713    0.0000 C   0  0  0  0  0  0  0  0  0  0  0  0
    2.8760   -0.4838    0.0000 N   0  0  0  0  0  0  0  0  0  0  0  0
    2.1615    0.7537    0.0000 O   0  0  0  0  0  0  0  0  0  0  0  0
    3.5904   -0.0713    0.0000 C   0  0  0  0  0  0  0  0  0  0  0  0
    4.3049   -0.4838    0.0000 C   0  0  0  0  0  0  0  0  0  0  0  0
    5.0194   -0.0713    0.0000 C   0  0  0  0  0  0  0  0  0  0  0  0
    5.0194    0.7537    0.0000 C   0  0  0  0  0  0  0  0  0  0  0  0
    4.3049    1.1662    0.0000 C   0  0  0  0  0  0  0  0  0  0  0  0
    3.5904    0.7537    0.0000 C   0  0  0  0  0  0  0  0  0  0  0  0
    5.8040   -0.3262    0.0000 O   0  0  0  0  0  0  0  0  0  0  0  0
    6.2889    0.3412    0.0000 C   0  0  0  0  0  0  0  0  0  0  0  0
    5.8040    1.0087    0.0000 O   0  0  0  0  0  0  0  0  0  0  0  0
  1  2  2  0      
  2  3  1  0      
  3  4  2  0      
  4  5  1  0      
  5  6  2  0      
  6  1  1  0      
  4  7  1  0      
  7  8  1  0      
  8  9  1  0      
  8 10  2  0      
  9 11  1  0      
 11 12  1  0      
 12 13  1  0      
 13 14  1  0      
 14 15  1  0      
 15  9  1  0      
 14 16  1  0      
 16 17  1  0      
 16 18  2  0      
 17 19  2  0      
 19 20  1  0      
 20 21  2  0      
 21 22  1  0      
 22 17  1  0      
 21 23  1  0      
 23 24  1  0      
 23 25  2  0      
 24 26  1  0      
 26 27  2  0      
 27 28  1  0      
 28 29  2  0      
 29 30  1  0      
 30 31  2  0      
 31 26  1  0      
 28 32  1  0      
 32 33  1  0      
 33 34  1  0      
 34 29  1  0      
M  END
