SV_J12_0005
  -OEChem-07172407042D

108109  0     1  0  0  0  0  0999 V2000
    9.4651    1.3450    0.0000 O   0  0  0  0  0  0  0  0  0  0  0  0
   10.3312   -2.1550    0.0000 O   0  0  0  0  0  0  0  0  0  0  0  0
    6.0010   -1.6550    0.0000 O   0  0  0  0  0  0  0  0  0  0  0  0
    8.5991    2.8450    0.0000 O   0  0  0  0  0  0  0  0  0  0  0  0
   12.9292    2.3450    0.0000 O   0  0  0  0  0  0  0  0  0  0  0  0
    6.8671   -3.1550    0.0000 O   0  0  0  0  0  0  0  0  0  0  0  0
    9.4651   -0.6550    0.0000 N   0  0  0  0  0  0  0  0  0  0  0  0
   11.1972    1.3450    0.0000 N   0  0  0  0  0  0  0  0  0  0  0  0
    8.5991   -3.1550    0.0000 N   0  0  0  0  0  0  0  0  0  0  0  0
   12.0632    3.8450    0.0000 N   0  0  0  0  0  0  0  0  0  0  0  0
    5.1350   -2.1550    0.0000 N   0  0  0  0  0  0  0  0  0  0  0  0
    7.7331    2.3450    0.0000 N   0  0  0  0  0  0  0  0  0  0  0  0
    3.4030   -2.1550    0.0000 N   0  0  0  0  0  0  0  0  0  0  0  0
    4.2690   -0.6550    0.0000 N   0  0  0  0  0  0  0  0  0  0  0  0
    6.0010    2.3450    0.0000 N   0  0  0  0  0  0  0  0  0  0  0  0
    6.8671    3.8450    0.0000 N   0  0  0  0  0  0  0  0  0  0  0  0
    4.2690   -7.6550    0.0000 N   0  0  0  0  0  0  0  0  0  0  0  0
   13.7953    8.8450    0.0000 N   0  0  0  0  0  0  0  0  0  0  0  0
   12.0632    8.8450    0.0000 N   0  0  0  0  0  0  0  0  0  0  0  0
    3.4030   -9.1550    0.0000 N   0  0  0  0  0  0  0  0  0  0  0  0
    2.5369   -7.6550    0.0000 N   0  0  0  0  0  0  0  0  0  0  0  0
   11.1972   -0.6550    0.0000 C   0  0  0  0  0  0  0  0  0  0  0  0
   10.3312   -0.1550    0.0000 C   0  0  1  0  0  0  0  0  0  0  0  0
   12.0632   -1.1550    0.0000 C   0  0  0  0  0  0  0  0  0  0  0  0
   10.6972   -1.5210    0.0000 C   0  0  0  0  0  0  0  0  0  0  0  0
   11.6972    0.2110    0.0000 C   0  0  0  0  0  0  0  0  0  0  0  0
   10.3312    0.8450    0.0000 C   0  0  0  0  0  0  0  0  0  0  0  0
    9.4651   -1.6550    0.0000 C   0  0  0  0  0  0  0  0  0  0  0  0
    8.5991   -2.1550    0.0000 C   0  0  2  0  0  0  0  0  0  0  0  0
   11.1972    2.3450    0.0000 C   0  0  1  0  0  0  0  0  0  0  0  0
    7.7331   -1.6550    0.0000 C   0  0  0  0  0  0  0  0  0  0  0  0
   10.3312    2.8450    0.0000 C   0  0  0  0  0  0  0  0  0  0  0  0
   12.0632    2.8450    0.0000 C   0  0  0  0  0  0  0  0  0  0  0  0
    6.8671   -2.1550    0.0000 C   0  0  0  0  0  0  0  0  0  0  0  0
    9.4651    2.3450    0.0000 C   0  0  0  0  0  0  0  0  0  0  0  0
    7.7331   -3.6550    0.0000 C   0  0  0  0  0  0  0  0  0  0  0  0
    7.7331   -4.6550    0.0000 C   0  0  0  0  0  0  0  0  0  0  0  0
   12.9292    4.3450    0.0000 C   0  0  0  0  0  0  0  0  0  0  0  0
    6.8671   -5.1550    0.0000 C   0  0  0  0  0  0  0  0  0  0  0  0
   12.9292    5.3450    0.0000 C   0  0  0  0  0  0  0  0  0  0  0  0
    6.8671   -6.1550    0.0000 C   0  0  0  0  0  0  0  0  0  0  0  0
    6.0010   -4.6550    0.0000 C   0  0  0  0  0  0  0  0  0  0  0  0
   13.7953    5.8450    0.0000 C   0  0  0  0  0  0  0  0  0  0  0  0
   12.0632    5.8450    0.0000 C   0  0  0  0  0  0  0  0  0  0  0  0
    6.0010   -6.6550    0.0000 C   0  0  0  0  0  0  0  0  0  0  0  0
    5.1350   -5.1550    0.0000 C   0  0  0  0  0  0  0  0  0  0  0  0
    5.1350   -6.1550    0.0000 C   0  0  0  0  0  0  0  0  0  0  0  0
   13.7953    6.8450    0.0000 C   0  0  0  0  0  0  0  0  0  0  0  0
   12.0632    6.8450    0.0000 C   0  0  0  0  0  0  0  0  0  0  0  0
   12.9292    7.3450    0.0000 C   0  0  0  0  0  0  0  0  0  0  0  0
    4.2690   -6.6550    0.0000 C   0  0  0  0  0  0  0  0  0  0  0  0
    4.2690   -1.6550    0.0000 C   0  0  0  0  0  0  0  0  0  0  0  0
    6.8671    2.8450    0.0000 C   0  0  0  0  0  0  0  0  0  0  0  0
   12.9292    8.3450    0.0000 C   0  0  0  0  0  0  0  0  0  0  0  0
    3.4030   -8.1550    0.0000 C   0  0  0  0  0  0  0  0  0  0  0  0
    9.7942    0.1550    0.0000 H   0  0  0  0  0  0  0  0  0  0  0  0
   11.7532   -1.6919    0.0000 H   0  0  0  0  0  0  0  0  0  0  0  0
   12.6002   -1.4650    0.0000 H   0  0  0  0  0  0  0  0  0  0  0  0
   12.3732   -0.6181    0.0000 H   0  0  0  0  0  0  0  0  0  0  0  0
   10.1603   -1.2110    0.0000 H   0  0  0  0  0  0  0  0  0  0  0  0
   10.3872   -2.0580    0.0000 H   0  0  0  0  0  0  0  0  0  0  0  0
   11.2341   -1.8310    0.0000 H   0  0  0  0  0  0  0  0  0  0  0  0
   12.2341   -0.0990    0.0000 H   0  0  0  0  0  0  0  0  0  0  0  0
   12.0072    0.7480    0.0000 H   0  0  0  0  0  0  0  0  0  0  0  0
   11.1603    0.5210    0.0000 H   0  0  0  0  0  0  0  0  0  0  0  0
    8.9282   -0.3450    0.0000 H   0  0  0  0  0  0  0  0  0  0  0  0
   11.7341    1.0350    0.0000 H   0  0  0  0  0  0  0  0  0  0  0  0
    8.0622   -2.4650    0.0000 H   0  0  0  0  0  0  0  0  0  0  0  0
   10.6603    2.0350    0.0000 H   0  0  0  0  0  0  0  0  0  0  0  0
    8.1316   -1.1800    0.0000 H   0  0  0  0  0  0  0  0  0  0  0  0
    7.3346   -1.1800    0.0000 H   0  0  0  0  0  0  0  0  0  0  0  0
   10.7297    3.3200    0.0000 H   0  0  0  0  0  0  0  0  0  0  0  0
    9.9326    3.3200    0.0000 H   0  0  0  0  0  0  0  0  0  0  0  0
    9.1360   -3.4650    0.0000 H   0  0  0  0  0  0  0  0  0  0  0  0
    6.4685   -2.6300    0.0000 H   0  0  0  0  0  0  0  0  0  0  0  0
    7.2656   -2.6300    0.0000 H   0  0  0  0  0  0  0  0  0  0  0  0
    9.0666    1.8700    0.0000 H   0  0  0  0  0  0  0  0  0  0  0  0
    9.8637    1.8700    0.0000 H   0  0  0  0  0  0  0  0  0  0  0  0
   11.5263    4.1550    0.0000 H   0  0  0  0  0  0  0  0  0  0  0  0
    7.9451   -5.2376    0.0000 H   0  0  0  0  0  0  0  0  0  0  0  0
    8.3437   -4.5473    0.0000 H   0  0  0  0  0  0  0  0  0  0  0  0
   13.1413    3.7624    0.0000 H   0  0  0  0  0  0  0  0  0  0  0  0
   13.5398    4.4527    0.0000 H   0  0  0  0  0  0  0  0  0  0  0  0
    7.4040   -6.4650    0.0000 H   0  0  0  0  0  0  0  0  0  0  0  0
    6.0010   -4.0350    0.0000 H   0  0  0  0  0  0  0  0  0  0  0  0
   14.3322    5.5350    0.0000 H   0  0  0  0  0  0  0  0  0  0  0  0
   11.5263    5.5350    0.0000 H   0  0  0  0  0  0  0  0  0  0  0  0
    6.0010   -7.2750    0.0000 H   0  0  0  0  0  0  0  0  0  0  0  0
    4.5981   -4.8450    0.0000 H   0  0  0  0  0  0  0  0  0  0  0  0
   14.3322    7.1550    0.0000 H   0  0  0  0  0  0  0  0  0  0  0  0
   11.5263    7.1550    0.0000 H   0  0  0  0  0  0  0  0  0  0  0  0
    4.0569   -6.0724    0.0000 H   0  0  0  0  0  0  0  0  0  0  0  0
    3.6584   -6.7627    0.0000 H   0  0  0  0  0  0  0  0  0  0  0  0
    2.8660   -1.8450    0.0000 H   0  0  0  0  0  0  0  0  0  0  0  0
    3.4030   -2.7750    0.0000 H   0  0  0  0  0  0  0  0  0  0  0  0
    3.7320   -0.3450    0.0000 H   0  0  0  0  0  0  0  0  0  0  0  0
    4.8059   -0.3450    0.0000 H   0  0  0  0  0  0  0  0  0  0  0  0
    5.4641    2.6550    0.0000 H   0  0  0  0  0  0  0  0  0  0  0  0
    6.0010    1.7250    0.0000 H   0  0  0  0  0  0  0  0  0  0  0  0
    6.3301    4.1550    0.0000 H   0  0  0  0  0  0  0  0  0  0  0  0
    7.4040    4.1550    0.0000 H   0  0  0  0  0  0  0  0  0  0  0  0
   13.7953    9.4650    0.0000 H   0  0  0  0  0  0  0  0  0  0  0  0
   14.3322    8.5350    0.0000 H   0  0  0  0  0  0  0  0  0  0  0  0
   12.0632    9.4650    0.0000 H   0  0  0  0  0  0  0  0  0  0  0  0
    2.8660   -9.4650    0.0000 H   0  0  0  0  0  0  0  0  0  0  0  0
    3.9399   -9.4650    0.0000 H   0  0  0  0  0  0  0  0  0  0  0  0
    2.0000   -7.9650    0.0000 H   0  0  0  0  0  0  0  0  0  0  0  0
    2.5369   -7.0350    0.0000 H   0  0  0  0  0  0  0  0  0  0  0  0
  1 27  2  0  0  0  0
  2 28  2  0  0  0  0
  3 11  1  0  0  0  0
  3 34  1  0  0  0  0
  4 12  1  0  0  0  0
  4 35  1  0  0  0  0
  5 33  2  0  0  0  0
  6 36  2  0  0  0  0
 23  7  1  6  0  0  0
  7 28  1  0  0  0  0
  7 66  1  0  0  0  0
  8 27  1  0  0  0  0
 30  8  1  1  0  0  0
  8 67  1  0  0  0  0
 29  9  1  1  0  0  0
  9 36  1  0  0  0  0
  9 74  1  0  0  0  0
 10 33  1  0  0  0  0
 10 38  1  0  0  0  0
 10 79  1  0  0  0  0
 11 52  2  0  0  0  0
 12 53  2  0  0  0  0
 13 52  1  0  0  0  0
 13 94  1  0  0  0  0
 13 95  1  0  0  0  0
 14 52  1  0  0  0  0
 14 96  1  0  0  0  0
 14 97  1  0  0  0  0
 15 53  1  0  0  0  0
 15 98  1  0  0  0  0
 15 99  1  0  0  0  0
 16 53  1  0  0  0  0
 16100  1  0  0  0  0
 16101  1  0  0  0  0
 17 51  1  0  0  0  0
 17 55  2  0  0  0  0
 18 54  1  0  0  0  0
 18102  1  0  0  0  0
 18103  1  0  0  0  0
 19 54  2  0  0  0  0
 19104  1  0  0  0  0
 20 55  1  0  0  0  0
 20105  1  0  0  0  0
 20106  1  0  0  0  0
 21 55  1  0  0  0  0
 21107  1  0  0  0  0
 21108  1  0  0  0  0
 22 23  1  0  0  0  0
 22 24  1  0  0  0  0
 22 25  1  0  0  0  0
 22 26  1  0  0  0  0
 23 27  1  0  0  0  0
 23 56  1  0  0  0  0
 24 57  1  0  0  0  0
 24 58  1  0  0  0  0
 24 59  1  0  0  0  0
 25 60  1  0  0  0  0
 25 61  1  0  0  0  0
 25 62  1  0  0  0  0
 26 63  1  0  0  0  0
 26 64  1  0  0  0  0
 26 65  1  0  0  0  0
 28 29  1  0  0  0  0
 29 31  1  0  0  0  0
 29 68  1  0  0  0  0
 30 32  1  0  0  0  0
 30 33  1  0  0  0  0
 30 69  1  0  0  0  0
 31 34  1  0  0  0  0
 31 70  1  0  0  0  0
 31 71  1  0  0  0  0
 32 35  1  0  0  0  0
 32 72  1  0  0  0  0
 32 73  1  0  0  0  0
 34 75  1  0  0  0  0
 34 76  1  0  0  0  0
 35 77  1  0  0  0  0
 35 78  1  0  0  0  0
 36 37  1  0  0  0  0
 37 39  1  0  0  0  0
 37 80  1  0  0  0  0
 37 81  1  0  0  0  0
 38 40  1  0  0  0  0
 38 82  1  0  0  0  0
 38 83  1  0  0  0  0
 39 41  2  0  0  0  0
 39 42  1  0  0  0  0
 40 43  2  0  0  0  0
 40 44  1  0  0  0  0
 41 45  1  0  0  0  0
 41 84  1  0  0  0  0
 42 46  2  0  0  0  0
 42 85  1  0  0  0  0
 43 48  1  0  0  0  0
 43 86  1  0  0  0  0
 44 49  2  0  0  0  0
 44 87  1  0  0  0  0
 45 47  2  0  0  0  0
 45 88  1  0  0  0  0
 46 47  1  0  0  0  0
 46 89  1  0  0  0  0
 47 51  1  0  0  0  0
 48 50  2  0  0  0  0
 48 90  1  0  0  0  0
 49 50  1  0  0  0  0
 49 91  1  0  0  0  0
 50 54  1  0  0  0  0
 51 92  1  0  0  0  0
 51 93  1  0  0  0  0
M  END
> <PUBCHEM_COMPOUND_CID>
162670362

> <PUBCHEM_COMPOUND_CANONICALIZED>
1

> <PUBCHEM_CACTVS_COMPLEXITY>
1360

> <PUBCHEM_CACTVS_HBOND_ACCEPTOR>
10

> <PUBCHEM_CACTVS_HBOND_DONOR>
12

> <PUBCHEM_CACTVS_ROTATABLE_BOND>
22

> <PUBCHEM_CACTVS_SUBSKEYS>
AAADcfB/+AAAAAAAAAAAAAAAAAAAAAAAAAAwYAAAAAAAAAABQAAAHgAUAAAADijhmAYzAILQAACoAiNyNACCAAGgAAAIiIGoBJgIYLKAlTGUIAhmlgCIiAc6iMCPQAAAAAAAAACAAAAAAAAAAAAAAAAAAA==

> <PUBCHEM_IUPAC_OPENEYE_NAME>
(2S)-N-[(1S)-1-[(4-carbamimidoylphenyl)methylcarbamoyl]-3-guanidinooxy-propyl]-2-[[(2S)-2-[[2-[4-(guanidinomethyl)phenyl]acetyl]amino]-4-guanidinooxy-butanoyl]amino]-3,3-dimethyl-butanamide

> <PUBCHEM_IUPAC_CAS_NAME>
(2S)-N-[(2S)-1-[(4-carbamimidoylphenyl)methylamino]-4-(diaminomethylideneamino)oxy-1-oxobutan-2-yl]-2-[[(2S)-2-[[2-[4-[(diaminomethylideneamino)methyl]phenyl]-1-oxoethyl]amino]-4-(diaminomethylideneamino)oxy-1-oxobutyl]amino]-3,3-dimethylbutanamide

> <PUBCHEM_IUPAC_NAME_MARKUP>
(2<I>S</I>)-<I>N</I>-[(2<I>S</I>)-1-[(4-carbamimidoylphenyl)methylamino]-4-(diaminomethylideneamino)oxy-1-oxobutan-2-yl]-2-[[(2<I>S</I>)-2-[[2-[4-[(diaminomethylideneamino)methyl]phenyl]acetyl]amino]-4-(diaminomethylideneamino)oxybutanoyl]amino]-3,3-dimethylbutanamide

> <PUBCHEM_IUPAC_NAME>
(2S)-N-[(2S)-1-[(4-carbamimidoylphenyl)methylamino]-4-(diaminomethylideneamino)oxy-1-oxobutan-2-yl]-2-[[(2S)-2-[[2-[4-[(diaminomethylideneamino)methyl]phenyl]acetyl]amino]-4-(diaminomethylideneamino)oxybutanoyl]amino]-3,3-dimethylbutanamide

> <PUBCHEM_IUPAC_SYSTEMATIC_NAME>
(2S)-2-[[(2S)-2-[2-[4-[[bis(azanyl)methylideneamino]methyl]phenyl]ethanoylamino]-4-[bis(azanyl)methylideneamino]oxy-butanoyl]amino]-N-[(2S)-4-[bis(azanyl)methylideneamino]oxy-1-[(4-carbamimidoylphenyl)methylamino]-1-oxidanylidene-butan-2-yl]-3,3-dimethyl-butanamide

> <PUBCHEM_IUPAC_TRADITIONAL_NAME>
(2S)-N-[(1S)-1-[(4-amidinobenzyl)carbamoyl]-3-guanidinooxy-propyl]-2-[[(2S)-2-[[2-[4-(guanidinomethyl)phenyl]acetyl]amino]-4-guanidinooxy-butanoyl]amino]-3,3-dimethyl-butyramide

> <PUBCHEM_IUPAC_INCHI>
InChI=1S/C34H53N15O6/c1-34(2,3)26(30(53)46-23(12-14-54-48-32(39)40)28(51)43-17-21-8-10-22(11-9-21)27(35)36)47-29(52)24(13-15-55-49-33(41)42)45-25(50)16-19-4-6-20(7-5-19)18-44-31(37)38/h4-11,23-24,26H,12-18H2,1-3H3,(H3,35,36)(H,43,51)(H,45,50)(H,46,53)(H,47,52)(H4,37,38,44)(H4,39,40,48)(H4,41,42,49)/t23-,24-,26+/m0/s1

> <PUBCHEM_IUPAC_INCHIKEY>
ZMOPQXUTSHXPGZ-KYPHJKQUSA-N

> <PUBCHEM_XLOGP3_AA>
-1.6

> <PUBCHEM_EXACT_MASS>
767.43032447

> <PUBCHEM_MOLECULAR_FORMULA>
C34H53N15O6

> <PUBCHEM_MOLECULAR_WEIGHT>
767.9

> <PUBCHEM_OPENEYE_CAN_SMILES>
CC(C)(C)C(C(=O)NC(CCON=C(N)N)C(=O)NCC1=CC=C(C=C1)C(=N)N)NC(=O)C(CCON=C(N)N)NC(=O)CC2=CC=C(C=C2)CN=C(N)N

> <PUBCHEM_OPENEYE_ISO_SMILES>
CC(C)(C)[C@@H](C(=O)N[C@@H](CCON=C(N)N)C(=O)NCC1=CC=C(C=C1)C(=N)N)NC(=O)[C@H](CCON=C(N)N)NC(=O)CC2=CC=C(C=C2)CN=C(N)N

> <PUBCHEM_CACTVS_TPSA>
378

> <PUBCHEM_MONOISOTOPIC_WEIGHT>
767.43032447

> <PUBCHEM_TOTAL_CHARGE>
0

> <PUBCHEM_HEAVY_ATOM_COUNT>
55

> <PUBCHEM_ATOM_DEF_STEREO_COUNT>
3

> <PUBCHEM_ATOM_UDEF_STEREO_COUNT>
0

> <PUBCHEM_BOND_DEF_STEREO_COUNT>
0

> <PUBCHEM_BOND_UDEF_STEREO_COUNT>
0

> <PUBCHEM_ISOTOPIC_ATOM_COUNT>
0

> <PUBCHEM_COMPONENT_COUNT>
1

> <PUBCHEM_CACTVS_TAUTO_COUNT>
-1

> <PUBCHEM_COORDINATE_TYPE>
1
5
255

> <PUBCHEM_BONDANNOTATIONS>
39  41  8
39  42  8
40  43  8
40  44  8
41  45  8
42  46  8
43  48  8
44  49  8
45  47  8
46  47  8
48  50  8
49  50  8
23  7  6
30  8  5
29  9  5

$$$$
