SV_J19_0008.mol
  ChemDraw04112415172D

 30 33  0  0  0  0  0  0  0  0999 V2000
   -3.2266   -1.4211    0.0000 C   0  0  0  0  0  0  0  0  0  0  0  0
   -3.2266   -2.2461    0.0000 C   0  0  0  0  0  0  0  0  0  0  0  0
   -2.5121   -2.6586    0.0000 C   0  0  0  0  0  0  0  0  0  0  0  0
   -1.7976   -2.2461    0.0000 C   0  0  0  0  0  0  0  0  0  0  0  0
   -1.7976   -1.4211    0.0000 C   0  0  0  0  0  0  0  0  0  0  0  0
   -2.5121   -1.0086    0.0000 C   0  0  0  0  0  0  0  0  0  0  0  0
   -3.9411   -2.6586    0.0000 C   0  0  0  0  0  0  0  0  0  0  0  0
   -4.1546   -3.4555    0.0000 C   0  0  0  0  0  0  0  0  0  0  0  0
   -4.5956   -2.1564    0.0000 O   0  0  0  0  0  0  0  0  0  0  0  0
   -1.0832   -1.0086    0.0000 N   0  0  0  0  0  0  0  0  0  0  0  0
   -0.2582   -1.0086    0.0000 C   0  0  0  0  0  0  0  0  0  0  0  0
    0.1543   -0.2941    0.0000 C   0  0  0  0  0  0  0  0  0  0  0  0
    0.1543   -1.7231    0.0000 O   0  0  0  0  0  0  0  0  0  0  0  0
    0.9793   -0.2941    0.0000 N   0  0  0  0  0  0  0  0  0  0  0  0
    1.4643   -0.9616    0.0000 N   0  0  0  0  0  0  0  0  0  0  0  0
    2.2489   -0.7066    0.0000 N   0  0  0  0  0  0  0  0  0  0  0  0
    2.2489    0.1184    0.0000 C   0  0  0  0  0  0  0  0  0  0  0  0
    1.4643    0.3733    0.0000 C   0  0  0  0  0  0  0  0  0  0  0  0
    2.9163    0.6033    0.0000 C   0  0  0  0  0  0  0  0  0  0  0  0
    3.1298    1.4002    0.0000 N   0  0  0  0  0  0  0  0  0  0  0  0
    3.8918    1.7166    0.0000 C   0  0  0  0  0  0  0  0  0  0  0  0
    3.8263    2.5390    0.0000 C   0  0  0  0  0  0  0  0  0  0  0  0
    3.0239    2.7308    0.0000 C   0  0  0  0  0  0  0  0  0  0  0  0
    2.5935    2.0270    0.0000 C   0  0  0  0  0  0  0  0  0  0  0  0
    4.5956    1.2861    0.0000 O   0  0  0  0  0  0  0  0  0  0  0  0
    4.4532    3.0753    0.0000 O   0  0  0  0  0  0  0  0  0  0  0  0
    2.5935    3.4555    0.0000 C   0  0  0  0  0  0  0  0  0  0  0  0
    1.7687    3.4555    0.0000 C   0  0  0  0  0  0  0  0  0  0  0  0
    1.3383    2.7308    0.0000 C   0  0  0  0  0  0  0  0  0  0  0  0
    1.7687    2.0270    0.0000 C   0  0  0  0  0  0  0  0  0  0  0  0
  1  2  2  0      
  2  3  1  0      
  3  4  2  0      
  4  5  1  0      
  5  6  2  0      
  6  1  1  0      
  2  7  1  0      
  7  8  1  0      
  7  9  2  0      
  5 10  1  0      
 10 11  1  0      
 11 12  1  0      
 11 13  2  0      
 12 14  1  0      
 14 15  1  0      
 15 16  2  0      
 16 17  1  0      
 17 18  2  0      
 18 14  1  0      
 17 19  1  0      
 19 20  1  0      
 20 21  1  0      
 21 22  1  0      
 22 23  1  0      
 23 24  2  0      
 24 20  1  0      
 21 25  2  0      
 22 26  2  0      
 23 27  1  0      
 27 28  2  0      
 28 29  1  0      
 29 30  2  0      
 30 24  1  0      
M  END
