SV_J5_0004.mol
  ChemDraw02072413362D

 26 28  0  0  0  0  0  0  0  0999 V2000
   -2.6727    0.4472    0.0000 C   0  0  0  0  0  0  0  0  0  0  0  0
   -2.6727   -0.3778    0.0000 C   0  0  0  0  0  0  0  0  0  0  0  0
   -1.9583   -0.7903    0.0000 C   0  0  0  0  0  0  0  0  0  0  0  0
   -1.2438   -0.3778    0.0000 C   0  0  0  0  0  0  0  0  0  0  0  0
   -1.2438    0.4472    0.0000 C   0  0  0  0  0  0  0  0  0  0  0  0
   -1.9583    0.8597    0.0000 C   0  0  0  0  0  0  0  0  0  0  0  0
   -0.5293   -0.7903    0.0000 C   0  0  0  0  0  0  0  0  0  0  0  0
   -3.3872    0.8597    0.0000 O   0  0  0  0  0  0  0  0  0  0  0  0
   -1.9583    1.6847    0.0000 O   0  0  0  0  0  0  0  0  0  0  0  0
   -1.1614    1.8982    0.0000 C   0  0  0  0  0  0  0  0  0  0  0  0
   -0.9478    2.6951    0.0000 C   0  0  0  0  0  0  0  0  0  0  0  0
   -0.4431   -1.6108    0.0000 N   0  0  0  0  0  0  0  0  0  0  0  0
    0.3639   -1.7823    0.0000 N   0  0  0  0  0  0  0  0  0  0  0  0
    0.7764   -1.0678    0.0000 C   0  0  0  0  0  0  0  0  0  0  0  0
    0.2244   -0.4548    0.0000 C   0  0  0  0  0  0  0  0  0  0  0  0
   -0.8556   -2.3253    0.0000 C   0  0  0  0  0  0  0  0  0  0  0  0
   -1.6525   -2.1117    0.0000 C   0  0  0  0  0  0  0  0  0  0  0  0
   -2.2358   -2.6951    0.0000 O   0  0  0  0  0  0  0  0  0  0  0  0
    1.5969   -0.9816    0.0000 C   0  0  0  0  0  0  0  0  0  0  0  0
    2.0818   -1.6491    0.0000 C   0  0  0  0  0  0  0  0  0  0  0  0
    2.9023   -1.5628    0.0000 C   0  0  0  0  0  0  0  0  0  0  0  0
    3.2378   -0.8091    0.0000 C   0  0  0  0  0  0  0  0  0  0  0  0
    2.7529   -0.1417    0.0000 C   0  0  0  0  0  0  0  0  0  0  0  0
    1.9324   -0.2279    0.0000 C   0  0  0  0  0  0  0  0  0  0  0  0
    1.7462   -2.4027    0.0000 O   0  0  0  0  0  0  0  0  0  0  0  0
    3.3872   -2.2303    0.0000 O   0  0  0  0  0  0  0  0  0  0  0  0
  1  2  2  0      
  2  3  1  0      
  3  4  2  0      
  4  5  1  0      
  5  6  2  0      
  6  1  1  0      
  4  7  1  0      
  1  8  1  0      
  6  9  1  0      
  9 10  1  0      
 10 11  1  0      
  7 12  1  0      
 12 13  1  0      
 13 14  2  0      
 14 15  1  0      
 15  7  2  0      
 12 16  1  0      
 16 17  1  0      
 17 18  1  0      
 14 19  1  0      
 19 20  2  0      
 20 21  1  0      
 21 22  2  0      
 22 23  1  0      
 23 24  2  0      
 24 19  1  0      
 20 25  1  0      
 21 26  1  0      
M  END
